# generated using pymatgen
data_Ce3NdSiSe3
_symmetry_space_group_name_H-M   'P 1'
_cell_length_a   7.33329117
_cell_length_b   7.33329076
_cell_length_c   7.33329008
_cell_angle_alpha   131.91353658
_cell_angle_beta   132.00047059
_cell_angle_gamma   70.29696243
_symmetry_Int_Tables_number   1
_chemical_formula_structural   Ce3NdSiSe3
_chemical_formula_sum   'Ce3 Nd1 Si1 Se3'
_cell_volume   213.74148606
_cell_formula_units_Z   1
loop_
 _symmetry_equiv_pos_site_id
 _symmetry_equiv_pos_as_xyz
  1  'x, y, z'
loop_
 _atom_site_type_symbol
 _atom_site_label
 _atom_site_symmetry_multiplicity
 _atom_site_fract_x
 _atom_site_fract_y
 _atom_site_fract_z
 _atom_site_occupancy
  Ce  Ce0  1  0.246336  0.246336  0.000000  1
  Ce  Ce1  1  0.753665  0.753665  0.000000  1
  Ce  Ce2  1  0.000000  0.500000  0.500000  1
  Nd  Nd3  1  0.500000  0.000000  0.500000  1
  Si  Si4  1  0.000000  0.000000  0.000000  1
  Se  Se5  1  0.500000  0.500000  0.000000  1
  Se  Se6  1  0.751371  0.251371  0.500000  1
  Se  Se7  1  0.248629  0.748629  0.500000  1
