# generated using pymatgen
data_HoEr2Si3P3Pd20
_symmetry_space_group_name_H-M   'P 1'
_cell_length_a   8.68013686
_cell_length_b   8.68248860
_cell_length_c   8.68546028
_cell_angle_alpha   59.97076148
_cell_angle_beta   59.99513611
_cell_angle_gamma   60.03160665
_symmetry_Int_Tables_number   1
_chemical_formula_structural   HoEr2Si3P3Pd20
_chemical_formula_sum   'Ho1 Er2 Si3 P3 Pd20'
_cell_volume   462.84992269
_cell_formula_units_Z   1
loop_
 _symmetry_equiv_pos_site_id
 _symmetry_equiv_pos_as_xyz
  1  'x, y, z'
loop_
 _atom_site_type_symbol
 _atom_site_label
 _atom_site_symmetry_multiplicity
 _atom_site_fract_x
 _atom_site_fract_y
 _atom_site_fract_z
 _atom_site_occupancy
  Ho  Ho0  1  0.250405  0.249595  0.250405  1
  Er  Er1  1  0.999430  0.000570  0.999430  1
  Er  Er2  1  0.750260  0.749740  0.750260  1
  Si  Si3  1  0.733198  0.266802  0.733198  1
  Si  Si4  1  0.266634  0.265329  0.734675  1
  Si  Si5  1  0.734675  0.733363  0.266634  1
  P  P6  1  0.735147  0.264858  0.266496  1
  P  P7  1  0.266496  0.733499  0.735147  1
  P  P8  1  0.265211  0.734789  0.265211  1
  Pd  Pd9  1  0.346101  0.998337  0.001490  1
  Pd  Pd10  1  0.654286  0.999985  0.999856  1
  Pd  Pd11  1  0.999856  0.345873  0.654286  1
  Pd  Pd12  1  0.001490  0.654071  0.346101  1
  Pd  Pd13  1  0.997922  0.345991  0.000558  1
  Pd  Pd14  1  0.654176  0.001921  0.344618  1
  Pd  Pd15  1  0.000558  0.655528  0.997922  1
  Pd  Pd16  1  0.344618  0.999284  0.654176  1
  Pd  Pd17  1  0.000088  0.999727  0.344482  1
  Pd  Pd18  1  0.001126  0.998699  0.655454  1
  Pd  Pd19  1  0.655454  0.344720  0.001126  1
  Pd  Pd20  1  0.344482  0.655702  0.000088  1
  Pd  Pd21  1  0.384757  0.384715  0.382703  1
  Pd  Pd22  1  0.615027  0.617487  0.617300  1
  Pd  Pd23  1  0.382768  0.385303  0.848962  1
  Pd  Pd24  1  0.382703  0.847826  0.384757  1
  Pd  Pd25  1  0.615604  0.615573  0.151264  1
  Pd  Pd26  1  0.617300  0.150184  0.615027  1
  Pd  Pd27  1  0.848962  0.382967  0.382768  1
  Pd  Pd28  1  0.151264  0.617557  0.615604  1
