# generated using pymatgen
data_Pr3Dy8In9Rh4
_symmetry_space_group_name_H-M   'P 1'
_cell_length_a   13.22695933
_cell_length_b   13.22719477
_cell_length_c   3.72623500
_cell_angle_alpha   90.00000000
_cell_angle_beta   90.00000000
_cell_angle_gamma   111.39306676
_symmetry_Int_Tables_number   1
_chemical_formula_structural   Pr3Dy8In9Rh4
_chemical_formula_sum   'Pr3 Dy8 In9 Rh4'
_cell_volume   607.00786264
_cell_formula_units_Z   1
loop_
 _symmetry_equiv_pos_site_id
 _symmetry_equiv_pos_as_xyz
  1  'x, y, z'
loop_
 _atom_site_type_symbol
 _atom_site_label
 _atom_site_symmetry_multiplicity
 _atom_site_fract_x
 _atom_site_fract_y
 _atom_site_fract_z
 _atom_site_occupancy
  Pr  Pr0  1  0.500000  0.500000  0.500000  1
  Pr  Pr1  1  0.341762  0.658225  0.500000  1
  Pr  Pr2  1  0.658238  0.341775  0.500000  1
  Dy  Dy3  1  0.816084  0.816091  0.500000  1
  Dy  Dy4  1  0.183916  0.183909  0.500000  1
  Dy  Dy5  1  0.582405  0.919487  0.500000  1
  Dy  Dy6  1  0.417595  0.080513  0.500000  1
  Dy  Dy7  1  0.919490  0.582416  0.500000  1
  Dy  Dy8  1  0.080510  0.417584  0.500000  1
  Dy  Dy9  1  0.124925  0.875079  0.500000  1
  Dy  Dy10  1  0.875075  0.124921  0.500000  1
  In  In11  1  0.339052  0.868884  0.000000  1
  In  In12  1  0.660948  0.131116  0.000000  1
  In  In13  1  0.868886  0.339053  0.000000  1
  In  In14  1  0.131114  0.660947  0.000000  1
  In  In15  1  0.583477  0.724269  0.000000  1
  In  In16  1  0.416523  0.275731  0.000000  1
  In  In17  1  0.724273  0.583494  0.000000  1
  In  In18  1  0.275727  0.416506  0.000000  1
  In  In19  1  0.000000  0.000000  0.000000  1
  Rh  Rh20  1  0.747473  0.953009  0.000000  1
  Rh  Rh21  1  0.252527  0.046991  0.000000  1
  Rh  Rh22  1  0.953004  0.747482  0.000000  1
  Rh  Rh23  1  0.046996  0.252518  0.000000  1
