# generated using pymatgen
data_Nd6P5
_symmetry_space_group_name_H-M   'P 1'
_cell_length_a   7.19086183
_cell_length_b   7.20004036
_cell_length_c   7.19377216
_cell_angle_alpha   70.45886181
_cell_angle_beta   120.01256834
_cell_angle_gamma   99.63049390
_symmetry_Int_Tables_number   1
_chemical_formula_structural   Nd6P5
_chemical_formula_sum   'Nd6 P5'
_cell_volume   303.93742027
_cell_formula_units_Z   1
loop_
 _symmetry_equiv_pos_site_id
 _symmetry_equiv_pos_as_xyz
  1  'x, y, z'
loop_
 _atom_site_type_symbol
 _atom_site_label
 _atom_site_symmetry_multiplicity
 _atom_site_fract_x
 _atom_site_fract_y
 _atom_site_fract_z
 _atom_site_occupancy
  Nd  Nd0  1  0.405148  0.111910  0.015750  1
  Nd  Nd1  1  0.712188  0.112048  0.669100  1
  Nd  Nd2  1  0.712062  0.602097  0.185665  1
  Nd  Nd3  1  0.405092  0.602069  0.532337  1
  Nd  Nd4  1  0.058797  0.117044  0.361135  1
  Nd  Nd5  1  0.058562  0.597188  0.840392  1
  P  P6  1  0.390783  0.357692  0.266433  1
  P  P7  1  0.726474  0.356301  0.935041  1
  P  P8  1  0.058564  0.357209  0.600672  1
  P  P9  1  0.391287  0.857183  0.766745  1
  P  P10  1  0.725910  0.856975  0.434550  1
