# generated using pymatgen
data_Ti3Ga2CuC
_symmetry_space_group_name_H-M   'P 1'
_cell_length_a   8.12703545
_cell_length_b   8.12703585
_cell_length_c   8.12703500
_cell_angle_alpha   59.99999940
_cell_angle_beta   59.99999777
_cell_angle_gamma   60.00000014
_symmetry_Int_Tables_number   1
_chemical_formula_structural   Ti3Ga2CuC
_chemical_formula_sum   'Ti12 Ga8 Cu4 C4'
_cell_volume   379.56088732
_cell_formula_units_Z   4
loop_
 _symmetry_equiv_pos_site_id
 _symmetry_equiv_pos_as_xyz
  1  'x, y, z'
loop_
 _atom_site_type_symbol
 _atom_site_label
 _atom_site_symmetry_multiplicity
 _atom_site_fract_x
 _atom_site_fract_y
 _atom_site_fract_z
 _atom_site_occupancy
  Ti  Ti0  1  0.936394  0.936394  0.563606  1
  Ti  Ti1  1  0.686394  0.313606  0.313606  1
  Ti  Ti2  1  0.313606  0.686394  0.686394  1
  Ti  Ti3  1  0.686394  0.686394  0.313606  1
  Ti  Ti4  1  0.686394  0.313606  0.686394  1
  Ti  Ti5  1  0.313606  0.686394  0.313606  1
  Ti  Ti6  1  0.563606  0.936394  0.563606  1
  Ti  Ti7  1  0.563606  0.936394  0.936394  1
  Ti  Ti8  1  0.936394  0.563606  0.563606  1
  Ti  Ti9  1  0.936394  0.563606  0.936394  1
  Ti  Ti10  1  0.313606  0.313606  0.686394  1
  Ti  Ti11  1  0.563606  0.563606  0.936394  1
  Ga  Ga12  1  0.914029  0.257913  0.914029  1
  Ga  Ga13  1  0.335971  0.335971  0.992087  1
  Ga  Ga14  1  0.992087  0.335971  0.335971  1
  Ga  Ga15  1  0.335971  0.335971  0.335971  1
  Ga  Ga16  1  0.257913  0.914029  0.914029  1
  Ga  Ga17  1  0.914029  0.914029  0.914029  1
  Ga  Ga18  1  0.914029  0.914029  0.257913  1
  Ga  Ga19  1  0.335971  0.992087  0.335971  1
  Cu  Cu20  1  0.125000  0.625000  0.125000  1
  Cu  Cu21  1  0.125000  0.125000  0.625000  1
  Cu  Cu22  1  0.625000  0.125000  0.125000  1
  Cu  Cu23  1  0.125000  0.125000  0.125000  1
  C  C24  1  0.625000  0.125000  0.625000  1
  C  C25  1  0.625000  0.625000  0.125000  1
  C  C26  1  0.125000  0.625000  0.625000  1
  C  C27  1  0.625000  0.625000  0.625000  1
