# generated using pymatgen
data_Er2SiGe3(PRh4)3
_symmetry_space_group_name_H-M   'P 1'
_cell_length_a   9.77776792
_cell_length_b   9.83173994
_cell_length_c   3.83233490
_cell_angle_alpha   90.05921271
_cell_angle_beta   89.92573390
_cell_angle_gamma   119.67334812
_symmetry_Int_Tables_number   1
_chemical_formula_structural   Er2SiGe3(PRh4)3
_chemical_formula_sum   'Er2 Si1 Ge3 P3 Rh12'
_cell_volume   320.09869328
_cell_formula_units_Z   1
loop_
 _symmetry_equiv_pos_site_id
 _symmetry_equiv_pos_as_xyz
  1  'x, y, z'
loop_
 _atom_site_type_symbol
 _atom_site_label
 _atom_site_symmetry_multiplicity
 _atom_site_fract_x
 _atom_site_fract_y
 _atom_site_fract_z
 _atom_site_occupancy
  Er  Er0  1  0.331962  0.666208  0.738704  1
  Er  Er1  1  0.672471  0.338244  0.238874  1
  Si  Si2  1  0.886326  0.598517  0.738930  1
  Ge  Ge3  1  0.000812  0.003965  0.725103  1
  Ge  Ge4  1  0.406509  0.287172  0.738580  1
  Ge  Ge5  1  0.712719  0.116705  0.738891  1
  P  P6  1  0.598198  0.709235  0.239017  1
  P  P7  1  0.286736  0.886684  0.238380  1
  P  P8  1  0.114087  0.404683  0.238537  1
  Rh  Rh9  1  0.439250  0.056009  0.738775  1
  Rh  Rh10  1  0.939260  0.386872  0.738718  1
  Rh  Rh11  1  0.623396  0.556992  0.739042  1
  Rh  Rh12  1  0.542948  0.923694  0.239162  1
  Rh  Rh13  1  0.066248  0.617171  0.238251  1
  Rh  Rh14  1  0.384106  0.455463  0.237932  1
  Rh  Rh15  1  0.154702  0.285746  0.738292  1
  Rh  Rh16  1  0.717807  0.868696  0.739500  1
  Rh  Rh17  1  0.124270  0.843847  0.738233  1
  Rh  Rh18  1  0.857837  0.742694  0.239919  1
  Rh  Rh19  1  0.244911  0.104786  0.238110  1
  Rh  Rh20  1  0.895444  0.146616  0.239050  1
