# generated using pymatgen
data_CeNd8HoIr4
_symmetry_space_group_name_H-M   'P 1'
_cell_length_a   6.66693250
_cell_length_b   7.25546574
_cell_length_c   8.89838372
_cell_angle_alpha   96.80370317
_cell_angle_beta   112.00050745
_cell_angle_gamma   89.99999247
_symmetry_Int_Tables_number   1
_chemical_formula_structural   CeNd8HoIr4
_chemical_formula_sum   'Ce1 Nd8 Ho1 Ir4'
_cell_volume   395.81516821
_cell_formula_units_Z   1
loop_
 _symmetry_equiv_pos_site_id
 _symmetry_equiv_pos_as_xyz
  1  'x, y, z'
loop_
 _atom_site_type_symbol
 _atom_site_label
 _atom_site_symmetry_multiplicity
 _atom_site_fract_x
 _atom_site_fract_y
 _atom_site_fract_z
 _atom_site_occupancy
  Ce  Ce0  1  0.434066  0.750000  0.000000  1
  Nd  Nd1  1  0.974522  0.925624  0.183018  1
  Nd  Nd2  1  0.791505  0.574376  0.816982  1
  Nd  Nd3  1  0.023215  0.079996  0.817355  1
  Nd  Nd4  1  0.205859  0.420004  0.182645  1
  Nd  Nd5  1  0.650263  0.813682  0.437407  1
  Nd  Nd6  1  0.212856  0.686318  0.562593  1
  Nd  Nd7  1  0.353598  0.186744  0.566668  1
  Nd  Nd8  1  0.786930  0.313256  0.433332  1
  Ho  Ho9  1  0.566088  0.250000  0.000000  1
  Ir  Ir10  1  0.804849  0.572139  0.208342  1
  Ir  Ir11  1  0.596509  0.927861  0.791658  1
  Ir  Ir12  1  0.195976  0.433500  0.792208  1
  Ir  Ir13  1  0.403766  0.066500  0.207792  1
