# generated using pymatgen
data_Y6Fe5Co4(P4Ru3)3
_symmetry_space_group_name_H-M   'P 1'
_cell_length_a   3.82846100
_cell_length_b   10.78084681
_cell_length_c   12.46135720
_cell_angle_alpha   89.84586730
_cell_angle_beta   90.00000000
_cell_angle_gamma   90.00000000
_symmetry_Int_Tables_number   1
_chemical_formula_structural   Y6Fe5Co4(P4Ru3)3
_chemical_formula_sum   'Y6 Fe5 Co4 P12 Ru9'
_cell_volume   514.32883877
_cell_formula_units_Z   1
loop_
 _symmetry_equiv_pos_site_id
 _symmetry_equiv_pos_as_xyz
  1  'x, y, z'
loop_
 _atom_site_type_symbol
 _atom_site_label
 _atom_site_symmetry_multiplicity
 _atom_site_fract_x
 _atom_site_fract_y
 _atom_site_fract_z
 _atom_site_occupancy
  Y  Y0  1  0.000000  0.497888  0.525800  1
  Y  Y1  1  0.500000  0.001112  0.471307  1
  Y  Y2  1  0.500000  0.821441  0.199457  1
  Y  Y3  1  0.500000  0.177935  0.200952  1
  Y  Y4  1  0.000000  0.678113  0.801217  1
  Y  Y5  1  0.000000  0.322362  0.799189  1
  Fe  Fe6  1  0.500000  0.332994  0.991225  1
  Fe  Fe7  1  0.500000  0.665907  0.992182  1
  Fe  Fe8  1  0.000000  0.167208  0.009470  1
  Fe  Fe9  1  0.000000  0.833535  0.008761  1
  Fe  Fe10  1  0.500000  0.296567  0.426808  1
  Co  Co11  1  0.500000  0.500066  0.700096  1
  Co  Co12  1  0.000000  0.999931  0.298944  1
  Co  Co13  1  0.000000  0.499479  0.985414  1
  Co  Co14  1  0.500000  0.000530  0.015336  1
  P  P15  1  0.500000  0.499490  0.884597  1
  P  P16  1  0.000000  0.000433  0.115743  1
  P  P17  1  0.500000  0.495947  0.337883  1
  P  P18  1  0.000000  0.001077  0.664979  1
  P  P19  1  0.500000  0.315114  0.612584  1
  P  P20  1  0.500000  0.687053  0.619293  1
  P  P21  1  0.000000  0.189185  0.381986  1
  P  P22  1  0.000000  0.813007  0.380736  1
  P  P23  1  0.500000  0.843534  0.904687  1
  P  P24  1  0.500000  0.156624  0.903268  1
  P  P25  1  0.000000  0.655876  0.096591  1
  P  P26  1  0.000000  0.343667  0.097520  1
  Ru  Ru27  1  0.500000  0.497523  0.147515  1
  Ru  Ru28  1  0.000000  0.002085  0.854121  1
  Ru  Ru29  1  0.500000  0.701338  0.428067  1
  Ru  Ru30  1  0.000000  0.204505  0.568755  1
  Ru  Ru31  1  0.000000  0.799051  0.572424  1
  Ru  Ru32  1  0.500000  0.876904  0.719697  1
  Ru  Ru33  1  0.500000  0.125580  0.716747  1
  Ru  Ru34  1  0.000000  0.622517  0.281553  1
  Ru  Ru35  1  0.000000  0.374421  0.285096  1
