# generated using pymatgen
data_YbTa6FeS12
_symmetry_space_group_name_H-M   'P 1'
_cell_length_a   5.78170500
_cell_length_b   5.78170440
_cell_length_c   13.01186300
_cell_angle_alpha   90.00000000
_cell_angle_beta   90.00000000
_cell_angle_gamma   119.99999773
_symmetry_Int_Tables_number   1
_chemical_formula_structural   YbTa6FeS12
_chemical_formula_sum   'Yb1 Ta6 Fe1 S12'
_cell_volume   376.68813087
_cell_formula_units_Z   1
loop_
 _symmetry_equiv_pos_site_id
 _symmetry_equiv_pos_as_xyz
  1  'x, y, z'
loop_
 _atom_site_type_symbol
 _atom_site_label
 _atom_site_symmetry_multiplicity
 _atom_site_fract_x
 _atom_site_fract_y
 _atom_site_fract_z
 _atom_site_occupancy
  Yb  Yb0  1  0.333333  0.666667  0.250000  1
  Ta  Ta1  1  0.000000  0.000000  0.530016  1
  Ta  Ta2  1  0.000000  0.000000  0.969984  1
  Ta  Ta3  1  0.333333  0.666667  0.530017  1
  Ta  Ta4  1  0.666667  0.333333  0.525816  1
  Ta  Ta5  1  0.666667  0.333333  0.974184  1
  Ta  Ta6  1  0.333333  0.666667  0.969983  1
  Fe  Fe7  1  0.666667  0.333333  0.750000  1
  S  S8  1  0.330102  0.330837  0.093638  1
  S  S9  1  0.669163  0.999266  0.093638  1
  S  S10  1  0.000734  0.669898  0.093638  1
  S  S11  1  0.336993  0.333204  0.852168  1
  S  S12  1  0.996211  0.663007  0.852168  1
  S  S13  1  0.666796  0.003789  0.852168  1
  S  S14  1  0.666796  0.663007  0.647832  1
  S  S15  1  0.336993  0.003789  0.647832  1
  S  S16  1  0.996211  0.333204  0.647832  1
  S  S17  1  0.669163  0.669898  0.406362  1
  S  S18  1  0.000734  0.330837  0.406362  1
  S  S19  1  0.330102  0.999266  0.406362  1
