# generated using pymatgen
data_RbTeS2
_symmetry_space_group_name_H-M   'P 1'
_cell_length_a   6.76146764
_cell_length_b   6.76146894
_cell_length_c   8.35132856
_cell_angle_alpha   65.81277997
_cell_angle_beta   65.81277333
_cell_angle_gamma   93.54234840
_symmetry_Int_Tables_number   1
_chemical_formula_structural   RbTeS2
_chemical_formula_sum   'Rb2 Te2 S4'
_cell_volume   305.36909937
_cell_formula_units_Z   2
loop_
 _symmetry_equiv_pos_site_id
 _symmetry_equiv_pos_as_xyz
  1  'x, y, z'
loop_
 _atom_site_type_symbol
 _atom_site_label
 _atom_site_symmetry_multiplicity
 _atom_site_fract_x
 _atom_site_fract_y
 _atom_site_fract_z
 _atom_site_occupancy
  Rb  Rb0  1  0.874118  0.125882  0.750000  1
  Rb  Rb1  1  0.125882  0.874118  0.250000  1
  Te  Te2  1  0.560911  0.439089  0.250000  1
  Te  Te3  1  0.439089  0.560911  0.750000  1
  S  S4  1  0.617058  0.778884  0.257812  1
  S  S5  1  0.221116  0.382942  0.242188  1
  S  S6  1  0.778884  0.617058  0.757812  1
  S  S7  1  0.382942  0.221116  0.742188  1
