# generated using pymatgen
data_UI28
_symmetry_space_group_name_H-M   'P 1'
_cell_length_a   10.67681737
_cell_length_b   14.33344904
_cell_length_c   12.98270300
_cell_angle_alpha   108.44914254
_cell_angle_beta   105.43469067
_cell_angle_gamma   86.57346759
_symmetry_Int_Tables_number   1
_chemical_formula_structural   UI28
_chemical_formula_sum   'U1 I28'
_cell_volume   1816.08072199
_cell_formula_units_Z   1
loop_
 _symmetry_equiv_pos_site_id
 _symmetry_equiv_pos_as_xyz
  1  'x, y, z'
loop_
 _atom_site_type_symbol
 _atom_site_label
 _atom_site_symmetry_multiplicity
 _atom_site_fract_x
 _atom_site_fract_y
 _atom_site_fract_z
 _atom_site_occupancy
  U  U0  1  0.500000  0.000000  0.000000  1
  I  I1  1  0.091093  0.095348  0.396767  1
  I  I2  1  0.569877  0.157991  0.477093  1
  I  I3  1  0.284963  0.279405  0.840342  1
  I  I4  1  0.783432  0.291816  0.875479  1
  I  I5  1  0.199289  0.521921  0.645979  1
  I  I6  1  0.761216  0.583836  0.738017  1
  I  I7  1  0.430123  0.842009  0.522907  1
  I  I8  1  0.908907  0.904652  0.603233  1
  I  I9  1  0.216568  0.708184  0.124521  1
  I  I10  1  0.715037  0.720595  0.159658  1
  I  I11  1  0.238784  0.416164  0.261983  1
  I  I12  1  0.800711  0.478079  0.354021  1
  I  I13  1  0.850066  0.092491  0.748700  1
  I  I14  1  0.302306  0.966845  0.791170  1
  I  I15  1  0.986820  0.643495  0.939296  1
  I  I16  1  0.488311  0.786982  0.970564  1
  I  I17  1  0.704960  0.337967  0.422434  1
  I  I18  1  0.175557  0.254693  0.330956  1
  I  I19  1  0.697694  0.033155  0.208830  1
  I  I20  1  0.149934  0.907509  0.251300  1
  I  I21  1  0.511689  0.213018  0.029436  1
  I  I22  1  0.013180  0.356505  0.060704  1
  I  I23  1  0.824443  0.745307  0.669044  1
  I  I24  1  0.295040  0.662033  0.577566  1
  I  I25  1  0.077630  0.337670  0.695299  1
  I  I26  1  0.453497  0.217462  0.653787  1
  I  I27  1  0.546503  0.782538  0.346213  1
  I  I28  1  0.922370  0.662330  0.304701  1
