# generated using pymatgen
data_Th2B(PtRh2)2
_symmetry_space_group_name_H-M   'P 1'
_cell_length_a   6.01262671
_cell_length_b   5.97814826
_cell_length_c   6.01262621
_cell_angle_alpha   60.18949880
_cell_angle_beta   59.15938957
_cell_angle_gamma   60.18949664
_symmetry_Int_Tables_number   1
_chemical_formula_structural   Th2B(PtRh2)2
_chemical_formula_sum   'Th2 B1 Pt2 Rh4'
_cell_volume   152.25358433
_cell_formula_units_Z   1
loop_
 _symmetry_equiv_pos_site_id
 _symmetry_equiv_pos_as_xyz
  1  'x, y, z'
loop_
 _atom_site_type_symbol
 _atom_site_label
 _atom_site_symmetry_multiplicity
 _atom_site_fract_x
 _atom_site_fract_y
 _atom_site_fract_z
 _atom_site_occupancy
  Th  Th0  1  0.750366  0.749662  0.750310  1
  Th  Th1  1  0.249690  0.250338  0.249634  1
  B  B2  1  0.493392  0.500000  0.506608  1
  Pt  Pt3  1  0.756656  0.757337  0.243344  1
  Pt  Pt4  1  0.756656  0.242663  0.243344  1
  Rh  Rh5  1  0.248316  0.752179  0.247325  1
  Rh  Rh6  1  0.246125  0.245139  0.753875  1
  Rh  Rh7  1  0.752675  0.247821  0.751684  1
  Rh  Rh8  1  0.246125  0.754861  0.753875  1
