# generated using pymatgen
data_Rb3LiPtO4
_symmetry_space_group_name_H-M   'P 1'
_cell_length_a   7.55230924
_cell_length_b   7.55230904
_cell_length_c   6.21032062
_cell_angle_alpha   78.83174201
_cell_angle_beta   78.83174088
_cell_angle_gamma   85.58752637
_symmetry_Int_Tables_number   1
_chemical_formula_structural   Rb3LiPtO4
_chemical_formula_sum   'Rb6 Li2 Pt2 O8'
_cell_volume   340.64532416
_cell_formula_units_Z   2
loop_
 _symmetry_equiv_pos_site_id
 _symmetry_equiv_pos_as_xyz
  1  'x, y, z'
loop_
 _atom_site_type_symbol
 _atom_site_label
 _atom_site_symmetry_multiplicity
 _atom_site_fract_x
 _atom_site_fract_y
 _atom_site_fract_z
 _atom_site_occupancy
  Rb  Rb0  1  0.066922  0.245036  0.023427  1
  Rb  Rb1  1  0.595052  0.404948  0.250000  1
  Rb  Rb2  1  0.245036  0.066922  0.523427  1
  Rb  Rb3  1  0.754964  0.933078  0.476573  1
  Rb  Rb4  1  0.933078  0.754964  0.976573  1
  Rb  Rb5  1  0.404948  0.595052  0.750000  1
  Li  Li6  1  0.732506  0.267494  0.750000  1
  Li  Li7  1  0.267494  0.732506  0.250000  1
  Pt  Pt8  1  0.500000  0.000000  0.000000  1
  Pt  Pt9  1  0.000000  0.500000  0.500000  1
  O  O10  1  0.202443  0.484579  0.250093  1
  O  O11  1  0.910266  0.267897  0.475843  1
  O  O12  1  0.484579  0.202443  0.750093  1
  O  O13  1  0.267897  0.910266  0.975843  1
  O  O14  1  0.089734  0.732103  0.524157  1
  O  O15  1  0.732103  0.089734  0.024157  1
  O  O16  1  0.515421  0.797557  0.249907  1
  O  O17  1  0.797557  0.515421  0.749907  1
