# generated using pymatgen
data_Ca2CdFe(P2O7)2
_symmetry_space_group_name_H-M   'P 1'
_cell_length_a   7.38688782
_cell_length_b   9.85997736
_cell_length_c   8.81813695
_cell_angle_alpha   105.66054146
_cell_angle_beta   110.88502611
_cell_angle_gamma   69.57520243
_symmetry_Int_Tables_number   1
_chemical_formula_structural   Ca2CdFe(P2O7)2
_chemical_formula_sum   'Ca4 Cd2 Fe2 P8 O28'
_cell_volume   554.51893338
_cell_formula_units_Z   2
loop_
 _symmetry_equiv_pos_site_id
 _symmetry_equiv_pos_as_xyz
  1  'x, y, z'
loop_
 _atom_site_type_symbol
 _atom_site_label
 _atom_site_symmetry_multiplicity
 _atom_site_fract_x
 _atom_site_fract_y
 _atom_site_fract_z
 _atom_site_occupancy
  Ca  Ca0  1  0.516139  0.654286  0.792631  1
  Ca  Ca1  1  0.019025  0.148856  0.289345  1
  Ca  Ca2  1  0.981005  0.851173  0.710620  1
  Ca  Ca3  1  0.483855  0.345703  0.207388  1
  Cd  Cd4  1  0.504384  0.261208  0.611173  1
  Cd  Cd5  1  0.495585  0.738805  0.388815  1
  Fe  Fe6  1  0.001715  0.760853  0.108013  1
  Fe  Fe7  1  0.998186  0.239070  0.891910  1
  P  P8  1  0.177269  0.564448  0.408850  1
  P  P9  1  0.688897  0.061206  0.915637  1
  P  P10  1  0.311109  0.938787  0.084343  1
  P  P11  1  0.822744  0.435552  0.591183  1
  P  P12  1  0.701438  0.972714  0.334432  1
  P  P13  1  0.200032  0.476980  0.846976  1
  P  P14  1  0.799986  0.523017  0.153068  1
  P  P15  1  0.298550  0.027296  0.665536  1
  O  O16  1  0.549766  0.918984  0.159338  1
  O  O17  1  0.057420  0.429637  0.662920  1
  O  O18  1  0.942585  0.570379  0.337122  1
  O  O19  1  0.450236  0.081039  0.840620  1
  O  O20  1  0.805142  0.898165  0.915121  1
  O  O21  1  0.306430  0.403308  0.407360  1
  O  O22  1  0.693567  0.596680  0.592657  1
  O  O23  1  0.194853  0.101827  0.084849  1
  O  O24  1  0.786010  0.627913  0.045173  1
  O  O25  1  0.281538  0.119505  0.542363  1
  O  O26  1  0.718443  0.880499  0.457600  1
  O  O27  1  0.214002  0.372087  0.954866  1
  O  O28  1  0.598596  0.547404  0.185205  1
  O  O29  1  0.098809  0.064979  0.706191  1
  O  O30  1  0.901175  0.935029  0.293779  1
  O  O31  1  0.401419  0.452598  0.814836  1
  O  O32  1  0.292522  0.844954  0.914716  1
  O  O33  1  0.802812  0.344223  0.420202  1
  O  O34  1  0.197245  0.655768  0.579844  1
  O  O35  1  0.707472  0.155047  0.085255  1
  O  O36  1  0.245303  0.883623  0.200366  1
  O  O37  1  0.773358  0.374740  0.712314  1
  O  O38  1  0.226652  0.625258  0.287716  1
  O  O39  1  0.754702  0.116387  0.799621  1
  O  O40  1  0.901333  0.362189  0.096857  1
  O  O41  1  0.392753  0.863664  0.618821  1
  O  O42  1  0.607216  0.136345  0.381150  1
  O  O43  1  0.098717  0.637811  0.903214  1
