# generated using pymatgen
data_Ca3La5(CdOs)2
_symmetry_space_group_name_H-M   'P 1'
_cell_length_a   10.07440195
_cell_length_b   10.07440236
_cell_length_c   10.07440200
_cell_angle_alpha   60.00000118
_cell_angle_beta   59.99999983
_cell_angle_gamma   59.99999745
_symmetry_Int_Tables_number   1
_chemical_formula_structural   Ca3La5(CdOs)2
_chemical_formula_sum   'Ca6 La10 Cd4 Os4'
_cell_volume   723.00756275
_cell_formula_units_Z   2
loop_
 _symmetry_equiv_pos_site_id
 _symmetry_equiv_pos_as_xyz
  1  'x, y, z'
loop_
 _atom_site_type_symbol
 _atom_site_label
 _atom_site_symmetry_multiplicity
 _atom_site_fract_x
 _atom_site_fract_y
 _atom_site_fract_z
 _atom_site_occupancy
  Ca  Ca0  1  0.059914  0.440085  0.440085  1
  Ca  Ca1  1  0.440085  0.059914  0.059914  1
  Ca  Ca2  1  0.440085  0.059914  0.440085  1
  Ca  Ca3  1  0.440085  0.440085  0.059914  1
  Ca  Ca4  1  0.059914  0.440085  0.059914  1
  Ca  Ca5  1  0.059914  0.059914  0.440085  1
  La  La6  1  0.191971  0.808029  0.808029  1
  La  La7  1  0.808030  0.191971  0.191971  1
  La  La8  1  0.808029  0.191971  0.808029  1
  La  La9  1  0.808029  0.808029  0.191971  1
  La  La10  1  0.191971  0.808030  0.191971  1
  La  La11  1  0.191971  0.191971  0.808030  1
  La  La12  1  0.655512  0.655512  0.655512  1
  La  La13  1  0.655512  0.655512  0.033464  1
  La  La14  1  0.033464  0.655512  0.655512  1
  La  La15  1  0.655512  0.033464  0.655512  1
  Cd  Cd16  1  0.421570  0.421570  0.421570  1
  Cd  Cd17  1  0.421570  0.421570  0.735288  1
  Cd  Cd18  1  0.735288  0.421570  0.421570  1
  Cd  Cd19  1  0.421570  0.735288  0.421570  1
  Os  Os20  1  0.864739  0.864739  0.864739  1
  Os  Os21  1  0.864739  0.864739  0.405784  1
  Os  Os22  1  0.405784  0.864739  0.864739  1
  Os  Os23  1  0.864739  0.405784  0.864739  1
