# generated using pymatgen
data_Dy2ThZnPd5
_symmetry_space_group_name_H-M   'P 1'
_cell_length_a   8.33248700
_cell_length_b   8.33248829
_cell_length_c   13.15273000
_cell_angle_alpha   90.00000000
_cell_angle_beta   90.00000000
_cell_angle_gamma   127.83198934
_symmetry_Int_Tables_number   1
_chemical_formula_structural   Dy2ThZnPd5
_chemical_formula_sum   'Dy8 Th4 Zn4 Pd20'
_cell_volume   721.25588487
_cell_formula_units_Z   4
loop_
 _symmetry_equiv_pos_site_id
 _symmetry_equiv_pos_as_xyz
  1  'x, y, z'
loop_
 _atom_site_type_symbol
 _atom_site_label
 _atom_site_symmetry_multiplicity
 _atom_site_fract_x
 _atom_site_fract_y
 _atom_site_fract_z
 _atom_site_occupancy
  Dy  Dy0  1  0.629756  0.370244  0.460314  1
  Dy  Dy1  1  0.370244  0.629756  0.539686  1
  Dy  Dy2  1  0.629756  0.370244  0.039686  1
  Dy  Dy3  1  0.370244  0.629756  0.960314  1
  Dy  Dy4  1  0.880890  0.119110  0.948417  1
  Dy  Dy5  1  0.119110  0.880890  0.051583  1
  Dy  Dy6  1  0.880890  0.119110  0.551583  1
  Dy  Dy7  1  0.119110  0.880890  0.448417  1
  Th  Th8  1  0.933196  0.066804  0.250000  1
  Th  Th9  1  0.066804  0.933196  0.750000  1
  Th  Th10  1  0.316756  0.683244  0.250000  1
  Th  Th11  1  0.683244  0.316756  0.750000  1
  Zn  Zn12  1  0.718915  0.281085  0.250000  1
  Zn  Zn13  1  0.281085  0.718915  0.750000  1
  Zn  Zn14  1  0.534170  0.465830  0.250000  1
  Zn  Zn15  1  0.465830  0.534170  0.750000  1
  Pd  Pd16  1  0.319252  0.066107  0.250000  1
  Pd  Pd17  1  0.066107  0.319252  0.750000  1
  Pd  Pd18  1  0.680748  0.933893  0.750000  1
  Pd  Pd19  1  0.933893  0.680748  0.250000  1
  Pd  Pd20  1  0.565950  0.000307  0.396314  1
  Pd  Pd21  1  0.000307  0.565950  0.603686  1
  Pd  Pd22  1  0.565950  0.000307  0.103686  1
  Pd  Pd23  1  0.000307  0.565950  0.896314  1
  Pd  Pd24  1  0.434050  0.999693  0.603686  1
  Pd  Pd25  1  0.999693  0.434050  0.396314  1
  Pd  Pd26  1  0.434050  0.999693  0.896314  1
  Pd  Pd27  1  0.999693  0.434050  0.103686  1
  Pd  Pd28  1  0.688611  0.745413  0.394316  1
  Pd  Pd29  1  0.745413  0.688611  0.605684  1
  Pd  Pd30  1  0.688611  0.745413  0.105684  1
  Pd  Pd31  1  0.745413  0.688611  0.894316  1
  Pd  Pd32  1  0.311389  0.254587  0.605684  1
  Pd  Pd33  1  0.254587  0.311389  0.394316  1
  Pd  Pd34  1  0.311389  0.254587  0.894316  1
  Pd  Pd35  1  0.254587  0.311389  0.105684  1
