# generated using pymatgen
data_Th5SnSb2C
_symmetry_space_group_name_H-M   'P 1'
_cell_length_a   9.33047539
_cell_length_b   9.29274727
_cell_length_c   6.48947000
_cell_angle_alpha   90.00000000
_cell_angle_beta   90.00000000
_cell_angle_gamma   119.86633141
_symmetry_Int_Tables_number   1
_chemical_formula_structural   Th5SnSb2C
_chemical_formula_sum   'Th10 Sn2 Sb4 C2'
_cell_volume   487.94531236
_cell_formula_units_Z   2
loop_
 _symmetry_equiv_pos_site_id
 _symmetry_equiv_pos_as_xyz
  1  'x, y, z'
loop_
 _atom_site_type_symbol
 _atom_site_label
 _atom_site_symmetry_multiplicity
 _atom_site_fract_x
 _atom_site_fract_y
 _atom_site_fract_z
 _atom_site_occupancy
  Th  Th0  1  0.667800  0.333859  0.498679  1
  Th  Th1  1  0.332200  0.666061  0.498679  1
  Th  Th2  1  0.332200  0.666061  0.001321  1
  Th  Th3  1  0.667800  0.333859  0.001321  1
  Th  Th4  1  0.774854  0.775319  0.250000  1
  Th  Th5  1  0.225146  0.000465  0.250000  1
  Th  Th6  1  0.000000  0.223743  0.250000  1
  Th  Th7  1  0.225529  0.225540  0.750000  1
  Th  Th8  1  0.774471  0.000011  0.750000  1
  Th  Th9  1  0.000000  0.775752  0.750000  1
  Sn  Sn10  1  0.400480  0.399981  0.250000  1
  Sn  Sn11  1  0.599520  0.999502  0.250000  1
  Sb  Sb12  1  0.000000  0.601316  0.250000  1
  Sb  Sb13  1  0.599164  0.600489  0.750000  1
  Sb  Sb14  1  0.400836  0.001324  0.750000  1
  Sb  Sb15  1  0.000000  0.398458  0.750000  1
  C  C16  1  0.000000  0.999131  0.500961  1
  C  C17  1  0.000000  0.999131  0.999039  1
