# generated using pymatgen
data_Pr4ZnGa23Cu2
_symmetry_space_group_name_H-M   'P 1'
_cell_length_a   6.17264400
_cell_length_b   6.17264400
_cell_length_c   15.39350200
_cell_angle_alpha   90.00000000
_cell_angle_beta   90.00000000
_cell_angle_gamma   90.00000000
_symmetry_Int_Tables_number   1
_chemical_formula_structural   Pr4ZnGa23Cu2
_chemical_formula_sum   'Pr4 Zn1 Ga23 Cu2'
_cell_volume   586.51603907
_cell_formula_units_Z   1
loop_
 _symmetry_equiv_pos_site_id
 _symmetry_equiv_pos_as_xyz
  1  'x, y, z'
loop_
 _atom_site_type_symbol
 _atom_site_label
 _atom_site_symmetry_multiplicity
 _atom_site_fract_x
 _atom_site_fract_y
 _atom_site_fract_z
 _atom_site_occupancy
  Pr  Pr0  1  0.750000  0.250000  0.245156  1
  Pr  Pr1  1  0.250000  0.750000  0.245156  1
  Pr  Pr2  1  0.250000  0.750000  0.755016  1
  Pr  Pr3  1  0.750000  0.250000  0.755016  1
  Zn  Zn4  1  0.250000  0.250000  0.181106  1
  Ga  Ga5  1  0.750000  0.750000  0.179338  1
  Ga  Ga6  1  0.750000  0.750000  0.819262  1
  Ga  Ga7  1  0.250000  0.250000  0.818152  1
  Ga  Ga8  1  0.250000  0.250000  0.339640  1
  Ga  Ga9  1  0.750000  0.750000  0.342368  1
  Ga  Ga10  1  0.750000  0.750000  0.658083  1
  Ga  Ga11  1  0.250000  0.250000  0.656168  1
  Ga  Ga12  1  0.500057  0.999952  0.915513  1
  Ga  Ga13  1  0.999952  0.999943  0.915513  1
  Ga  Ga14  1  0.500048  0.500057  0.915513  1
  Ga  Ga15  1  0.999943  0.500048  0.915513  1
  Ga  Ga16  1  0.495424  0.004730  0.085305  1
  Ga  Ga17  1  0.004730  0.004576  0.085305  1
  Ga  Ga18  1  0.495270  0.495424  0.085305  1
  Ga  Ga19  1  0.004576  0.495270  0.085305  1
  Ga  Ga20  1  0.573671  0.077914  0.430949  1
  Ga  Ga21  1  0.077914  0.926329  0.430949  1
  Ga  Ga22  1  0.422086  0.573671  0.430949  1
  Ga  Ga23  1  0.926329  0.422086  0.430949  1
  Ga  Ga24  1  0.419578  0.916636  0.570062  1
  Ga  Ga25  1  0.916636  0.080422  0.570062  1
  Ga  Ga26  1  0.583364  0.419578  0.570062  1
  Ga  Ga27  1  0.080422  0.583364  0.570062  1
  Cu  Cu28  1  0.750000  0.250000  0.999115  1
  Cu  Cu29  1  0.250000  0.750000  0.999115  1
