# generated using pymatgen
data_Er2Tm7Th3Co4
_symmetry_space_group_name_H-M   'P 1'
_cell_length_a   6.23652757
_cell_length_b   6.85792443
_cell_length_c   9.42880310
_cell_angle_alpha   90.00233379
_cell_angle_beta   89.98366600
_cell_angle_gamma   91.04183192
_symmetry_Int_Tables_number   1
_chemical_formula_structural   Er2Tm7Th3Co4
_chemical_formula_sum   'Er2 Tm7 Th3 Co4'
_cell_volume   403.19978265
_cell_formula_units_Z   1
loop_
 _symmetry_equiv_pos_site_id
 _symmetry_equiv_pos_as_xyz
  1  'x, y, z'
loop_
 _atom_site_type_symbol
 _atom_site_label
 _atom_site_symmetry_multiplicity
 _atom_site_fract_x
 _atom_site_fract_y
 _atom_site_fract_z
 _atom_site_occupancy
  Er  Er0  1  0.170943  0.170516  0.068433  1
  Er  Er1  1  0.356810  0.957922  0.749666  1
  Tm  Tm2  1  0.328205  0.672723  0.067973  1
  Tm  Tm3  1  0.170559  0.170578  0.431671  1
  Tm  Tm4  1  0.675055  0.329097  0.569491  1
  Tm  Tm5  1  0.824193  0.828765  0.928354  1
  Tm  Tm6  1  0.675230  0.329209  0.930331  1
  Tm  Tm7  1  0.824253  0.828689  0.571534  1
  Tm  Tm8  1  0.327896  0.672788  0.431971  1
  Th  Th9  1  0.846349  0.549327  0.250085  1
  Th  Th10  1  0.651748  0.051778  0.250350  1
  Th  Th11  1  0.155884  0.450224  0.749728  1
  Co  Co12  1  0.035576  0.870713  0.250293  1
  Co  Co13  1  0.461809  0.371996  0.250444  1
  Co  Co14  1  0.959511  0.131932  0.749536  1
  Co  Co15  1  0.535978  0.613746  0.750140  1
