# generated using pymatgen
data_Ho7Zr(Si4Tc3)4
_symmetry_space_group_name_H-M   'P 1'
_cell_length_a   6.76619234
_cell_length_b   6.76265986
_cell_length_c   12.66418201
_cell_angle_alpha   89.80636255
_cell_angle_beta   90.11032525
_cell_angle_gamma   90.20900016
_symmetry_Int_Tables_number   1
_chemical_formula_structural   Ho7Zr(Si4Tc3)4
_chemical_formula_sum   'Ho7 Zr1 Si16 Tc12'
_cell_volume   579.47254306
_cell_formula_units_Z   1
loop_
 _symmetry_equiv_pos_site_id
 _symmetry_equiv_pos_as_xyz
  1  'x, y, z'
loop_
 _atom_site_type_symbol
 _atom_site_label
 _atom_site_symmetry_multiplicity
 _atom_site_fract_x
 _atom_site_fract_y
 _atom_site_fract_z
 _atom_site_occupancy
  Ho  Ho0  1  0.004808  0.662663  0.030375  1
  Ho  Ho1  1  0.995636  0.336971  0.530629  1
  Ho  Ho2  1  0.661696  0.005800  0.968759  1
  Ho  Ho3  1  0.161760  0.492770  0.780794  1
  Ho  Ho4  1  0.837823  0.506485  0.282278  1
  Ho  Ho5  1  0.493292  0.162358  0.218808  1
  Ho  Ho6  1  0.505450  0.837485  0.719020  1
  Zr  Zr7  1  0.340444  0.990051  0.467207  1
  Si  Si8  1  0.023201  0.730593  0.438449  1
  Si  Si9  1  0.982674  0.269587  0.939226  1
  Si  Si10  1  0.724914  0.020928  0.561521  1
  Si  Si11  1  0.222078  0.478566  0.188376  1
  Si  Si12  1  0.774084  0.519627  0.687177  1
  Si  Si13  1  0.480875  0.226531  0.810351  1
  Si  Si14  1  0.521903  0.778537  0.314512  1
  Si  Si15  1  0.269981  0.982299  0.061288  1
  Si  Si16  1  0.885890  0.804867  0.814218  1
  Si  Si17  1  0.117900  0.193231  0.317667  1
  Si  Si18  1  0.805071  0.885226  0.185474  1
  Si  Si19  1  0.305954  0.616117  0.563606  1
  Si  Si20  1  0.693334  0.385965  0.064089  1
  Si  Si21  1  0.612910  0.303016  0.436291  1
  Si  Si22  1  0.386498  0.692426  0.936387  1
  Si  Si23  1  0.195463  0.114024  0.682572  1
  Tc  Tc24  1  0.319801  0.483179  0.378996  1
  Tc  Tc25  1  0.812854  0.023193  0.369710  1
  Tc  Tc26  1  0.978338  0.187934  0.133012  1
  Tc  Tc27  1  0.023853  0.814260  0.629203  1
  Tc  Tc28  1  0.685581  0.516514  0.879468  1
  Tc  Tc29  1  0.477789  0.312174  0.617563  1
  Tc  Tc30  1  0.514070  0.682265  0.123442  1
  Tc  Tc31  1  0.187581  0.978169  0.868152  1
  Tc  Tc32  1  0.662379  0.670567  0.499631  1
  Tc  Tc33  1  0.833901  0.164037  0.748223  1
  Tc  Tc34  1  0.165501  0.837087  0.253310  1
  Tc  Tc35  1  0.334712  0.334497  0.000214  1
