# generated using pymatgen
data_LaTbTh2(AlRh)4
_symmetry_space_group_name_H-M   'P 1'
_cell_length_a   4.24870400
_cell_length_b   7.15269920
_cell_length_c   16.21411766
_cell_angle_alpha   89.37203582
_cell_angle_beta   90.00000000
_cell_angle_gamma   90.00000000
_symmetry_Int_Tables_number   1
_chemical_formula_structural   LaTbTh2(AlRh)4
_chemical_formula_sum   'La2 Tb2 Th4 Al8 Rh8'
_cell_volume   492.71260438
_cell_formula_units_Z   2
loop_
 _symmetry_equiv_pos_site_id
 _symmetry_equiv_pos_as_xyz
  1  'x, y, z'
loop_
 _atom_site_type_symbol
 _atom_site_label
 _atom_site_symmetry_multiplicity
 _atom_site_fract_x
 _atom_site_fract_y
 _atom_site_fract_z
 _atom_site_occupancy
  La  La0  1  0.750000  0.845848  0.059839  1
  La  La1  1  0.250000  0.154152  0.940161  1
  Tb  Tb2  1  0.250000  0.656152  0.557781  1
  Tb  Tb3  1  0.750000  0.343848  0.442219  1
  Th  Th4  1  0.250000  0.523340  0.776562  1
  Th  Th5  1  0.750000  0.476660  0.223438  1
  Th  Th6  1  0.750000  0.974806  0.282648  1
  Th  Th7  1  0.250000  0.025194  0.717352  1
  Al  Al8  1  0.250000  0.644273  0.357075  1
  Al  Al9  1  0.750000  0.355727  0.642925  1
  Al  Al10  1  0.750000  0.847254  0.849161  1
  Al  Al11  1  0.250000  0.152746  0.150839  1
  Al  Al12  1  0.250000  0.505959  0.061981  1
  Al  Al13  1  0.750000  0.494041  0.938019  1
  Al  Al14  1  0.750000  0.990969  0.559095  1
  Al  Al15  1  0.250000  0.009031  0.440905  1
  Rh  Rh16  1  0.250000  0.759786  0.188565  1
  Rh  Rh17  1  0.750000  0.240214  0.811435  1
  Rh  Rh18  1  0.750000  0.738519  0.683451  1
  Rh  Rh19  1  0.250000  0.261481  0.316549  1
  Rh  Rh20  1  0.250000  0.710656  0.923792  1
  Rh  Rh21  1  0.750000  0.289344  0.076208  1
  Rh  Rh22  1  0.750000  0.777007  0.429674  1
  Rh  Rh23  1  0.250000  0.222993  0.570326  1
