# generated using pymatgen
data_HoTm3(ZrPb)6
_symmetry_space_group_name_H-M   'P 1'
_cell_length_a   8.84306614
_cell_length_b   8.80947832
_cell_length_c   6.03089300
_cell_angle_alpha   90.00000000
_cell_angle_beta   90.00000000
_cell_angle_gamma   119.86319601
_symmetry_Int_Tables_number   1
_chemical_formula_structural   HoTm3(ZrPb)6
_chemical_formula_sum   'Ho1 Tm3 Zr6 Pb6'
_cell_volume   407.43877486
_cell_formula_units_Z   1
loop_
 _symmetry_equiv_pos_site_id
 _symmetry_equiv_pos_as_xyz
  1  'x, y, z'
loop_
 _atom_site_type_symbol
 _atom_site_label
 _atom_site_symmetry_multiplicity
 _atom_site_fract_x
 _atom_site_fract_y
 _atom_site_fract_z
 _atom_site_occupancy
  Ho  Ho0  1  0.002414  0.763420  0.750000  1
  Tm  Tm1  1  0.759760  0.757608  0.250000  1
  Tm  Tm2  1  0.002871  0.237567  0.250000  1
  Tm  Tm3  1  0.759883  0.002069  0.750000  1
  Zr  Zr4  1  0.332610  0.666769  0.500105  1
  Zr  Zr5  1  0.245111  0.001917  0.250000  1
  Zr  Zr6  1  0.661850  0.331224  0.500149  1
  Zr  Zr7  1  0.332610  0.666769  0.999895  1
  Zr  Zr8  1  0.245253  0.243708  0.750000  1
  Zr  Zr9  1  0.661850  0.331224  0.999851  1
  Pb  Pb10  1  0.601882  0.602878  0.750000  1
  Pb  Pb11  1  0.393774  0.001619  0.750000  1
  Pb  Pb12  1  0.602685  0.000157  0.250000  1
  Pb  Pb13  1  0.002135  0.392861  0.750000  1
  Pb  Pb14  1  0.393268  0.392786  0.250000  1
  Pb  Pb15  1  0.002045  0.607423  0.250000  1
