# generated using pymatgen
data_ErTm7Hg4
_symmetry_space_group_name_H-M   'P 1'
_cell_length_a   6.94287115
_cell_length_b   5.05362300
_cell_length_c   9.14508919
_cell_angle_alpha   90.00000000
_cell_angle_beta   90.02358127
_cell_angle_gamma   90.00000000
_symmetry_Int_Tables_number   1
_chemical_formula_structural   ErTm7Hg4
_chemical_formula_sum   'Er1 Tm7 Hg4'
_cell_volume   320.87054689
_cell_formula_units_Z   1
loop_
 _symmetry_equiv_pos_site_id
 _symmetry_equiv_pos_as_xyz
  1  'x, y, z'
loop_
 _atom_site_type_symbol
 _atom_site_label
 _atom_site_symmetry_multiplicity
 _atom_site_fract_x
 _atom_site_fract_y
 _atom_site_fract_z
 _atom_site_occupancy
  Er  Er0  1  0.669280  0.750000  0.925550  1
  Tm  Tm1  1  0.330581  0.250000  0.074692  1
  Tm  Tm2  1  0.017090  0.750000  0.194863  1
  Tm  Tm3  1  0.516723  0.750000  0.305476  1
  Tm  Tm4  1  0.831270  0.250000  0.425602  1
  Tm  Tm5  1  0.168933  0.750000  0.574381  1
  Tm  Tm6  1  0.482991  0.250000  0.694486  1
  Tm  Tm7  1  0.983628  0.250000  0.805136  1
  Hg  Hg8  1  0.763814  0.250000  0.102624  1
  Hg  Hg9  1  0.263597  0.250000  0.397979  1
  Hg  Hg10  1  0.736616  0.750000  0.601297  1
  Hg  Hg11  1  0.235475  0.750000  0.897912  1
