# generated using pymatgen
data_Ca2(ZnAu2)3
_symmetry_space_group_name_H-M   'P 1'
_cell_length_a   8.82132348
_cell_length_b   8.82132424
_cell_length_c   8.82132346
_cell_angle_alpha   56.77167176
_cell_angle_beta   56.77166977
_cell_angle_gamma   56.77167214
_symmetry_Int_Tables_number   1
_chemical_formula_structural   Ca2(ZnAu2)3
_chemical_formula_sum   'Ca4 Zn6 Au12'
_cell_volume   449.21347845
_cell_formula_units_Z   2
loop_
 _symmetry_equiv_pos_site_id
 _symmetry_equiv_pos_as_xyz
  1  'x, y, z'
loop_
 _atom_site_type_symbol
 _atom_site_label
 _atom_site_symmetry_multiplicity
 _atom_site_fract_x
 _atom_site_fract_y
 _atom_site_fract_z
 _atom_site_occupancy
  Ca  Ca0  1  0.907965  0.907965  0.907965  1
  Ca  Ca1  1  0.407965  0.407965  0.407965  1
  Ca  Ca2  1  0.092035  0.092035  0.092035  1
  Ca  Ca3  1  0.592035  0.592035  0.592035  1
  Zn  Zn4  1  0.557512  0.750000  0.942488  1
  Zn  Zn5  1  0.942488  0.557512  0.750000  1
  Zn  Zn6  1  0.750000  0.942488  0.557512  1
  Zn  Zn7  1  0.442488  0.250000  0.057512  1
  Zn  Zn8  1  0.057512  0.442488  0.250000  1
  Zn  Zn9  1  0.250000  0.057512  0.442488  1
  Au  Au10  1  0.483547  0.860725  0.206750  1
  Au  Au11  1  0.206750  0.483547  0.860725  1
  Au  Au12  1  0.860725  0.206750  0.483547  1
  Au  Au13  1  0.706750  0.360725  0.983547  1
  Au  Au14  1  0.983547  0.706750  0.360725  1
  Au  Au15  1  0.360725  0.983547  0.706750  1
  Au  Au16  1  0.516453  0.139275  0.793250  1
  Au  Au17  1  0.793250  0.516453  0.139275  1
  Au  Au18  1  0.139275  0.793250  0.516453  1
  Au  Au19  1  0.293250  0.639275  0.016453  1
  Au  Au20  1  0.016453  0.293250  0.639275  1
  Au  Au21  1  0.639275  0.016453  0.293250  1
