# generated using pymatgen
data_La10Mg2Al2(OsRu)3
_symmetry_space_group_name_H-M   'P 1'
_cell_length_a   8.74676257
_cell_length_b   8.72571914
_cell_length_c   8.68914724
_cell_angle_alpha   109.37042467
_cell_angle_beta   109.64059525
_cell_angle_gamma   109.62458362
_symmetry_Int_Tables_number   1
_chemical_formula_structural   La10Mg2Al2(OsRu)3
_chemical_formula_sum   'La10 Mg2 Al2 Os3 Ru3'
_cell_volume   509.10372297
_cell_formula_units_Z   1
loop_
 _symmetry_equiv_pos_site_id
 _symmetry_equiv_pos_as_xyz
  1  'x, y, z'
loop_
 _atom_site_type_symbol
 _atom_site_label
 _atom_site_symmetry_multiplicity
 _atom_site_fract_x
 _atom_site_fract_y
 _atom_site_fract_z
 _atom_site_occupancy
  La  La0  1  0.239827  0.678372  0.431692  1
  La  La1  1  0.750780  0.812463  0.068311  1
  La  La2  1  0.434861  0.249662  0.689437  1
  La  La3  1  0.690834  0.440029  0.249943  1
  La  La4  1  0.060047  0.745368  0.810839  1
  La  La5  1  0.821665  0.071857  0.750377  1
  La  La6  1  0.208311  0.206487  0.206245  1
  La  La7  1  0.501584  0.000089  0.294856  1
  La  La8  1  0.288412  0.503027  0.000696  1
  La  La9  1  0.002032  0.286397  0.499328  1
  Mg  Mg10  1  0.500655  0.999551  0.912072  1
  Mg  Mg11  1  0.587269  0.588772  0.588335  1
  Al  Al12  1  0.912177  0.500305  0.999331  1
  Al  Al13  1  0.001545  0.912509  0.500598  1
  Os  Os14  1  0.240220  0.122269  0.862428  1
  Os  Os15  1  0.758942  0.377121  0.637355  1
  Os  Os16  1  0.886102  0.264400  0.124117  1
  Ru  Ru17  1  0.111376  0.862833  0.249397  1
  Ru  Ru18  1  0.639265  0.763738  0.374997  1
  Ru  Ru19  1  0.364093  0.614755  0.749647  1
