# generated using pymatgen
data_Ho4Er6OsRu3
_symmetry_space_group_name_H-M   'P 1'
_cell_length_a   6.29602576
_cell_length_b   7.28103981
_cell_length_c   8.40277310
_cell_angle_alpha   96.79569045
_cell_angle_beta   112.07373368
_cell_angle_gamma   90.03122997
_symmetry_Int_Tables_number   1
_chemical_formula_structural   Ho4Er6OsRu3
_chemical_formula_sum   'Ho4 Er6 Os1 Ru3'
_cell_volume   354.02994470
_cell_formula_units_Z   1
loop_
 _symmetry_equiv_pos_site_id
 _symmetry_equiv_pos_as_xyz
  1  'x, y, z'
loop_
 _atom_site_type_symbol
 _atom_site_label
 _atom_site_symmetry_multiplicity
 _atom_site_fract_x
 _atom_site_fract_y
 _atom_site_fract_z
 _atom_site_occupancy
  Ho  Ho0  1  0.791732  0.583334  0.813326  1
  Ho  Ho1  1  0.976409  0.915647  0.184542  1
  Ho  Ho2  1  0.208216  0.415631  0.186477  1
  Ho  Ho3  1  0.023202  0.084268  0.813823  1
  Er  Er4  1  0.206331  0.684979  0.565713  1
  Er  Er5  1  0.640035  0.815998  0.436166  1
  Er  Er6  1  0.794612  0.315399  0.434604  1
  Er  Er7  1  0.359138  0.184513  0.564715  1
  Er  Er8  1  0.419539  0.749981  0.999269  1
  Er  Er9  1  0.580811  0.250124  0.000039  1
  Os  Os10  1  0.601893  0.923810  0.780416  1
  Ru  Ru11  1  0.823407  0.576464  0.220996  1
  Ru  Ru12  1  0.397622  0.076474  0.220513  1
  Ru  Ru13  1  0.177054  0.423376  0.779404  1
