# generated using pymatgen
data_NaMn7CrO16
_symmetry_space_group_name_H-M   'P 1'
_cell_length_a   5.88941898
_cell_length_b   7.12181118
_cell_length_c   7.17625400
_cell_angle_alpha   87.84495419
_cell_angle_beta   78.17333266
_cell_angle_gamma   78.15699017
_symmetry_Int_Tables_number   1
_chemical_formula_structural   NaMn7CrO16
_chemical_formula_sum   'Na1 Mn7 Cr1 O16'
_cell_volume   288.33224455
_cell_formula_units_Z   1
loop_
 _symmetry_equiv_pos_site_id
 _symmetry_equiv_pos_as_xyz
  1  'x, y, z'
loop_
 _atom_site_type_symbol
 _atom_site_label
 _atom_site_symmetry_multiplicity
 _atom_site_fract_x
 _atom_site_fract_y
 _atom_site_fract_z
 _atom_site_occupancy
  Na  Na0  1  0.015294  0.973531  0.996734  1
  Mn  Mn1  1  0.079976  0.512670  0.182196  1
  Mn  Mn2  1  0.170964  0.818705  0.517102  1
  Mn  Mn3  1  0.667726  0.820298  0.521222  1
  Mn  Mn4  1  0.336548  0.185061  0.481027  1
  Mn  Mn5  1  0.837934  0.184247  0.485091  1
  Mn  Mn6  1  0.428263  0.484647  0.819298  1
  Mn  Mn7  1  0.927142  0.488098  0.819268  1
  Cr  Cr8  1  0.579450  0.517855  0.182972  1
  O  O9  1  0.842329  0.646193  0.045701  1
  O  O10  1  0.321065  0.644651  0.045287  1
  O  O11  1  0.980366  0.709608  0.379023  1
  O  O12  1  0.481021  0.713299  0.384578  1
  O  O13  1  0.856810  0.954510  0.645773  1
  O  O14  1  0.351121  0.956488  0.645376  1
  O  O15  1  0.332827  0.372271  0.289525  1
  O  O16  1  0.845435  0.369022  0.287854  1
  O  O17  1  0.170929  0.626217  0.710436  1
  O  O18  1  0.668598  0.626728  0.712599  1
  O  O19  1  0.150510  0.046125  0.358127  1
  O  O20  1  0.654787  0.047015  0.359727  1
  O  O21  1  0.026912  0.292816  0.621804  1
  O  O22  1  0.524775  0.297219  0.616197  1
  O  O23  1  0.175525  0.355252  0.949253  1
  O  O24  1  0.680791  0.357476  0.943817  1
