# generated using pymatgen
data_NaNd3(US5)2
_symmetry_space_group_name_H-M   'P 1'
_cell_length_a   7.53031900
_cell_length_b   8.04383489
_cell_length_c   11.87042500
_cell_angle_alpha   90.00000000
_cell_angle_beta   90.00000000
_cell_angle_gamma   90.48306949
_symmetry_Int_Tables_number   1
_chemical_formula_structural   NaNd3(US5)2
_chemical_formula_sum   'Na2 Nd6 U4 S20'
_cell_volume   718.99745712
_cell_formula_units_Z   2
loop_
 _symmetry_equiv_pos_site_id
 _symmetry_equiv_pos_as_xyz
  1  'x, y, z'
loop_
 _atom_site_type_symbol
 _atom_site_label
 _atom_site_symmetry_multiplicity
 _atom_site_fract_x
 _atom_site_fract_y
 _atom_site_fract_z
 _atom_site_occupancy
  Na  Na0  1  0.530632  0.501447  0.325559  1
  Na  Na1  1  0.969368  0.998553  0.825559  1
  Nd  Nd2  1  0.470969  0.000846  0.679887  1
  Nd  Nd3  1  0.029031  0.499154  0.179887  1
  Nd  Nd4  1  0.463375  0.499536  0.671163  1
  Nd  Nd5  1  0.036625  0.000464  0.171163  1
  Nd  Nd6  1  0.532391  0.998868  0.324976  1
  Nd  Nd7  1  0.967609  0.501132  0.824976  1
  U  U8  1  0.067074  0.753839  0.493507  1
  U  U9  1  0.432926  0.746161  0.993507  1
  U  U10  1  0.931159  0.251115  0.507267  1
  U  U11  1  0.568841  0.248885  0.007267  1
  S  S12  1  0.835145  0.957025  0.583946  1
  S  S13  1  0.664855  0.542975  0.083946  1
  S  S14  1  0.158309  0.463481  0.411977  1
  S  S15  1  0.341691  0.036519  0.911977  1
  S  S16  1  0.166414  0.044750  0.410141  1
  S  S17  1  0.333586  0.455250  0.910141  1
  S  S18  1  0.834900  0.542903  0.591029  1
  S  S19  1  0.665100  0.957097  0.091029  1
  S  S20  1  0.851394  0.756966  0.312122  1
  S  S21  1  0.648606  0.743034  0.812122  1
  S  S22  1  0.162888  0.258090  0.682118  1
  S  S23  1  0.337112  0.241910  0.182118  1
  S  S24  1  0.445183  0.760446  0.500159  1
  S  S25  1  0.054817  0.739554  0.000159  1
  S  S26  1  0.555277  0.242803  0.506576  1
  S  S27  1  0.944723  0.257197  0.006576  1
  S  S28  1  0.184816  0.745572  0.709422  1
  S  S29  1  0.315184  0.754428  0.209422  1
  S  S30  1  0.818592  0.240684  0.290150  1
  S  S31  1  0.681408  0.259316  0.790150  1
