# generated using pymatgen
data_Nd15YCd4CuRu3
_symmetry_space_group_name_H-M   'P 1'
_cell_length_a   9.95132286
_cell_length_b   9.91954521
_cell_length_c   9.95132308
_cell_angle_alpha   59.69754638
_cell_angle_beta   59.84506360
_cell_angle_gamma   59.69753988
_symmetry_Int_Tables_number   1
_chemical_formula_structural   Nd15YCd4CuRu3
_chemical_formula_sum   'Nd15 Y1 Cd4 Cu1 Ru3'
_cell_volume   690.60759544
_cell_formula_units_Z   1
loop_
 _symmetry_equiv_pos_site_id
 _symmetry_equiv_pos_as_xyz
  1  'x, y, z'
loop_
 _atom_site_type_symbol
 _atom_site_label
 _atom_site_symmetry_multiplicity
 _atom_site_fract_x
 _atom_site_fract_y
 _atom_site_fract_z
 _atom_site_occupancy
  Nd  Nd0  1  0.440719  0.437044  0.060188  1
  Nd  Nd1  1  0.065614  0.057762  0.439364  1
  Nd  Nd2  1  0.439364  0.057762  0.065614  1
  Nd  Nd3  1  0.849603  0.846915  0.849603  1
  Nd  Nd4  1  0.691386  0.315341  0.304129  1
  Nd  Nd5  1  0.060188  0.437044  0.440719  1
  Nd  Nd6  1  0.312583  0.686563  0.689884  1
  Nd  Nd7  1  0.304129  0.315341  0.691386  1
  Nd  Nd8  1  0.850834  0.844963  0.454249  1
  Nd  Nd9  1  0.689884  0.686563  0.312583  1
  Nd  Nd10  1  0.454249  0.844963  0.850834  1
  Nd  Nd11  1  0.061148  0.438735  0.061148  1
  Nd  Nd12  1  0.844584  0.459343  0.844584  1
  Nd  Nd13  1  0.438974  0.056837  0.438974  1
  Nd  Nd14  1  0.310506  0.687857  0.310506  1
  Y  Y15  1  0.690726  0.315066  0.690726  1
  Cd  Cd16  1  0.079910  0.759165  0.079910  1
  Cd  Cd17  1  0.077713  0.080759  0.760287  1
  Cd  Cd18  1  0.760287  0.080759  0.077713  1
  Cd  Cd19  1  0.079618  0.079202  0.079618  1
  Cu  Cu20  1  0.642507  0.075853  0.642507  1
  Ru  Ru21  1  0.637803  0.645484  0.637803  1
  Ru  Ru22  1  0.638598  0.645340  0.079070  1
  Ru  Ru23  1  0.079070  0.645340  0.638598  1
