# generated using pymatgen
data_Cs3CoGe2O7
_symmetry_space_group_name_H-M   'P 1'
_cell_length_a   10.04248459
_cell_length_b   10.04248418
_cell_length_c   7.93419685
_cell_angle_alpha   72.78317124
_cell_angle_beta   72.78317342
_cell_angle_gamma   121.15717917
_symmetry_Int_Tables_number   1
_chemical_formula_structural   Cs3CoGe2O7
_chemical_formula_sum   'Cs6 Co2 Ge4 O14'
_cell_volume   546.48870371
_cell_formula_units_Z   2
loop_
 _symmetry_equiv_pos_site_id
 _symmetry_equiv_pos_as_xyz
  1  'x, y, z'
loop_
 _atom_site_type_symbol
 _atom_site_label
 _atom_site_symmetry_multiplicity
 _atom_site_fract_x
 _atom_site_fract_y
 _atom_site_fract_z
 _atom_site_occupancy
  Cs  Cs0  1  0.592144  0.981023  0.733026  1
  Cs  Cs1  1  0.011510  0.988490  0.750000  1
  Cs  Cs2  1  0.981023  0.592144  0.233026  1
  Cs  Cs3  1  0.988490  0.011510  0.250000  1
  Cs  Cs4  1  0.018977  0.407856  0.766974  1
  Cs  Cs5  1  0.407856  0.018977  0.266974  1
  Co  Co6  1  0.441841  0.558159  0.750000  1
  Co  Co7  1  0.558159  0.441841  0.250000  1
  Ge  Ge8  1  0.764389  0.566416  0.756227  1
  Ge  Ge9  1  0.433584  0.235611  0.743773  1
  Ge  Ge10  1  0.566416  0.764389  0.256227  1
  Ge  Ge11  1  0.235611  0.433584  0.243773  1
  O  O12  1  0.668238  0.674836  0.728161  1
  O  O13  1  0.674836  0.668238  0.228161  1
  O  O14  1  0.518643  0.273362  0.485793  1
  O  O15  1  0.325164  0.331762  0.771839  1
  O  O16  1  0.001553  0.278188  0.441434  1
  O  O17  1  0.481357  0.726638  0.514207  1
  O  O18  1  0.278188  0.001553  0.941434  1
  O  O19  1  0.273362  0.518643  0.985793  1
  O  O20  1  0.358486  0.641514  0.250000  1
  O  O21  1  0.331762  0.325164  0.271839  1
  O  O22  1  0.721812  0.998447  0.058566  1
  O  O23  1  0.641514  0.358486  0.750000  1
  O  O24  1  0.998447  0.721812  0.558566  1
  O  O25  1  0.726638  0.481357  0.014207  1
