# generated using pymatgen
data_Cs4Sn(TeS)2
_symmetry_space_group_name_H-M   'P 1'
_cell_length_a   9.18594700
_cell_length_b   11.36627100
_cell_length_c   16.07863000
_cell_angle_alpha   90.00000000
_cell_angle_beta   90.00000000
_cell_angle_gamma   90.00000000
_symmetry_Int_Tables_number   1
_chemical_formula_structural   Cs4Sn(TeS)2
_chemical_formula_sum   'Cs16 Sn4 Te8 S8'
_cell_volume   1678.76916329
_cell_formula_units_Z   4
loop_
 _symmetry_equiv_pos_site_id
 _symmetry_equiv_pos_as_xyz
  1  'x, y, z'
loop_
 _atom_site_type_symbol
 _atom_site_label
 _atom_site_symmetry_multiplicity
 _atom_site_fract_x
 _atom_site_fract_y
 _atom_site_fract_z
 _atom_site_occupancy
  Cs  Cs0  1  0.500000  0.500000  0.500000  1
  Cs  Cs1  1  0.144894  0.461904  0.274159  1
  Cs  Cs2  1  0.144894  0.038096  0.274159  1
  Cs  Cs3  1  0.981045  0.750000  0.438078  1
  Cs  Cs4  1  0.018955  0.250000  0.561922  1
  Cs  Cs5  1  0.644894  0.961904  0.225841  1
  Cs  Cs6  1  0.355106  0.038096  0.774159  1
  Cs  Cs7  1  0.855106  0.961904  0.725841  1
  Cs  Cs8  1  0.355106  0.461904  0.774159  1
  Cs  Cs9  1  0.000000  0.500000  0.000000  1
  Cs  Cs10  1  0.481045  0.250000  0.061922  1
  Cs  Cs11  1  0.644894  0.538096  0.225841  1
  Cs  Cs12  1  0.518955  0.750000  0.938078  1
  Cs  Cs13  1  0.000000  0.000000  0.000000  1
  Cs  Cs14  1  0.855106  0.538096  0.725841  1
  Cs  Cs15  1  0.500000  0.000000  0.500000  1
  Sn  Sn16  1  0.733290  0.250000  0.841439  1
  Sn  Sn17  1  0.766710  0.250000  0.341439  1
  Sn  Sn18  1  0.233290  0.750000  0.658561  1
  Sn  Sn19  1  0.266710  0.750000  0.158561  1
  Te  Te20  1  0.539923  0.750000  0.668862  1
  Te  Te21  1  0.460077  0.250000  0.331138  1
  Te  Te22  1  0.365341  0.750000  0.325924  1
  Te  Te23  1  0.134659  0.750000  0.825924  1
  Te  Te24  1  0.039923  0.250000  0.831138  1
  Te  Te25  1  0.960077  0.750000  0.168862  1
  Te  Te26  1  0.634659  0.250000  0.674076  1
  Te  Te27  1  0.865341  0.250000  0.174076  1
  S  S28  1  0.847275  0.426966  0.409989  1
  S  S29  1  0.652725  0.073034  0.909989  1
  S  S30  1  0.347275  0.926966  0.090011  1
  S  S31  1  0.347275  0.573034  0.090011  1
  S  S32  1  0.152725  0.573034  0.590011  1
  S  S33  1  0.847275  0.073034  0.409989  1
  S  S34  1  0.152725  0.926966  0.590011  1
  S  S35  1  0.652725  0.426966  0.909989  1
