# generated using pymatgen
data_Yb3Tm(OsC2)2
_symmetry_space_group_name_H-M   'P 1'
_cell_length_a   5.10811300
_cell_length_b   6.44738207
_cell_length_c   10.08346162
_cell_angle_alpha   90.53646555
_cell_angle_beta   90.00000000
_cell_angle_gamma   90.00000000
_symmetry_Int_Tables_number   1
_chemical_formula_structural   Yb3Tm(OsC2)2
_chemical_formula_sum   'Yb6 Tm2 Os4 C8'
_cell_volume   332.07372641
_cell_formula_units_Z   2
loop_
 _symmetry_equiv_pos_site_id
 _symmetry_equiv_pos_as_xyz
  1  'x, y, z'
loop_
 _atom_site_type_symbol
 _atom_site_label
 _atom_site_symmetry_multiplicity
 _atom_site_fract_x
 _atom_site_fract_y
 _atom_site_fract_z
 _atom_site_occupancy
  Yb  Yb0  1  0.750000  0.809794  0.052808  1
  Yb  Yb1  1  0.250000  0.190206  0.947192  1
  Yb  Yb2  1  0.250000  0.534543  0.220337  1
  Yb  Yb3  1  0.750000  0.465457  0.779663  1
  Yb  Yb4  1  0.750000  0.966145  0.724190  1
  Yb  Yb5  1  0.250000  0.033855  0.275810  1
  Tm  Tm6  1  0.250000  0.680011  0.553741  1
  Tm  Tm7  1  0.750000  0.319989  0.446259  1
  Os  Os8  1  0.250000  0.727375  0.852757  1
  Os  Os9  1  0.750000  0.272625  0.147243  1
  Os  Os10  1  0.750000  0.774785  0.359356  1
  Os  Os11  1  0.250000  0.225215  0.640644  1
  C  C12  1  0.250000  0.463915  0.754197  1
  C  C13  1  0.750000  0.536085  0.245803  1
  C  C14  1  0.750000  0.039731  0.265900  1
  C  C15  1  0.250000  0.960269  0.734100  1
  C  C16  1  0.250000  0.799461  0.030641  1
  C  C17  1  0.750000  0.200539  0.969359  1
  C  C18  1  0.750000  0.682238  0.537984  1
  C  C19  1  0.250000  0.317762  0.462016  1
