# generated using pymatgen
data_Ca2Zn5GaGe2
_symmetry_space_group_name_H-M   'P 1'
_cell_length_a   4.16958900
_cell_length_b   4.16958900
_cell_length_c   11.14931100
_cell_angle_alpha   90.00000000
_cell_angle_beta   90.00000000
_cell_angle_gamma   90.00000000
_symmetry_Int_Tables_number   1
_chemical_formula_structural   Ca2Zn5GaGe2
_chemical_formula_sum   'Ca2 Zn5 Ga1 Ge2'
_cell_volume   193.83603899
_cell_formula_units_Z   1
loop_
 _symmetry_equiv_pos_site_id
 _symmetry_equiv_pos_as_xyz
  1  'x, y, z'
loop_
 _atom_site_type_symbol
 _atom_site_label
 _atom_site_symmetry_multiplicity
 _atom_site_fract_x
 _atom_site_fract_y
 _atom_site_fract_z
 _atom_site_occupancy
  Ca  Ca0  1  0.000000  0.000000  0.999760  1
  Ca  Ca1  1  0.500000  0.500000  0.496017  1
  Zn  Zn2  1  0.000000  0.500000  0.247571  1
  Zn  Zn3  1  0.500000  0.000000  0.751482  1
  Zn  Zn4  1  0.500000  0.000000  0.247571  1
  Zn  Zn5  1  0.000000  0.500000  0.751482  1
  Zn  Zn6  1  0.500000  0.500000  0.114661  1
  Ga  Ga7  1  0.000000  0.000000  0.613126  1
  Ge  Ge8  1  0.000000  0.000000  0.388319  1
  Ge  Ge9  1  0.500000  0.500000  0.890013  1
