# generated using pymatgen
data_Pu4H11
_symmetry_space_group_name_H-M   'P 1'
_cell_length_a   6.44930882
_cell_length_b   6.44930835
_cell_length_c   6.44930865
_cell_angle_alpha   131.67962354
_cell_angle_beta   131.67961395
_cell_angle_gamma   70.73550057
_symmetry_Int_Tables_number   1
_chemical_formula_structural   Pu4H11
_chemical_formula_sum   'Pu4 H11'
_cell_volume   146.57480852
_cell_formula_units_Z   1
loop_
 _symmetry_equiv_pos_site_id
 _symmetry_equiv_pos_as_xyz
  1  'x, y, z'
loop_
 _atom_site_type_symbol
 _atom_site_label
 _atom_site_symmetry_multiplicity
 _atom_site_fract_x
 _atom_site_fract_y
 _atom_site_fract_z
 _atom_site_occupancy
  Pu  Pu0  1  0.500000  0.000000  0.500000  1
  Pu  Pu1  1  0.263231  0.263231  0.000000  1
  Pu  Pu2  1  0.000000  0.500000  0.500000  1
  Pu  Pu3  1  0.736769  0.736769  0.000000  1
  H  H4  1  0.645808  0.111409  0.000000  1
  H  H5  1  0.354192  0.354192  0.465600  1
  H  H6  1  0.111409  0.645808  0.000000  1
  H  H7  1  0.888591  0.888591  0.534400  1
  H  H8  1  0.888591  0.354192  0.000000  1
  H  H9  1  0.645808  0.645808  0.534400  1
  H  H10  1  0.354192  0.888591  0.000000  1
  H  H11  1  0.111409  0.111409  0.465600  1
  H  H12  1  0.750000  0.250000  0.500000  1
  H  H13  1  0.500000  0.500000  0.000000  1
  H  H14  1  0.250000  0.750000  0.500000  1
