# generated using pymatgen
data_Dy4Y6Cd3Fe
_symmetry_space_group_name_H-M   'P 1'
_cell_length_a   9.60020778
_cell_length_b   9.59826534
_cell_length_c   9.78855270
_cell_angle_alpha   89.99999886
_cell_angle_beta   90.08627985
_cell_angle_gamma   119.99330166
_symmetry_Int_Tables_number   1
_chemical_formula_structural   Dy4Y6Cd3Fe
_chemical_formula_sum   'Dy8 Y12 Cd6 Fe2'
_cell_volume   781.18006624
_cell_formula_units_Z   2
loop_
 _symmetry_equiv_pos_site_id
 _symmetry_equiv_pos_as_xyz
  1  'x, y, z'
loop_
 _atom_site_type_symbol
 _atom_site_label
 _atom_site_symmetry_multiplicity
 _atom_site_fract_x
 _atom_site_fract_y
 _atom_site_fract_z
 _atom_site_occupancy
  Dy  Dy0  1  0.212361  0.787553  0.435866  1
  Dy  Dy1  1  0.212361  0.424810  0.435866  1
  Dy  Dy2  1  0.575157  0.787580  0.435968  1
  Dy  Dy3  1  0.787649  0.212295  0.564245  1
  Dy  Dy4  1  0.787649  0.575353  0.564245  1
  Dy  Dy5  1  0.425052  0.212525  0.564063  1
  Dy  Dy6  1  0.787679  0.212632  0.935493  1
  Dy  Dy7  1  0.787679  0.575045  0.935493  1
  Y  Y8  1  0.000014  0.000007  0.500091  1
  Y  Y9  1  0.999603  0.999801  0.999694  1
  Y  Y10  1  0.541740  0.458409  0.250482  1
  Y  Y11  1  0.541740  0.083331  0.250482  1
  Y  Y12  1  0.916559  0.458280  0.250292  1
  Y  Y13  1  0.458553  0.541636  0.749482  1
  Y  Y14  1  0.458553  0.916917  0.749482  1
  Y  Y15  1  0.082806  0.541403  0.749639  1
  Y  Y16  1  0.423667  0.211833  0.936703  1
  Y  Y17  1  0.211516  0.788061  0.063644  1
  Y  Y18  1  0.211516  0.423457  0.063644  1
  Y  Y19  1  0.576576  0.788289  0.063434  1
  Cd  Cd20  1  0.885432  0.114673  0.249886  1
  Cd  Cd21  1  0.885432  0.770759  0.249886  1
  Cd  Cd22  1  0.229333  0.114667  0.249767  1
  Cd  Cd23  1  0.114630  0.885351  0.750249  1
  Cd  Cd24  1  0.114630  0.229279  0.750249  1
  Cd  Cd25  1  0.770720  0.885360  0.750152  1
  Fe  Fe26  1  0.333334  0.666668  0.252667  1
  Fe  Fe27  1  0.668057  0.334028  0.748834  1
