# generated using pymatgen
data_TbPrDy2(Ir2O7)2
_symmetry_space_group_name_H-M   'P 1'
_cell_length_a   7.32400595
_cell_length_b   7.28012679
_cell_length_c   7.28012704
_cell_angle_alpha   59.94761167
_cell_angle_beta   60.15061890
_cell_angle_gamma   60.15061775
_symmetry_Int_Tables_number   1
_chemical_formula_structural   TbPrDy2(Ir2O7)2
_chemical_formula_sum   'Tb1 Pr1 Dy2 Ir4 O14'
_cell_volume   274.99420500
_cell_formula_units_Z   1
loop_
 _symmetry_equiv_pos_site_id
 _symmetry_equiv_pos_as_xyz
  1  'x, y, z'
loop_
 _atom_site_type_symbol
 _atom_site_label
 _atom_site_symmetry_multiplicity
 _atom_site_fract_x
 _atom_site_fract_y
 _atom_site_fract_z
 _atom_site_occupancy
  Tb  Tb0  1  0.125000  0.125000  0.125000  1
  Pr  Pr1  1  0.625000  0.125000  0.125000  1
  Dy  Dy2  1  0.125000  0.125000  0.625000  1
  Dy  Dy3  1  0.125000  0.625000  0.125000  1
  Ir  Ir4  1  0.625000  0.625000  0.625000  1
  Ir  Ir5  1  0.125000  0.625000  0.625000  1
  Ir  Ir6  1  0.625000  0.125000  0.625000  1
  Ir  Ir7  1  0.625000  0.625000  0.125000  1
  O  O8  1  0.961799  0.538805  0.538805  1
  O  O9  1  0.288378  0.289580  0.710701  1
  O  O10  1  0.961622  0.539299  0.960420  1
  O  O11  1  0.718949  0.289567  0.289567  1
  O  O12  1  0.530499  0.548241  0.960636  1
  O  O13  1  0.530499  0.960636  0.548241  1
  O  O14  1  0.531051  0.960433  0.960433  1
  O  O15  1  0.238201  0.254486  0.254486  1
  O  O16  1  0.288201  0.711195  0.711195  1
  O  O17  1  0.719501  0.289364  0.701759  1
  O  O18  1  0.011799  0.995514  0.995514  1
  O  O19  1  0.961622  0.960420  0.539299  1
  O  O20  1  0.288378  0.710701  0.289580  1
  O  O21  1  0.719501  0.701759  0.289364  1
