# generated using pymatgen
data_AcCe2In3Ru2
_symmetry_space_group_name_H-M   'P 1'
_cell_length_a   8.86901716
_cell_length_b   8.86901719
_cell_length_c   5.00200014
_cell_angle_alpha   83.14409980
_cell_angle_beta   83.14409534
_cell_angle_gamma   32.34066501
_symmetry_Int_Tables_number   1
_chemical_formula_structural   AcCe2In3Ru2
_chemical_formula_sum   'Ac1 Ce2 In3 Ru2'
_cell_volume   208.84733897
_cell_formula_units_Z   1
loop_
 _symmetry_equiv_pos_site_id
 _symmetry_equiv_pos_as_xyz
  1  'x, y, z'
loop_
 _atom_site_type_symbol
 _atom_site_label
 _atom_site_symmetry_multiplicity
 _atom_site_fract_x
 _atom_site_fract_y
 _atom_site_fract_z
 _atom_site_occupancy
  Ac  Ac0  1  0.000000  0.000000  0.000000  1
  Ce  Ce1  1  0.822691  0.822691  0.575627  1
  Ce  Ce2  1  0.177309  0.177309  0.424373  1
  In  In3  1  0.362333  0.362333  0.044896  1
  In  In4  1  0.500000  0.500000  0.500000  1
  In  In5  1  0.637667  0.637667  0.955104  1
  Ru  Ru6  1  0.788143  0.788143  0.134874  1
  Ru  Ru7  1  0.211857  0.211857  0.865126  1
