# generated using pymatgen
data_ThPa2(Co3P2)3
_symmetry_space_group_name_H-M   'P 1'
_cell_length_a   3.78866200
_cell_length_b   10.41980400
_cell_length_c   12.36680200
_cell_angle_alpha   90.00000000
_cell_angle_beta   90.00000000
_cell_angle_gamma   90.00000000
_symmetry_Int_Tables_number   1
_chemical_formula_structural   ThPa2(Co3P2)3
_chemical_formula_sum   'Th2 Pa4 Co18 P12'
_cell_volume   488.20567045
_cell_formula_units_Z   2
loop_
 _symmetry_equiv_pos_site_id
 _symmetry_equiv_pos_as_xyz
  1  'x, y, z'
loop_
 _atom_site_type_symbol
 _atom_site_label
 _atom_site_symmetry_multiplicity
 _atom_site_fract_x
 _atom_site_fract_y
 _atom_site_fract_z
 _atom_site_occupancy
  Th  Th0  1  0.000000  0.500000  0.520836  1
  Th  Th1  1  0.500000  0.000000  0.479164  1
  Pa  Pa2  1  0.500000  0.816713  0.207286  1
  Pa  Pa3  1  0.500000  0.183287  0.207286  1
  Pa  Pa4  1  0.000000  0.683287  0.792714  1
  Pa  Pa5  1  0.000000  0.316713  0.792714  1
  Co  Co6  1  0.500000  0.500000  0.157802  1
  Co  Co7  1  0.000000  0.000000  0.842198  1
  Co  Co8  1  0.500000  0.500000  0.707494  1
  Co  Co9  1  0.000000  0.000000  0.292506  1
  Co  Co10  1  0.000000  0.500000  0.980501  1
  Co  Co11  1  0.500000  0.000000  0.019499  1
  Co  Co12  1  0.500000  0.333175  0.995098  1
  Co  Co13  1  0.500000  0.666825  0.995098  1
  Co  Co14  1  0.000000  0.166825  0.004902  1
  Co  Co15  1  0.000000  0.833175  0.004902  1
  Co  Co16  1  0.500000  0.300535  0.426288  1
  Co  Co17  1  0.500000  0.699465  0.426288  1
  Co  Co18  1  0.000000  0.199465  0.573712  1
  Co  Co19  1  0.000000  0.800535  0.573712  1
  Co  Co20  1  0.500000  0.877631  0.716849  1
  Co  Co21  1  0.500000  0.122369  0.716849  1
  Co  Co22  1  0.000000  0.622369  0.283151  1
  Co  Co23  1  0.000000  0.377631  0.283151  1
  P  P24  1  0.500000  0.500000  0.884350  1
  P  P25  1  0.000000  0.000000  0.115650  1
  P  P26  1  0.500000  0.500000  0.337369  1
  P  P27  1  0.000000  0.000000  0.662631  1
  P  P28  1  0.500000  0.307522  0.613942  1
  P  P29  1  0.500000  0.692478  0.613942  1
  P  P30  1  0.000000  0.192478  0.386058  1
  P  P31  1  0.000000  0.807522  0.386058  1
  P  P32  1  0.500000  0.848989  0.897235  1
  P  P33  1  0.500000  0.151011  0.897235  1
  P  P34  1  0.000000  0.651011  0.102765  1
  P  P35  1  0.000000  0.348989  0.102765  1
