# generated using pymatgen
data_Tb11HoCo4SnRu
_symmetry_space_group_name_H-M   'P 1'
_cell_length_a   8.33192702
_cell_length_b   8.33338170
_cell_length_c   8.33338046
_cell_angle_alpha   111.23197475
_cell_angle_beta   110.54079086
_cell_angle_gamma   106.68394613
_symmetry_Int_Tables_number   1
_chemical_formula_structural   Tb11HoCo4SnRu
_chemical_formula_sum   'Tb11 Ho1 Co4 Sn1 Ru1'
_cell_volume   444.57510543
_cell_formula_units_Z   1
loop_
 _symmetry_equiv_pos_site_id
 _symmetry_equiv_pos_as_xyz
  1  'x, y, z'
loop_
 _atom_site_type_symbol
 _atom_site_label
 _atom_site_symmetry_multiplicity
 _atom_site_fract_x
 _atom_site_fract_y
 _atom_site_fract_z
 _atom_site_occupancy
  Tb  Tb0  1  0.597116  0.789866  0.807250  1
  Tb  Tb1  1  0.017643  0.210007  0.807636  1
  Tb  Tb2  1  0.982899  0.789502  0.193397  1
  Tb  Tb3  1  0.185343  0.291162  0.476056  1
  Tb  Tb4  1  0.814314  0.707697  0.522370  1
  Tb  Tb5  1  0.185343  0.709288  0.894181  1
  Tb  Tb6  1  0.814314  0.291943  0.106615  1
  Tb  Tb7  1  0.313817  0.619256  0.306358  1
  Tb  Tb8  1  0.686054  0.379949  0.693217  1
  Tb  Tb9  1  0.313817  0.007461  0.694561  1
  Tb  Tb10  1  0.686054  0.992837  0.306105  1
  Ho  Ho11  1  0.404567  0.210938  0.193629  1
  Co  Co12  1  0.378587  0.000398  0.378189  1
  Co  Co13  1  0.619336  0.999630  0.619706  1
  Co  Co14  1  0.111490  0.611225  0.500264  1
  Co  Co15  1  0.886880  0.388380  0.498500  1
  Sn  Sn16  1  0.500001  0.499716  0.000285  1
  Ru  Ru17  1  0.002426  0.000745  0.001681  1
