# generated using pymatgen
data_HoTa8ZnSe16
_symmetry_space_group_name_H-M   'P 1'
_cell_length_a   7.00353600
_cell_length_b   7.00353555
_cell_length_c   13.74744700
_cell_angle_alpha   90.00000000
_cell_angle_beta   90.00000000
_cell_angle_gamma   120.00001155
_symmetry_Int_Tables_number   1
_chemical_formula_structural   HoTa8ZnSe16
_chemical_formula_sum   'Ho1 Ta8 Zn1 Se16'
_cell_volume   583.96569903
_cell_formula_units_Z   1
loop_
 _symmetry_equiv_pos_site_id
 _symmetry_equiv_pos_as_xyz
  1  'x, y, z'
loop_
 _atom_site_type_symbol
 _atom_site_label
 _atom_site_symmetry_multiplicity
 _atom_site_fract_x
 _atom_site_fract_y
 _atom_site_fract_z
 _atom_site_occupancy
  Ho  Ho0  1  0.000000  0.000000  0.000000  1
  Ta  Ta1  1  0.508976  0.491024  0.736813  1
  Ta  Ta2  1  0.017952  0.508976  0.263187  1
  Ta  Ta3  1  0.491024  0.982048  0.263187  1
  Ta  Ta4  1  0.508976  0.017952  0.736813  1
  Ta  Ta5  1  0.982048  0.491024  0.736813  1
  Ta  Ta6  1  0.491024  0.508976  0.263187  1
  Ta  Ta7  1  0.000000  0.000000  0.737767  1
  Ta  Ta8  1  0.000000  0.000000  0.262233  1
  Zn  Zn9  1  0.000000  0.000000  0.500000  1
  Se  Se10  1  0.829646  0.170354  0.381926  1
  Se  Se11  1  0.829646  0.659293  0.381926  1
  Se  Se12  1  0.340707  0.170354  0.381926  1
  Se  Se13  1  0.661067  0.830534  0.857405  1
  Se  Se14  1  0.170354  0.340707  0.618074  1
  Se  Se15  1  0.169466  0.830534  0.857405  1
  Se  Se16  1  0.169466  0.338933  0.857405  1
  Se  Se17  1  0.830534  0.169466  0.142595  1
  Se  Se18  1  0.338933  0.169466  0.142595  1
  Se  Se19  1  0.659293  0.829646  0.618074  1
  Se  Se20  1  0.333333  0.666667  0.135594  1
  Se  Se21  1  0.666667  0.333333  0.611174  1
  Se  Se22  1  0.666667  0.333333  0.864406  1
  Se  Se23  1  0.333333  0.666667  0.388826  1
  Se  Se24  1  0.830534  0.661067  0.142595  1
  Se  Se25  1  0.170354  0.829646  0.618074  1
