# generated using pymatgen
data_Tb7Ho(Zr3Sn4)4
_symmetry_space_group_name_H-M   'P 1'
_cell_length_a   7.79775515
_cell_length_b   7.83638005
_cell_length_c   14.73944830
_cell_angle_alpha   89.99061680
_cell_angle_beta   90.02093657
_cell_angle_gamma   90.00806336
_symmetry_Int_Tables_number   1
_chemical_formula_structural   Tb7Ho(Zr3Sn4)4
_chemical_formula_sum   'Tb7 Ho1 Zr12 Sn16'
_cell_volume   900.67119419
_cell_formula_units_Z   1
loop_
 _symmetry_equiv_pos_site_id
 _symmetry_equiv_pos_as_xyz
  1  'x, y, z'
loop_
 _atom_site_type_symbol
 _atom_site_label
 _atom_site_symmetry_multiplicity
 _atom_site_fract_x
 _atom_site_fract_y
 _atom_site_fract_z
 _atom_site_occupancy
  Tb  Tb0  1  0.012791  0.177684  0.593040  1
  Tb  Tb1  1  0.487248  0.677686  0.407017  1
  Tb  Tb2  1  0.987206  0.822352  0.092925  1
  Tb  Tb3  1  0.487200  0.677625  0.092887  1
  Tb  Tb4  1  0.987241  0.822340  0.407026  1
  Tb  Tb5  1  0.512779  0.322281  0.592909  1
  Tb  Tb6  1  0.012736  0.177719  0.907025  1
  Ho  Ho7  1  0.512985  0.322074  0.906931  1
  Zr  Zr8  1  0.349457  0.837145  0.871121  1
  Zr  Zr9  1  0.849396  0.662676  0.628975  1
  Zr  Zr10  1  0.650539  0.162736  0.371067  1
  Zr  Zr11  1  0.150458  0.337162  0.128914  1
  Zr  Zr12  1  0.650396  0.162870  0.128789  1
  Zr  Zr13  1  0.150540  0.337233  0.371062  1
  Zr  Zr14  1  0.349457  0.837286  0.629000  1
  Zr  Zr15  1  0.849300  0.662642  0.871106  1
  Zr  Zr16  1  0.171836  0.509567  0.750034  1
  Zr  Zr17  1  0.671593  0.990586  0.750072  1
  Zr  Zr18  1  0.828299  0.490462  0.249968  1
  Zr  Zr19  1  0.328352  0.009609  0.249962  1
  Sn  Sn20  1  0.311664  0.040682  0.042264  1
  Sn  Sn21  1  0.811469  0.459457  0.457626  1
  Sn  Sn22  1  0.688480  0.959511  0.542339  1
  Sn  Sn23  1  0.189261  0.540079  0.957553  1
  Sn  Sn24  1  0.688189  0.960019  0.957588  1
  Sn  Sn25  1  0.188499  0.540552  0.542367  1
  Sn  Sn26  1  0.311560  0.040499  0.457638  1
  Sn  Sn27  1  0.810999  0.459336  0.042192  1
  Sn  Sn28  1  0.544203  0.615441  0.750118  1
  Sn  Sn29  1  0.044321  0.884282  0.750005  1
  Sn  Sn30  1  0.455769  0.384215  0.250003  1
  Sn  Sn31  1  0.955614  0.115734  0.250002  1
  Sn  Sn32  1  0.318067  0.154549  0.750346  1
  Sn  Sn33  1  0.817194  0.345792  0.750129  1
  Sn  Sn34  1  0.682428  0.845974  0.249991  1
  Sn  Sn35  1  0.182471  0.654144  0.250011  1
