# generated using pymatgen
data_Hf10(GaBi)3
_symmetry_space_group_name_H-M   'P 1'
_cell_length_a   5.57834729
_cell_length_b   8.27096010
_cell_length_c   8.33185011
_cell_angle_alpha   83.51809290
_cell_angle_beta   70.44204609
_cell_angle_gamma   70.29212435
_symmetry_Int_Tables_number   1
_chemical_formula_structural   Hf10(GaBi)3
_chemical_formula_sum   'Hf10 Ga3 Bi3'
_cell_volume   341.01935169
_cell_formula_units_Z   1
loop_
 _symmetry_equiv_pos_site_id
 _symmetry_equiv_pos_as_xyz
  1  'x, y, z'
loop_
 _atom_site_type_symbol
 _atom_site_label
 _atom_site_symmetry_multiplicity
 _atom_site_fract_x
 _atom_site_fract_y
 _atom_site_fract_z
 _atom_site_occupancy
  Hf  Hf0  1  0.706839  0.874569  0.711753  1
  Hf  Hf1  1  0.284673  0.136958  0.293695  1
  Hf  Hf2  1  0.777138  0.289069  0.156655  1
  Hf  Hf3  1  0.208540  0.719710  0.863212  1
  Hf  Hf4  1  0.571750  0.719710  0.136788  1
  Hf  Hf5  1  0.433794  0.289069  0.843345  1
  Hf  Hf6  1  0.078368  0.136958  0.706305  1
  Hf  Hf7  1  0.918592  0.874569  0.288247  1
  Hf  Hf8  1  0.757443  0.477009  0.500000  1
  Hf  Hf9  1  0.265548  0.477009  0.500000  1
  Ga  Ga10  1  0.666802  0.166396  0.500000  1
  Ga  Ga11  1  0.246175  0.007651  0.000000  1
  Ga  Ga12  1  0.746175  0.007651  0.000000  1
  Bi  Bi13  1  0.165565  0.501600  0.167271  1
  Bi  Bi14  1  0.832836  0.501600  0.832729  1
  Bi  Bi15  1  0.339762  0.820476  0.500000  1
