# generated using pymatgen
data_La7Yb12HoGe16
_symmetry_space_group_name_H-M   'P 1'
_cell_length_a   7.56576884
_cell_length_b   7.97223408
_cell_length_c   15.28991600
_cell_angle_alpha   89.94453137
_cell_angle_beta   89.92295199
_cell_angle_gamma   89.89508271
_symmetry_Int_Tables_number   1
_chemical_formula_structural   La7Yb12HoGe16
_chemical_formula_sum   'La7 Yb12 Ho1 Ge16'
_cell_volume   922.22498995
_cell_formula_units_Z   1
loop_
 _symmetry_equiv_pos_site_id
 _symmetry_equiv_pos_as_xyz
  1  'x, y, z'
loop_
 _atom_site_type_symbol
 _atom_site_label
 _atom_site_symmetry_multiplicity
 _atom_site_fract_x
 _atom_site_fract_y
 _atom_site_fract_z
 _atom_site_occupancy
  La  La0  1  0.976435  0.814615  0.098548  1
  La  La1  1  0.475152  0.687191  0.399832  1
  La  La2  1  0.521011  0.318658  0.903057  1
  La  La3  1  0.021758  0.183159  0.593556  1
  La  La4  1  0.021309  0.182230  0.902554  1
  La  La5  1  0.523064  0.318904  0.597079  1
  La  La6  1  0.475048  0.685339  0.101091  1
  Yb  Yb7  1  0.649760  0.003299  0.252604  1
  Yb  Yb8  1  0.143072  0.496684  0.252710  1
  Yb  Yb9  1  0.857800  0.501074  0.750544  1
  Yb  Yb10  1  0.351299  0.999077  0.750539  1
  Yb  Yb11  1  0.974811  0.812083  0.399807  1
  Yb  Yb12  1  0.679372  0.824472  0.877543  1
  Yb  Yb13  1  0.179911  0.678574  0.619170  1
  Yb  Yb14  1  0.820085  0.323752  0.123009  1
  Yb  Yb15  1  0.317380  0.172353  0.378730  1
  Yb  Yb16  1  0.319373  0.174735  0.123771  1
  Yb  Yb17  1  0.819436  0.326460  0.378649  1
  Yb  Yb18  1  0.180430  0.675885  0.877454  1
  Ho  Ho19  1  0.680754  0.821335  0.622111  1
  Ge  Ge20  1  0.762112  0.628584  0.249798  1
  Ge  Ge21  1  0.263240  0.871492  0.249745  1
  Ge  Ge22  1  0.734460  0.126918  0.747619  1
  Ge  Ge23  1  0.238355  0.373027  0.749378  1
  Ge  Ge24  1  0.023908  0.100383  0.250849  1
  Ge  Ge25  1  0.522030  0.398086  0.251624  1
  Ge  Ge26  1  0.478986  0.604647  0.747815  1
  Ge  Ge27  1  0.972829  0.896668  0.745799  1
  Ge  Ge28  1  0.850418  0.531977  0.959817  1
  Ge  Ge29  1  0.358208  0.968605  0.542231  1
  Ge  Ge30  1  0.650371  0.033470  0.038779  1
  Ge  Ge31  1  0.150507  0.467590  0.460672  1
  Ge  Ge32  1  0.151566  0.465538  0.038495  1
  Ge  Ge33  1  0.658956  0.030039  0.463584  1
  Ge  Ge34  1  0.349333  0.968326  0.960217  1
  Ge  Ge35  1  0.847458  0.534775  0.541221  1
