# generated using pymatgen
data_Tb5Sm2BI12
_symmetry_space_group_name_H-M   'P 1'
_cell_length_a   9.71523228
_cell_length_b   9.71086955
_cell_length_c   9.70825093
_cell_angle_alpha   107.74891552
_cell_angle_beta   107.73808244
_cell_angle_gamma   107.90800368
_symmetry_Int_Tables_number   1
_chemical_formula_structural   Tb5Sm2BI12
_chemical_formula_sum   'Tb5 Sm2 B1 I12'
_cell_volume   745.54112121
_cell_formula_units_Z   1
loop_
 _symmetry_equiv_pos_site_id
 _symmetry_equiv_pos_as_xyz
  1  'x, y, z'
loop_
 _atom_site_type_symbol
 _atom_site_label
 _atom_site_symmetry_multiplicity
 _atom_site_fract_x
 _atom_site_fract_y
 _atom_site_fract_z
 _atom_site_occupancy
  Tb  Tb0  1  0.039212  0.105420  0.294267  1
  Tb  Tb1  1  0.294169  0.040259  0.105444  1
  Tb  Tb2  1  0.903530  0.707765  0.972490  1
  Tb  Tb3  1  0.972671  0.904320  0.708926  1
  Tb  Tb4  1  0.709135  0.972898  0.904299  1
  Sm  Sm5  1  0.476884  0.477070  0.477238  1
  Sm  Sm6  1  0.107636  0.299330  0.040112  1
  B  B7  1  0.994465  0.993162  0.995015  1
  I  I8  1  0.477514  0.388491  0.145091  1
  I  I9  1  0.142716  0.472333  0.392870  1
  I  I10  1  0.387533  0.141567  0.470832  1
  I  I11  1  0.534879  0.614082  0.843663  1
  I  I12  1  0.843575  0.535328  0.614509  1
  I  I13  1  0.614004  0.843542  0.535280  1
  I  I14  1  0.773398  0.312554  0.921013  1
  I  I15  1  0.923548  0.777795  0.313239  1
  I  I16  1  0.313041  0.923172  0.778555  1
  I  I17  1  0.227343  0.691349  0.076757  1
  I  I18  1  0.075735  0.224498  0.684470  1
  I  I19  1  0.689013  0.075064  0.225931  1
