# generated using pymatgen
data_Pm4Mg(RhO4)3
_symmetry_space_group_name_H-M   'P 1'
_cell_length_a   5.42493676
_cell_length_b   5.81085186
_cell_length_c   7.81067251
_cell_angle_alpha   89.84863418
_cell_angle_beta   89.73638160
_cell_angle_gamma   90.57598449
_symmetry_Int_Tables_number   1
_chemical_formula_structural   Pm4Mg(RhO4)3
_chemical_formula_sum   'Pm4 Mg1 Rh3 O12'
_cell_volume   246.20382801
_cell_formula_units_Z   1
loop_
 _symmetry_equiv_pos_site_id
 _symmetry_equiv_pos_as_xyz
  1  'x, y, z'
loop_
 _atom_site_type_symbol
 _atom_site_label
 _atom_site_symmetry_multiplicity
 _atom_site_fract_x
 _atom_site_fract_y
 _atom_site_fract_z
 _atom_site_occupancy
  Pm  Pm0  1  0.975353  0.074739  0.256527  1
  Pm  Pm1  1  0.518058  0.569400  0.255958  1
  Pm  Pm2  1  0.481943  0.430601  0.744043  1
  Pm  Pm3  1  0.024647  0.925261  0.743474  1
  Mg  Mg4  1  0.000000  0.500001  0.499999  1
  Rh  Rh5  1  0.500001  0.000000  0.000000  1
  Rh  Rh6  1  0.000000  0.500001  0.000000  1
  Rh  Rh7  1  0.500001  0.000000  0.499999  1
  O  O8  1  0.686200  0.304645  0.057782  1
  O  O9  1  0.812518  0.804339  0.058615  1
  O  O10  1  0.106649  0.463481  0.249267  1
  O  O11  1  0.385709  0.960445  0.250589  1
  O  O12  1  0.688426  0.302305  0.447048  1
  O  O13  1  0.805944  0.803692  0.448628  1
  O  O14  1  0.194055  0.196308  0.551371  1
  O  O15  1  0.311575  0.697696  0.552951  1
  O  O16  1  0.614290  0.039555  0.749412  1
  O  O17  1  0.893353  0.536519  0.750734  1
  O  O18  1  0.187481  0.195661  0.941384  1
  O  O19  1  0.313801  0.695356  0.942217  1
