# generated using pymatgen
data_U2TiReC3N
_symmetry_space_group_name_H-M   'P 1'
_cell_length_a   3.22107700
_cell_length_b   5.56603900
_cell_length_c   10.97846500
_cell_angle_alpha   90.00000000
_cell_angle_beta   90.00000000
_cell_angle_gamma   90.00000000
_symmetry_Int_Tables_number   1
_chemical_formula_structural   U2TiReC3N
_chemical_formula_sum   'U4 Ti2 Re2 C6 N2'
_cell_volume   196.82894898
_cell_formula_units_Z   2
loop_
 _symmetry_equiv_pos_site_id
 _symmetry_equiv_pos_as_xyz
  1  'x, y, z'
loop_
 _atom_site_type_symbol
 _atom_site_label
 _atom_site_symmetry_multiplicity
 _atom_site_fract_x
 _atom_site_fract_y
 _atom_site_fract_z
 _atom_site_occupancy
  U  U0  1  0.250000  0.082127  0.858567  1
  U  U1  1  0.250000  0.582127  0.641433  1
  U  U2  1  0.750000  0.920281  0.142667  1
  U  U3  1  0.750000  0.420281  0.357333  1
  Ti  Ti4  1  0.250000  0.419032  0.101282  1
  Ti  Ti5  1  0.250000  0.919032  0.398718  1
  Re  Re6  1  0.750000  0.578740  0.897706  1
  Re  Re7  1  0.750000  0.078740  0.602294  1
  C  C8  1  0.750000  0.840118  0.753640  1
  C  C9  1  0.750000  0.340118  0.746360  1
  C  C10  1  0.250000  0.747903  0.993892  1
  C  C11  1  0.250000  0.247903  0.506108  1
  C  C12  1  0.750000  0.251116  0.007315  1
  C  C13  1  0.750000  0.751116  0.492685  1
  N  N14  1  0.250000  0.160683  0.243234  1
  N  N15  1  0.250000  0.660683  0.256766  1
