# generated using pymatgen
data_Tb8Lu12Si15Tc
_symmetry_space_group_name_H-M   'P 1'
_cell_length_a   7.28971285
_cell_length_b   7.67738523
_cell_length_c   14.34194200
_cell_angle_alpha   90.00000000
_cell_angle_beta   90.00000000
_cell_angle_gamma   90.16438631
_symmetry_Int_Tables_number   1
_chemical_formula_structural   Tb8Lu12Si15Tc
_chemical_formula_sum   'Tb8 Lu12 Si15 Tc1'
_cell_volume   802.65687184
_cell_formula_units_Z   1
loop_
 _symmetry_equiv_pos_site_id
 _symmetry_equiv_pos_as_xyz
  1  'x, y, z'
loop_
 _atom_site_type_symbol
 _atom_site_label
 _atom_site_symmetry_multiplicity
 _atom_site_fract_x
 _atom_site_fract_y
 _atom_site_fract_z
 _atom_site_occupancy
  Tb  Tb0  1  0.017038  0.182253  0.096693  1
  Tb  Tb1  1  0.985930  0.828202  0.903949  1
  Tb  Tb2  1  0.484057  0.678287  0.904091  1
  Tb  Tb3  1  0.985930  0.828202  0.596051  1
  Tb  Tb4  1  0.515574  0.320724  0.096619  1
  Tb  Tb5  1  0.017038  0.182253  0.403307  1
  Tb  Tb6  1  0.515574  0.320724  0.403381  1
  Tb  Tb7  1  0.484057  0.678287  0.595909  1
  Lu  Lu8  1  0.155122  0.506961  0.750000  1
  Lu  Lu9  1  0.840680  0.489007  0.250000  1
  Lu  Lu10  1  0.340122  0.013220  0.250000  1
  Lu  Lu11  1  0.664811  0.990839  0.750000  1
  Lu  Lu12  1  0.312503  0.173080  0.626707  1
  Lu  Lu13  1  0.676133  0.825333  0.374868  1
  Lu  Lu14  1  0.175564  0.678850  0.374628  1
  Lu  Lu15  1  0.676133  0.825333  0.125132  1
  Lu  Lu16  1  0.836156  0.314993  0.626508  1
  Lu  Lu17  1  0.312503  0.173080  0.873293  1
  Lu  Lu18  1  0.836156  0.314993  0.873492  1
  Lu  Lu19  1  0.175564  0.678850  0.125372  1
  Si  Si20  1  0.971020  0.890649  0.250000  1
  Si  Si21  1  0.473993  0.609121  0.250000  1
  Si  Si22  1  0.527859  0.393674  0.750000  1
  Si  Si23  1  0.280877  0.866382  0.750000  1
  Si  Si24  1  0.716908  0.131445  0.250000  1
  Si  Si25  1  0.220072  0.369625  0.250000  1
  Si  Si26  1  0.772322  0.625806  0.750000  1
  Si  Si27  1  0.157771  0.472948  0.537076  1
  Si  Si28  1  0.847028  0.533318  0.461995  1
  Si  Si29  1  0.346215  0.967864  0.460180  1
  Si  Si30  1  0.847028  0.533318  0.038005  1
  Si  Si31  1  0.650148  0.031589  0.538222  1
  Si  Si32  1  0.157771  0.472948  0.962924  1
  Si  Si33  1  0.650148  0.031589  0.961778  1
  Si  Si34  1  0.346215  0.967864  0.039820  1
  Tc  Tc35  1  0.027977  0.098388  0.750000  1
