# generated using pymatgen
data_Th2Ga2Fe2C
_symmetry_space_group_name_H-M   'P 1'
_cell_length_a   5.89911833
_cell_length_b   5.89911772
_cell_length_c   7.14086500
_cell_angle_alpha   53.79444345
_cell_angle_beta   53.79443580
_cell_angle_gamma   40.34744112
_symmetry_Int_Tables_number   1
_chemical_formula_structural   Th2Ga2Fe2C
_chemical_formula_sum   'Th2 Ga2 Fe2 C1'
_cell_volume   125.03399469
_cell_formula_units_Z   1
loop_
 _symmetry_equiv_pos_site_id
 _symmetry_equiv_pos_as_xyz
  1  'x, y, z'
loop_
 _atom_site_type_symbol
 _atom_site_label
 _atom_site_symmetry_multiplicity
 _atom_site_fract_x
 _atom_site_fract_y
 _atom_site_fract_z
 _atom_site_occupancy
  Th  Th0  1  0.446987  0.446987  0.287031  1
  Th  Th1  1  0.553013  0.553013  0.712969  1
  Ga  Ga2  1  0.832197  0.832197  0.722488  1
  Ga  Ga3  1  0.167803  0.167803  0.277512  1
  Fe  Fe4  1  0.809145  0.809145  0.086794  1
  Fe  Fe5  1  0.190855  0.190855  0.913206  1
  C  C6  1  0.000000  0.000000  0.000000  1
