# generated using pymatgen
data_HoEr3(B4Os)4
_symmetry_space_group_name_H-M   'P 1'
_cell_length_a   3.55840600
_cell_length_b   5.94945102
_cell_length_c   11.51119904
_cell_angle_alpha   89.99077298
_cell_angle_beta   90.00000000
_cell_angle_gamma   90.00000000
_symmetry_Int_Tables_number   1
_chemical_formula_structural   HoEr3(B4Os)4
_chemical_formula_sum   'Ho1 Er3 B16 Os4'
_cell_volume   243.69855210
_cell_formula_units_Z   1
loop_
 _symmetry_equiv_pos_site_id
 _symmetry_equiv_pos_as_xyz
  1  'x, y, z'
loop_
 _atom_site_type_symbol
 _atom_site_label
 _atom_site_symmetry_multiplicity
 _atom_site_fract_x
 _atom_site_fract_y
 _atom_site_fract_z
 _atom_site_occupancy
  Ho  Ho0  1  0.000000  0.628004  0.349748  1
  Er  Er1  1  0.000000  0.371975  0.650278  1
  Er  Er2  1  0.000000  0.127997  0.150228  1
  Er  Er3  1  0.000000  0.871999  0.849767  1
  B  B4  1  0.500000  0.789549  0.186097  1
  B  B5  1  0.500000  0.210484  0.813821  1
  B  B6  1  0.500000  0.289322  0.313820  1
  B  B7  1  0.500000  0.710488  0.686183  1
  B  B8  1  0.500000  0.864314  0.029990  1
  B  B9  1  0.500000  0.135693  0.970007  1
  B  B10  1  0.500000  0.364172  0.470048  1
  B  B11  1  0.500000  0.635732  0.530081  1
  B  B12  1  0.500000  0.887275  0.453213  1
  B  B13  1  0.500000  0.112948  0.546881  1
  B  B14  1  0.500000  0.387048  0.046862  1
  B  B15  1  0.500000  0.612943  0.953129  1
  B  B16  1  0.500000  0.974982  0.308190  1
  B  B17  1  0.500000  0.025159  0.691812  1
  B  B18  1  0.500000  0.474787  0.191706  1
  B  B19  1  0.500000  0.525161  0.808183  1
  Os  Os20  1  0.000000  0.641610  0.093418  1
  Os  Os21  1  0.000000  0.358406  0.906440  1
  Os  Os22  1  0.000000  0.141489  0.406479  1
  Os  Os23  1  0.000000  0.858464  0.593620  1
