# generated using pymatgen
data_Cs2V(WO4)3
_symmetry_space_group_name_H-M   'P 1'
_cell_length_a   7.30796245
_cell_length_b   7.30796290
_cell_length_c   7.30796385
_cell_angle_alpha   60.90035952
_cell_angle_beta   60.90036120
_cell_angle_gamma   60.90036641
_symmetry_Int_Tables_number   1
_chemical_formula_structural   Cs2V(WO4)3
_chemical_formula_sum   'Cs2 V1 W3 O12'
_cell_volume   281.57846937
_cell_formula_units_Z   1
loop_
 _symmetry_equiv_pos_site_id
 _symmetry_equiv_pos_as_xyz
  1  'x, y, z'
loop_
 _atom_site_type_symbol
 _atom_site_label
 _atom_site_symmetry_multiplicity
 _atom_site_fract_x
 _atom_site_fract_y
 _atom_site_fract_z
 _atom_site_occupancy
  Cs  Cs0  1  0.631459  0.631459  0.631459  1
  Cs  Cs1  1  0.368541  0.368541  0.368541  1
  V  V2  1  0.000000  0.000000  0.000000  1
  W  W3  1  0.500000  0.000000  0.000000  1
  W  W4  1  0.000000  0.000000  0.500000  1
  W  W5  1  0.000000  0.500000  0.000000  1
  O  O6  1  0.941447  0.312831  0.312831  1
  O  O7  1  0.311315  0.940272  0.940272  1
  O  O8  1  0.312831  0.312831  0.941447  1
  O  O9  1  0.940272  0.940272  0.311315  1
  O  O10  1  0.940272  0.311315  0.940272  1
  O  O11  1  0.312831  0.941447  0.312831  1
  O  O12  1  0.058553  0.687169  0.687169  1
  O  O13  1  0.688685  0.059728  0.059728  1
  O  O14  1  0.687169  0.687169  0.058553  1
  O  O15  1  0.059728  0.059728  0.688685  1
  O  O16  1  0.059728  0.688685  0.059728  1
  O  O17  1  0.687169  0.058553  0.687169  1
