# generated using pymatgen
data_Tb2YSi2Ag3Ge
_symmetry_space_group_name_H-M   'P 1'
_cell_length_a   7.11334800
_cell_length_b   7.10530062
_cell_length_c   4.24247400
_cell_angle_alpha   90.00000000
_cell_angle_beta   90.00000000
_cell_angle_gamma   120.03747282
_symmetry_Int_Tables_number   1
_chemical_formula_structural   Tb2YSi2Ag3Ge
_chemical_formula_sum   'Tb2 Y1 Si2 Ag3 Ge1'
_cell_volume   185.62745914
_cell_formula_units_Z   1
loop_
 _symmetry_equiv_pos_site_id
 _symmetry_equiv_pos_as_xyz
  1  'x, y, z'
loop_
 _atom_site_type_symbol
 _atom_site_label
 _atom_site_symmetry_multiplicity
 _atom_site_fract_x
 _atom_site_fract_y
 _atom_site_fract_z
 _atom_site_occupancy
  Tb  Tb0  1  0.999781  0.418416  0.500000  1
  Tb  Tb1  1  0.581364  0.581584  0.500000  1
  Y  Y2  1  0.418296  0.000000  0.500000  1
  Si  Si3  1  0.333730  0.667147  0.000000  1
  Si  Si4  1  0.666584  0.332853  0.000000  1
  Ag  Ag5  1  0.000002  0.742894  0.000000  1
  Ag  Ag6  1  0.257109  0.257106  0.000000  1
  Ag  Ag7  1  0.742901  0.000000  0.000000  1
  Ge  Ge8  1  0.000232  0.000000  0.500000  1
