# generated using pymatgen
data_Y2Co3Si7Ir9
_symmetry_space_group_name_H-M   'P 1'
_cell_length_a   3.84593200
_cell_length_b   9.51797636
_cell_length_c   9.51797700
_cell_angle_alpha   119.99999180
_cell_angle_beta   90.00000000
_cell_angle_gamma   90.00000000
_symmetry_Int_Tables_number   1
_chemical_formula_structural   Y2Co3Si7Ir9
_chemical_formula_sum   'Y2 Co3 Si7 Ir9'
_cell_volume   301.73211815
_cell_formula_units_Z   1
loop_
 _symmetry_equiv_pos_site_id
 _symmetry_equiv_pos_as_xyz
  1  'x, y, z'
loop_
 _atom_site_type_symbol
 _atom_site_label
 _atom_site_symmetry_multiplicity
 _atom_site_fract_x
 _atom_site_fract_y
 _atom_site_fract_z
 _atom_site_occupancy
  Y  Y0  1  0.000000  0.666667  0.333333  1
  Y  Y1  1  0.500000  0.333333  0.666667  1
  Co  Co2  1  0.000000  0.880358  0.154716  1
  Co  Co3  1  0.000000  0.274358  0.119642  1
  Co  Co4  1  0.000000  0.845284  0.725642  1
  Si  Si5  1  0.000000  0.000000  0.000000  1
  Si  Si6  1  0.500000  0.715592  0.115272  1
  Si  Si7  1  0.500000  0.399680  0.284408  1
  Si  Si8  1  0.500000  0.884728  0.600320  1
  Si  Si9  1  0.000000  0.599505  0.708746  1
  Si  Si10  1  0.000000  0.109241  0.400495  1
  Si  Si11  1  0.000000  0.291254  0.890759  1
  Ir  Ir12  1  0.000000  0.568617  0.939244  1
  Ir  Ir13  1  0.000000  0.370626  0.431383  1
  Ir  Ir14  1  0.000000  0.060756  0.629374  1
  Ir  Ir15  1  0.500000  0.784006  0.905090  1
  Ir  Ir16  1  0.500000  0.121085  0.215994  1
  Ir  Ir17  1  0.500000  0.094910  0.878915  1
  Ir  Ir18  1  0.500000  0.945341  0.382193  1
  Ir  Ir19  1  0.500000  0.436850  0.054659  1
  Ir  Ir20  1  0.500000  0.617807  0.563150  1
