# generated using pymatgen
data_Li2Pr8ZnSi12Pd
_symmetry_space_group_name_H-M   'P 1'
_cell_length_a   8.28322400
_cell_length_b   8.28322415
_cell_length_c   8.57458400
_cell_angle_alpha   90.00000000
_cell_angle_beta   90.00000000
_cell_angle_gamma   120.00000741
_symmetry_Int_Tables_number   1
_chemical_formula_structural   Li2Pr8ZnSi12Pd
_chemical_formula_sum   'Li2 Pr8 Zn1 Si12 Pd1'
_cell_volume   509.49799359
_cell_formula_units_Z   1
loop_
 _symmetry_equiv_pos_site_id
 _symmetry_equiv_pos_as_xyz
  1  'x, y, z'
loop_
 _atom_site_type_symbol
 _atom_site_label
 _atom_site_symmetry_multiplicity
 _atom_site_fract_x
 _atom_site_fract_y
 _atom_site_fract_z
 _atom_site_occupancy
  Li  Li0  1  0.666667  0.333333  0.997234  1
  Li  Li1  1  0.333333  0.666667  0.498873  1
  Pr  Pr2  1  0.499040  0.500960  0.750286  1
  Pr  Pr3  1  0.499599  0.500401  0.249645  1
  Pr  Pr4  1  0.001920  0.500960  0.750286  1
  Pr  Pr5  1  0.000801  0.500401  0.249645  1
  Pr  Pr6  1  0.499040  0.998080  0.750286  1
  Pr  Pr7  1  0.499599  0.999199  0.249645  1
  Pr  Pr8  1  0.000000  0.000000  0.749476  1
  Pr  Pr9  1  0.000000  0.000000  0.250732  1
  Zn  Zn10  1  0.333333  0.666667  0.002309  1
  Si  Si11  1  0.832470  0.167530  0.000709  1
  Si  Si12  1  0.164689  0.835311  0.999462  1
  Si  Si13  1  0.335058  0.167530  0.000709  1
  Si  Si14  1  0.164793  0.835207  0.499674  1
  Si  Si15  1  0.670622  0.835311  0.999462  1
  Si  Si16  1  0.833223  0.166777  0.500551  1
  Si  Si17  1  0.832470  0.664942  0.000709  1
  Si  Si18  1  0.670414  0.835207  0.499674  1
  Si  Si19  1  0.164689  0.329378  0.999462  1
  Si  Si20  1  0.333554  0.166777  0.500551  1
  Si  Si21  1  0.164793  0.329586  0.499674  1
  Si  Si22  1  0.833223  0.666446  0.500551  1
  Pd  Pd23  1  0.666667  0.333333  0.500400  1
