# generated using pymatgen
data_TbHo3(Zr3Sn4)2
_symmetry_space_group_name_H-M   'P 1'
_cell_length_a   7.77237100
_cell_length_b   7.82091903
_cell_length_c   14.72592706
_cell_angle_alpha   89.98984560
_cell_angle_beta   90.00000000
_cell_angle_gamma   90.00000000
_symmetry_Int_Tables_number   1
_chemical_formula_structural   TbHo3(Zr3Sn4)2
_chemical_formula_sum   'Tb2 Ho6 Zr12 Sn16'
_cell_volume   895.14615492
_cell_formula_units_Z   2
loop_
 _symmetry_equiv_pos_site_id
 _symmetry_equiv_pos_as_xyz
  1  'x, y, z'
loop_
 _atom_site_type_symbol
 _atom_site_label
 _atom_site_symmetry_multiplicity
 _atom_site_fract_x
 _atom_site_fract_y
 _atom_site_fract_z
 _atom_site_occupancy
  Tb  Tb0  1  0.512874  0.322384  0.592785  1
  Tb  Tb1  1  0.012874  0.177616  0.907215  1
  Ho  Ho2  1  0.513015  0.322296  0.907090  1
  Ho  Ho3  1  0.013015  0.177704  0.592910  1
  Ho  Ho4  1  0.487023  0.677761  0.407072  1
  Ho  Ho5  1  0.987023  0.822239  0.092928  1
  Ho  Ho6  1  0.487024  0.677753  0.092899  1
  Ho  Ho7  1  0.987024  0.822247  0.407101  1
  Zr  Zr8  1  0.349661  0.837131  0.871099  1
  Zr  Zr9  1  0.849661  0.662869  0.628901  1
  Zr  Zr10  1  0.650505  0.162727  0.370971  1
  Zr  Zr11  1  0.150505  0.337273  0.129029  1
  Zr  Zr12  1  0.650483  0.162766  0.128955  1
  Zr  Zr13  1  0.150483  0.337234  0.371045  1
  Zr  Zr14  1  0.349622  0.837215  0.628926  1
  Zr  Zr15  1  0.849622  0.662785  0.871074  1
  Zr  Zr16  1  0.171783  0.509671  0.749983  1
  Zr  Zr17  1  0.671783  0.990329  0.750017  1
  Zr  Zr18  1  0.828163  0.490434  0.250005  1
  Zr  Zr19  1  0.328163  0.009566  0.249995  1
  Sn  Sn20  1  0.311198  0.040094  0.042291  1
  Sn  Sn21  1  0.811198  0.459906  0.457709  1
  Sn  Sn22  1  0.689180  0.959558  0.542207  1
  Sn  Sn23  1  0.189180  0.540442  0.957793  1
  Sn  Sn24  1  0.688643  0.959576  0.957804  1
  Sn  Sn25  1  0.188643  0.540424  0.542196  1
  Sn  Sn26  1  0.310890  0.040092  0.457750  1
  Sn  Sn27  1  0.810890  0.459908  0.042250  1
  Sn  Sn28  1  0.544573  0.615429  0.750064  1
  Sn  Sn29  1  0.044573  0.884571  0.749936  1
  Sn  Sn30  1  0.455454  0.384786  0.249998  1
  Sn  Sn31  1  0.955454  0.115214  0.250002  1
  Sn  Sn32  1  0.317936  0.154401  0.750114  1
  Sn  Sn33  1  0.817936  0.345599  0.749886  1
  Sn  Sn34  1  0.681972  0.845308  0.249987  1
  Sn  Sn35  1  0.181972  0.654692  0.250013  1
