# generated using pymatgen
data_Lu2AlRe2Os
_symmetry_space_group_name_H-M   'P 1'
_cell_length_a   5.33123908
_cell_length_b   5.33710790
_cell_length_c   8.83661400
_cell_angle_alpha   90.00000000
_cell_angle_beta   90.00000000
_cell_angle_gamma   120.03642279
_symmetry_Int_Tables_number   1
_chemical_formula_structural   Lu2AlRe2Os
_chemical_formula_sum   'Lu4 Al2 Re4 Os2'
_cell_volume   217.66627570
_cell_formula_units_Z   2
loop_
 _symmetry_equiv_pos_site_id
 _symmetry_equiv_pos_as_xyz
  1  'x, y, z'
loop_
 _atom_site_type_symbol
 _atom_site_label
 _atom_site_symmetry_multiplicity
 _atom_site_fract_x
 _atom_site_fract_y
 _atom_site_fract_z
 _atom_site_occupancy
  Lu  Lu0  1  0.669610  0.334805  0.066995  1
  Lu  Lu1  1  0.669610  0.334805  0.433005  1
  Lu  Lu2  1  0.342076  0.671037  0.553930  1
  Lu  Lu3  1  0.342076  0.671037  0.946070  1
  Al  Al4  1  0.813684  0.158623  0.750000  1
  Al  Al5  1  0.813684  0.655061  0.750000  1
  Re  Re6  1  0.168191  0.336946  0.250000  1
  Re  Re7  1  0.168191  0.831245  0.250000  1
  Re  Re8  1  0.653956  0.826977  0.250000  1
  Re  Re9  1  0.320044  0.160021  0.750000  1
  Os  Os10  1  0.019439  0.009719  0.992276  1
  Os  Os11  1  0.019439  0.009719  0.507724  1
