# generated using pymatgen
data_LaTh3Os8
_symmetry_space_group_name_H-M   'P 1'
_cell_length_a   9.48840886
_cell_length_b   9.48840907
_cell_length_c   9.48840971
_cell_angle_alpha   33.46405362
_cell_angle_beta   33.46405401
_cell_angle_gamma   33.46405233
_symmetry_Int_Tables_number   1
_chemical_formula_structural   LaTh3Os8
_chemical_formula_sum   'La1 Th3 Os8'
_cell_volume   231.31923501
_cell_formula_units_Z   1
loop_
 _symmetry_equiv_pos_site_id
 _symmetry_equiv_pos_as_xyz
  1  'x, y, z'
loop_
 _atom_site_type_symbol
 _atom_site_label
 _atom_site_symmetry_multiplicity
 _atom_site_fract_x
 _atom_site_fract_y
 _atom_site_fract_z
 _atom_site_occupancy
  La  La0  1  0.125186  0.125186  0.125186  1
  Th  Th1  1  0.624824  0.624824  0.624824  1
  Th  Th2  1  0.001274  0.001274  0.001274  1
  Th  Th3  1  0.498732  0.498732  0.498732  1
  Os  Os4  1  0.562572  0.562572  0.060553  1
  Os  Os5  1  0.062510  0.062510  0.564322  1
  Os  Os6  1  0.562572  0.060553  0.562572  1
  Os  Os7  1  0.062510  0.564322  0.062510  1
  Os  Os8  1  0.812454  0.812454  0.812454  1
  Os  Os9  1  0.312492  0.312492  0.312492  1
  Os  Os10  1  0.060553  0.562572  0.562572  1
  Os  Os11  1  0.564322  0.062510  0.062510  1
