# generated using pymatgen
data_SmErBi4(SbO7)2
_symmetry_space_group_name_H-M   'P 1'
_cell_length_a   6.52670727
_cell_length_b   6.83527767
_cell_length_c   7.68164224
_cell_angle_alpha   106.25124393
_cell_angle_beta   89.59326698
_cell_angle_gamma   99.06984855
_symmetry_Int_Tables_number   1
_chemical_formula_structural   SmErBi4(SbO7)2
_chemical_formula_sum   'Sm1 Er1 Bi4 Sb2 O14'
_cell_volume   324.63837375
_cell_formula_units_Z   1
loop_
 _symmetry_equiv_pos_site_id
 _symmetry_equiv_pos_as_xyz
  1  'x, y, z'
loop_
 _atom_site_type_symbol
 _atom_site_label
 _atom_site_symmetry_multiplicity
 _atom_site_fract_x
 _atom_site_fract_y
 _atom_site_fract_z
 _atom_site_occupancy
  Sm  Sm0  1  0.544752  0.996508  0.753359  1
  Er  Er1  1  0.457811  0.002095  0.248483  1
  Bi  Bi2  1  0.254018  0.510641  0.876671  1
  Bi  Bi3  1  0.742259  0.494954  0.122017  1
  Bi  Bi4  1  0.726772  0.461623  0.603754  1
  Bi  Bi5  1  0.267153  0.530367  0.386203  1
  Sb  Sb6  1  0.001442  0.001059  0.499696  1
  Sb  Sb7  1  0.001866  0.000754  0.003222  1
  O  O8  1  0.459275  0.659377  0.181362  1
  O  O9  1  0.542410  0.350022  0.821908  1
  O  O10  1  0.293264  0.948648  0.961626  1
  O  O11  1  0.710069  0.045934  0.050747  1
  O  O12  1  0.286091  0.923613  0.506888  1
  O  O13  1  0.715711  0.078093  0.484835  1
  O  O14  1  0.524658  0.344159  0.346486  1
  O  O15  1  0.464823  0.643869  0.645181  1
  O  O16  1  0.916065  0.691263  0.959449  1
  O  O17  1  0.088077  0.309077  0.042210  1
  O  O18  1  0.100612  0.305514  0.613667  1
  O  O19  1  0.893057  0.697552  0.388693  1
  O  O20  1  0.908038  0.952544  0.738994  1
  O  O21  1  0.101778  0.052334  0.264548  1
