# generated using pymatgen
data_LiTbMgWO6
_symmetry_space_group_name_H-M   'P 1'
_cell_length_a   5.33767599
_cell_length_b   5.59665000
_cell_length_c   7.80054428
_cell_angle_alpha   90.00000000
_cell_angle_beta   89.92966488
_cell_angle_gamma   90.00000000
_symmetry_Int_Tables_number   1
_chemical_formula_structural   LiTbMgWO6
_chemical_formula_sum   'Li2 Tb2 Mg2 W2 O12'
_cell_volume   233.02629762
_cell_formula_units_Z   2
loop_
 _symmetry_equiv_pos_site_id
 _symmetry_equiv_pos_as_xyz
  1  'x, y, z'
loop_
 _atom_site_type_symbol
 _atom_site_label
 _atom_site_symmetry_multiplicity
 _atom_site_fract_x
 _atom_site_fract_y
 _atom_site_fract_z
 _atom_site_occupancy
  Li  Li0  1  0.278455  0.328266  0.996905  1
  Li  Li1  1  0.721545  0.828266  0.003094  1
  Tb  Tb2  1  0.730338  0.776288  0.500959  1
  Tb  Tb3  1  0.269662  0.276288  0.499041  1
  Mg  Mg4  1  0.756490  0.229268  0.240270  1
  Mg  Mg5  1  0.243510  0.729268  0.759731  1
  W  W6  1  0.241626  0.714787  0.235991  1
  W  W7  1  0.758374  0.214787  0.764010  1
  O  O8  1  0.361835  0.717695  0.010439  1
  O  O9  1  0.087903  0.404338  0.209176  1
  O  O10  1  0.939018  0.885203  0.209070  1
  O  O11  1  0.536414  0.512785  0.319709  1
  O  O12  1  0.443717  0.988509  0.312702  1
  O  O13  1  0.142207  0.678459  0.493825  1
  O  O14  1  0.857793  0.178459  0.506175  1
  O  O15  1  0.556284  0.488509  0.687299  1
  O  O16  1  0.463587  0.012785  0.680292  1
  O  O17  1  0.060982  0.385203  0.790929  1
  O  O18  1  0.912097  0.904338  0.790824  1
  O  O19  1  0.638165  0.217695  0.989561  1
