# generated using pymatgen
data_La2Tb19Fe8Sn7C12
_symmetry_space_group_name_H-M   'P 1'
_cell_length_a   11.16356376
_cell_length_b   11.13858866
_cell_length_c   11.13858800
_cell_angle_alpha   59.99999602
_cell_angle_beta   60.07397437
_cell_angle_gamma   60.07397605
_symmetry_Int_Tables_number   1
_chemical_formula_structural   La2Tb19Fe8Sn7C12
_chemical_formula_sum   'La2 Tb19 Fe8 Sn7 C12'
_cell_volume   980.46670075
_cell_formula_units_Z   1
loop_
 _symmetry_equiv_pos_site_id
 _symmetry_equiv_pos_as_xyz
  1  'x, y, z'
loop_
 _atom_site_type_symbol
 _atom_site_label
 _atom_site_symmetry_multiplicity
 _atom_site_fract_x
 _atom_site_fract_y
 _atom_site_fract_z
 _atom_site_occupancy
  La  La0  1  0.498800  0.500400  0.500400  1
  La  La1  1  0.898617  0.367128  0.367128  1
  Tb  Tb2  1  0.636001  0.637168  0.089662  1
  Tb  Tb3  1  0.363937  0.908843  0.363611  1
  Tb  Tb4  1  0.636001  0.089662  0.637168  1
  Tb  Tb5  1  0.660516  0.000129  0.000129  1
  Tb  Tb6  1  0.000748  0.661020  0.998948  1
  Tb  Tb7  1  0.000748  0.661020  0.339284  1
  Tb  Tb8  1  0.339727  0.999783  0.660708  1
  Tb  Tb9  1  0.363937  0.363611  0.363611  1
  Tb  Tb10  1  0.089609  0.636797  0.636797  1
  Tb  Tb11  1  0.000748  0.998948  0.661020  1
  Tb  Tb12  1  0.660516  0.000129  0.339227  1
  Tb  Tb13  1  0.000748  0.998948  0.339284  1
  Tb  Tb14  1  0.660516  0.339227  0.000129  1
  Tb  Tb15  1  0.636001  0.637168  0.637168  1
  Tb  Tb16  1  0.339727  0.660708  0.999783  1
  Tb  Tb17  1  0.000748  0.339284  0.661020  1
  Tb  Tb18  1  0.339727  0.999783  0.999783  1
  Tb  Tb19  1  0.363937  0.363611  0.908843  1
  Tb  Tb20  1  0.000748  0.339284  0.998948  1
  Fe  Fe21  1  0.193957  0.192222  0.421598  1
  Fe  Fe22  1  0.807321  0.807163  0.578355  1
  Fe  Fe23  1  0.807321  0.578355  0.807163  1
  Fe  Fe24  1  0.807321  0.807163  0.807163  1
  Fe  Fe25  1  0.422366  0.192544  0.192544  1
  Fe  Fe26  1  0.193957  0.192222  0.192222  1
  Fe  Fe27  1  0.193957  0.421598  0.192222  1
  Fe  Fe28  1  0.578822  0.807060  0.807060  1
  Sn  Sn29  1  0.287366  0.712446  0.287742  1
  Sn  Sn30  1  0.708550  0.286008  0.286008  1
  Sn  Sn31  1  0.708550  0.286008  0.719433  1
  Sn  Sn32  1  0.287366  0.712446  0.712446  1
  Sn  Sn33  1  0.001691  0.999436  0.999436  1
  Sn  Sn34  1  0.708550  0.719433  0.286008  1
  Sn  Sn35  1  0.287366  0.287742  0.712446  1
  C  C36  1  0.605991  0.894446  0.894446  1
  C  C37  1  0.109281  0.394311  0.394311  1
  C  C38  1  0.605991  0.894446  0.605118  1
  C  C39  1  0.395008  0.394306  0.105343  1
  C  C40  1  0.605991  0.605118  0.894446  1
  C  C41  1  0.395008  0.105343  0.394306  1
  C  C42  1  0.109281  0.394311  0.102097  1
  C  C43  1  0.894218  0.895311  0.605236  1
  C  C44  1  0.894218  0.605236  0.895311  1
  C  C45  1  0.894218  0.605236  0.605236  1
  C  C46  1  0.109281  0.102097  0.394311  1
  C  C47  1  0.395008  0.105343  0.105343  1
