# generated using pymatgen
data_Nd3(SnRh)2
_symmetry_space_group_name_H-M   'P 1'
_cell_length_a   5.92746900
_cell_length_b   8.54325000
_cell_length_c   13.83285300
_cell_angle_alpha   90.00000000
_cell_angle_beta   90.00000000
_cell_angle_gamma   90.00000000
_symmetry_Int_Tables_number   1
_chemical_formula_structural   Nd3(SnRh)2
_chemical_formula_sum   'Nd12 Sn8 Rh8'
_cell_volume   700.49359455
_cell_formula_units_Z   4
loop_
 _symmetry_equiv_pos_site_id
 _symmetry_equiv_pos_as_xyz
  1  'x, y, z'
loop_
 _atom_site_type_symbol
 _atom_site_label
 _atom_site_symmetry_multiplicity
 _atom_site_fract_x
 _atom_site_fract_y
 _atom_site_fract_z
 _atom_site_occupancy
  Nd  Nd0  1  0.632008  0.251263  0.250000  1
  Nd  Nd1  1  0.367992  0.748737  0.750000  1
  Nd  Nd2  1  0.367992  0.751263  0.250000  1
  Nd  Nd3  1  0.632008  0.248737  0.750000  1
  Nd  Nd4  1  0.165702  0.394957  0.095051  1
  Nd  Nd5  1  0.834298  0.605043  0.904949  1
  Nd  Nd6  1  0.834298  0.605043  0.595051  1
  Nd  Nd7  1  0.834298  0.894957  0.404949  1
  Nd  Nd8  1  0.165702  0.394957  0.404949  1
  Nd  Nd9  1  0.165702  0.105043  0.595051  1
  Nd  Nd10  1  0.165702  0.105043  0.904949  1
  Nd  Nd11  1  0.834298  0.894957  0.095051  1
  Sn  Sn12  1  0.131307  0.104818  0.250000  1
  Sn  Sn13  1  0.868693  0.895182  0.750000  1
  Sn  Sn14  1  0.868693  0.604818  0.250000  1
  Sn  Sn15  1  0.131307  0.395182  0.750000  1
  Sn  Sn16  1  0.661582  0.250000  0.000000  1
  Sn  Sn17  1  0.338418  0.750000  0.000000  1
  Sn  Sn18  1  0.338418  0.750000  0.500000  1
  Sn  Sn19  1  0.661582  0.250000  0.500000  1
  Rh  Rh20  1  0.381837  0.038192  0.092679  1
  Rh  Rh21  1  0.618163  0.961808  0.907321  1
  Rh  Rh22  1  0.618163  0.961808  0.592679  1
  Rh  Rh23  1  0.618163  0.538192  0.407321  1
  Rh  Rh24  1  0.381837  0.038192  0.407321  1
  Rh  Rh25  1  0.381837  0.461808  0.592679  1
  Rh  Rh26  1  0.381837  0.461808  0.907321  1
  Rh  Rh27  1  0.618163  0.538192  0.092679  1
