# generated using pymatgen
data_Y7Ho3(InSb)4
_symmetry_space_group_name_H-M   'P 1'
_cell_length_a   8.81731502
_cell_length_b   8.81012576
_cell_length_c   8.10494000
_cell_angle_alpha   90.02860196
_cell_angle_beta   90.00384038
_cell_angle_gamma   125.17217719
_symmetry_Int_Tables_number   1
_chemical_formula_structural   Y7Ho3(InSb)4
_chemical_formula_sum   'Y7 Ho3 In4 Sb4'
_cell_volume   514.65469618
_cell_formula_units_Z   1
loop_
 _symmetry_equiv_pos_site_id
 _symmetry_equiv_pos_as_xyz
  1  'x, y, z'
loop_
 _atom_site_type_symbol
 _atom_site_label
 _atom_site_symmetry_multiplicity
 _atom_site_fract_x
 _atom_site_fract_y
 _atom_site_fract_z
 _atom_site_occupancy
  Y  Y0  1  0.032185  0.307634  0.333989  1
  Y  Y1  1  0.967728  0.692362  0.665890  1
  Y  Y2  1  0.467898  0.192285  0.833982  1
  Y  Y3  1  0.807242  0.531809  0.166029  1
  Y  Y4  1  0.532404  0.807899  0.166247  1
  Y  Y5  1  0.193004  0.468330  0.833877  1
  Y  Y6  1  0.693195  0.967931  0.666050  1
  Ho  Ho7  1  0.305985  0.032129  0.334504  1
  Ho  Ho8  1  0.000403  0.000044  0.000259  1
  Ho  Ho9  1  0.499756  0.499690  0.499779  1
  In  In10  1  0.370572  0.370114  0.128793  1
  In  In11  1  0.629539  0.629435  0.871322  1
  In  In12  1  0.129980  0.129587  0.628466  1
  In  In13  1  0.870826  0.870440  0.371303  1
  Sb  Sb14  1  0.797883  0.202780  0.999691  1
  Sb  Sb15  1  0.202769  0.797808  0.001171  1
  Sb  Sb16  1  0.701066  0.295853  0.499057  1
  Sb  Sb17  1  0.297566  0.703873  0.499590  1
