# generated using pymatgen
data_NaTb5DyPtI12
_symmetry_space_group_name_H-M   'P 1'
_cell_length_a   9.86456080
_cell_length_b   9.80733338
_cell_length_c   9.84108084
_cell_angle_alpha   107.10091352
_cell_angle_beta   106.78320001
_cell_angle_gamma   107.28444025
_symmetry_Int_Tables_number   1
_chemical_formula_structural   NaTb5DyPtI12
_chemical_formula_sum   'Na1 Tb5 Dy1 Pt1 I12'
_cell_volume   791.66741135
_cell_formula_units_Z   1
loop_
 _symmetry_equiv_pos_site_id
 _symmetry_equiv_pos_as_xyz
  1  'x, y, z'
loop_
 _atom_site_type_symbol
 _atom_site_label
 _atom_site_symmetry_multiplicity
 _atom_site_fract_x
 _atom_site_fract_y
 _atom_site_fract_z
 _atom_site_occupancy
  Na  Na0  1  0.500028  0.500035  0.500034  1
  Tb  Tb1  1  0.308800  0.099669  0.027733  1
  Tb  Tb2  1  0.025148  0.300670  0.097486  1
  Tb  Tb3  1  0.898782  0.973476  0.690887  1
  Tb  Tb4  1  0.691260  0.900352  0.972328  1
  Tb  Tb5  1  0.975006  0.699547  0.903006  1
  Dy  Dy6  1  0.100909  0.026386  0.307946  1
  Pt  Pt7  1  0.000097  0.000148  0.000131  1
  I  I8  1  0.075712  0.679671  0.223862  1
  I  I9  1  0.224110  0.075881  0.678577  1
  I  I10  1  0.680015  0.225762  0.076629  1
  I  I11  1  0.924501  0.321317  0.776858  1
  I  I12  1  0.776773  0.924295  0.320746  1
  I  I13  1  0.319966  0.774273  0.923446  1
  I  I14  1  0.449891  0.141942  0.372350  1
  I  I15  1  0.370992  0.450610  0.142208  1
  I  I16  1  0.141926  0.371326  0.449772  1
  I  I17  1  0.549006  0.857622  0.627849  1
  I  I18  1  0.629003  0.549409  0.857821  1
  I  I19  1  0.858074  0.627611  0.550332  1
