# generated using pymatgen
data_Dy7Ho3(SiSn3)2
_symmetry_space_group_name_H-M   'P 1'
_cell_length_a   9.21911400
_cell_length_b   9.21911543
_cell_length_c   6.44508600
_cell_angle_alpha   90.00000000
_cell_angle_beta   90.00000000
_cell_angle_gamma   120.00000204
_symmetry_Int_Tables_number   1
_chemical_formula_structural   Dy7Ho3(SiSn3)2
_chemical_formula_sum   'Dy7 Ho3 Si2 Sn6'
_cell_volume   474.39245985
_cell_formula_units_Z   1
loop_
 _symmetry_equiv_pos_site_id
 _symmetry_equiv_pos_as_xyz
  1  'x, y, z'
loop_
 _atom_site_type_symbol
 _atom_site_label
 _atom_site_symmetry_multiplicity
 _atom_site_fract_x
 _atom_site_fract_y
 _atom_site_fract_z
 _atom_site_occupancy
  Dy  Dy0  1  0.666667  0.333333  0.000000  1
  Dy  Dy1  1  0.747354  0.747377  0.750024  1
  Dy  Dy2  1  0.252623  0.999977  0.750024  1
  Dy  Dy3  1  0.000023  0.252646  0.750024  1
  Dy  Dy4  1  0.252623  0.252646  0.249976  1
  Dy  Dy5  1  0.747354  0.999977  0.249976  1
  Dy  Dy6  1  0.000023  0.747377  0.249976  1
  Ho  Ho7  1  0.333333  0.666667  0.000000  1
  Ho  Ho8  1  0.333333  0.666667  0.500000  1
  Ho  Ho9  1  0.666667  0.333333  0.500000  1
  Si  Si10  1  0.000000  0.000000  0.000000  1
  Si  Si11  1  0.000000  0.000000  0.500000  1
  Sn  Sn12  1  0.391265  0.391323  0.749979  1
  Sn  Sn13  1  0.608677  0.999942  0.749979  1
  Sn  Sn14  1  0.000058  0.608735  0.749979  1
  Sn  Sn15  1  0.608677  0.608735  0.250021  1
  Sn  Sn16  1  0.391265  0.999942  0.250021  1
  Sn  Sn17  1  0.000058  0.391323  0.250021  1
