# generated using pymatgen
data_YbAgIrRuO7
_symmetry_space_group_name_H-M   'P 1'
_cell_length_a   7.20808214
_cell_length_b   7.20808189
_cell_length_c   7.33260800
_cell_angle_alpha   59.42685316
_cell_angle_beta   59.42685434
_cell_angle_gamma   58.92997574
_symmetry_Int_Tables_number   1
_chemical_formula_structural   YbAgIrRuO7
_chemical_formula_sum   'Yb2 Ag2 Ir2 Ru2 O14'
_cell_volume   264.84463979
_cell_formula_units_Z   2
loop_
 _symmetry_equiv_pos_site_id
 _symmetry_equiv_pos_as_xyz
  1  'x, y, z'
loop_
 _atom_site_type_symbol
 _atom_site_label
 _atom_site_symmetry_multiplicity
 _atom_site_fract_x
 _atom_site_fract_y
 _atom_site_fract_z
 _atom_site_occupancy
  Yb  Yb0  1  0.125000  0.125000  0.125000  1
  Yb  Yb1  1  0.125000  0.125000  0.625000  1
  Ag  Ag2  1  0.625000  0.125000  0.125000  1
  Ag  Ag3  1  0.125000  0.625000  0.125000  1
  Ir  Ir4  1  0.125000  0.625000  0.625000  1
  Ir  Ir5  1  0.625000  0.125000  0.625000  1
  Ru  Ru6  1  0.625000  0.625000  0.625000  1
  Ru  Ru7  1  0.625000  0.625000  0.125000  1
  O  O8  1  0.985479  0.985479  0.014521  1
  O  O9  1  0.264521  0.264521  0.235479  1
  O  O10  1  0.290512  0.290512  0.709488  1
  O  O11  1  0.562448  0.562448  0.937552  1
  O  O12  1  0.698498  0.300981  0.696994  1
  O  O13  1  0.698498  0.300981  0.303527  1
  O  O14  1  0.300981  0.698498  0.696994  1
  O  O15  1  0.300981  0.698498  0.303527  1
  O  O16  1  0.687552  0.687552  0.312448  1
  O  O17  1  0.949019  0.551502  0.553006  1
  O  O18  1  0.551502  0.949019  0.946473  1
  O  O19  1  0.959488  0.959488  0.540512  1
  O  O20  1  0.949019  0.551502  0.946473  1
  O  O21  1  0.551502  0.949019  0.553006  1
