# generated using pymatgen
data_Er10In8Ir2PtRh
_symmetry_space_group_name_H-M   'P 1'
_cell_length_a   3.60861000
_cell_length_b   8.03169285
_cell_length_c   18.18948736
_cell_angle_alpha   89.87126042
_cell_angle_beta   90.00000000
_cell_angle_gamma   90.00000000
_symmetry_Int_Tables_number   1
_chemical_formula_structural   Er10In8Ir2PtRh
_chemical_formula_sum   'Er10 In8 Ir2 Pt1 Rh1'
_cell_volume   527.18907670
_cell_formula_units_Z   1
loop_
 _symmetry_equiv_pos_site_id
 _symmetry_equiv_pos_as_xyz
  1  'x, y, z'
loop_
 _atom_site_type_symbol
 _atom_site_label
 _atom_site_symmetry_multiplicity
 _atom_site_fract_x
 _atom_site_fract_y
 _atom_site_fract_z
 _atom_site_occupancy
  Er  Er0  1  0.000000  0.114380  0.412667  1
  Er  Er1  1  0.000000  0.883346  0.588968  1
  Er  Er2  1  0.000000  0.385215  0.910412  1
  Er  Er3  1  0.000000  0.617189  0.086058  1
  Er  Er4  1  0.000000  0.237111  0.222876  1
  Er  Er5  1  0.000000  0.758526  0.777485  1
  Er  Er6  1  0.000000  0.251880  0.721924  1
  Er  Er7  1  0.000000  0.752021  0.279018  1
  Er  Er8  1  0.000000  0.999768  0.999645  1
  Er  Er9  1  0.000000  0.499945  0.500122  1
  In  In10  1  0.500000  0.426207  0.352300  1
  In  In11  1  0.500000  0.568909  0.649446  1
  In  In12  1  0.500000  0.071533  0.851505  1
  In  In13  1  0.500000  0.929221  0.148178  1
  In  In14  1  0.500000  0.291973  0.065505  1
  In  In15  1  0.500000  0.707474  0.931660  1
  In  In16  1  0.500000  0.207044  0.567825  1
  In  In17  1  0.500000  0.791676  0.432683  1
  Ir  Ir18  1  0.500000  0.022123  0.304310  1
  Ir  Ir19  1  0.500000  0.980479  0.696125  1
  Pt  Pt20  1  0.500000  0.522737  0.196531  1
  Rh  Rh21  1  0.500000  0.481244  0.804758  1
