# generated using pymatgen
data_Mn2Zn3Fe(PO4)4
_symmetry_space_group_name_H-M   'P 1'
_cell_length_a   8.69367433
_cell_length_b   5.13646617
_cell_length_c   8.97923228
_cell_angle_alpha   59.82224814
_cell_angle_beta   90.08828568
_cell_angle_gamma   90.33298365
_symmetry_Int_Tables_number   1
_chemical_formula_structural   Mn2Zn3Fe(PO4)4
_chemical_formula_sum   'Mn2 Zn3 Fe1 P4 O16'
_cell_volume   346.61637377
_cell_formula_units_Z   1
loop_
 _symmetry_equiv_pos_site_id
 _symmetry_equiv_pos_as_xyz
  1  'x, y, z'
loop_
 _atom_site_type_symbol
 _atom_site_label
 _atom_site_symmetry_multiplicity
 _atom_site_fract_x
 _atom_site_fract_y
 _atom_site_fract_z
 _atom_site_occupancy
  Mn  Mn0  1  0.497638  0.001041  0.500245  1
  Mn  Mn1  1  0.000319  0.995704  0.000350  1
  Zn  Zn2  1  0.362183  0.962392  0.117626  1
  Zn  Zn3  1  0.135875  0.957333  0.619553  1
  Zn  Zn4  1  0.634569  0.041119  0.879142  1
  Fe  Fe5  1  0.856602  0.038433  0.382061  1
  P  P6  1  0.194774  0.326381  0.204051  1
  P  P7  1  0.693355  0.676695  0.292980  1
  P  P8  1  0.806443  0.666389  0.800520  1
  P  P9  1  0.306886  0.331174  0.702209  1
  O  O10  1  0.357036  0.172527  0.257443  1
  O  O11  1  0.857189  0.821765  0.238215  1
  O  O12  1  0.645373  0.825022  0.744282  1
  O  O13  1  0.145506  0.171974  0.756722  1
  O  O14  1  0.084270  0.178457  0.363315  1
  O  O15  1  0.581071  0.821630  0.136036  1
  O  O16  1  0.918444  0.817725  0.642498  1
  O  O17  1  0.417727  0.184574  0.861332  1
  O  O18  1  0.203501  0.669375  0.138421  1
  O  O19  1  0.697250  0.333714  0.362782  1
  O  O20  1  0.367161  0.282199  0.557727  1
  O  O21  1  0.863557  0.712747  0.947284  1
  O  O22  1  0.641546  0.743204  0.434526  1
  O  O23  1  0.136886  0.269746  0.060832  1
  O  O24  1  0.297979  0.672845  0.640268  1
  O  O25  1  0.796859  0.325835  0.859581  1
