# generated using pymatgen
data_Pu2HSN
_symmetry_space_group_name_H-M   'P 1'
_cell_length_a   3.81671000
_cell_length_b   3.81671066
_cell_length_c   6.54299800
_cell_angle_alpha   90.00000000
_cell_angle_beta   90.00000000
_cell_angle_gamma   120.00001164
_symmetry_Int_Tables_number   1
_chemical_formula_structural   Pu2HSN
_chemical_formula_sum   'Pu2 H1 S1 N1'
_cell_volume   82.54404905
_cell_formula_units_Z   1
loop_
 _symmetry_equiv_pos_site_id
 _symmetry_equiv_pos_as_xyz
  1  'x, y, z'
loop_
 _atom_site_type_symbol
 _atom_site_label
 _atom_site_symmetry_multiplicity
 _atom_site_fract_x
 _atom_site_fract_y
 _atom_site_fract_z
 _atom_site_occupancy
  Pu  Pu0  1  0.666667  0.333333  0.723107  1
  Pu  Pu1  1  0.333333  0.666667  0.269876  1
  H  H2  1  0.333333  0.666667  0.630601  1
  S  S3  1  0.000000  0.000000  0.986963  1
  N  N4  1  0.666667  0.333333  0.389453  1
