# generated using pymatgen
data_Zr6Al7ZnPd15
_symmetry_space_group_name_H-M   'P 1'
_cell_length_a   8.78856564
_cell_length_b   8.78856579
_cell_length_c   8.76935453
_cell_angle_alpha   59.92749888
_cell_angle_beta   59.92750157
_cell_angle_gamma   60.00000184
_symmetry_Int_Tables_number   1
_chemical_formula_structural   Zr6Al7ZnPd15
_chemical_formula_sum   'Zr6 Al7 Zn1 Pd15'
_cell_volume   478.42279132
_cell_formula_units_Z   1
loop_
 _symmetry_equiv_pos_site_id
 _symmetry_equiv_pos_as_xyz
  1  'x, y, z'
loop_
 _atom_site_type_symbol
 _atom_site_label
 _atom_site_symmetry_multiplicity
 _atom_site_fract_x
 _atom_site_fract_y
 _atom_site_fract_z
 _atom_site_occupancy
  Zr  Zr0  1  0.700687  0.700687  0.297368  1
  Zr  Zr1  1  0.301258  0.700687  0.297368  1
  Zr  Zr2  1  0.700687  0.301258  0.297368  1
  Zr  Zr3  1  0.297580  0.297580  0.702542  1
  Zr  Zr4  1  0.702298  0.297580  0.702542  1
  Zr  Zr5  1  0.297580  0.702298  0.702542  1
  Al  Al6  1  0.001958  0.001958  0.994127  1
  Al  Al7  1  0.001821  0.001821  0.502728  1
  Al  Al8  1  0.493631  0.001821  0.502728  1
  Al  Al9  1  0.001821  0.493631  0.502728  1
  Al  Al10  1  0.500067  0.500067  0.999453  1
  Al  Al11  1  0.000413  0.500067  0.999453  1
  Al  Al12  1  0.500067  0.000413  0.999453  1
  Zn  Zn13  1  0.880623  0.880623  0.358131  1
  Pd  Pd14  1  0.882109  0.353435  0.882348  1
  Pd  Pd15  1  0.353435  0.882109  0.882348  1
  Pd  Pd16  1  0.882109  0.882109  0.882348  1
  Pd  Pd17  1  0.117695  0.117695  0.646915  1
  Pd  Pd18  1  0.112557  0.652830  0.122056  1
  Pd  Pd19  1  0.652830  0.112557  0.122056  1
  Pd  Pd20  1  0.112557  0.112557  0.122056  1
  Pd  Pd21  1  0.662420  0.662420  0.012741  1
  Pd  Pd22  1  0.665224  0.011233  0.658319  1
  Pd  Pd23  1  0.011233  0.665224  0.658319  1
  Pd  Pd24  1  0.665224  0.665224  0.658319  1
  Pd  Pd25  1  0.338010  0.338010  0.985971  1
  Pd  Pd26  1  0.337872  0.988365  0.335891  1
  Pd  Pd27  1  0.988365  0.337872  0.335891  1
  Pd  Pd28  1  0.337872  0.337872  0.335891  1
