# generated using pymatgen
data_Lu15Th(InRu)4
_symmetry_space_group_name_H-M   'P 1'
_cell_length_a   9.46091798
_cell_length_b   9.46092004
_cell_length_c   9.46091938
_cell_angle_alpha   60.38828878
_cell_angle_beta   60.38828997
_cell_angle_gamma   60.38828587
_symmetry_Int_Tables_number   1
_chemical_formula_structural   Lu15Th(InRu)4
_chemical_formula_sum   'Lu15 Th1 In4 Ru4'
_cell_volume   604.06290569
_cell_formula_units_Z   1
loop_
 _symmetry_equiv_pos_site_id
 _symmetry_equiv_pos_as_xyz
  1  'x, y, z'
loop_
 _atom_site_type_symbol
 _atom_site_label
 _atom_site_symmetry_multiplicity
 _atom_site_fract_x
 _atom_site_fract_y
 _atom_site_fract_z
 _atom_site_occupancy
  Lu  Lu0  1  0.602973  0.602973  0.194964  1
  Lu  Lu1  1  0.602973  0.194964  0.602973  1
  Lu  Lu2  1  0.194964  0.602973  0.602973  1
  Lu  Lu3  1  0.061418  0.439892  0.439892  1
  Lu  Lu4  1  0.441989  0.059185  0.059185  1
  Lu  Lu5  1  0.439892  0.061418  0.439892  1
  Lu  Lu6  1  0.059185  0.441989  0.059185  1
  Lu  Lu7  1  0.439892  0.439892  0.061418  1
  Lu  Lu8  1  0.059185  0.059185  0.441989  1
  Lu  Lu9  1  0.187313  0.813578  0.813578  1
  Lu  Lu10  1  0.808898  0.195288  0.195288  1
  Lu  Lu11  1  0.813578  0.187313  0.813578  1
  Lu  Lu12  1  0.195288  0.808898  0.195288  1
  Lu  Lu13  1  0.813578  0.813578  0.187313  1
  Lu  Lu14  1  0.195288  0.195288  0.808898  1
  Th  Th15  1  0.591642  0.591642  0.591642  1
  In  In16  1  0.833281  0.833281  0.833281  1
  In  In17  1  0.833776  0.833776  0.497900  1
  In  In18  1  0.833776  0.497900  0.833776  1
  In  In19  1  0.497900  0.833776  0.833776  1
  Ru  Ru20  1  0.392425  0.392425  0.392425  1
  Ru  Ru21  1  0.386886  0.386886  0.827018  1
  Ru  Ru22  1  0.386886  0.827018  0.386886  1
  Ru  Ru23  1  0.827018  0.386886  0.386886  1
