# generated using pymatgen
data_Ti4CoSi4Ir2Rh
_symmetry_space_group_name_H-M   'P 1'
_cell_length_a   3.82205400
_cell_length_b   6.24353321
_cell_length_c   7.18820942
_cell_angle_alpha   90.04666689
_cell_angle_beta   90.00000000
_cell_angle_gamma   90.00000000
_symmetry_Int_Tables_number   1
_chemical_formula_structural   Ti4CoSi4Ir2Rh
_chemical_formula_sum   'Ti4 Co1 Si4 Ir2 Rh1'
_cell_volume   171.53305495
_cell_formula_units_Z   1
loop_
 _symmetry_equiv_pos_site_id
 _symmetry_equiv_pos_as_xyz
  1  'x, y, z'
loop_
 _atom_site_type_symbol
 _atom_site_label
 _atom_site_symmetry_multiplicity
 _atom_site_fract_x
 _atom_site_fract_y
 _atom_site_fract_z
 _atom_site_occupancy
  Ti  Ti0  1  0.250000  0.020671  0.814047  1
  Ti  Ti1  1  0.750000  0.482187  0.322578  1
  Ti  Ti2  1  0.250000  0.522925  0.678934  1
  Ti  Ti3  1  0.750000  0.972160  0.185118  1
  Co  Co4  1  0.750000  0.849398  0.560807  1
  Si  Si5  1  0.750000  0.732410  0.865464  1
  Si  Si6  1  0.250000  0.768962  0.388412  1
  Si  Si7  1  0.750000  0.224653  0.622842  1
  Si  Si8  1  0.250000  0.272862  0.123433  1
  Ir  Ir9  1  0.250000  0.659256  0.061752  1
  Ir  Ir10  1  0.250000  0.149025  0.439455  1
  Rh  Rh11  1  0.750000  0.345491  0.937157  1
