# generated using pymatgen
data_CeZn6In5Rh12
_symmetry_space_group_name_H-M   'P 1'
_cell_length_a   4.46707300
_cell_length_b   6.34837700
_cell_length_c   13.37333600
_cell_angle_alpha   90.00000000
_cell_angle_beta   90.00194734
_cell_angle_gamma   90.00000000
_symmetry_Int_Tables_number   1
_chemical_formula_structural   CeZn6In5Rh12
_chemical_formula_sum   'Ce1 Zn6 In5 Rh12'
_cell_volume   379.24993526
_cell_formula_units_Z   1
loop_
 _symmetry_equiv_pos_site_id
 _symmetry_equiv_pos_as_xyz
  1  'x, y, z'
loop_
 _atom_site_type_symbol
 _atom_site_label
 _atom_site_symmetry_multiplicity
 _atom_site_fract_x
 _atom_site_fract_y
 _atom_site_fract_z
 _atom_site_occupancy
  Ce  Ce0  1  0.000000  0.000000  0.000000  1
  Zn  Zn1  1  0.000000  0.500000  0.000000  1
  Zn  Zn2  1  0.499882  0.000000  0.170167  1
  Zn  Zn3  1  0.999787  0.500000  0.336699  1
  Zn  Zn4  1  0.500001  0.000000  0.500000  1
  Zn  Zn5  1  0.000213  0.500000  0.663301  1
  Zn  Zn6  1  0.500118  0.000000  0.829833  1
  In  In7  1  0.499968  0.500000  0.171540  1
  In  In8  1  0.999999  0.000000  0.334935  1
  In  In9  1  0.500001  0.500000  0.500000  1
  In  In10  1  0.000001  0.000000  0.665064  1
  In  In11  1  0.500032  0.500000  0.828460  1
  Rh  Rh12  1  0.500001  0.260152  0.000000  1
  Rh  Rh13  1  0.500001  0.739849  0.000000  1
  Rh  Rh14  1  0.999935  0.251975  0.167432  1
  Rh  Rh15  1  0.999935  0.748024  0.167432  1
  Rh  Rh16  1  0.499964  0.249274  0.334324  1
  Rh  Rh17  1  0.499964  0.750725  0.334324  1
  Rh  Rh18  1  0.000000  0.249758  0.500000  1
  Rh  Rh19  1  0.000000  0.750242  0.500000  1
  Rh  Rh20  1  0.500036  0.249274  0.665676  1
  Rh  Rh21  1  0.500036  0.750725  0.665676  1
  Rh  Rh22  1  0.000065  0.251975  0.832568  1
  Rh  Rh23  1  0.000065  0.748024  0.832568  1
