# generated using pymatgen
data_Dy6TmCo6Sn23
_symmetry_space_group_name_H-M   'P 1'
_cell_length_a   9.70607511
_cell_length_b   9.70607604
_cell_length_c   9.97026802
_cell_angle_alpha   89.99306705
_cell_angle_beta   90.00693078
_cell_angle_gamma   120.01583012
_symmetry_Int_Tables_number   1
_chemical_formula_structural   Dy6TmCo6Sn23
_chemical_formula_sum   'Dy6 Tm1 Co6 Sn23'
_cell_volume   813.30885237
_cell_formula_units_Z   1
loop_
 _symmetry_equiv_pos_site_id
 _symmetry_equiv_pos_as_xyz
  1  'x, y, z'
loop_
 _atom_site_type_symbol
 _atom_site_label
 _atom_site_symmetry_multiplicity
 _atom_site_fract_x
 _atom_site_fract_y
 _atom_site_fract_z
 _atom_site_occupancy
  Dy  Dy0  1  0.999986  0.000014  0.000056  1
  Dy  Dy1  1  0.521221  0.478779  0.694049  1
  Dy  Dy2  1  0.478765  0.957569  0.305779  1
  Dy  Dy3  1  0.521181  0.042408  0.694225  1
  Dy  Dy4  1  0.042431  0.521235  0.305779  1
  Dy  Dy5  1  0.957592  0.478819  0.694225  1
  Tm  Tm6  1  0.479119  0.520881  0.305723  1
  Co  Co7  1  0.832488  0.167512  0.197268  1
  Co  Co8  1  0.167554  0.832446  0.802816  1
  Co  Co9  1  0.831958  0.664699  0.197392  1
  Co  Co10  1  0.167537  0.335100  0.802761  1
  Co  Co11  1  0.335301  0.168042  0.197392  1
  Co  Co12  1  0.664900  0.832463  0.802761  1
  Sn  Sn13  1  0.345808  0.000064  0.000038  1
  Sn  Sn14  1  0.654186  0.999962  0.000037  1
  Sn  Sn15  1  0.000038  0.345814  0.000037  1
  Sn  Sn16  1  0.999936  0.654192  0.000038  1
  Sn  Sn17  1  0.654133  0.654145  0.000148  1
  Sn  Sn18  1  0.345855  0.345867  0.000148  1
  Sn  Sn19  1  0.333337  0.666663  0.817902  1
  Sn  Sn20  1  0.666565  0.333435  0.182184  1
  Sn  Sn21  1  0.999962  0.000038  0.499961  1
  Sn  Sn22  1  0.780991  0.219009  0.452162  1
  Sn  Sn23  1  0.218981  0.781019  0.547804  1
  Sn  Sn24  1  0.780445  0.561991  0.451849  1
  Sn  Sn25  1  0.219258  0.438034  0.547491  1
  Sn  Sn26  1  0.438009  0.219555  0.451849  1
  Sn  Sn27  1  0.561966  0.780742  0.547491  1
  Sn  Sn28  1  0.333751  0.666249  0.117368  1
  Sn  Sn29  1  0.666628  0.333372  0.883122  1
  Sn  Sn30  1  0.117955  0.882045  0.274999  1
  Sn  Sn31  1  0.882046  0.117954  0.724999  1
  Sn  Sn32  1  0.118519  0.236371  0.275058  1
  Sn  Sn33  1  0.881990  0.764020  0.725015  1
  Sn  Sn34  1  0.763629  0.881481  0.275058  1
  Sn  Sn35  1  0.235980  0.118010  0.725015  1
