# generated using pymatgen
data_Zr10In3Bi3P2
_symmetry_space_group_name_H-M   'P 1'
_cell_length_a   8.71205800
_cell_length_b   8.71205839
_cell_length_c   6.03984300
_cell_angle_alpha   90.00000000
_cell_angle_beta   90.00000000
_cell_angle_gamma   119.99999851
_symmetry_Int_Tables_number   1
_chemical_formula_structural   Zr10In3Bi3P2
_chemical_formula_sum   'Zr10 In3 Bi3 P2'
_cell_volume   397.00668852
_cell_formula_units_Z   1
loop_
 _symmetry_equiv_pos_site_id
 _symmetry_equiv_pos_as_xyz
  1  'x, y, z'
loop_
 _atom_site_type_symbol
 _atom_site_label
 _atom_site_symmetry_multiplicity
 _atom_site_fract_x
 _atom_site_fract_y
 _atom_site_fract_z
 _atom_site_occupancy
  Zr  Zr0  1  0.666667  0.333333  0.006186  1
  Zr  Zr1  1  0.333333  0.666667  0.006186  1
  Zr  Zr2  1  0.333333  0.666667  0.493814  1
  Zr  Zr3  1  0.666667  0.333333  0.493814  1
  Zr  Zr4  1  0.758158  0.758158  0.750000  1
  Zr  Zr5  1  0.241842  0.000000  0.750000  1
  Zr  Zr6  1  0.000000  0.241842  0.750000  1
  Zr  Zr7  1  0.249574  0.249574  0.250000  1
  Zr  Zr8  1  0.750426  0.000000  0.250000  1
  Zr  Zr9  1  0.000000  0.750426  0.250000  1
  In  In10  1  0.604985  0.604985  0.250000  1
  In  In11  1  0.395015  0.000000  0.250000  1
  In  In12  1  0.000000  0.395015  0.250000  1
  Bi  Bi13  1  0.404875  0.404875  0.750000  1
  Bi  Bi14  1  0.595125  0.000000  0.750000  1
  Bi  Bi15  1  0.000000  0.595125  0.750000  1
  P  P16  1  0.000000  0.000000  0.004279  1
  P  P17  1  0.000000  0.000000  0.495721  1
