# generated using pymatgen
data_Ho5Co16(P4Os)3
_symmetry_space_group_name_H-M   'P 1'
_cell_length_a   12.00833900
_cell_length_b   12.00833957
_cell_length_c   3.71888300
_cell_angle_alpha   90.00000000
_cell_angle_beta   90.00000000
_cell_angle_gamma   120.00000119
_symmetry_Int_Tables_number   1
_chemical_formula_structural   Ho5Co16(P4Os)3
_chemical_formula_sum   'Ho5 Co16 P12 Os3'
_cell_volume   464.41799771
_cell_formula_units_Z   1
loop_
 _symmetry_equiv_pos_site_id
 _symmetry_equiv_pos_as_xyz
  1  'x, y, z'
loop_
 _atom_site_type_symbol
 _atom_site_label
 _atom_site_symmetry_multiplicity
 _atom_site_fract_x
 _atom_site_fract_y
 _atom_site_fract_z
 _atom_site_occupancy
  Ho  Ho0  1  0.666667  0.333333  0.000000  1
  Ho  Ho1  1  0.333333  0.666667  0.000000  1
  Ho  Ho2  1  0.815357  0.815357  0.500000  1
  Ho  Ho3  1  0.184643  0.000000  0.500000  1
  Ho  Ho4  1  0.000000  0.184643  0.500000  1
  Co  Co5  1  0.874164  0.358984  0.500000  1
  Co  Co6  1  0.641016  0.515180  0.500000  1
  Co  Co7  1  0.484820  0.125836  0.500000  1
  Co  Co8  1  0.358984  0.874164  0.500000  1
  Co  Co9  1  0.515180  0.641016  0.500000  1
  Co  Co10  1  0.125836  0.484820  0.500000  1
  Co  Co11  1  0.803526  0.179860  0.000000  1
  Co  Co12  1  0.820140  0.623665  0.000000  1
  Co  Co13  1  0.376335  0.196474  0.000000  1
  Co  Co14  1  0.179860  0.803526  0.000000  1
  Co  Co15  1  0.623665  0.820140  0.000000  1
  Co  Co16  1  0.196474  0.376335  0.000000  1
  Co  Co17  1  0.283375  0.283375  0.500000  1
  Co  Co18  1  0.716625  0.000000  0.500000  1
  Co  Co19  1  0.000000  0.716625  0.500000  1
  Co  Co20  1  0.000000  0.000000  0.000000  1
  P  P21  1  0.687541  0.166349  0.500000  1
  P  P22  1  0.833651  0.521192  0.500000  1
  P  P23  1  0.478808  0.312459  0.500000  1
  P  P24  1  0.166349  0.687541  0.500000  1
  P  P25  1  0.521192  0.833651  0.500000  1
  P  P26  1  0.312459  0.478808  0.500000  1
  P  P27  1  0.179194  0.179194  0.000000  1
  P  P28  1  0.820806  0.000000  0.000000  1
  P  P29  1  0.000000  0.820806  0.000000  1
  P  P30  1  0.637741  0.637741  0.000000  1
  P  P31  1  0.362259  0.000000  0.000000  1
  P  P32  1  0.000000  0.362259  0.000000  1
  Os  Os33  1  0.446236  0.446236  0.000000  1
  Os  Os34  1  0.553764  0.000000  0.000000  1
  Os  Os35  1  0.000000  0.553764  0.000000  1
