# generated using pymatgen
data_Al5ZnNi10
_symmetry_space_group_name_H-M   'P 1'
_cell_length_a   3.72439200
_cell_length_b   5.01518928
_cell_length_c   10.02045862
_cell_angle_alpha   96.01690109
_cell_angle_beta   90.00000000
_cell_angle_gamma   90.00000000
_symmetry_Int_Tables_number   1
_chemical_formula_structural   Al5ZnNi10
_chemical_formula_sum   'Al5 Zn1 Ni10'
_cell_volume   186.13634339
_cell_formula_units_Z   1
loop_
 _symmetry_equiv_pos_site_id
 _symmetry_equiv_pos_as_xyz
  1  'x, y, z'
loop_
 _atom_site_type_symbol
 _atom_site_label
 _atom_site_symmetry_multiplicity
 _atom_site_fract_x
 _atom_site_fract_y
 _atom_site_fract_z
 _atom_site_occupancy
  Al  Al0  1  0.500000  0.279934  0.362042  1
  Al  Al1  1  0.500000  0.270077  0.863308  1
  Al  Al2  1  0.500000  0.729709  0.136562  1
  Al  Al3  1  0.500000  0.720237  0.638091  1
  Al  Al4  1  0.000000  0.000412  0.500034  1
  Zn  Zn5  1  0.000000  0.999895  0.999872  1
  Ni  Ni6  1  0.500000  0.774685  0.386455  1
  Ni  Ni7  1  0.500000  0.763438  0.882234  1
  Ni  Ni8  1  0.500000  0.236216  0.117613  1
  Ni  Ni9  1  0.500000  0.225727  0.613647  1
  Ni  Ni10  1  0.000000  0.004205  0.252274  1
  Ni  Ni11  1  0.000000  0.995465  0.747545  1
  Ni  Ni12  1  0.000000  0.499977  0.999883  1
  Ni  Ni13  1  0.000000  0.500491  0.500181  1
  Ni  Ni14  1  0.000000  0.505041  0.250425  1
  Ni  Ni15  1  0.000000  0.494490  0.749832  1
