# generated using pymatgen
data_Zr3WF15
_symmetry_space_group_name_H-M   'P 1'
_cell_length_a   8.05976212
_cell_length_b   8.05976177
_cell_length_c   8.05976200
_cell_angle_alpha   99.86927776
_cell_angle_beta   99.86927956
_cell_angle_gamma   99.86926364
_symmetry_Int_Tables_number   1
_chemical_formula_structural   Zr3WF15
_chemical_formula_sum   'Zr6 W2 F30'
_cell_volume   497.18774597
_cell_formula_units_Z   2
loop_
 _symmetry_equiv_pos_site_id
 _symmetry_equiv_pos_as_xyz
  1  'x, y, z'
loop_
 _atom_site_type_symbol
 _atom_site_label
 _atom_site_symmetry_multiplicity
 _atom_site_fract_x
 _atom_site_fract_y
 _atom_site_fract_z
 _atom_site_occupancy
  Zr  Zr0  1  0.680493  0.819507  0.250000  1
  Zr  Zr1  1  0.750000  0.319507  0.180493  1
  Zr  Zr2  1  0.819507  0.250000  0.680493  1
  Zr  Zr3  1  0.180493  0.750000  0.319507  1
  Zr  Zr4  1  0.250000  0.680493  0.819507  1
  Zr  Zr5  1  0.319507  0.180493  0.750000  1
  W  W6  1  0.750000  0.750000  0.750000  1
  W  W7  1  0.250000  0.250000  0.250000  1
  F  F8  1  0.962424  0.537576  0.250000  1
  F  F9  1  0.283796  0.520636  0.278907  1
  F  F10  1  0.150339  0.675644  0.048203  1
  F  F11  1  0.750000  0.037576  0.462424  1
  F  F12  1  0.778907  0.020636  0.783796  1
  F  F13  1  0.548203  0.175644  0.650339  1
  F  F14  1  0.979364  0.216204  0.221093  1
  F  F15  1  0.216204  0.221093  0.979364  1
  F  F16  1  0.675644  0.048203  0.150339  1
  F  F17  1  0.824356  0.349661  0.451797  1
  F  F18  1  0.537576  0.250000  0.962424  1
  F  F19  1  0.048203  0.150339  0.675644  1
  F  F20  1  0.349661  0.451797  0.824356  1
  F  F21  1  0.520636  0.278907  0.283796  1
  F  F22  1  0.278907  0.283796  0.520636  1
  F  F23  1  0.721093  0.716204  0.479364  1
  F  F24  1  0.479364  0.721093  0.716204  1
  F  F25  1  0.650339  0.548203  0.175644  1
  F  F26  1  0.951797  0.849661  0.324356  1
  F  F27  1  0.462424  0.750000  0.037576  1
  F  F28  1  0.175644  0.650339  0.548203  1
  F  F29  1  0.324356  0.951797  0.849661  1
  F  F30  1  0.783796  0.778907  0.020636  1
  F  F31  1  0.020636  0.783796  0.778907  1
  F  F32  1  0.451797  0.824356  0.349661  1
  F  F33  1  0.221093  0.979364  0.216204  1
  F  F34  1  0.250000  0.962424  0.537576  1
  F  F35  1  0.849661  0.324356  0.951797  1
  F  F36  1  0.716204  0.479364  0.721093  1
  F  F37  1  0.037576  0.462424  0.750000  1
