# generated using pymatgen
data_Tb3Yb2Lu3(B6Os)4
_symmetry_space_group_name_H-M   'P 1'
_cell_length_a   3.62691000
_cell_length_b   9.10996231
_cell_length_c   11.51156101
_cell_angle_alpha   89.87579966
_cell_angle_beta   90.00000000
_cell_angle_gamma   90.00000000
_symmetry_Int_Tables_number   1
_chemical_formula_structural   Tb3Yb2Lu3(B6Os)4
_chemical_formula_sum   'Tb3 Yb2 Lu3 B24 Os4'
_cell_volume   380.35274790
_cell_formula_units_Z   1
loop_
 _symmetry_equiv_pos_site_id
 _symmetry_equiv_pos_as_xyz
  1  'x, y, z'
loop_
 _atom_site_type_symbol
 _atom_site_label
 _atom_site_symmetry_multiplicity
 _atom_site_fract_x
 _atom_site_fract_y
 _atom_site_fract_z
 _atom_site_occupancy
  Tb  Tb0  1  0.000000  0.821358  0.085913  1
  Tb  Tb1  1  0.000000  0.178732  0.913462  1
  Tb  Tb2  1  0.000000  0.942565  0.371467  1
  Yb  Yb3  1  0.000000  0.324310  0.414915  1
  Yb  Yb4  1  0.000000  0.675502  0.585633  1
  Lu  Lu5  1  0.000000  0.058222  0.630479  1
  Lu  Lu6  1  0.000000  0.443145  0.129561  1
  Lu  Lu7  1  0.000000  0.556969  0.869763  1
  B  B8  1  0.500000  0.552676  0.432405  1
  B  B9  1  0.500000  0.445757  0.567891  1
  B  B10  1  0.500000  0.054671  0.066733  1
  B  B11  1  0.500000  0.945783  0.932464  1
  B  B12  1  0.500000  0.746419  0.417866  1
  B  B13  1  0.500000  0.251234  0.582442  1
  B  B14  1  0.500000  0.250449  0.081447  1
  B  B15  1  0.500000  0.750079  0.918020  1
  B  B16  1  0.500000  0.789465  0.264565  1
  B  B17  1  0.500000  0.208761  0.735103  1
  B  B18  1  0.500000  0.292046  0.234126  1
  B  B19  1  0.500000  0.708783  0.765375  1
  B  B20  1  0.500000  0.629368  0.184565  1
  B  B21  1  0.500000  0.370035  0.815025  1
  B  B22  1  0.500000  0.132219  0.313740  1
  B  B23  1  0.500000  0.869595  0.685579  1
  B  B24  1  0.500000  0.984106  0.211378  1
  B  B25  1  0.500000  0.017032  0.787425  1
  B  B26  1  0.500000  0.482111  0.287281  1
  B  B27  1  0.500000  0.517239  0.712425  1
  B  B28  1  0.500000  0.600146  0.027298  1
  B  B29  1  0.500000  0.399881  0.972132  1
  B  B30  1  0.500000  0.100912  0.474667  1
  B  B31  1  0.500000  0.901194  0.529590  1
  Os  Os32  1  0.000000  0.637431  0.318435  1
  Os  Os33  1  0.000000  0.360513  0.681749  1
  Os  Os34  1  0.000000  0.139157  0.177858  1
  Os  Os35  1  0.000000  0.862134  0.821224  1
