# generated using pymatgen
data_Nd3Dy(PSe4)4
_symmetry_space_group_name_H-M   'P 1'
_cell_length_a   9.47645435
_cell_length_b   7.05303403
_cell_length_c   13.73690300
_cell_angle_alpha   89.99493090
_cell_angle_beta   120.87693885
_cell_angle_gamma   90.00233650
_symmetry_Int_Tables_number   1
_chemical_formula_structural   Nd3Dy(PSe4)4
_chemical_formula_sum   'Nd3 Dy1 P4 Se16'
_cell_volume   788.01664657
_cell_formula_units_Z   1
loop_
 _symmetry_equiv_pos_site_id
 _symmetry_equiv_pos_as_xyz
  1  'x, y, z'
loop_
 _atom_site_type_symbol
 _atom_site_label
 _atom_site_symmetry_multiplicity
 _atom_site_fract_x
 _atom_site_fract_y
 _atom_site_fract_z
 _atom_site_occupancy
  Nd  Nd0  1  0.444042  0.816316  0.333778  1
  Nd  Nd1  1  0.556907  0.184178  0.665633  1
  Nd  Nd2  1  0.443486  0.683339  0.834919  1
  Dy  Dy3  1  0.556144  0.320806  0.165223  1
  P  P4  1  0.316213  0.768704  0.040919  1
  P  P5  1  0.685620  0.269361  0.457605  1
  P  P6  1  0.312880  0.730587  0.540108  1
  P  P7  1  0.685301  0.231509  0.961508  1
  Se  Se8  1  0.580759  0.724543  0.092908  1
  Se  Se9  1  0.283431  0.042735  0.111767  1
  Se  Se10  1  0.263458  0.544144  0.133807  1
  Se  Se11  1  0.840530  0.248955  0.146515  1
  Se  Se12  1  0.152169  0.747376  0.356146  1
  Se  Se13  1  0.736824  0.052192  0.360580  1
  Se  Se14  1  0.720764  0.537000  0.382975  1
  Se  Se15  1  0.421518  0.234551  0.409068  1
  Se  Se16  1  0.578229  0.764807  0.591438  1
  Se  Se17  1  0.275585  0.459841  0.611117  1
  Se  Se18  1  0.258592  0.952627  0.633259  1
  Se  Se19  1  0.847563  0.252564  0.641813  1
  Se  Se20  1  0.152588  0.753428  0.856990  1
  Se  Se21  1  0.741261  0.452099  0.868118  1
  Se  Se22  1  0.724259  0.961724  0.890565  1
  Se  Se23  1  0.421875  0.266613  0.913238  1
