# generated using pymatgen
data_Ce3Th5S12
_symmetry_space_group_name_H-M   'P 1'
_cell_length_a   3.99040800
_cell_length_b   10.76292816
_cell_length_c   10.92364800
_cell_angle_alpha   89.95612422
_cell_angle_beta   90.00000000
_cell_angle_gamma   90.00000000
_symmetry_Int_Tables_number   1
_chemical_formula_structural   Ce3Th5S12
_chemical_formula_sum   'Ce3 Th5 S12'
_cell_volume   469.15388128
_cell_formula_units_Z   1
loop_
 _symmetry_equiv_pos_site_id
 _symmetry_equiv_pos_as_xyz
  1  'x, y, z'
loop_
 _atom_site_type_symbol
 _atom_site_label
 _atom_site_symmetry_multiplicity
 _atom_site_fract_x
 _atom_site_fract_y
 _atom_site_fract_z
 _atom_site_occupancy
  Ce  Ce0  1  0.250000  0.008039  0.309318  1
  Ce  Ce1  1  0.750000  0.990328  0.691333  1
  Ce  Ce2  1  0.750000  0.505866  0.194167  1
  Th  Th3  1  0.250000  0.494829  0.805591  1
  Th  Th4  1  0.250000  0.685264  0.485400  1
  Th  Th5  1  0.750000  0.314518  0.512924  1
  Th  Th6  1  0.750000  0.185052  0.014577  1
  Th  Th7  1  0.250000  0.813936  0.987001  1
  S  S8  1  0.250000  0.054581  0.877413  1
  S  S9  1  0.750000  0.945474  0.122925  1
  S  S10  1  0.750000  0.555647  0.623143  1
  S  S11  1  0.250000  0.444871  0.377491  1
  S  S12  1  0.250000  0.128120  0.552276  1
  S  S13  1  0.750000  0.871836  0.449487  1
  S  S14  1  0.750000  0.625914  0.947689  1
  S  S15  1  0.250000  0.374521  0.047078  1
  S  S16  1  0.250000  0.703542  0.223575  1
  S  S17  1  0.750000  0.300093  0.777965  1
  S  S18  1  0.750000  0.206074  0.274169  1
  S  S19  1  0.250000  0.791494  0.726478  1
