# generated using pymatgen
data_Tb17Y3Sn15Sb
_symmetry_space_group_name_H-M   'P 1'
_cell_length_a   8.09529778
_cell_length_b   8.20908201
_cell_length_c   15.51065350
_cell_angle_alpha   90.06744263
_cell_angle_beta   90.44638585
_cell_angle_gamma   90.01032354
_symmetry_Int_Tables_number   1
_chemical_formula_structural   Tb17Y3Sn15Sb
_chemical_formula_sum   'Tb17 Y3 Sn15 Sb1'
_cell_volume   1030.72789544
_cell_formula_units_Z   1
loop_
 _symmetry_equiv_pos_site_id
 _symmetry_equiv_pos_as_xyz
  1  'x, y, z'
loop_
 _atom_site_type_symbol
 _atom_site_label
 _atom_site_symmetry_multiplicity
 _atom_site_fract_x
 _atom_site_fract_y
 _atom_site_fract_z
 _atom_site_occupancy
  Tb  Tb0  1  0.371088  0.837845  0.879573  1
  Tb  Tb1  1  0.868080  0.663243  0.622350  1
  Tb  Tb2  1  0.632265  0.162813  0.377411  1
  Tb  Tb3  1  0.129540  0.338470  0.121673  1
  Tb  Tb4  1  0.630274  0.162380  0.120652  1
  Tb  Tb5  1  0.132845  0.337189  0.377329  1
  Tb  Tb6  1  0.367540  0.837250  0.622166  1
  Tb  Tb7  1  0.869623  0.662336  0.878277  1
  Tb  Tb8  1  0.526033  0.325494  0.900535  1
  Tb  Tb9  1  0.021145  0.178050  0.597590  1
  Tb  Tb10  1  0.478802  0.677710  0.402171  1
  Tb  Tb11  1  0.972690  0.821799  0.099678  1
  Tb  Tb12  1  0.476805  0.675714  0.098458  1
  Tb  Tb13  1  0.978738  0.821867  0.402132  1
  Tb  Tb14  1  0.521324  0.321600  0.597635  1
  Tb  Tb15  1  0.022757  0.178788  0.900946  1
  Tb  Tb16  1  0.199441  0.501872  0.749751  1
  Y  Y17  1  0.699466  0.997929  0.750405  1
  Y  Y18  1  0.800441  0.497964  0.250519  1
  Y  Y19  1  0.300489  0.001349  0.251207  1
  Sn  Sn20  1  0.793065  0.463345  0.458156  1
  Sn  Sn21  1  0.707160  0.963189  0.541594  1
  Sn  Sn22  1  0.210721  0.534627  0.957953  1
  Sn  Sn23  1  0.713822  0.965695  0.957679  1
  Sn  Sn24  1  0.207185  0.536404  0.541581  1
  Sn  Sn25  1  0.293280  0.036740  0.458203  1
  Sn  Sn26  1  0.790307  0.465073  0.042368  1
  Sn  Sn27  1  0.566292  0.619789  0.750159  1
  Sn  Sn28  1  0.067151  0.881155  0.751358  1
  Sn  Sn29  1  0.434266  0.380208  0.248745  1
  Sn  Sn30  1  0.933634  0.119120  0.248792  1
  Sn  Sn31  1  0.331745  0.146930  0.749876  1
  Sn  Sn32  1  0.831358  0.353063  0.749348  1
  Sn  Sn33  1  0.667167  0.852682  0.250044  1
  Sn  Sn34  1  0.168210  0.647317  0.250075  1
  Sb  Sb35  1  0.285249  0.033002  0.043611  1
