# generated using pymatgen
data_Hg3Bi2(OF4)2
_symmetry_space_group_name_H-M   'P 1'
_cell_length_a   6.73342967
_cell_length_b   6.73342923
_cell_length_c   7.98883845
_cell_angle_alpha   63.69806202
_cell_angle_beta   63.69806654
_cell_angle_gamma   60.68223155
_symmetry_Int_Tables_number   1
_chemical_formula_structural   Hg3Bi2(OF4)2
_chemical_formula_sum   'Hg3 Bi2 O2 F8'
_cell_volume   271.01134774
_cell_formula_units_Z   1
loop_
 _symmetry_equiv_pos_site_id
 _symmetry_equiv_pos_as_xyz
  1  'x, y, z'
loop_
 _atom_site_type_symbol
 _atom_site_label
 _atom_site_symmetry_multiplicity
 _atom_site_fract_x
 _atom_site_fract_y
 _atom_site_fract_z
 _atom_site_occupancy
  Hg  Hg0  1  0.000000  0.500000  0.000000  1
  Hg  Hg1  1  0.500000  0.000000  0.000000  1
  Hg  Hg2  1  0.500000  0.500000  0.000000  1
  Bi  Bi3  1  0.137111  0.137111  0.563567  1
  Bi  Bi4  1  0.862889  0.862889  0.436433  1
  O  O5  1  0.630195  0.630195  0.105021  1
  O  O6  1  0.369805  0.369805  0.894979  1
  F  F7  1  0.193573  0.806427  0.500000  1
  F  F8  1  0.806427  0.193573  0.500000  1
  F  F9  1  0.930177  0.453021  0.701356  1
  F  F10  1  0.453021  0.930177  0.701356  1
  F  F11  1  0.069823  0.546979  0.298644  1
  F  F12  1  0.546979  0.069823  0.298644  1
  F  F13  1  0.955264  0.955264  0.848391  1
  F  F14  1  0.044736  0.044736  0.151609  1
