# generated using pymatgen
data_Dy3Pa(Ni2Sn)2
_symmetry_space_group_name_H-M   'P 1'
_cell_length_a   7.45715686
_cell_length_b   7.45715715
_cell_length_c   3.55780200
_cell_angle_alpha   90.00000000
_cell_angle_beta   90.00000000
_cell_angle_gamma   92.17629273
_symmetry_Int_Tables_number   1
_chemical_formula_structural   Dy3Pa(Ni2Sn)2
_chemical_formula_sum   'Dy3 Pa1 Ni4 Sn2'
_cell_volume   197.70378568
_cell_formula_units_Z   1
loop_
 _symmetry_equiv_pos_site_id
 _symmetry_equiv_pos_as_xyz
  1  'x, y, z'
loop_
 _atom_site_type_symbol
 _atom_site_label
 _atom_site_symmetry_multiplicity
 _atom_site_fract_x
 _atom_site_fract_y
 _atom_site_fract_z
 _atom_site_occupancy
  Dy  Dy0  1  0.324825  0.824825  0.500000  1
  Dy  Dy1  1  0.171498  0.327309  0.500000  1
  Dy  Dy2  1  0.827309  0.671498  0.500000  1
  Pa  Pa3  1  0.671727  0.171727  0.500000  1
  Ni  Ni4  1  0.114104  0.614104  0.000000  1
  Ni  Ni5  1  0.862250  0.362250  0.000000  1
  Ni  Ni6  1  0.632542  0.896914  0.000000  1
  Ni  Ni7  1  0.396914  0.132542  0.000000  1
  Sn  Sn8  1  0.493203  0.505628  0.000000  1
  Sn  Sn9  1  0.005628  0.993203  0.000000  1
