# generated using pymatgen
data_BaZn9Ag4
_symmetry_space_group_name_H-M   'P 1'
_cell_length_a   8.95544389
_cell_length_b   8.95544297
_cell_length_c   8.95544274
_cell_angle_alpha   119.58729869
_cell_angle_beta   119.58729075
_cell_angle_gamma   90.71632695
_symmetry_Int_Tables_number   1
_chemical_formula_structural   BaZn9Ag4
_chemical_formula_sum   'Ba2 Zn18 Ag8'
_cell_volume   510.98744604
_cell_formula_units_Z   2
loop_
 _symmetry_equiv_pos_site_id
 _symmetry_equiv_pos_as_xyz
  1  'x, y, z'
loop_
 _atom_site_type_symbol
 _atom_site_label
 _atom_site_symmetry_multiplicity
 _atom_site_fract_x
 _atom_site_fract_y
 _atom_site_fract_z
 _atom_site_occupancy
  Ba  Ba0  1  0.750000  0.750000  0.000000  1
  Ba  Ba1  1  0.250000  0.250000  0.000000  1
  Zn  Zn2  1  0.436049  0.936049  0.727594  1
  Zn  Zn3  1  0.208456  0.708456  0.272406  1
  Zn  Zn4  1  0.936049  0.208456  0.500000  1
  Zn  Zn5  1  0.708456  0.436049  0.500000  1
  Zn  Zn6  1  0.563951  0.063951  0.272406  1
  Zn  Zn7  1  0.791544  0.291544  0.727594  1
  Zn  Zn8  1  0.063951  0.791544  0.500000  1
  Zn  Zn9  1  0.291544  0.563951  0.500000  1
  Zn  Zn10  1  0.060491  0.200078  0.260570  1
  Zn  Zn11  1  0.939509  0.799922  0.739430  1
  Zn  Zn12  1  0.560491  0.299922  0.860413  1
  Zn  Zn13  1  0.439509  0.700078  0.139587  1
  Zn  Zn14  1  0.799922  0.060491  0.860413  1
  Zn  Zn15  1  0.200078  0.939509  0.139587  1
  Zn  Zn16  1  0.700078  0.560491  0.260570  1
  Zn  Zn17  1  0.299922  0.439509  0.739430  1
  Zn  Zn18  1  0.000000  0.500000  0.500000  1
  Zn  Zn19  1  0.500000  0.000000  0.500000  1
  Ag  Ag20  1  0.061858  0.561858  0.865655  1
  Ag  Ag21  1  0.696202  0.196202  0.134345  1
  Ag  Ag22  1  0.561858  0.696202  0.500000  1
  Ag  Ag23  1  0.196202  0.061858  0.500000  1
  Ag  Ag24  1  0.938142  0.438142  0.134345  1
  Ag  Ag25  1  0.303798  0.803798  0.865655  1
  Ag  Ag26  1  0.438142  0.303798  0.500000  1
  Ag  Ag27  1  0.803798  0.938142  0.500000  1
