# generated using pymatgen
data_AcTh3(Zn5Sn)2
_symmetry_space_group_name_H-M   'P 1'
_cell_length_a   8.65022730
_cell_length_b   8.65022810
_cell_length_c   9.11769563
_cell_angle_alpha   89.30055658
_cell_angle_beta   90.69944482
_cell_angle_gamma   149.42898201
_symmetry_Int_Tables_number   1
_chemical_formula_structural   AcTh3(Zn5Sn)2
_chemical_formula_sum   'Ac1 Th3 Zn10 Sn2'
_cell_volume   346.96593362
_cell_formula_units_Z   1
loop_
 _symmetry_equiv_pos_site_id
 _symmetry_equiv_pos_as_xyz
  1  'x, y, z'
loop_
 _atom_site_type_symbol
 _atom_site_label
 _atom_site_symmetry_multiplicity
 _atom_site_fract_x
 _atom_site_fract_y
 _atom_site_fract_z
 _atom_site_occupancy
  Ac  Ac0  1  0.000000  0.000000  0.500000  1
  Th  Th1  1  0.205684  0.794316  0.248801  1
  Th  Th2  1  0.794316  0.205684  0.751199  1
  Th  Th3  1  0.000000  0.000000  0.000000  1
  Zn  Zn4  1  0.811046  0.188954  0.394729  1
  Zn  Zn5  1  0.188954  0.811046  0.605271  1
  Zn  Zn6  1  0.816508  0.183492  0.109547  1
  Zn  Zn7  1  0.183492  0.816508  0.890453  1
  Zn  Zn8  1  0.658404  0.341596  0.482088  1
  Zn  Zn9  1  0.341596  0.658404  0.517912  1
  Zn  Zn10  1  0.659021  0.340979  0.013045  1
  Zn  Zn11  1  0.340979  0.659021  0.986955  1
  Zn  Zn12  1  0.395829  0.604171  0.249833  1
  Zn  Zn13  1  0.604171  0.395829  0.750167  1
  Sn  Sn14  1  0.557563  0.442437  0.241530  1
  Sn  Sn15  1  0.442437  0.557563  0.758470  1
