# generated using pymatgen
data_DyY5PtBr10
_symmetry_space_group_name_H-M   'P 1'
_cell_length_a   7.40206243
_cell_length_b   9.27140104
_cell_length_c   9.38967000
_cell_angle_alpha   107.46393692
_cell_angle_beta   96.36254383
_cell_angle_gamma   104.95336435
_symmetry_Int_Tables_number   1
_chemical_formula_structural   DyY5PtBr10
_chemical_formula_sum   'Dy1 Y5 Pt1 Br10'
_cell_volume   581.34927463
_cell_formula_units_Z   1
loop_
 _symmetry_equiv_pos_site_id
 _symmetry_equiv_pos_as_xyz
  1  'x, y, z'
loop_
 _atom_site_type_symbol
 _atom_site_label
 _atom_site_symmetry_multiplicity
 _atom_site_fract_x
 _atom_site_fract_y
 _atom_site_fract_z
 _atom_site_occupancy
  Dy  Dy0  1  0.871811  0.951444  0.245752  1
  Y  Y1  1  0.127907  0.048079  0.753036  1
  Y  Y2  1  0.032970  0.701192  0.906826  1
  Y  Y3  1  0.967073  0.298867  0.092551  1
  Y  Y4  1  0.642280  0.866755  0.822793  1
  Y  Y5  1  0.358259  0.133315  0.176781  1
  Pt  Pt6  1  0.000016  0.999974  0.000345  1
  Br  Br7  1  0.656778  0.551693  0.729191  1
  Br  Br8  1  0.343150  0.448206  0.269438  1
  Br  Br9  1  0.756541  0.921824  0.547074  1
  Br  Br10  1  0.241722  0.078671  0.453415  1
  Br  Br11  1  0.912659  0.628447  0.171090  1
  Br  Br12  1  0.087453  0.372652  0.829614  1
  Br  Br13  1  0.545835  0.177775  0.915277  1
  Br  Br14  1  0.455346  0.822635  0.086481  1
  Br  Br15  1  0.225564  0.749003  0.659145  1
  Br  Br16  1  0.774635  0.249468  0.341192  1
