# generated using pymatgen
data_Y3GaGeRu2
_symmetry_space_group_name_H-M   'P 1'
_cell_length_a   5.60266800
_cell_length_b   7.71305700
_cell_length_c   13.69176200
_cell_angle_alpha   90.00000000
_cell_angle_beta   90.00000000
_cell_angle_gamma   90.00000000
_symmetry_Int_Tables_number   1
_chemical_formula_structural   Y3GaGeRu2
_chemical_formula_sum   'Y12 Ga4 Ge4 Ru8'
_cell_volume   591.67166317
_cell_formula_units_Z   4
loop_
 _symmetry_equiv_pos_site_id
 _symmetry_equiv_pos_as_xyz
  1  'x, y, z'
loop_
 _atom_site_type_symbol
 _atom_site_label
 _atom_site_symmetry_multiplicity
 _atom_site_fract_x
 _atom_site_fract_y
 _atom_site_fract_z
 _atom_site_occupancy
  Y  Y0  1  0.150490  0.903764  0.598548  1
  Y  Y1  1  0.849510  0.096236  0.098548  1
  Y  Y2  1  0.150490  0.596236  0.401452  1
  Y  Y3  1  0.849510  0.403764  0.901452  1
  Y  Y4  1  0.849510  0.096236  0.401452  1
  Y  Y5  1  0.150490  0.903764  0.901452  1
  Y  Y6  1  0.849510  0.403764  0.598548  1
  Y  Y7  1  0.150490  0.596236  0.098548  1
  Y  Y8  1  0.372475  0.267435  0.750000  1
  Y  Y9  1  0.627525  0.732565  0.250000  1
  Y  Y10  1  0.372475  0.232565  0.250000  1
  Y  Y11  1  0.627525  0.767435  0.750000  1
  Ga  Ga12  1  0.369618  0.250000  0.500000  1
  Ga  Ga13  1  0.630382  0.750000  0.000000  1
  Ga  Ga14  1  0.630382  0.750000  0.500000  1
  Ga  Ga15  1  0.369618  0.250000  0.000000  1
  Ge  Ge16  1  0.874692  0.114840  0.750000  1
  Ge  Ge17  1  0.125308  0.885160  0.250000  1
  Ge  Ge18  1  0.874692  0.385160  0.250000  1
  Ge  Ge19  1  0.125308  0.614840  0.750000  1
  Ru  Ru20  1  0.645604  0.034047  0.594695  1
  Ru  Ru21  1  0.354396  0.965953  0.094695  1
  Ru  Ru22  1  0.645604  0.465953  0.405305  1
  Ru  Ru23  1  0.354396  0.534047  0.905305  1
  Ru  Ru24  1  0.354396  0.965953  0.405305  1
  Ru  Ru25  1  0.645604  0.034047  0.905305  1
  Ru  Ru26  1  0.354396  0.534047  0.594695  1
  Ru  Ru27  1  0.645604  0.465953  0.094695  1
