# generated using pymatgen
data_Be8VGaFe2
_symmetry_space_group_name_H-M   'P 1'
_cell_length_a   4.22510500
_cell_length_b   4.22510489
_cell_length_c   6.91354000
_cell_angle_alpha   90.00000000
_cell_angle_beta   90.00000000
_cell_angle_gamma   119.99997739
_symmetry_Int_Tables_number   1
_chemical_formula_structural   Be8VGaFe2
_chemical_formula_sum   'Be8 V1 Ga1 Fe2'
_cell_volume   106.88240354
_cell_formula_units_Z   1
loop_
 _symmetry_equiv_pos_site_id
 _symmetry_equiv_pos_as_xyz
  1  'x, y, z'
loop_
 _atom_site_type_symbol
 _atom_site_label
 _atom_site_symmetry_multiplicity
 _atom_site_fract_x
 _atom_site_fract_y
 _atom_site_fract_z
 _atom_site_occupancy
  Be  Be0  1  0.000000  0.000000  0.997413  1
  Be  Be1  1  0.000000  0.000000  0.495407  1
  Be  Be2  1  0.830238  0.660475  0.250749  1
  Be  Be3  1  0.167537  0.832463  0.749576  1
  Be  Be4  1  0.664926  0.832463  0.749576  1
  Be  Be5  1  0.339525  0.169762  0.250749  1
  Be  Be6  1  0.830238  0.169762  0.250749  1
  Be  Be7  1  0.167537  0.335074  0.749576  1
  V  V8  1  0.666667  0.333333  0.565963  1
  Ga  Ga9  1  0.333333  0.666667  0.061681  1
  Fe  Fe10  1  0.666667  0.333333  0.927009  1
  Fe  Fe11  1  0.333333  0.666667  0.451555  1
