# generated using pymatgen
data_Dy2Tm3In4CuIr
_symmetry_space_group_name_H-M   'P 1'
_cell_length_a   3.61435700
_cell_length_b   8.07594165
_cell_length_c   18.02103189
_cell_angle_alpha   90.08633543
_cell_angle_beta   90.00000000
_cell_angle_gamma   90.00000000
_symmetry_Int_Tables_number   1
_chemical_formula_structural   Dy2Tm3In4CuIr
_chemical_formula_sum   'Dy4 Tm6 In8 Cu2 Ir2'
_cell_volume   526.02136189
_cell_formula_units_Z   2
loop_
 _symmetry_equiv_pos_site_id
 _symmetry_equiv_pos_as_xyz
  1  'x, y, z'
loop_
 _atom_site_type_symbol
 _atom_site_label
 _atom_site_symmetry_multiplicity
 _atom_site_fract_x
 _atom_site_fract_y
 _atom_site_fract_z
 _atom_site_occupancy
  Dy  Dy0  1  0.000000  0.243336  0.719783  1
  Dy  Dy1  1  0.000000  0.756664  0.280217  1
  Dy  Dy2  1  0.000000  0.000000  0.000000  1
  Dy  Dy3  1  0.000000  0.500000  0.500000  1
  Tm  Tm4  1  0.000000  0.117800  0.412841  1
  Tm  Tm5  1  0.000000  0.882200  0.587159  1
  Tm  Tm6  1  0.000000  0.382327  0.915032  1
  Tm  Tm7  1  0.000000  0.617673  0.084968  1
  Tm  Tm8  1  0.000000  0.227508  0.221138  1
  Tm  Tm9  1  0.000000  0.772492  0.778862  1
  In  In10  1  0.500000  0.422800  0.347344  1
  In  In11  1  0.500000  0.577200  0.652656  1
  In  In12  1  0.500000  0.077907  0.852531  1
  In  In13  1  0.500000  0.922093  0.147469  1
  In  In14  1  0.500000  0.296077  0.068258  1
  In  In15  1  0.500000  0.703923  0.931742  1
  In  In16  1  0.500000  0.204497  0.566465  1
  In  In17  1  0.500000  0.795503  0.433535  1
  Cu  Cu18  1  0.500000  0.480029  0.802869  1
  Cu  Cu19  1  0.500000  0.519971  0.197131  1
  Ir  Ir20  1  0.500000  0.026853  0.303767  1
  Ir  Ir21  1  0.500000  0.973147  0.696233  1
