# generated using pymatgen
data_Cd3Hg(BrO3)8
_symmetry_space_group_name_H-M   'P 1'
_cell_length_a   5.82721251
_cell_length_b   11.09894773
_cell_length_c   11.24577359
_cell_angle_alpha   119.41051447
_cell_angle_beta   90.02980345
_cell_angle_gamma   89.80003031
_symmetry_Int_Tables_number   1
_chemical_formula_structural   Cd3Hg(BrO3)8
_chemical_formula_sum   'Cd3 Hg1 Br8 O24'
_cell_volume   633.59067898
_cell_formula_units_Z   1
loop_
 _symmetry_equiv_pos_site_id
 _symmetry_equiv_pos_as_xyz
  1  'x, y, z'
loop_
 _atom_site_type_symbol
 _atom_site_label
 _atom_site_symmetry_multiplicity
 _atom_site_fract_x
 _atom_site_fract_y
 _atom_site_fract_z
 _atom_site_occupancy
  Cd  Cd0  1  0.645481  0.231877  0.489982  1
  Cd  Cd1  1  0.140854  0.266822  0.007992  1
  Cd  Cd2  1  0.643501  0.733073  0.990818  1
  Hg  Hg3  1  0.151350  0.769431  0.509520  1
  Br  Br4  1  0.267410  0.416176  0.348964  1
  Br  Br5  1  0.766910  0.579531  0.648962  1
  Br  Br6  1  0.266297  0.917991  0.854980  1
  Br  Br7  1  0.766058  0.082250  0.148482  1
  Br  Br8  1  0.781619  0.090236  0.693677  1
  Br  Br9  1  0.284154  0.916317  0.307469  1
  Br  Br10  1  0.284013  0.412117  0.807755  1
  Br  Br11  1  0.782116  0.586980  0.189676  1
  O  O12  1  0.415427  0.893862  0.970211  1
  O  O13  1  0.918633  0.108353  0.035840  1
  O  O14  1  0.381518  0.803477  0.701315  1
  O  O15  1  0.875045  0.194835  0.304299  1
  O  O16  1  0.372333  0.301662  0.192520  1
  O  O17  1  0.874091  0.692592  0.804987  1
  O  O18  1  0.916442  0.228477  0.820465  1
  O  O19  1  0.414669  0.776868  0.179581  1
  O  O20  1  0.917474  0.948478  0.679287  1
  O  O21  1  0.422538  0.057064  0.323004  1
  O  O22  1  0.364789  0.072485  0.879507  1
  O  O23  1  0.865702  0.926880  0.122132  1
  O  O24  1  0.417931  0.274694  0.678699  1
  O  O25  1  0.910846  0.727527  0.317043  1
  O  O26  1  0.357924  0.402292  0.948899  1
  O  O27  1  0.854929  0.592688  0.046270  1
  O  O28  1  0.421731  0.554367  0.826765  1
  O  O29  1  0.926068  0.447417  0.174780  1
  O  O30  1  0.374422  0.569607  0.373343  1
  O  O31  1  0.865185  0.424338  0.623952  1
  O  O32  1  0.417736  0.388385  0.461162  1
  O  O33  1  0.923074  0.604174  0.536470  1
  O  O34  1  0.857453  0.094333  0.549934  1
  O  O35  1  0.363880  0.912349  0.451254  1
