# generated using pymatgen
data_Er8V5Si16Mo7
_symmetry_space_group_name_H-M   'P 1'
_cell_length_a   6.68949918
_cell_length_b   6.88198386
_cell_length_c   12.91747743
_cell_angle_alpha   90.00399765
_cell_angle_beta   89.95549976
_cell_angle_gamma   90.02617766
_symmetry_Int_Tables_number   1
_chemical_formula_structural   Er8V5Si16Mo7
_chemical_formula_sum   'Er8 V5 Si16 Mo7'
_cell_volume   594.68199424
_cell_formula_units_Z   1
loop_
 _symmetry_equiv_pos_site_id
 _symmetry_equiv_pos_as_xyz
  1  'x, y, z'
loop_
 _atom_site_type_symbol
 _atom_site_label
 _atom_site_symmetry_multiplicity
 _atom_site_fract_x
 _atom_site_fract_y
 _atom_site_fract_z
 _atom_site_occupancy
  Er  Er0  1  0.498987  0.329687  0.095126  1
  Er  Er1  1  0.999643  0.169491  0.405969  1
  Er  Er2  1  0.501690  0.670350  0.593572  1
  Er  Er3  1  0.000966  0.829931  0.905971  1
  Er  Er4  1  0.502857  0.666612  0.905392  1
  Er  Er5  1  0.003239  0.833259  0.593568  1
  Er  Er6  1  0.497554  0.332010  0.405677  1
  Er  Er7  1  0.998127  0.167701  0.095524  1
  V  V8  1  0.836197  0.331987  0.626210  1
  V  V9  1  0.334263  0.167291  0.874113  1
  V  V10  1  0.163925  0.668713  0.126086  1
  V  V11  1  0.667806  0.832190  0.373519  1
  V  V12  1  0.164735  0.667194  0.374591  1
  Si  Si13  1  0.663911  0.044465  0.542787  1
  Si  Si14  1  0.164393  0.455941  0.957078  1
  Si  Si15  1  0.335281  0.954978  0.042840  1
  Si  Si16  1  0.837908  0.546085  0.456466  1
  Si  Si17  1  0.340113  0.951698  0.454118  1
  Si  Si18  1  0.841453  0.543767  0.044906  1
  Si  Si19  1  0.658432  0.043344  0.955215  1
  Si  Si20  1  0.159921  0.459084  0.542782  1
  Si  Si21  1  0.536639  0.367100  0.748678  1
  Si  Si22  1  0.036791  0.132221  0.750527  1
  Si  Si23  1  0.460255  0.632819  0.251173  1
  Si  Si24  1  0.964352  0.866824  0.251870  1
  Si  Si25  1  0.802078  0.625902  0.748028  1
  Si  Si26  1  0.302141  0.874211  0.751315  1
  Si  Si27  1  0.198247  0.378332  0.250137  1
  Si  Si28  1  0.697735  0.124700  0.252075  1
  Mo  Mo29  1  0.667524  0.833277  0.124460  1
  Mo  Mo30  1  0.831867  0.334176  0.876604  1
  Mo  Mo31  1  0.330825  0.165364  0.622975  1
  Mo  Mo32  1  0.665142  0.005456  0.749621  1
  Mo  Mo33  1  0.165007  0.494539  0.749685  1
  Mo  Mo34  1  0.333976  0.991928  0.250232  1
  Mo  Mo35  1  0.836023  0.507367  0.251114  1
