# generated using pymatgen
data_Sm3Cd3IrPd2
_symmetry_space_group_name_H-M   'P 1'
_cell_length_a   7.67254100
_cell_length_b   7.67254039
_cell_length_c   4.01523900
_cell_angle_alpha   90.00000000
_cell_angle_beta   90.00000000
_cell_angle_gamma   119.99999833
_symmetry_Int_Tables_number   1
_chemical_formula_structural   Sm3Cd3IrPd2
_chemical_formula_sum   'Sm3 Cd3 Ir1 Pd2'
_cell_volume   204.70122476
_cell_formula_units_Z   1
loop_
 _symmetry_equiv_pos_site_id
 _symmetry_equiv_pos_as_xyz
  1  'x, y, z'
loop_
 _atom_site_type_symbol
 _atom_site_label
 _atom_site_symmetry_multiplicity
 _atom_site_fract_x
 _atom_site_fract_y
 _atom_site_fract_z
 _atom_site_occupancy
  Sm  Sm0  1  0.416693  0.399990  0.500000  1
  Sm  Sm1  1  0.600010  0.016703  0.500000  1
  Sm  Sm2  1  0.983297  0.583307  0.500000  1
  Cd  Cd3  1  0.744167  0.747643  0.000000  1
  Cd  Cd4  1  0.252357  0.996524  0.000000  1
  Cd  Cd5  1  0.003476  0.255833  0.000000  1
  Ir  Ir6  1  0.666667  0.333333  0.000000  1
  Pd  Pd7  1  0.333333  0.666667  0.000000  1
  Pd  Pd8  1  0.000000  0.000000  0.500000  1
