# generated using pymatgen
data_Th3BePd5
_symmetry_space_group_name_H-M   'P 1'
_cell_length_a   8.30515930
_cell_length_b   8.30515977
_cell_length_c   8.30515937
_cell_angle_alpha   126.41600887
_cell_angle_beta   125.69442104
_cell_angle_gamma   79.79876884
_symmetry_Int_Tables_number   1
_chemical_formula_structural   Th3BePd5
_chemical_formula_sum   'Th6 Be2 Pd10'
_cell_volume   361.61580582
_cell_formula_units_Z   2
loop_
 _symmetry_equiv_pos_site_id
 _symmetry_equiv_pos_as_xyz
  1  'x, y, z'
loop_
 _atom_site_type_symbol
 _atom_site_label
 _atom_site_symmetry_multiplicity
 _atom_site_fract_x
 _atom_site_fract_y
 _atom_site_fract_z
 _atom_site_occupancy
  Th  Th0  1  0.219491  0.448083  0.771409  1
  Th  Th1  1  0.780509  0.551917  0.228591  1
  Th  Th2  1  0.823326  0.051917  0.771409  1
  Th  Th3  1  0.176674  0.948083  0.228591  1
  Th  Th4  1  0.398017  0.250000  0.148017  1
  Th  Th5  1  0.601983  0.750000  0.851983  1
  Be  Be6  1  0.793439  0.250000  0.543439  1
  Be  Be7  1  0.206561  0.750000  0.456561  1
  Pd  Pd8  1  0.172202  0.411716  0.361522  1
  Pd  Pd9  1  0.827798  0.189320  0.239514  1
  Pd  Pd10  1  0.449806  0.088284  0.760486  1
  Pd  Pd11  1  0.550194  0.310680  0.638478  1
  Pd  Pd12  1  0.000000  0.500000  0.000000  1
  Pd  Pd13  1  0.000000  0.000000  0.500000  1
  Pd  Pd14  1  0.449806  0.689320  0.361522  1
  Pd  Pd15  1  0.550194  0.911716  0.239514  1
  Pd  Pd16  1  0.172202  0.810680  0.760486  1
  Pd  Pd17  1  0.827798  0.588284  0.638478  1
