# generated using pymatgen
data_Sc4CdGaPd10
_symmetry_space_group_name_H-M   'P 1'
_cell_length_a   4.19135300
_cell_length_b   5.65526174
_cell_length_c   11.18391100
_cell_angle_alpha   87.79885540
_cell_angle_beta   90.00000000
_cell_angle_gamma   90.00000000
_symmetry_Int_Tables_number   1
_chemical_formula_structural   Sc4CdGaPd10
_chemical_formula_sum   'Sc4 Cd1 Ga1 Pd10'
_cell_volume   264.89885956
_cell_formula_units_Z   1
loop_
 _symmetry_equiv_pos_site_id
 _symmetry_equiv_pos_as_xyz
  1  'x, y, z'
loop_
 _atom_site_type_symbol
 _atom_site_label
 _atom_site_symmetry_multiplicity
 _atom_site_fract_x
 _atom_site_fract_y
 _atom_site_fract_z
 _atom_site_occupancy
  Sc  Sc0  1  0.500000  0.186843  0.363637  1
  Sc  Sc1  1  0.500000  0.813157  0.636363  1
  Sc  Sc2  1  0.500000  0.694286  0.141282  1
  Sc  Sc3  1  0.500000  0.305714  0.858718  1
  Cd  Cd4  1  0.000000  0.000000  0.000000  1
  Ga  Ga5  1  0.000000  0.500000  0.500000  1
  Pd  Pd6  1  0.500000  0.213291  0.120477  1
  Pd  Pd7  1  0.500000  0.786709  0.879523  1
  Pd  Pd8  1  0.500000  0.690390  0.392244  1
  Pd  Pd9  1  0.500000  0.309610  0.607756  1
  Pd  Pd10  1  0.000000  0.000000  0.500000  1
  Pd  Pd11  1  0.000000  0.500000  0.000000  1
  Pd  Pd12  1  0.000000  0.939678  0.252115  1
  Pd  Pd13  1  0.000000  0.060322  0.747885  1
  Pd  Pd14  1  0.000000  0.441372  0.257004  1
  Pd  Pd15  1  0.000000  0.558628  0.742996  1
