# generated using pymatgen
data_Er5TmCo2(Ni3B)4
_symmetry_space_group_name_H-M   'P 1'
_cell_length_a   5.00116500
_cell_length_b   5.03742076
_cell_length_c   14.28895136
_cell_angle_alpha   89.97848323
_cell_angle_beta   90.00000000
_cell_angle_gamma   119.76220649
_symmetry_Int_Tables_number   1
_chemical_formula_structural   Er5TmCo2(Ni3B)4
_chemical_formula_sum   'Er5 Tm1 Co2 Ni12 B4'
_cell_volume   312.49712165
_cell_formula_units_Z   1
loop_
 _symmetry_equiv_pos_site_id
 _symmetry_equiv_pos_as_xyz
  1  'x, y, z'
loop_
 _atom_site_type_symbol
 _atom_site_label
 _atom_site_symmetry_multiplicity
 _atom_site_fract_x
 _atom_site_fract_y
 _atom_site_fract_z
 _atom_site_occupancy
  Er  Er0  1  0.333213  0.666428  0.533954  1
  Er  Er1  1  0.666669  0.333337  0.034298  1
  Er  Er2  1  0.666230  0.332459  0.468733  1
  Er  Er3  1  0.333737  0.667474  0.969185  1
  Er  Er4  1  0.332914  0.665830  0.750035  1
  Tm  Tm5  1  0.666838  0.333674  0.250002  1
  Co  Co6  1  0.164289  0.328578  0.150382  1
  Co  Co7  1  0.835900  0.671800  0.650163  1
  Ni  Ni8  1  0.002046  0.004094  0.999568  1
  Ni  Ni9  1  0.999341  0.998681  0.499110  1
  Ni  Ni10  1  0.668882  0.833342  0.148682  1
  Ni  Ni11  1  0.164460  0.833342  0.148682  1
  Ni  Ni12  1  0.834037  0.166109  0.648335  1
  Ni  Ni13  1  0.332072  0.166109  0.648335  1
  Ni  Ni14  1  0.833512  0.667024  0.851632  1
  Ni  Ni15  1  0.833732  0.165363  0.850771  1
  Ni  Ni16  1  0.331632  0.165363  0.850771  1
  Ni  Ni17  1  0.667914  0.833917  0.350606  1
  Ni  Ni18  1  0.166001  0.833917  0.350606  1
  Ni  Ni19  1  0.166350  0.332700  0.351413  1
  B  B20  1  0.330893  0.661785  0.248302  1
  B  B21  1  0.669047  0.338093  0.748510  1
  B  B22  1  0.003634  0.007267  0.249046  1
  B  B23  1  0.996656  0.993314  0.748877  1
