# generated using pymatgen
data_Tm5U(Co3P2)6
_symmetry_space_group_name_H-M   'P 1'
_cell_length_a   3.67424200
_cell_length_b   10.49484500
_cell_length_c   12.07204600
_cell_angle_alpha   90.00000000
_cell_angle_beta   90.00000000
_cell_angle_gamma   90.00000000
_symmetry_Int_Tables_number   1
_chemical_formula_structural   Tm5U(Co3P2)6
_chemical_formula_sum   'Tm5 U1 Co18 P12'
_cell_volume   465.50534040
_cell_formula_units_Z   1
loop_
 _symmetry_equiv_pos_site_id
 _symmetry_equiv_pos_as_xyz
  1  'x, y, z'
loop_
 _atom_site_type_symbol
 _atom_site_label
 _atom_site_symmetry_multiplicity
 _atom_site_fract_x
 _atom_site_fract_y
 _atom_site_fract_z
 _atom_site_occupancy
  Tm  Tm0  1  0.500000  0.000000  0.476465  1
  Tm  Tm1  1  0.500000  0.817261  0.206302  1
  Tm  Tm2  1  0.500000  0.182739  0.206302  1
  Tm  Tm3  1  0.000000  0.682880  0.794990  1
  Tm  Tm4  1  0.000000  0.317120  0.794990  1
  U  U5  1  0.000000  0.500000  0.529783  1
  Co  Co6  1  0.500000  0.500000  0.159392  1
  Co  Co7  1  0.000000  0.000000  0.840062  1
  Co  Co8  1  0.500000  0.500000  0.695192  1
  Co  Co9  1  0.000000  0.000000  0.296643  1
  Co  Co10  1  0.000000  0.500000  0.986819  1
  Co  Co11  1  0.500000  0.000000  0.013817  1
  Co  Co12  1  0.500000  0.333476  0.993994  1
  Co  Co13  1  0.500000  0.666524  0.993994  1
  Co  Co14  1  0.000000  0.166527  0.005130  1
  Co  Co15  1  0.000000  0.833473  0.005130  1
  Co  Co16  1  0.500000  0.299205  0.431506  1
  Co  Co17  1  0.500000  0.700795  0.431506  1
  Co  Co18  1  0.000000  0.201171  0.568773  1
  Co  Co19  1  0.000000  0.798829  0.568773  1
  Co  Co20  1  0.500000  0.879047  0.710110  1
  Co  Co21  1  0.500000  0.120953  0.710110  1
  Co  Co22  1  0.000000  0.620916  0.291369  1
  Co  Co23  1  0.000000  0.379084  0.291369  1
  P  P24  1  0.500000  0.500000  0.879433  1
  P  P25  1  0.000000  0.000000  0.118189  1
  P  P26  1  0.500000  0.500000  0.346643  1
  P  P27  1  0.000000  0.000000  0.653790  1
  P  P28  1  0.500000  0.307017  0.616460  1
  P  P29  1  0.500000  0.692983  0.616460  1
  P  P30  1  0.000000  0.187590  0.383045  1
  P  P31  1  0.000000  0.812410  0.383045  1
  P  P32  1  0.500000  0.846754  0.892579  1
  P  P33  1  0.500000  0.153246  0.892579  1
  P  P34  1  0.000000  0.653805  0.107627  1
  P  P35  1  0.000000  0.346195  0.107627  1
