# generated using pymatgen
data_La2Pa(GaPt)3
_symmetry_space_group_name_H-M   'P 1'
_cell_length_a   7.45193085
_cell_length_b   7.43333128
_cell_length_c   4.04558500
_cell_angle_alpha   90.00000000
_cell_angle_beta   90.00000000
_cell_angle_gamma   119.91746492
_symmetry_Int_Tables_number   1
_chemical_formula_structural   La2Pa(GaPt)3
_chemical_formula_sum   'La2 Pa1 Ga3 Pt3'
_cell_volume   194.23382338
_cell_formula_units_Z   1
loop_
 _symmetry_equiv_pos_site_id
 _symmetry_equiv_pos_as_xyz
  1  'x, y, z'
loop_
 _atom_site_type_symbol
 _atom_site_label
 _atom_site_symmetry_multiplicity
 _atom_site_fract_x
 _atom_site_fract_y
 _atom_site_fract_z
 _atom_site_occupancy
  La  La0  1  0.588789  0.002602  0.500000  1
  La  La1  1  0.411211  0.413812  0.500000  1
  Pa  Pa2  1  0.000000  0.584756  0.500000  1
  Ga  Ga3  1  0.000000  0.239651  0.000000  1
  Ga  Ga4  1  0.245492  0.001175  0.000000  1
  Ga  Ga5  1  0.754508  0.755683  0.000000  1
  Pt  Pt6  1  0.000000  0.977187  0.500000  1
  Pt  Pt7  1  0.698542  0.361837  0.000000  1
  Pt  Pt8  1  0.301458  0.663296  0.000000  1
