# generated using pymatgen
data_Yb7Hg2GeN2
_symmetry_space_group_name_H-M   'P 1'
_cell_length_a   12.45676794
_cell_length_b   12.45676830
_cell_length_c   4.73607800
_cell_angle_alpha   90.00000000
_cell_angle_beta   90.00000000
_cell_angle_gamma   157.95083343
_symmetry_Int_Tables_number   1
_chemical_formula_structural   Yb7Hg2GeN2
_chemical_formula_sum   'Yb7 Hg2 Ge1 N2'
_cell_volume   275.88385873
_cell_formula_units_Z   1
loop_
 _symmetry_equiv_pos_site_id
 _symmetry_equiv_pos_as_xyz
  1  'x, y, z'
loop_
 _atom_site_type_symbol
 _atom_site_label
 _atom_site_symmetry_multiplicity
 _atom_site_fract_x
 _atom_site_fract_y
 _atom_site_fract_z
 _atom_site_occupancy
  Yb  Yb0  1  0.000000  0.000000  0.000000  1
  Yb  Yb1  1  0.806925  0.193076  0.000000  1
  Yb  Yb2  1  0.587992  0.412009  0.000000  1
  Yb  Yb3  1  0.412009  0.587992  0.000000  1
  Yb  Yb4  1  0.193076  0.806925  0.000000  1
  Yb  Yb5  1  0.906980  0.093021  0.500000  1
  Yb  Yb6  1  0.093021  0.906980  0.500000  1
  Hg  Hg7  1  0.695558  0.304443  0.500000  1
  Hg  Hg8  1  0.304443  0.695558  0.500000  1
  Ge  Ge9  1  0.500000  0.500000  0.500000  1
  N  N10  1  0.897914  0.102087  0.000000  1
  N  N11  1  0.102087  0.897914  0.000000  1
