# generated using pymatgen
data_Y6P12Ir17Ru
_symmetry_space_group_name_H-M   'P 1'
_cell_length_a   3.99220900
_cell_length_b   11.20478600
_cell_length_c   12.71712400
_cell_angle_alpha   90.00000000
_cell_angle_beta   90.00000000
_cell_angle_gamma   90.00000000
_symmetry_Int_Tables_number   1
_chemical_formula_structural   Y6P12Ir17Ru
_chemical_formula_sum   'Y6 P12 Ir17 Ru1'
_cell_volume   568.86045156
_cell_formula_units_Z   1
loop_
 _symmetry_equiv_pos_site_id
 _symmetry_equiv_pos_as_xyz
  1  'x, y, z'
loop_
 _atom_site_type_symbol
 _atom_site_label
 _atom_site_symmetry_multiplicity
 _atom_site_fract_x
 _atom_site_fract_y
 _atom_site_fract_z
 _atom_site_occupancy
  Y  Y0  1  0.000000  0.500000  0.522460  1
  Y  Y1  1  0.500000  0.000000  0.476908  1
  Y  Y2  1  0.500000  0.818069  0.206141  1
  Y  Y3  1  0.500000  0.181931  0.206141  1
  Y  Y4  1  0.000000  0.681608  0.795033  1
  Y  Y5  1  0.000000  0.318392  0.795033  1
  P  P6  1  0.500000  0.500000  0.878523  1
  P  P7  1  0.000000  0.000000  0.122261  1
  P  P8  1  0.500000  0.500000  0.352190  1
  P  P9  1  0.000000  0.000000  0.641181  1
  P  P10  1  0.500000  0.316616  0.618436  1
  P  P11  1  0.500000  0.683384  0.618436  1
  P  P12  1  0.000000  0.184980  0.381610  1
  P  P13  1  0.000000  0.815020  0.381610  1
  P  P14  1  0.500000  0.845302  0.891832  1
  P  P15  1  0.500000  0.154698  0.891832  1
  P  P16  1  0.000000  0.660593  0.109984  1
  P  P17  1  0.000000  0.339407  0.109984  1
  Ir  Ir18  1  0.000000  0.000000  0.821697  1
  Ir  Ir19  1  0.500000  0.500000  0.701040  1
  Ir  Ir20  1  0.000000  0.000000  0.299442  1
  Ir  Ir21  1  0.000000  0.500000  0.998220  1
  Ir  Ir22  1  0.500000  0.000000  0.019962  1
  Ir  Ir23  1  0.500000  0.333911  0.987622  1
  Ir  Ir24  1  0.500000  0.666089  0.987622  1
  Ir  Ir25  1  0.000000  0.165698  0.008271  1
  Ir  Ir26  1  0.000000  0.834302  0.008271  1
  Ir  Ir27  1  0.500000  0.297250  0.430519  1
  Ir  Ir28  1  0.500000  0.702750  0.430519  1
  Ir  Ir29  1  0.000000  0.202485  0.568983  1
  Ir  Ir30  1  0.000000  0.797515  0.568983  1
  Ir  Ir31  1  0.500000  0.869788  0.712694  1
  Ir  Ir32  1  0.500000  0.130212  0.712694  1
  Ir  Ir33  1  0.000000  0.627628  0.287568  1
  Ir  Ir34  1  0.000000  0.372372  0.287568  1
  Ru  Ru35  1  0.500000  0.500000  0.168734  1
