# generated using pymatgen
data_DyEr2ThSb10
_symmetry_space_group_name_H-M   'P 1'
_cell_length_a   4.23946600
_cell_length_b   13.24868884
_cell_length_c   14.67871477
_cell_angle_alpha   78.09942647
_cell_angle_beta   90.00000000
_cell_angle_gamma   90.00000000
_symmetry_Int_Tables_number   1
_chemical_formula_structural   DyEr2ThSb10
_chemical_formula_sum   'Dy2 Er4 Th2 Sb20'
_cell_volume   806.74445687
_cell_formula_units_Z   2
loop_
 _symmetry_equiv_pos_site_id
 _symmetry_equiv_pos_as_xyz
  1  'x, y, z'
loop_
 _atom_site_type_symbol
 _atom_site_label
 _atom_site_symmetry_multiplicity
 _atom_site_fract_x
 _atom_site_fract_y
 _atom_site_fract_z
 _atom_site_occupancy
  Dy  Dy0  1  0.250000  0.951158  0.355378  1
  Dy  Dy1  1  0.750000  0.048842  0.644622  1
  Er  Er2  1  0.250000  0.391145  0.773740  1
  Er  Er3  1  0.750000  0.608855  0.226260  1
  Er  Er4  1  0.250000  0.661942  0.858063  1
  Er  Er5  1  0.750000  0.338058  0.141937  1
  Th  Th6  1  0.250000  0.672729  0.572663  1
  Th  Th7  1  0.750000  0.327271  0.427337  1
  Sb  Sb8  1  0.250000  0.143219  0.778343  1
  Sb  Sb9  1  0.750000  0.856781  0.221657  1
  Sb  Sb10  1  0.250000  0.136719  0.483690  1
  Sb  Sb11  1  0.750000  0.863281  0.516310  1
  Sb  Sb12  1  0.250000  0.152331  0.166087  1
  Sb  Sb13  1  0.750000  0.847669  0.833913  1
  Sb  Sb14  1  0.250000  0.420546  0.977041  1
  Sb  Sb15  1  0.750000  0.579454  0.022959  1
  Sb  Sb16  1  0.750000  0.031570  0.909514  1
  Sb  Sb17  1  0.250000  0.968430  0.090486  1
  Sb  Sb18  1  0.750000  0.137370  0.313458  1
  Sb  Sb19  1  0.250000  0.862630  0.686542  1
  Sb  Sb20  1  0.750000  0.278897  0.938041  1
  Sb  Sb21  1  0.250000  0.721103  0.061959  1
  Sb  Sb22  1  0.750000  0.285519  0.658538  1
  Sb  Sb23  1  0.250000  0.714481  0.341462  1
  Sb  Sb24  1  0.750000  0.575380  0.736490  1
  Sb  Sb25  1  0.250000  0.424620  0.263510  1
  Sb  Sb26  1  0.750000  0.571805  0.444949  1
  Sb  Sb27  1  0.250000  0.428195  0.555051  1
