# generated using pymatgen
data_Er7Tm3Zn3Bi2Au
_symmetry_space_group_name_H-M   'P 1'
_cell_length_a   8.59685708
_cell_length_b   8.59539041
_cell_length_c   8.59413604
_cell_angle_alpha   124.07648615
_cell_angle_beta   124.08558481
_cell_angle_gamma   83.07360025
_symmetry_Int_Tables_number   1
_chemical_formula_structural   Er7Tm3Zn3Bi2Au
_chemical_formula_sum   'Er7 Tm3 Zn3 Bi2 Au1'
_cell_volume   417.96421075
_cell_formula_units_Z   1
loop_
 _symmetry_equiv_pos_site_id
 _symmetry_equiv_pos_as_xyz
  1  'x, y, z'
loop_
 _atom_site_type_symbol
 _atom_site_label
 _atom_site_symmetry_multiplicity
 _atom_site_fract_x
 _atom_site_fract_y
 _atom_site_fract_z
 _atom_site_occupancy
  Er  Er0  1  0.204510  0.705701  0.194699  1
  Er  Er1  1  0.011459  0.205137  0.499964  1
  Er  Er2  1  0.705402  0.511158  0.500043  1
  Er  Er3  1  0.488828  0.990115  0.194136  1
  Er  Er4  1  0.794371  0.295618  0.805573  1
  Er  Er5  1  0.989017  0.794701  0.500131  1
  Er  Er6  1  0.294961  0.488654  0.500095  1
  Tm  Tm7  1  0.499545  0.499138  0.998868  1
  Tm  Tm8  1  0.000386  0.000439  0.000965  1
  Tm  Tm9  1  0.509983  0.011414  0.805024  1
  Zn  Zn10  1  0.138090  0.639922  0.778083  1
  Zn  Zn11  1  0.859888  0.361645  0.221705  1
  Zn  Zn12  1  0.640041  0.859892  0.500231  1
  Bi  Bi13  1  0.249375  0.250637  0.000025  1
  Bi  Bi14  1  0.749194  0.750811  0.000017  1
  Au  Au15  1  0.364949  0.135018  0.500442  1
