# generated using pymatgen
data_SrLiNdWN4
_symmetry_space_group_name_H-M   'P 1'
_cell_length_a   5.85185900
_cell_length_b   6.09271672
_cell_length_c   6.87789733
_cell_angle_alpha   72.27107563
_cell_angle_beta   90.00000000
_cell_angle_gamma   90.00000000
_symmetry_Int_Tables_number   1
_chemical_formula_structural   SrLiNdWN4
_chemical_formula_sum   'Sr2 Li2 Nd2 W2 N8'
_cell_volume   233.57647688
_cell_formula_units_Z   2
loop_
 _symmetry_equiv_pos_site_id
 _symmetry_equiv_pos_as_xyz
  1  'x, y, z'
loop_
 _atom_site_type_symbol
 _atom_site_label
 _atom_site_symmetry_multiplicity
 _atom_site_fract_x
 _atom_site_fract_y
 _atom_site_fract_z
 _atom_site_occupancy
  Sr  Sr0  1  0.250000  0.283543  0.053616  1
  Sr  Sr1  1  0.750000  0.716457  0.946384  1
  Li  Li2  1  0.750000  0.298239  0.311725  1
  Li  Li3  1  0.250000  0.701761  0.688275  1
  Nd  Nd4  1  0.750000  0.773610  0.431138  1
  Nd  Nd5  1  0.250000  0.226390  0.568862  1
  W  W6  1  0.250000  0.738071  0.200229  1
  W  W7  1  0.750000  0.261929  0.799771  1
  N  N8  1  0.502998  0.466856  0.733866  1
  N  N9  1  0.002998  0.533144  0.266134  1
  N  N10  1  0.497002  0.533144  0.266134  1
  N  N11  1  0.997002  0.466856  0.733866  1
  N  N12  1  0.750000  0.074727  0.620437  1
  N  N13  1  0.250000  0.925273  0.379563  1
  N  N14  1  0.750000  0.097943  0.082604  1
  N  N15  1  0.250000  0.902057  0.917396  1
