# generated using pymatgen
data_Er4FeCu2Si4Ru
_symmetry_space_group_name_H-M   'P 1'
_cell_length_a   4.17232100
_cell_length_b   6.86894534
_cell_length_c   7.30472752
_cell_angle_alpha   91.32433513
_cell_angle_beta   90.00000000
_cell_angle_gamma   90.00000000
_symmetry_Int_Tables_number   1
_chemical_formula_structural   Er4FeCu2Si4Ru
_chemical_formula_sum   'Er4 Fe1 Cu2 Si4 Ru1'
_cell_volume   209.29351504
_cell_formula_units_Z   1
loop_
 _symmetry_equiv_pos_site_id
 _symmetry_equiv_pos_as_xyz
  1  'x, y, z'
loop_
 _atom_site_type_symbol
 _atom_site_label
 _atom_site_symmetry_multiplicity
 _atom_site_fract_x
 _atom_site_fract_y
 _atom_site_fract_z
 _atom_site_occupancy
  Er  Er0  1  0.250000  0.993152  0.798027  1
  Er  Er1  1  0.750000  0.007387  0.199975  1
  Er  Er2  1  0.250000  0.492712  0.692866  1
  Er  Er3  1  0.750000  0.502639  0.307043  1
  Fe  Fe4  1  0.750000  0.349662  0.935235  1
  Cu  Cu5  1  0.750000  0.829959  0.575752  1
  Cu  Cu6  1  0.250000  0.169471  0.427348  1
  Si  Si7  1  0.250000  0.298858  0.080728  1
  Si  Si8  1  0.750000  0.696406  0.907797  1
  Si  Si9  1  0.250000  0.795462  0.391867  1
  Si  Si10  1  0.750000  0.208332  0.617452  1
  Ru  Ru11  1  0.250000  0.655959  0.065909  1
