# generated using pymatgen
data_Yb4CeRh2
_symmetry_space_group_name_H-M   'P 1'
_cell_length_a   8.75731991
_cell_length_b   8.75732068
_cell_length_c   7.44325800
_cell_angle_alpha   84.05638453
_cell_angle_beta   84.05638401
_cell_angle_gamma   43.16222669
_symmetry_Int_Tables_number   1
_chemical_formula_structural   Yb4CeRh2
_chemical_formula_sum   'Yb8 Ce2 Rh4'
_cell_volume   388.05589668
_cell_formula_units_Z   2
loop_
 _symmetry_equiv_pos_site_id
 _symmetry_equiv_pos_as_xyz
  1  'x, y, z'
loop_
 _atom_site_type_symbol
 _atom_site_label
 _atom_site_symmetry_multiplicity
 _atom_site_fract_x
 _atom_site_fract_y
 _atom_site_fract_z
 _atom_site_occupancy
  Yb  Yb0  1  0.976649  0.200889  0.081014  1
  Yb  Yb1  1  0.799111  0.023351  0.418986  1
  Yb  Yb2  1  0.362876  0.209397  0.823090  1
  Yb  Yb3  1  0.790603  0.637124  0.676910  1
  Yb  Yb4  1  0.634788  0.793455  0.180771  1
  Yb  Yb5  1  0.206545  0.365212  0.319229  1
  Yb  Yb6  1  0.575027  0.424973  0.750000  1
  Yb  Yb7  1  0.420626  0.579374  0.250000  1
  Ce  Ce8  1  0.006646  0.808788  0.908412  1
  Ce  Ce9  1  0.191212  0.993354  0.591588  1
  Rh  Rh10  1  0.157837  0.624928  0.607359  1
  Rh  Rh11  1  0.375072  0.842163  0.892641  1
  Rh  Rh12  1  0.860097  0.357089  0.429670  1
  Rh  Rh13  1  0.642911  0.139903  0.070330  1
