# generated using pymatgen
data_Gd8Er11TmPt16
_symmetry_space_group_name_H-M   'P 1'
_cell_length_a   7.46396500
_cell_length_b   7.54126900
_cell_length_c   14.68572900
_cell_angle_alpha   90.00000000
_cell_angle_beta   90.00000000
_cell_angle_gamma   89.99905030
_symmetry_Int_Tables_number   1
_chemical_formula_structural   Gd8Er11TmPt16
_chemical_formula_sum   'Gd8 Er11 Tm1 Pt16'
_cell_volume   826.62690498
_cell_formula_units_Z   1
loop_
 _symmetry_equiv_pos_site_id
 _symmetry_equiv_pos_as_xyz
  1  'x, y, z'
loop_
 _atom_site_type_symbol
 _atom_site_label
 _atom_site_symmetry_multiplicity
 _atom_site_fract_x
 _atom_site_fract_y
 _atom_site_fract_z
 _atom_site_occupancy
  Gd  Gd0  1  0.998369  0.821521  0.406964  1
  Gd  Gd1  1  0.498613  0.678800  0.093017  1
  Gd  Gd2  1  0.501060  0.320113  0.593389  1
  Gd  Gd3  1  0.001152  0.179822  0.906604  1
  Gd  Gd4  1  0.001152  0.179822  0.593396  1
  Gd  Gd5  1  0.501060  0.320113  0.906611  1
  Gd  Gd6  1  0.498613  0.678800  0.406983  1
  Gd  Gd7  1  0.998369  0.821521  0.093036  1
  Er  Er8  1  0.180932  0.510631  0.250000  1
  Er  Er9  1  0.819194  0.490166  0.750000  1
  Er  Er10  1  0.319248  0.009854  0.750000  1
  Er  Er11  1  0.656324  0.832646  0.622514  1
  Er  Er12  1  0.156381  0.667308  0.877484  1
  Er  Er13  1  0.843832  0.332470  0.377171  1
  Er  Er14  1  0.344017  0.167281  0.122824  1
  Er  Er15  1  0.344017  0.167281  0.377176  1
  Er  Er16  1  0.843832  0.332470  0.122829  1
  Er  Er17  1  0.156381  0.667308  0.622516  1
  Er  Er18  1  0.656324  0.832646  0.877486  1
  Tm  Tm19  1  0.680915  0.989492  0.250000  1
  Pt  Pt20  1  0.816212  0.642042  0.250000  1
  Pt  Pt21  1  0.317208  0.858818  0.250000  1
  Pt  Pt22  1  0.683580  0.141291  0.750000  1
  Pt  Pt23  1  0.183503  0.358653  0.750000  1
  Pt  Pt24  1  0.546384  0.383320  0.250000  1
  Pt  Pt25  1  0.045733  0.116032  0.250000  1
  Pt  Pt26  1  0.953886  0.883195  0.750000  1
  Pt  Pt27  1  0.453874  0.616757  0.750000  1
  Pt  Pt28  1  0.818058  0.534309  0.542065  1
  Pt  Pt29  1  0.318058  0.965698  0.957910  1
  Pt  Pt30  1  0.681878  0.033970  0.457316  1
  Pt  Pt31  1  0.181923  0.465935  0.042536  1
  Pt  Pt32  1  0.181923  0.465935  0.457464  1
  Pt  Pt33  1  0.681878  0.033970  0.042684  1
  Pt  Pt34  1  0.318058  0.965698  0.542090  1
  Pt  Pt35  1  0.818058  0.534309  0.957935  1
