# generated using pymatgen
data_Ac5C2Cl9
_symmetry_space_group_name_H-M   'P 1'
_cell_length_a   8.99111973
_cell_length_b   9.02096225
_cell_length_c   12.44909140
_cell_angle_alpha   84.69570364
_cell_angle_beta   85.76272999
_cell_angle_gamma   61.41830680
_symmetry_Int_Tables_number   1
_chemical_formula_structural   Ac5C2Cl9
_chemical_formula_sum   'Ac10 C4 Cl18'
_cell_volume   882.37312984
_cell_formula_units_Z   2
loop_
 _symmetry_equiv_pos_site_id
 _symmetry_equiv_pos_as_xyz
  1  'x, y, z'
loop_
 _atom_site_type_symbol
 _atom_site_label
 _atom_site_symmetry_multiplicity
 _atom_site_fract_x
 _atom_site_fract_y
 _atom_site_fract_z
 _atom_site_occupancy
  Ac  Ac0  1  0.871024  0.732098  0.729961  1
  Ac  Ac1  1  0.128976  0.267902  0.270039  1
  Ac  Ac2  1  0.205224  0.681642  0.492862  1
  Ac  Ac3  1  0.391404  0.399693  0.781794  1
  Ac  Ac4  1  0.794776  0.318358  0.507138  1
  Ac  Ac5  1  0.895548  0.297893  0.992999  1
  Ac  Ac6  1  0.608596  0.600307  0.218206  1
  Ac  Ac7  1  0.767862  0.078199  0.257431  1
  Ac  Ac8  1  0.232138  0.921801  0.742569  1
  Ac  Ac9  1  0.104452  0.702107  0.007001  1
  C  C10  1  0.855277  0.305164  0.189481  1
  C  C11  1  0.827247  0.314841  0.309220  1
  C  C12  1  0.172753  0.685159  0.690780  1
  C  C13  1  0.144723  0.694836  0.810519  1
  Cl  Cl14  1  0.487493  0.986468  0.230889  1
  Cl  Cl15  1  0.512507  0.013532  0.769111  1
  Cl  Cl16  1  0.781936  0.039142  0.021071  1
  Cl  Cl17  1  0.540824  0.675421  0.450059  1
  Cl  Cl18  1  0.459176  0.324579  0.549941  1
  Cl  Cl19  1  0.218064  0.960858  0.978929  1
  Cl  Cl20  1  0.392867  0.416749  0.274598  1
  Cl  Cl21  1  0.080542  0.338429  0.769178  1
  Cl  Cl22  1  0.172683  0.051749  0.505181  1
  Cl  Cl23  1  0.500000  0.500000  0.000000  1
  Cl  Cl24  1  0.842297  0.126790  0.742412  1
  Cl  Cl25  1  0.157703  0.873210  0.257588  1
  Cl  Cl26  1  0.827317  0.948251  0.494819  1
  Cl  Cl27  1  0.607133  0.583251  0.725402  1
  Cl  Cl28  1  0.786183  0.669645  0.968556  1
  Cl  Cl29  1  0.000000  0.500000  0.500000  1
  Cl  Cl30  1  0.919458  0.661571  0.230822  1
  Cl  Cl31  1  0.213817  0.330355  0.031444  1
