# generated using pymatgen
data_Pr6TmScO12
_symmetry_space_group_name_H-M   'P 1'
_cell_length_a   6.93940640
_cell_length_b   6.93940656
_cell_length_c   6.93940600
_cell_angle_alpha   92.77362690
_cell_angle_beta   92.77362697
_cell_angle_gamma   92.77361722
_symmetry_Int_Tables_number   1
_chemical_formula_structural   Pr6TmScO12
_chemical_formula_sum   'Pr6 Tm1 Sc1 O12'
_cell_volume   332.95580936
_cell_formula_units_Z   1
loop_
 _symmetry_equiv_pos_site_id
 _symmetry_equiv_pos_as_xyz
  1  'x, y, z'
loop_
 _atom_site_type_symbol
 _atom_site_label
 _atom_site_symmetry_multiplicity
 _atom_site_fract_x
 _atom_site_fract_y
 _atom_site_fract_z
 _atom_site_occupancy
  Pr  Pr0  1  0.742741  0.930053  0.438589  1
  Pr  Pr1  1  0.438589  0.742741  0.930053  1
  Pr  Pr2  1  0.069947  0.561411  0.257259  1
  Pr  Pr3  1  0.930053  0.438589  0.742741  1
  Pr  Pr4  1  0.561411  0.257259  0.069947  1
  Pr  Pr5  1  0.257259  0.069947  0.561411  1
  Tm  Tm6  1  0.000000  0.000000  0.000000  1
  Sc  Sc7  1  0.500000  0.500000  0.500000  1
  O  O8  1  0.064683  0.913270  0.306917  1
  O  O9  1  0.693083  0.935317  0.086730  1
  O  O10  1  0.461812  0.796904  0.588320  1
  O  O11  1  0.086730  0.693083  0.935317  1
  O  O12  1  0.796904  0.588320  0.461812  1
  O  O13  1  0.411680  0.538188  0.203096  1
  O  O14  1  0.588320  0.461812  0.796904  1
  O  O15  1  0.203096  0.411680  0.538188  1
  O  O16  1  0.913270  0.306917  0.064683  1
  O  O17  1  0.538188  0.203096  0.411680  1
  O  O18  1  0.306917  0.064683  0.913270  1
  O  O19  1  0.935317  0.086730  0.693083  1
