# generated using pymatgen
data_SrSmMgRuO6
_symmetry_space_group_name_H-M   'P 1'
_cell_length_a   5.53273715
_cell_length_b   7.87545040
_cell_length_c   5.69678700
_cell_angle_alpha   90.00000337
_cell_angle_beta   89.99995265
_cell_angle_gamma   90.08614963
_symmetry_Int_Tables_number   1
_chemical_formula_structural   SrSmMgRuO6
_chemical_formula_sum   'Sr2 Sm2 Mg2 Ru2 O12'
_cell_volume   248.22466261
_cell_formula_units_Z   2
loop_
 _symmetry_equiv_pos_site_id
 _symmetry_equiv_pos_as_xyz
  1  'x, y, z'
loop_
 _atom_site_type_symbol
 _atom_site_label
 _atom_site_symmetry_multiplicity
 _atom_site_fract_x
 _atom_site_fract_y
 _atom_site_fract_z
 _atom_site_occupancy
  Sr  Sr0  1  0.992960  0.250382  0.960596  1
  Sr  Sr1  1  0.492959  0.750381  0.539404  1
  Sm  Sm2  1  0.514682  0.252352  0.440655  1
  Sm  Sm3  1  0.014682  0.752352  0.059345  1
  Mg  Mg4  1  0.500866  0.501238  0.993546  1
  Mg  Mg5  1  0.000866  0.001238  0.506454  1
  Ru  Ru6  1  0.500032  0.999741  0.997538  1
  Ru  Ru7  1  0.000031  0.499742  0.502462  1
  O  O8  1  0.433933  0.243749  0.030369  1
  O  O9  1  0.933932  0.743750  0.469632  1
  O  O10  1  0.788613  0.457674  0.226452  1
  O  O11  1  0.288614  0.957674  0.273548  1
  O  O12  1  0.776981  0.037175  0.211792  1
  O  O13  1  0.276980  0.537177  0.288208  1
  O  O14  1  0.100014  0.256376  0.518050  1
  O  O15  1  0.600015  0.756376  0.981950  1
  O  O16  1  0.705488  0.451825  0.692036  1
  O  O17  1  0.205489  0.951825  0.807963  1
  O  O18  1  0.686435  0.049487  0.705500  1
  O  O19  1  0.186434  0.549487  0.794501  1
