# generated using pymatgen
data_Er4CdHgPd3Au
_symmetry_space_group_name_H-M   'P 1'
_cell_length_a   7.72093135
_cell_length_b   7.75577343
_cell_length_c   3.69531100
_cell_angle_alpha   90.00000000
_cell_angle_beta   90.00000000
_cell_angle_gamma   89.66009298
_symmetry_Int_Tables_number   1
_chemical_formula_structural   Er4CdHgPd3Au
_chemical_formula_sum   'Er4 Cd1 Hg1 Pd3 Au1'
_cell_volume   221.27795900
_cell_formula_units_Z   1
loop_
 _symmetry_equiv_pos_site_id
 _symmetry_equiv_pos_as_xyz
  1  'x, y, z'
loop_
 _atom_site_type_symbol
 _atom_site_label
 _atom_site_symmetry_multiplicity
 _atom_site_fract_x
 _atom_site_fract_y
 _atom_site_fract_z
 _atom_site_occupancy
  Er  Er0  1  0.682409  0.157434  0.500000  1
  Er  Er1  1  0.323113  0.852300  0.500000  1
  Er  Er2  1  0.151300  0.307509  0.500000  1
  Er  Er3  1  0.838706  0.681023  0.500000  1
  Cd  Cd4  1  0.504890  0.499699  0.000000  1
  Hg  Hg5  1  0.996581  0.001408  0.000000  1
  Pd  Pd6  1  0.859105  0.379487  0.000000  1
  Pd  Pd7  1  0.618681  0.860036  0.000000  1
  Pd  Pd8  1  0.383239  0.144479  0.000000  1
  Au  Au9  1  0.141973  0.616624  0.000000  1
