# generated using pymatgen
data_Ca5Nd2Ho(Si3Pd)4
_symmetry_space_group_name_H-M   'P 1'
_cell_length_a   8.25720700
_cell_length_b   8.26372876
_cell_length_c   8.36818000
_cell_angle_alpha   90.00000000
_cell_angle_beta   90.00000000
_cell_angle_gamma   119.97389282
_symmetry_Int_Tables_number   1
_chemical_formula_structural   Ca5Nd2Ho(Si3Pd)4
_chemical_formula_sum   'Ca5 Nd2 Ho1 Si12 Pd4'
_cell_volume   494.63524888
_cell_formula_units_Z   1
loop_
 _symmetry_equiv_pos_site_id
 _symmetry_equiv_pos_as_xyz
  1  'x, y, z'
loop_
 _atom_site_type_symbol
 _atom_site_label
 _atom_site_symmetry_multiplicity
 _atom_site_fract_x
 _atom_site_fract_y
 _atom_site_fract_z
 _atom_site_occupancy
  Ca  Ca0  1  0.499265  0.500749  0.750000  1
  Ca  Ca1  1  0.500778  0.499518  0.250000  1
  Ca  Ca2  1  0.001483  0.500749  0.750000  1
  Ca  Ca3  1  0.998741  0.499518  0.250000  1
  Ca  Ca4  1  0.499131  0.998262  0.750000  1
  Nd  Nd5  1  0.000031  0.000062  0.750000  1
  Nd  Nd6  1  0.999972  0.999944  0.250000  1
  Ho  Ho7  1  0.500727  0.001454  0.250000  1
  Si  Si8  1  0.834014  0.164848  0.001920  1
  Si  Si9  1  0.165960  0.835138  0.003008  1
  Si  Si10  1  0.330834  0.164848  0.001920  1
  Si  Si11  1  0.165960  0.835138  0.496992  1
  Si  Si12  1  0.669178  0.835138  0.003008  1
  Si  Si13  1  0.834014  0.164848  0.498080  1
  Si  Si14  1  0.834276  0.668553  0.000223  1
  Si  Si15  1  0.669178  0.835138  0.496992  1
  Si  Si16  1  0.165707  0.331413  0.001341  1
  Si  Si17  1  0.330834  0.164848  0.498080  1
  Si  Si18  1  0.165707  0.331413  0.498659  1
  Si  Si19  1  0.834276  0.668553  0.499777  1
  Pd  Pd20  1  0.665518  0.331034  0.000689  1
  Pd  Pd21  1  0.334448  0.668899  0.003236  1
  Pd  Pd22  1  0.334448  0.668899  0.496764  1
  Pd  Pd23  1  0.665518  0.331034  0.499311  1
