# generated using pymatgen
data_Hf12Ti4Re7Os
_symmetry_space_group_name_H-M   'P 1'
_cell_length_a   8.62448283
_cell_length_b   8.62448280
_cell_length_c   8.62448208
_cell_angle_alpha   60.01311890
_cell_angle_beta   60.01311847
_cell_angle_gamma   60.01311957
_symmetry_Int_Tables_number   1
_chemical_formula_structural   Hf12Ti4Re7Os
_chemical_formula_sum   'Hf12 Ti4 Re7 Os1'
_cell_volume   453.74650772
_cell_formula_units_Z   1
loop_
 _symmetry_equiv_pos_site_id
 _symmetry_equiv_pos_as_xyz
  1  'x, y, z'
loop_
 _atom_site_type_symbol
 _atom_site_label
 _atom_site_symmetry_multiplicity
 _atom_site_fract_x
 _atom_site_fract_y
 _atom_site_fract_z
 _atom_site_occupancy
  Hf  Hf0  1  0.806812  0.806812  0.192864  1
  Hf  Hf1  1  0.193218  0.193218  0.806679  1
  Hf  Hf2  1  0.806812  0.192864  0.806812  1
  Hf  Hf3  1  0.193218  0.806679  0.193218  1
  Hf  Hf4  1  0.192864  0.806812  0.806812  1
  Hf  Hf5  1  0.806679  0.193218  0.193218  1
  Hf  Hf6  1  0.443612  0.443612  0.056297  1
  Hf  Hf7  1  0.056812  0.056812  0.442506  1
  Hf  Hf8  1  0.443612  0.056297  0.443612  1
  Hf  Hf9  1  0.056812  0.442506  0.056812  1
  Hf  Hf10  1  0.056297  0.443612  0.443612  1
  Hf  Hf11  1  0.442506  0.056812  0.056812  1
  Ti  Ti12  1  0.123497  0.625992  0.625992  1
  Ti  Ti13  1  0.625992  0.123497  0.625992  1
  Ti  Ti14  1  0.625992  0.625992  0.123497  1
  Ti  Ti15  1  0.624946  0.624946  0.624946  1
  Re  Re16  1  0.751496  0.416049  0.416049  1
  Re  Re17  1  0.416049  0.751496  0.416049  1
  Re  Re18  1  0.416049  0.416049  0.751496  1
  Re  Re19  1  0.416073  0.416073  0.416073  1
  Re  Re20  1  0.498401  0.833805  0.833805  1
  Re  Re21  1  0.833805  0.498401  0.833805  1
  Re  Re22  1  0.833805  0.833805  0.498401  1
  Os  Os23  1  0.834644  0.834644  0.834644  1
