# generated using pymatgen
data_La4PdAu3
_symmetry_space_group_name_H-M   'P 1'
_cell_length_a   4.85171100
_cell_length_b   5.97522267
_cell_length_c   7.55081583
_cell_angle_alpha   90.83097870
_cell_angle_beta   90.00000000
_cell_angle_gamma   90.00000000
_symmetry_Int_Tables_number   1
_chemical_formula_structural   La4PdAu3
_chemical_formula_sum   'La4 Pd1 Au3'
_cell_volume   218.87553333
_cell_formula_units_Z   1
loop_
 _symmetry_equiv_pos_site_id
 _symmetry_equiv_pos_as_xyz
  1  'x, y, z'
loop_
 _atom_site_type_symbol
 _atom_site_label
 _atom_site_symmetry_multiplicity
 _atom_site_fract_x
 _atom_site_fract_y
 _atom_site_fract_z
 _atom_site_occupancy
  La  La0  1  0.250000  0.643271  0.182270  1
  La  La1  1  0.750000  0.351017  0.819596  1
  La  La2  1  0.750000  0.145739  0.309527  1
  La  La3  1  0.250000  0.856212  0.687539  1
  Pd  Pd4  1  0.250000  0.151638  0.041199  1
  Au  Au5  1  0.750000  0.851903  0.959176  1
  Au  Au6  1  0.750000  0.651835  0.458887  1
  Au  Au7  1  0.250000  0.348384  0.541805  1
