# generated using pymatgen
data_Na88Cd13P
_symmetry_space_group_name_H-M   'P 1'
_cell_length_a   16.72433149
_cell_length_b   16.72433157
_cell_length_c   16.72433200
_cell_angle_alpha   60.00177533
_cell_angle_beta   60.00177516
_cell_angle_gamma   60.00177626
_symmetry_Int_Tables_number   1
_chemical_formula_structural   Na88Cd13P
_chemical_formula_sum   'Na88 Cd13 P1'
_cell_volume   3307.87280235
_cell_formula_units_Z   1
loop_
 _symmetry_equiv_pos_site_id
 _symmetry_equiv_pos_as_xyz
  1  'x, y, z'
loop_
 _atom_site_type_symbol
 _atom_site_label
 _atom_site_symmetry_multiplicity
 _atom_site_fract_x
 _atom_site_fract_y
 _atom_site_fract_z
 _atom_site_occupancy
  Na  Na0  1  0.714206  0.715862  0.098500  1
  Na  Na1  1  0.714209  0.471448  0.098510  1
  Na  Na2  1  0.470997  0.715431  0.098176  1
  Na  Na3  1  0.481208  0.479591  0.135781  1
  Na  Na4  1  0.903811  0.480142  0.135923  1
  Na  Na5  1  0.481205  0.903443  0.135784  1
  Na  Na6  1  0.356704  0.143947  0.143947  1
  Na  Na7  1  0.143698  0.356176  0.143944  1
  Na  Na8  1  0.356712  0.355408  0.143951  1
  Na  Na9  1  0.934919  0.951810  0.161471  1
  Na  Na10  1  0.810843  0.187095  0.187094  1
  Na  Na11  1  0.186615  0.812744  0.187901  1
  Na  Na12  1  0.810836  0.814976  0.187099  1
  Na  Na13  1  0.579909  0.209140  0.209140  1
  Na  Na14  1  0.216383  0.569180  0.216920  1
  Na  Na15  1  0.998282  0.569188  0.216275  1
  Na  Na16  1  0.579890  0.001831  0.209151  1
  Na  Na17  1  0.998253  0.216276  0.216276  1
  Na  Na18  1  0.216389  0.997518  0.216922  1
  Na  Na19  1  0.558073  0.559761  0.322415  1
  Na  Na20  1  0.979943  0.978735  0.335144  1
  Na  Na21  1  0.979944  0.706181  0.335151  1
  Na  Na22  1  0.707043  0.981908  0.329154  1
  Na  Na23  1  0.559182  0.338549  0.338548  1
  Na  Na24  1  0.339407  0.559674  0.339953  1
  Na  Na25  1  0.761335  0.559180  0.339741  1
  Na  Na26  1  0.559174  0.763737  0.338548  1
  Na  Na27  1  0.761331  0.339756  0.339756  1
  Na  Na28  1  0.339416  0.760972  0.339961  1
  Na  Na29  1  0.143698  0.143943  0.356176  1
  Na  Na30  1  0.356713  0.143951  0.355407  1
  Na  Na31  1  0.143704  0.356184  0.356185  1
  Na  Na32  1  0.714201  0.715853  0.471429  1
  Na  Na33  1  0.714209  0.098510  0.471447  1
  Na  Na34  1  0.098753  0.715586  0.470105  1
  Na  Na35  1  0.903810  0.480139  0.480140  1
  Na  Na36  1  0.481197  0.903440  0.479586  1
  Na  Na37  1  0.481207  0.135782  0.479591  1
  Na  Na38  1  0.136534  0.479784  0.479784  1
  Na  Na39  1  0.903811  0.135923  0.480142  1
  Na  Na40  1  0.136545  0.903918  0.479780  1
  Na  Na41  1  0.835533  0.837434  0.489605  1
  Na  Na42  1  0.761334  0.339741  0.559180  1
  Na  Na43  1  0.339408  0.760979  0.559671  1
  Na  Na44  1  0.339407  0.339954  0.559675  1
  Na  Na45  1  0.558073  0.559760  0.559760  1
  Na  Na46  1  0.558072  0.322415  0.559761  1
  Na  Na47  1  0.325169  0.558281  0.558281  1
  Na  Na48  1  0.998283  0.216275  0.569188  1
  Na  Na49  1  0.216387  0.997544  0.569164  1
  Na  Na50  1  0.216383  0.216920  0.569180  1
  Na  Na51  1  0.693265  0.694582  0.694582  1
  Na  Na52  1  0.917689  0.694107  0.694107  1
  Na  Na53  1  0.693287  0.917551  0.694587  1
  Na  Na54  1  0.979952  0.978743  0.706181  1
  Na  Na55  1  0.979944  0.335150  0.706180  1
  Na  Na56  1  0.336592  0.979089  0.705245  1
  Na  Na57  1  0.714201  0.471429  0.715854  1
  Na  Na58  1  0.470978  0.715422  0.715423  1
  Na  Na59  1  0.714205  0.098499  0.715863  1
  Na  Na60  1  0.098737  0.715587  0.715587  1
  Na  Na61  1  0.470996  0.098177  0.715431  1
  Na  Na62  1  0.098753  0.470104  0.715586  1
  Na  Na63  1  0.339416  0.339960  0.760972  1
  Na  Na64  1  0.559174  0.338547  0.763737  1
  Na  Na65  1  0.339407  0.559671  0.760979  1
  Na  Na66  1  0.810835  0.187099  0.814976  1
  Na  Na67  1  0.186619  0.812743  0.812743  1
  Na  Na68  1  0.186615  0.187901  0.812744  1
  Na  Na69  1  0.835531  0.837441  0.837441  1
  Na  Na70  1  0.835534  0.489605  0.837434  1
  Na  Na71  1  0.490169  0.836613  0.836612  1
  Na  Na72  1  0.481196  0.479587  0.903440  1
  Na  Na73  1  0.481205  0.135783  0.903442  1
  Na  Na74  1  0.136546  0.479779  0.903919  1
  Na  Na75  1  0.693287  0.694587  0.917551  1
  Na  Na76  1  0.934918  0.161471  0.951810  1
  Na  Na77  1  0.167914  0.944031  0.944031  1
  Na  Na78  1  0.934928  0.951802  0.951803  1
  Na  Na79  1  0.979943  0.335144  0.978736  1
  Na  Na80  1  0.336588  0.979083  0.979083  1
  Na  Na81  1  0.707042  0.329154  0.981909  1
  Na  Na82  1  0.336592  0.705245  0.979088  1
  Na  Na83  1  0.979951  0.706181  0.978743  1
  Na  Na84  1  0.707043  0.981918  0.981920  1
  Na  Na85  1  0.216390  0.216921  0.997518  1
  Na  Na86  1  0.579890  0.209150  0.001831  1
  Na  Na87  1  0.216386  0.569164  0.997544  1
  Cd  Cd88  1  0.081578  0.756987  0.080729  1
  Cd  Cd89  1  0.081589  0.080728  0.080728  1
  Cd  Cd90  1  0.950790  0.349742  0.349742  1
  Cd  Cd91  1  0.349533  0.950962  0.349758  1
  Cd  Cd92  1  0.349536  0.349763  0.349763  1
  Cd  Cd93  1  0.916014  0.584570  0.584570  1
  Cd  Cd94  1  0.582729  0.915972  0.585328  1
  Cd  Cd95  1  0.916041  0.914863  0.584553  1
  Cd  Cd96  1  0.081578  0.080729  0.756987  1
  Cd  Cd97  1  0.582729  0.585327  0.915972  1
  Cd  Cd98  1  0.916041  0.584553  0.914863  1
  Cd  Cd99  1  0.582730  0.915981  0.915980  1
  Cd  Cd100  1  0.349533  0.349757  0.950963  1
  P  P101  1  0.755844  0.081401  0.081399  1
