# generated using pymatgen
data_PuB3Mo
_symmetry_space_group_name_H-M   'P 1'
_cell_length_a   3.10919800
_cell_length_b   5.53034400
_cell_length_c   6.87340222
_cell_angle_alpha   77.16862843
_cell_angle_beta   90.00000000
_cell_angle_gamma   90.00000000
_symmetry_Int_Tables_number   1
_chemical_formula_structural   PuB3Mo
_chemical_formula_sum   'Pu2 B6 Mo2'
_cell_volume   115.23630614
_cell_formula_units_Z   2
loop_
 _symmetry_equiv_pos_site_id
 _symmetry_equiv_pos_as_xyz
  1  'x, y, z'
loop_
 _atom_site_type_symbol
 _atom_site_label
 _atom_site_symmetry_multiplicity
 _atom_site_fract_x
 _atom_site_fract_y
 _atom_site_fract_z
 _atom_site_occupancy
  Pu  Pu0  1  0.250000  0.333425  0.698990  1
  Pu  Pu1  1  0.750000  0.666575  0.301010  1
  B  B2  1  0.250000  0.925359  0.527651  1
  B  B3  1  0.750000  0.074641  0.472349  1
  B  B4  1  0.250000  0.912860  0.006580  1
  B  B5  1  0.750000  0.087140  0.993420  1
  B  B6  1  0.250000  0.582640  0.007637  1
  B  B7  1  0.750000  0.417360  0.992363  1
  Mo  Mo8  1  0.250000  0.188995  0.216667  1
  Mo  Mo9  1  0.750000  0.811005  0.783333  1
