# generated using pymatgen
data_TaTi(Nb3P2)4
_symmetry_space_group_name_H-M   'P 1'
_cell_length_a   7.71624047
_cell_length_b   7.71624042
_cell_length_c   13.88064912
_cell_angle_alpha   75.75823166
_cell_angle_beta   75.75823171
_cell_angle_gamma   25.89645607
_symmetry_Int_Tables_number   1
_chemical_formula_structural   TaTi(Nb3P2)4
_chemical_formula_sum   'Ta1 Ti1 Nb12 P8'
_cell_volume   349.26310778
_cell_formula_units_Z   1
loop_
 _symmetry_equiv_pos_site_id
 _symmetry_equiv_pos_as_xyz
  1  'x, y, z'
loop_
 _atom_site_type_symbol
 _atom_site_label
 _atom_site_symmetry_multiplicity
 _atom_site_fract_x
 _atom_site_fract_y
 _atom_site_fract_z
 _atom_site_occupancy
  Ta  Ta0  1  0.000000  0.000000  0.000000  1
  Ti  Ti1  1  0.500000  0.500000  0.500000  1
  Nb  Nb2  1  0.431807  0.431807  0.173034  1
  Nb  Nb3  1  0.568193  0.568193  0.826966  1
  Nb  Nb4  1  0.195278  0.195278  0.686737  1
  Nb  Nb5  1  0.804722  0.804722  0.313263  1
  Nb  Nb6  1  0.209704  0.209704  0.200594  1
  Nb  Nb7  1  0.790296  0.790296  0.799406  1
  Nb  Nb8  1  0.337754  0.337754  0.971914  1
  Nb  Nb9  1  0.662246  0.662246  0.028086  1
  Nb  Nb10  1  0.003553  0.003553  0.335047  1
  Nb  Nb11  1  0.996447  0.996447  0.664953  1
  Nb  Nb12  1  0.174141  0.174141  0.458776  1
  Nb  Nb13  1  0.825859  0.825859  0.541224  1
  P  P14  1  0.173812  0.173812  0.887364  1
  P  P15  1  0.826188  0.826188  0.112636  1
  P  P16  1  0.375892  0.375892  0.399872  1
  P  P17  1  0.624108  0.624108  0.600128  1
  P  P18  1  0.371065  0.371065  0.662356  1
  P  P19  1  0.628935  0.628935  0.337644  1
  P  P20  1  0.063839  0.063839  0.150721  1
  P  P21  1  0.936161  0.936161  0.849279  1
