# generated using pymatgen
data_Y3MnFeW3O14
_symmetry_space_group_name_H-M   'P 1'
_cell_length_a   7.16906730
_cell_length_b   7.16981624
_cell_length_c   7.16916656
_cell_angle_alpha   116.95871589
_cell_angle_beta   63.03857738
_cell_angle_gamma   116.95899371
_symmetry_Int_Tables_number   1
_chemical_formula_structural   Y3MnFeW3O14
_chemical_formula_sum   'Y3 Mn1 Fe1 W3 O14'
_cell_volume   278.15190544
_cell_formula_units_Z   1
loop_
 _symmetry_equiv_pos_site_id
 _symmetry_equiv_pos_as_xyz
  1  'x, y, z'
loop_
 _atom_site_type_symbol
 _atom_site_label
 _atom_site_symmetry_multiplicity
 _atom_site_fract_x
 _atom_site_fract_y
 _atom_site_fract_z
 _atom_site_occupancy
  Y  Y0  1  0.000013  0.499976  0.999953  1
  Y  Y1  1  0.500036  0.999999  0.999979  1
  Y  Y2  1  0.500025  0.499958  0.499959  1
  Mn  Mn3  1  0.499135  0.500126  0.000788  1
  Fe  Fe4  1  0.000297  0.000222  0.499942  1
  W  W5  1  0.500063  0.000077  0.499946  1
  W  W6  1  0.999942  0.499948  0.500016  1
  W  W7  1  0.999999  0.999957  0.999944  1
  O  O8  1  0.621908  0.378057  0.121856  1
  O  O9  1  0.378140  0.621920  0.878066  1
  O  O10  1  0.084038  0.325544  0.174368  1
  O  O11  1  0.674451  0.916027  0.174390  1
  O  O12  1  0.674449  0.325532  0.583939  1
  O  O13  1  0.916043  0.674428  0.825543  1
  O  O14  1  0.325606  0.083918  0.825541  1
  O  O15  1  0.325618  0.674410  0.415976  1
  O  O16  1  0.647566  0.904886  0.595047  1
  O  O17  1  0.095180  0.352616  0.595114  1
  O  O18  1  0.095124  0.904885  0.147468  1
  O  O19  1  0.352535  0.095063  0.404884  1
  O  O20  1  0.904887  0.647373  0.404805  1
  O  O21  1  0.904942  0.095080  0.852478  1
