# generated using pymatgen
data_Th3ZnAg3Pd2
_symmetry_space_group_name_H-M   'P 1'
_cell_length_a   7.56997500
_cell_length_b   7.56997555
_cell_length_c   3.95485100
_cell_angle_alpha   90.00000000
_cell_angle_beta   90.00000000
_cell_angle_gamma   120.00000198
_symmetry_Int_Tables_number   1
_chemical_formula_structural   Th3ZnAg3Pd2
_chemical_formula_sum   'Th3 Zn1 Ag3 Pd2'
_cell_volume   196.26807862
_cell_formula_units_Z   1
loop_
 _symmetry_equiv_pos_site_id
 _symmetry_equiv_pos_as_xyz
  1  'x, y, z'
loop_
 _atom_site_type_symbol
 _atom_site_label
 _atom_site_symmetry_multiplicity
 _atom_site_fract_x
 _atom_site_fract_y
 _atom_site_fract_z
 _atom_site_occupancy
  Th  Th0  1  0.418001  0.418001  0.500000  1
  Th  Th1  1  0.581999  0.000000  0.500000  1
  Th  Th2  1  0.000000  0.581999  0.500000  1
  Zn  Zn3  1  0.000000  0.000000  0.500000  1
  Ag  Ag4  1  0.758521  0.758521  0.000000  1
  Ag  Ag5  1  0.241479  0.000000  0.000000  1
  Ag  Ag6  1  0.000000  0.241479  0.000000  1
  Pd  Pd7  1  0.666667  0.333333  0.000000  1
  Pd  Pd8  1  0.333333  0.666667  0.000000  1
