# generated using pymatgen
data_Lu8Sc4InCo4Pb
_symmetry_space_group_name_H-M   'P 1'
_cell_length_a   8.10507154
_cell_length_b   8.10507153
_cell_length_c   8.10507182
_cell_angle_alpha   110.61343466
_cell_angle_beta   110.72052450
_cell_angle_gamma   107.10531647
_symmetry_Int_Tables_number   1
_chemical_formula_structural   Lu8Sc4InCo4Pb
_chemical_formula_sum   'Lu8 Sc4 In1 Co4 Pb1'
_cell_volume   409.35056993
_cell_formula_units_Z   1
loop_
 _symmetry_equiv_pos_site_id
 _symmetry_equiv_pos_as_xyz
  1  'x, y, z'
loop_
 _atom_site_type_symbol
 _atom_site_label
 _atom_site_symmetry_multiplicity
 _atom_site_fract_x
 _atom_site_fract_y
 _atom_site_fract_z
 _atom_site_occupancy
  Lu  Lu0  1  0.190092  0.285870  0.475962  1
  Lu  Lu1  1  0.809908  0.714130  0.524038  1
  Lu  Lu2  1  0.190092  0.714130  0.904223  1
  Lu  Lu3  1  0.809908  0.285870  0.095777  1
  Lu  Lu4  1  0.311648  0.612423  0.300775  1
  Lu  Lu5  1  0.688352  0.387577  0.699225  1
  Lu  Lu6  1  0.311648  0.010873  0.699225  1
  Lu  Lu7  1  0.688352  0.989127  0.300775  1
  Sc  Sc8  1  0.444625  0.227593  0.217032  1
  Sc  Sc9  1  0.555375  0.772407  0.782968  1
  Sc  Sc10  1  0.010560  0.227593  0.782968  1
  Sc  Sc11  1  0.989440  0.772407  0.217032  1
  In  In12  1  0.000000  0.000000  0.000000  1
  Co  Co13  1  0.372974  0.000000  0.372974  1
  Co  Co14  1  0.627026  0.000000  0.627026  1
  Co  Co15  1  0.114396  0.614396  0.500000  1
  Co  Co16  1  0.885604  0.385604  0.500000  1
  Pb  Pb17  1  0.500000  0.500000  0.000000  1
