# generated using pymatgen
data_La16CdIn3Ru4
_symmetry_space_group_name_H-M   'P 1'
_cell_length_a   10.09002974
_cell_length_b   10.09690287
_cell_length_c   10.09003000
_cell_angle_alpha   60.02251453
_cell_angle_beta   59.99999913
_cell_angle_gamma   60.02251293
_symmetry_Int_Tables_number   1
_chemical_formula_structural   La16CdIn3Ru4
_chemical_formula_sum   'La16 Cd1 In3 Ru4'
_cell_volume   727.11949037
_cell_formula_units_Z   1
loop_
 _symmetry_equiv_pos_site_id
 _symmetry_equiv_pos_as_xyz
  1  'x, y, z'
loop_
 _atom_site_type_symbol
 _atom_site_label
 _atom_site_symmetry_multiplicity
 _atom_site_fract_x
 _atom_site_fract_y
 _atom_site_fract_z
 _atom_site_occupancy
  La  La0  1  0.058614  0.440996  0.441774  1
  La  La1  1  0.441584  0.057342  0.059489  1
  La  La2  1  0.441584  0.057342  0.441584  1
  La  La3  1  0.441774  0.440996  0.058614  1
  La  La4  1  0.058614  0.440996  0.058614  1
  La  La5  1  0.059489  0.057342  0.441584  1
  La  La6  1  0.189681  0.810191  0.810447  1
  La  La7  1  0.809289  0.190646  0.190779  1
  La  La8  1  0.809288  0.190646  0.809288  1
  La  La9  1  0.810447  0.810191  0.189681  1
  La  La10  1  0.189681  0.810192  0.189681  1
  La  La11  1  0.190779  0.190646  0.809289  1
  La  La12  1  0.654599  0.654839  0.654599  1
  La  La13  1  0.654599  0.654839  0.035963  1
  La  La14  1  0.035963  0.654839  0.654599  1
  La  La15  1  0.654420  0.036741  0.654420  1
  Cd  Cd16  1  0.420612  0.738162  0.420612  1
  In  In17  1  0.420373  0.421066  0.420373  1
  In  In18  1  0.420373  0.421066  0.738187  1
  In  In19  1  0.738187  0.421066  0.420373  1
  Ru  Ru20  1  0.862832  0.862487  0.862832  1
  Ru  Ru21  1  0.862832  0.862487  0.411851  1
  Ru  Ru22  1  0.411851  0.862487  0.862832  1
  Ru  Ru23  1  0.862535  0.412397  0.862535  1
