# generated using pymatgen
data_DyYEr8(In2Pt)4
_symmetry_space_group_name_H-M   'P 1'
_cell_length_a   3.61193700
_cell_length_b   8.11568303
_cell_length_c   18.17510806
_cell_angle_alpha   90.00920799
_cell_angle_beta   90.00000000
_cell_angle_gamma   90.00000000
_symmetry_Int_Tables_number   1
_chemical_formula_structural   DyYEr8(In2Pt)4
_chemical_formula_sum   'Dy1 Y1 Er8 In8 Pt4'
_cell_volume   532.77303889
_cell_formula_units_Z   1
loop_
 _symmetry_equiv_pos_site_id
 _symmetry_equiv_pos_as_xyz
  1  'x, y, z'
loop_
 _atom_site_type_symbol
 _atom_site_label
 _atom_site_symmetry_multiplicity
 _atom_site_fract_x
 _atom_site_fract_y
 _atom_site_fract_z
 _atom_site_occupancy
  Dy  Dy0  1  0.000000  0.500000  0.500000  1
  Y  Y1  1  0.000000  0.000000  0.000000  1
  Er  Er2  1  0.000000  0.116620  0.414355  1
  Er  Er3  1  0.000000  0.883380  0.585645  1
  Er  Er4  1  0.000000  0.383516  0.914302  1
  Er  Er5  1  0.000000  0.616484  0.085698  1
  Er  Er6  1  0.000000  0.243302  0.220556  1
  Er  Er7  1  0.000000  0.756698  0.779444  1
  Er  Er8  1  0.000000  0.256713  0.720529  1
  Er  Er9  1  0.000000  0.743287  0.279471  1
  In  In10  1  0.500000  0.423213  0.350982  1
  In  In11  1  0.500000  0.576787  0.649018  1
  In  In12  1  0.500000  0.076814  0.850996  1
  In  In13  1  0.500000  0.923186  0.149004  1
  In  In14  1  0.500000  0.293021  0.066733  1
  In  In15  1  0.500000  0.706979  0.933267  1
  In  In16  1  0.500000  0.207006  0.566744  1
  In  In17  1  0.500000  0.792994  0.433256  1
  Pt  Pt18  1  0.500000  0.024889  0.303580  1
  Pt  Pt19  1  0.500000  0.975111  0.696420  1
  Pt  Pt20  1  0.500000  0.475119  0.803604  1
  Pt  Pt21  1  0.500000  0.524881  0.196396  1
