# generated using pymatgen
data_SmEr4Bi3O14
_symmetry_space_group_name_H-M   'P 1'
_cell_length_a   6.55856361
_cell_length_b   6.59998543
_cell_length_c   7.73787639
_cell_angle_alpha   106.90136314
_cell_angle_beta   89.60712555
_cell_angle_gamma   98.81264700
_symmetry_Int_Tables_number   1
_chemical_formula_structural   SmEr4Bi3O14
_chemical_formula_sum   'Sm1 Er4 Bi3 O14'
_cell_volume   316.44261798
_cell_formula_units_Z   1
loop_
 _symmetry_equiv_pos_site_id
 _symmetry_equiv_pos_as_xyz
  1  'x, y, z'
loop_
 _atom_site_type_symbol
 _atom_site_label
 _atom_site_symmetry_multiplicity
 _atom_site_fract_x
 _atom_site_fract_y
 _atom_site_fract_z
 _atom_site_occupancy
  Sm  Sm0  1  0.747381  0.483107  0.620125  1
  Er  Er1  1  0.461001  0.006905  0.252655  1
  Er  Er2  1  0.536249  0.999915  0.751837  1
  Er  Er3  1  0.273956  0.535376  0.884168  1
  Er  Er4  1  0.735634  0.459303  0.111775  1
  Bi  Bi5  1  0.994393  0.999262  0.500029  1
  Bi  Bi6  1  0.999407  0.996414  0.997817  1
  Bi  Bi7  1  0.281869  0.532760  0.386742  1
  O  O8  1  0.453310  0.654992  0.164828  1
  O  O9  1  0.551830  0.351194  0.840527  1
  O  O10  1  0.303009  0.919306  0.951380  1
  O  O11  1  0.697488  0.077282  0.050380  1
  O  O12  1  0.299404  0.932751  0.516554  1
  O  O13  1  0.695928  0.081055  0.491050  1
  O  O14  1  0.548329  0.359300  0.337767  1
  O  O15  1  0.456437  0.644033  0.660960  1
  O  O16  1  0.927630  0.659425  0.951539  1
  O  O17  1  0.068436  0.327477  0.027292  1
  O  O18  1  0.074282  0.339603  0.631722  1
  O  O19  1  0.903054  0.662670  0.376133  1
  O  O20  1  0.868127  0.900867  0.725586  1
  O  O21  1  0.122845  0.077005  0.269135  1
