# generated using pymatgen
data_Sc8Ta3Nb8Si16Rh
_symmetry_space_group_name_H-M   'P 1'
_cell_length_a   6.66908804
_cell_length_b   6.92772107
_cell_length_c   13.10112000
_cell_angle_alpha   90.00000000
_cell_angle_beta   90.00000000
_cell_angle_gamma   90.58254756
_symmetry_Int_Tables_number   1
_chemical_formula_structural   Sc8Ta3Nb8Si16Rh
_chemical_formula_sum   'Sc8 Ta3 Nb8 Si16 Rh1'
_cell_volume   605.26118108
_cell_formula_units_Z   1
loop_
 _symmetry_equiv_pos_site_id
 _symmetry_equiv_pos_as_xyz
  1  'x, y, z'
loop_
 _atom_site_type_symbol
 _atom_site_label
 _atom_site_symmetry_multiplicity
 _atom_site_fract_x
 _atom_site_fract_y
 _atom_site_fract_z
 _atom_site_occupancy
  Sc  Sc0  1  0.496494  0.676109  0.593040  1
  Sc  Sc1  1  0.002418  0.827267  0.906913  1
  Sc  Sc2  1  0.497862  0.326279  0.095253  1
  Sc  Sc3  1  0.999412  0.173633  0.403342  1
  Sc  Sc4  1  0.497862  0.326279  0.404747  1
  Sc  Sc5  1  0.999412  0.173633  0.096658  1
  Sc  Sc6  1  0.496494  0.676109  0.906960  1
  Sc  Sc7  1  0.002418  0.827267  0.593087  1
  Ta  Ta8  1  0.340677  0.999460  0.750000  1
  Ta  Ta9  1  0.162190  0.506912  0.250000  1
  Ta  Ta10  1  0.661603  0.993822  0.250000  1
  Nb  Nb11  1  0.670200  0.170575  0.627620  1
  Nb  Nb12  1  0.162263  0.323328  0.872731  1
  Nb  Nb13  1  0.335836  0.825984  0.124481  1
  Nb  Nb14  1  0.835615  0.673860  0.377164  1
  Nb  Nb15  1  0.335836  0.825984  0.375519  1
  Nb  Nb16  1  0.835615  0.673860  0.122836  1
  Nb  Nb17  1  0.670200  0.170575  0.872380  1
  Nb  Nb18  1  0.162263  0.323328  0.627269  1
  Si  Si19  1  0.669643  0.967983  0.460146  1
  Si  Si20  1  0.168527  0.532463  0.038309  1
  Si  Si21  1  0.333629  0.034463  0.959097  1
  Si  Si22  1  0.831546  0.465276  0.541830  1
  Si  Si23  1  0.333629  0.034463  0.540903  1
  Si  Si24  1  0.831546  0.465276  0.958170  1
  Si  Si25  1  0.669643  0.967983  0.039854  1
  Si  Si26  1  0.168527  0.532463  0.461691  1
  Si  Si27  1  0.470641  0.388665  0.750000  1
  Si  Si28  1  0.964270  0.103517  0.750000  1
  Si  Si29  1  0.538922  0.613436  0.250000  1
  Si  Si30  1  0.037908  0.886126  0.250000  1
  Si  Si31  1  0.705647  0.855516  0.750000  1
  Si  Si32  1  0.196344  0.633484  0.750000  1
  Si  Si33  1  0.295418  0.138749  0.250000  1
  Si  Si34  1  0.793002  0.362833  0.250000  1
  Rh  Rh35  1  0.826485  0.523035  0.750000  1
