# generated using pymatgen
data_Hf4HgC3
_symmetry_space_group_name_H-M   'P 1'
_cell_length_a   3.31258800
_cell_length_b   3.31258769
_cell_length_c   25.38537400
_cell_angle_alpha   90.00000000
_cell_angle_beta   90.00000000
_cell_angle_gamma   120.00000312
_symmetry_Int_Tables_number   1
_chemical_formula_structural   Hf4HgC3
_chemical_formula_sum   'Hf8 Hg2 C6'
_cell_volume   241.23981786
_cell_formula_units_Z   2
loop_
 _symmetry_equiv_pos_site_id
 _symmetry_equiv_pos_as_xyz
  1  'x, y, z'
loop_
 _atom_site_type_symbol
 _atom_site_label
 _atom_site_symmetry_multiplicity
 _atom_site_fract_x
 _atom_site_fract_y
 _atom_site_fract_z
 _atom_site_occupancy
  Hf  Hf0  1  0.000000  0.000000  0.346975  1
  Hf  Hf1  1  0.000000  0.000000  0.846975  1
  Hf  Hf2  1  0.000000  0.000000  0.653025  1
  Hf  Hf3  1  0.000000  0.000000  0.153025  1
  Hf  Hf4  1  0.333333  0.666667  0.449072  1
  Hf  Hf5  1  0.666667  0.333333  0.949072  1
  Hf  Hf6  1  0.666667  0.333333  0.550928  1
  Hf  Hf7  1  0.333333  0.666667  0.050928  1
  Hg  Hg8  1  0.666667  0.333333  0.750000  1
  Hg  Hg9  1  0.333333  0.666667  0.250000  1
  C  C10  1  0.666667  0.333333  0.392216  1
  C  C11  1  0.333333  0.666667  0.892216  1
  C  C12  1  0.333333  0.666667  0.607784  1
  C  C13  1  0.000000  0.000000  0.000000  1
  C  C14  1  0.666667  0.333333  0.107784  1
  C  C15  1  0.000000  0.000000  0.500000  1
