# generated using pymatgen
data_Li2CoNi11P7
_symmetry_space_group_name_H-M   'P 1'
_cell_length_a   9.01100356
_cell_length_b   8.99219565
_cell_length_c   3.51581500
_cell_angle_alpha   90.00000000
_cell_angle_beta   90.00000000
_cell_angle_gamma   119.92120753
_symmetry_Int_Tables_number   1
_chemical_formula_structural   Li2CoNi11P7
_chemical_formula_sum   'Li2 Co1 Ni11 P7'
_cell_volume   246.91064985
_cell_formula_units_Z   1
loop_
 _symmetry_equiv_pos_site_id
 _symmetry_equiv_pos_as_xyz
  1  'x, y, z'
loop_
 _atom_site_type_symbol
 _atom_site_label
 _atom_site_symmetry_multiplicity
 _atom_site_fract_x
 _atom_site_fract_y
 _atom_site_fract_z
 _atom_site_occupancy
  Li  Li0  1  0.000533  0.000244  0.000000  1
  Li  Li1  1  0.332860  0.667250  0.500000  1
  Co  Co2  1  0.825999  0.610805  0.000000  1
  Ni  Ni3  1  0.289807  0.896307  0.000000  1
  Ni  Ni4  1  0.603269  0.707366  0.000000  1
  Ni  Ni5  1  0.101462  0.393471  0.000000  1
  Ni  Ni6  1  0.783955  0.174065  0.000000  1
  Ni  Ni7  1  0.391468  0.215732  0.000000  1
  Ni  Ni8  1  0.719171  0.948805  0.500000  1
  Ni  Ni9  1  0.231778  0.281619  0.500000  1
  Ni  Ni10  1  0.050366  0.769453  0.500000  1
  Ni  Ni11  1  0.540392  0.114670  0.500000  1
  Ni  Ni12  1  0.572396  0.461304  0.500000  1
  Ni  Ni13  1  0.890919  0.426948  0.500000  1
  P  P14  1  0.542153  0.916149  0.000000  1
  P  P15  1  0.372421  0.457261  0.000000  1
  P  P16  1  0.081172  0.625873  0.000000  1
  P  P17  1  0.959558  0.211357  0.500000  1
  P  P18  1  0.254214  0.040624  0.500000  1
  P  P19  1  0.786101  0.742277  0.500000  1
  P  P20  1  0.670007  0.338420  0.000000  1
