# generated using pymatgen
data_PrEu4Se5
_symmetry_space_group_name_H-M   'P 1'
_cell_length_a   7.45901917
_cell_length_b   7.45901927
_cell_length_c   10.54419926
_cell_angle_alpha   61.84108481
_cell_angle_beta   61.84108659
_cell_angle_gamma   33.44881037
_symmetry_Int_Tables_number   1
_chemical_formula_structural   PrEu4Se5
_chemical_formula_sum   'Pr1 Eu4 Se5'
_cell_volume   281.37194402
_cell_formula_units_Z   1
loop_
 _symmetry_equiv_pos_site_id
 _symmetry_equiv_pos_as_xyz
  1  'x, y, z'
loop_
 _atom_site_type_symbol
 _atom_site_label
 _atom_site_symmetry_multiplicity
 _atom_site_fract_x
 _atom_site_fract_y
 _atom_site_fract_z
 _atom_site_occupancy
  Pr  Pr0  1  0.000000  0.000000  0.000000  1
  Eu  Eu1  1  0.599737  0.599737  0.600105  1
  Eu  Eu2  1  0.199975  0.199975  0.200238  1
  Eu  Eu3  1  0.800025  0.800025  0.799762  1
  Eu  Eu4  1  0.400263  0.400263  0.399895  1
  Se  Se5  1  0.199445  0.199445  0.700729  1
  Se  Se6  1  0.800555  0.800555  0.299271  1
  Se  Se7  1  0.400130  0.400130  0.900317  1
  Se  Se8  1  0.000000  0.000000  0.500000  1
  Se  Se9  1  0.599870  0.599870  0.099683  1
