# generated using pymatgen
data_Er5FeSiTe2
_symmetry_space_group_name_H-M   'P 1'
_cell_length_a   7.70184100
_cell_length_b   7.70184093
_cell_length_c   14.78334200
_cell_angle_alpha   90.00000000
_cell_angle_beta   90.00000000
_cell_angle_gamma   149.48214116
_symmetry_Int_Tables_number   1
_chemical_formula_structural   Er5FeSiTe2
_chemical_formula_sum   'Er10 Fe2 Si2 Te4'
_cell_volume   445.30781685
_cell_formula_units_Z   2
loop_
 _symmetry_equiv_pos_site_id
 _symmetry_equiv_pos_as_xyz
  1  'x, y, z'
loop_
 _atom_site_type_symbol
 _atom_site_label
 _atom_site_symmetry_multiplicity
 _atom_site_fract_x
 _atom_site_fract_y
 _atom_site_fract_z
 _atom_site_occupancy
  Er  Er0  1  0.613566  0.386434  0.250000  1
  Er  Er1  1  0.740950  0.259050  0.633147  1
  Er  Er2  1  0.963568  0.036432  0.120973  1
  Er  Er3  1  0.036432  0.963568  0.879027  1
  Er  Er4  1  0.386434  0.613566  0.750000  1
  Er  Er5  1  0.963568  0.036432  0.379027  1
  Er  Er6  1  0.036432  0.963568  0.620973  1
  Er  Er7  1  0.259050  0.740950  0.133147  1
  Er  Er8  1  0.259050  0.740950  0.366853  1
  Er  Er9  1  0.740950  0.259050  0.866853  1
  Fe  Fe10  1  0.820505  0.179495  0.250000  1
  Fe  Fe11  1  0.179495  0.820505  0.750000  1
  Si  Si12  1  0.413693  0.586307  0.250000  1
  Si  Si13  1  0.586307  0.413693  0.750000  1
  Te  Te14  1  0.615923  0.384077  0.037412  1
  Te  Te15  1  0.615923  0.384077  0.462588  1
  Te  Te16  1  0.384077  0.615923  0.537412  1
  Te  Te17  1  0.384077  0.615923  0.962588  1
