# generated using pymatgen
data_Nb5GaAs2
_symmetry_space_group_name_H-M   'P 1'
_cell_length_a   5.15484604
_cell_length_b   7.64990666
_cell_length_c   7.64990721
_cell_angle_alpha   83.48113946
_cell_angle_beta   70.29507928
_cell_angle_gamma   70.29507222
_symmetry_Int_Tables_number   1
_chemical_formula_structural   Nb5GaAs2
_chemical_formula_sum   'Nb10 Ga2 As4'
_cell_volume   267.37126919
_cell_formula_units_Z   2
loop_
 _symmetry_equiv_pos_site_id
 _symmetry_equiv_pos_as_xyz
  1  'x, y, z'
loop_
 _atom_site_type_symbol
 _atom_site_label
 _atom_site_symmetry_multiplicity
 _atom_site_fract_x
 _atom_site_fract_y
 _atom_site_fract_z
 _atom_site_occupancy
  Nb  Nb0  1  0.250000  0.500171  0.499829  1
  Nb  Nb1  1  0.723480  0.851905  0.699923  1
  Nb  Nb2  1  0.275512  0.148087  0.300075  1
  Nb  Nb3  1  0.776520  0.300077  0.148095  1
  Nb  Nb4  1  0.224488  0.699925  0.851913  1
  Nb  Nb5  1  0.577106  0.700275  0.147552  1
  Nb  Nb6  1  0.423984  0.299718  0.852463  1
  Nb  Nb7  1  0.076016  0.147537  0.700282  1
  Nb  Nb8  1  0.922894  0.852448  0.299725  1
  Nb  Nb9  1  0.750000  0.499807  0.500193  1
  Ga  Ga10  1  0.250000  0.999795  0.000205  1
  Ga  Ga11  1  0.750000  0.000236  0.999764  1
  As  As12  1  0.169871  0.500533  0.166858  1
  As  As13  1  0.836417  0.499479  0.833135  1
  As  As14  1  0.330129  0.833142  0.499467  1
  As  As15  1  0.663583  0.166865  0.500521  1
