# generated using pymatgen
data_Cs2Li2SiS4
_symmetry_space_group_name_H-M   'P 1'
_cell_length_a   12.17669275
_cell_length_b   12.17669260
_cell_length_c   5.84121600
_cell_angle_alpha   83.14316885
_cell_angle_beta   83.14317367
_cell_angle_gamma   144.39587218
_symmetry_Int_Tables_number   1
_chemical_formula_structural   Cs2Li2SiS4
_chemical_formula_sum   'Cs4 Li4 Si2 S8'
_cell_volume   464.18579538
_cell_formula_units_Z   2
loop_
 _symmetry_equiv_pos_site_id
 _symmetry_equiv_pos_as_xyz
  1  'x, y, z'
loop_
 _atom_site_type_symbol
 _atom_site_label
 _atom_site_symmetry_multiplicity
 _atom_site_fract_x
 _atom_site_fract_y
 _atom_site_fract_z
 _atom_site_occupancy
  Cs  Cs0  1  0.801956  0.198044  0.750000  1
  Cs  Cs1  1  0.061190  0.938810  0.750000  1
  Cs  Cs2  1  0.198044  0.801956  0.250000  1
  Cs  Cs3  1  0.938810  0.061190  0.250000  1
  Li  Li4  1  0.629700  0.370300  0.250000  1
  Li  Li5  1  0.505913  0.494087  0.250000  1
  Li  Li6  1  0.494087  0.505913  0.750000  1
  Li  Li7  1  0.370300  0.629700  0.750000  1
  Si  Si8  1  0.377138  0.622862  0.250000  1
  Si  Si9  1  0.622862  0.377138  0.750000  1
  S  S10  1  0.508831  0.855904  0.368354  1
  S  S11  1  0.740878  0.608395  0.442410  1
  S  S12  1  0.259122  0.391605  0.557590  1
  S  S13  1  0.491169  0.144096  0.631646  1
  S  S14  1  0.391605  0.259122  0.057590  1
  S  S15  1  0.144096  0.491169  0.131646  1
  S  S16  1  0.855904  0.508831  0.868354  1
  S  S17  1  0.608395  0.740878  0.942410  1
