# generated using pymatgen
data_NdYCo2I
_symmetry_space_group_name_H-M   'P 1'
_cell_length_a   3.97728600
_cell_length_b   3.97728488
_cell_length_c   17.39200300
_cell_angle_alpha   90.00000000
_cell_angle_beta   90.00000000
_cell_angle_gamma   119.99999267
_symmetry_Int_Tables_number   1
_chemical_formula_structural   NdYCo2I
_chemical_formula_sum   'Nd2 Y2 Co4 I2'
_cell_volume   238.26145321
_cell_formula_units_Z   2
loop_
 _symmetry_equiv_pos_site_id
 _symmetry_equiv_pos_as_xyz
  1  'x, y, z'
loop_
 _atom_site_type_symbol
 _atom_site_label
 _atom_site_symmetry_multiplicity
 _atom_site_fract_x
 _atom_site_fract_y
 _atom_site_fract_z
 _atom_site_occupancy
  Nd  Nd0  1  0.000000  0.000000  0.607515  1
  Nd  Nd1  1  0.000000  0.000000  0.392485  1
  Y  Y2  1  0.000000  0.000000  0.101637  1
  Y  Y3  1  0.000000  0.000000  0.898363  1
  Co  Co4  1  0.333333  0.666667  0.499909  1
  Co  Co5  1  0.666667  0.333333  0.500091  1
  Co  Co6  1  0.666667  0.333333  0.001604  1
  Co  Co7  1  0.333333  0.666667  0.998396  1
  I  I8  1  0.333333  0.666667  0.243210  1
  I  I9  1  0.666667  0.333333  0.756790  1
