# generated using pymatgen
data_Tb11(Fe2C3)6
_symmetry_space_group_name_H-M   'P 1'
_cell_length_a   8.82540862
_cell_length_b   8.82540845
_cell_length_c   8.82540800
_cell_angle_alpha   109.47122191
_cell_angle_beta   109.47122150
_cell_angle_gamma   109.47121692
_symmetry_Int_Tables_number   1
_chemical_formula_structural   Tb11(Fe2C3)6
_chemical_formula_sum   'Tb11 Fe12 C18'
_cell_volume   529.15456402
_cell_formula_units_Z   1
loop_
 _symmetry_equiv_pos_site_id
 _symmetry_equiv_pos_as_xyz
  1  'x, y, z'
loop_
 _atom_site_type_symbol
 _atom_site_label
 _atom_site_symmetry_multiplicity
 _atom_site_fract_x
 _atom_site_fract_y
 _atom_site_fract_z
 _atom_site_occupancy
  Tb  Tb0  1  0.250000  0.750000  0.500000  1
  Tb  Tb1  1  0.750000  0.250000  0.500000  1
  Tb  Tb2  1  0.750000  0.500000  0.250000  1
  Tb  Tb3  1  0.250000  0.500000  0.750000  1
  Tb  Tb4  1  0.500000  0.250000  0.750000  1
  Tb  Tb5  1  0.500000  0.750000  0.250000  1
  Tb  Tb6  1  0.408888  0.408888  0.408888  1
  Tb  Tb7  1  0.591112  0.000000  0.000000  1
  Tb  Tb8  1  0.000000  0.591112  0.000000  1
  Tb  Tb9  1  0.000000  0.000000  0.591112  1
  Tb  Tb10  1  0.000000  0.000000  0.000000  1
  Fe  Fe11  1  0.839261  0.643572  0.643572  1
  Fe  Fe12  1  0.160739  0.804312  0.804312  1
  Fe  Fe13  1  0.000000  0.356428  0.195688  1
  Fe  Fe14  1  0.643572  0.643572  0.839261  1
  Fe  Fe15  1  0.000000  0.195688  0.356428  1
  Fe  Fe16  1  0.804312  0.804312  0.160739  1
  Fe  Fe17  1  0.356428  0.195688  0.000000  1
  Fe  Fe18  1  0.195688  0.356428  0.000000  1
  Fe  Fe19  1  0.643572  0.839261  0.643572  1
  Fe  Fe20  1  0.195688  0.000000  0.356428  1
  Fe  Fe21  1  0.356428  0.000000  0.195688  1
  Fe  Fe22  1  0.804312  0.160739  0.804312  1
  C  C23  1  0.568903  0.568903  0.000000  1
  C  C24  1  0.431097  0.431097  0.000000  1
  C  C25  1  0.568903  0.000000  0.568903  1
  C  C26  1  0.431097  0.000000  0.431097  1
  C  C27  1  0.000000  0.568903  0.568903  1
  C  C28  1  0.000000  0.431097  0.431097  1
  C  C29  1  0.492552  0.703214  0.703214  1
  C  C30  1  0.507448  0.210662  0.210662  1
  C  C31  1  0.000000  0.296786  0.789338  1
  C  C32  1  0.703214  0.703214  0.492552  1
  C  C33  1  0.000000  0.789338  0.296786  1
  C  C34  1  0.210662  0.210662  0.507448  1
  C  C35  1  0.296786  0.789338  0.000000  1
  C  C36  1  0.789338  0.296786  0.000000  1
  C  C37  1  0.703214  0.492552  0.703214  1
  C  C38  1  0.789338  0.000000  0.296786  1
  C  C39  1  0.296786  0.000000  0.789338  1
  C  C40  1  0.210662  0.507448  0.210662  1
