# generated using pymatgen
data_NaHfIO6
_symmetry_space_group_name_H-M   'P 1'
_cell_length_a   5.38581100
_cell_length_b   5.38581112
_cell_length_c   5.21752600
_cell_angle_alpha   90.00000000
_cell_angle_beta   90.00000000
_cell_angle_gamma   120.00000538
_symmetry_Int_Tables_number   1
_chemical_formula_structural   NaHfIO6
_chemical_formula_sum   'Na1 Hf1 I1 O6'
_cell_volume   131.06823707
_cell_formula_units_Z   1
loop_
 _symmetry_equiv_pos_site_id
 _symmetry_equiv_pos_as_xyz
  1  'x, y, z'
loop_
 _atom_site_type_symbol
 _atom_site_label
 _atom_site_symmetry_multiplicity
 _atom_site_fract_x
 _atom_site_fract_y
 _atom_site_fract_z
 _atom_site_occupancy
  Na  Na0  1  0.333334  0.666667  0.000000  1
  Hf  Hf1  1  0.666667  0.333334  0.500001  1
  I  I2  1  0.000000  0.000000  0.500001  1
  O  O3  1  0.723321  0.030531  0.292983  1
  O  O4  1  0.307210  0.276679  0.292983  1
  O  O5  1  0.969469  0.692790  0.292983  1
  O  O6  1  0.307210  0.030531  0.707016  1
  O  O7  1  0.969469  0.276679  0.707016  1
  O  O8  1  0.723321  0.692790  0.707016  1
