# generated using pymatgen
data_NdMoH5
_symmetry_space_group_name_H-M   'P 1'
_cell_length_a   4.66719700
_cell_length_b   4.73018600
_cell_length_c   11.98528800
_cell_angle_alpha   90.00000000
_cell_angle_beta   90.00000000
_cell_angle_gamma   90.00000000
_symmetry_Int_Tables_number   1
_chemical_formula_structural   NdMoH5
_chemical_formula_sum   'Nd4 Mo4 H20'
_cell_volume   264.59572635
_cell_formula_units_Z   4
loop_
 _symmetry_equiv_pos_site_id
 _symmetry_equiv_pos_as_xyz
  1  'x, y, z'
loop_
 _atom_site_type_symbol
 _atom_site_label
 _atom_site_symmetry_multiplicity
 _atom_site_fract_x
 _atom_site_fract_y
 _atom_site_fract_z
 _atom_site_occupancy
  Nd  Nd0  1  0.749656  0.747430  0.851360  1
  Nd  Nd1  1  0.249656  0.752570  0.148640  1
  Nd  Nd2  1  0.750344  0.252570  0.351360  1
  Nd  Nd3  1  0.250344  0.247430  0.648640  1
  Mo  Mo4  1  0.249825  0.208756  0.929967  1
  Mo  Mo5  1  0.749825  0.291244  0.070033  1
  Mo  Mo6  1  0.250175  0.791244  0.429967  1
  Mo  Mo7  1  0.750175  0.708756  0.570033  1
  H  H8  1  0.520031  0.993877  0.002513  1
  H  H9  1  0.020031  0.506123  0.997487  1
  H  H10  1  0.979969  0.006123  0.502513  1
  H  H11  1  0.479969  0.493877  0.497487  1
  H  H12  1  0.249658  0.916239  0.836984  1
  H  H13  1  0.749658  0.583761  0.163016  1
  H  H14  1  0.250342  0.083761  0.336984  1
  H  H15  1  0.750342  0.416239  0.663016  1
  H  H16  1  0.510644  0.186367  0.181105  1
  H  H17  1  0.010644  0.313633  0.818895  1
  H  H18  1  0.989356  0.813633  0.681105  1
  H  H19  1  0.489356  0.686367  0.318895  1
  H  H20  1  0.489653  0.312760  0.819033  1
  H  H21  1  0.989653  0.187240  0.180967  1
  H  H22  1  0.010347  0.687240  0.319033  1
  H  H23  1  0.510347  0.812760  0.680967  1
  H  H24  1  0.979087  0.993963  0.002476  1
  H  H25  1  0.479087  0.506037  0.997524  1
  H  H26  1  0.520913  0.006037  0.502476  1
  H  H27  1  0.020913  0.493963  0.497524  1
