# generated using pymatgen
data_Lu2MnPtF14
_symmetry_space_group_name_H-M   'P 1'
_cell_length_a   5.39824712
_cell_length_b   8.64663187
_cell_length_c   11.67731777
_cell_angle_alpha   62.60328368
_cell_angle_beta   90.12160650
_cell_angle_gamma   90.16408911
_symmetry_Int_Tables_number   1
_chemical_formula_structural   Lu2MnPtF14
_chemical_formula_sum   'Lu4 Mn2 Pt2 F28'
_cell_volume   483.92319401
_cell_formula_units_Z   2
loop_
 _symmetry_equiv_pos_site_id
 _symmetry_equiv_pos_as_xyz
  1  'x, y, z'
loop_
 _atom_site_type_symbol
 _atom_site_label
 _atom_site_symmetry_multiplicity
 _atom_site_fract_x
 _atom_site_fract_y
 _atom_site_fract_z
 _atom_site_occupancy
  Lu  Lu0  1  0.260387  0.818160  0.259276  1
  Lu  Lu1  1  0.739613  0.181840  0.740724  1
  Lu  Lu2  1  0.763769  0.188682  0.231725  1
  Lu  Lu3  1  0.236231  0.811318  0.768275  1
  Mn  Mn4  1  0.757803  0.725828  0.043226  1
  Mn  Mn5  1  0.242197  0.274172  0.956774  1
  Pt  Pt6  1  0.260489  0.273129  0.456480  1
  Pt  Pt7  1  0.739511  0.726871  0.543520  1
  F  F8  1  0.931881  0.701300  0.410568  1
  F  F9  1  0.068119  0.298700  0.589432  1
  F  F10  1  0.441719  0.293697  0.076669  1
  F  F11  1  0.558281  0.706303  0.923331  1
  F  F12  1  0.482254  0.732551  0.133555  1
  F  F13  1  0.517746  0.267449  0.866445  1
  F  F14  1  0.957141  0.280127  0.360585  1
  F  F15  1  0.042859  0.719873  0.639415  1
  F  F16  1  0.955982  0.744167  0.166744  1
  F  F17  1  0.044018  0.255833  0.833256  1
  F  F18  1  0.447029  0.256618  0.317338  1
  F  F19  1  0.552971  0.743382  0.682662  1
  F  F20  1  0.767849  0.486454  0.137043  1
  F  F21  1  0.232151  0.513546  0.862957  1
  F  F22  1  0.278295  0.528161  0.353249  1
  F  F23  1  0.721705  0.471839  0.646751  1
  F  F24  1  0.957674  0.283272  0.042869  1
  F  F25  1  0.042326  0.716728  0.957131  1
  F  F26  1  0.428681  0.723970  0.455713  1
  F  F27  1  0.571319  0.276030  0.544287  1
  F  F28  1  0.744143  0.981836  0.447668  1
  F  F29  1  0.255857  0.018164  0.552332  1
  F  F30  1  0.239809  0.035370  0.048552  1
  F  F31  1  0.760191  0.964630  0.951448  1
  F  F32  1  0.590008  0.970701  0.229511  1
  F  F33  1  0.409992  0.029299  0.770489  1
  F  F34  1  0.087490  0.030491  0.269361  1
  F  F35  1  0.912510  0.969509  0.730639  1
