# generated using pymatgen
data_Y4Hf3TiIr4
_symmetry_space_group_name_H-M   'P 1'
_cell_length_a   4.48224800
_cell_length_b   7.06429288
_cell_length_c   8.31248081
_cell_angle_alpha   90.48040994
_cell_angle_beta   90.00000000
_cell_angle_gamma   90.00000000
_symmetry_Int_Tables_number   1
_chemical_formula_structural   Y4Hf3TiIr4
_chemical_formula_sum   'Y4 Hf3 Ti1 Ir4'
_cell_volume   263.19641407
_cell_formula_units_Z   1
loop_
 _symmetry_equiv_pos_site_id
 _symmetry_equiv_pos_as_xyz
  1  'x, y, z'
loop_
 _atom_site_type_symbol
 _atom_site_label
 _atom_site_symmetry_multiplicity
 _atom_site_fract_x
 _atom_site_fract_y
 _atom_site_fract_z
 _atom_site_occupancy
  Y  Y0  1  0.250000  0.986757  0.327494  1
  Y  Y1  1  0.250000  0.484190  0.178202  1
  Y  Y2  1  0.750000  0.023092  0.677872  1
  Y  Y3  1  0.750000  0.510339  0.815818  1
  Hf  Hf4  1  0.250000  0.857429  0.928346  1
  Hf  Hf5  1  0.750000  0.641197  0.429617  1
  Hf  Hf6  1  0.750000  0.141603  0.073464  1
  Ti  Ti7  1  0.250000  0.363296  0.563992  1
  Ir  Ir8  1  0.250000  0.229065  0.903154  1
  Ir  Ir9  1  0.250000  0.721370  0.596636  1
  Ir  Ir10  1  0.750000  0.768824  0.094893  1
  Ir  Ir11  1  0.750000  0.272839  0.410512  1
