# generated using pymatgen
data_Gd6Zn17Ag6P
_symmetry_space_group_name_H-M   'P 1'
_cell_length_a   9.12950739
_cell_length_b   9.12770067
_cell_length_c   9.12770100
_cell_angle_alpha   60.00000242
_cell_angle_beta   60.00654865
_cell_angle_gamma   60.00654209
_symmetry_Int_Tables_number   1
_chemical_formula_structural   Gd6Zn17Ag6P
_chemical_formula_sum   'Gd6 Zn17 Ag6 P1'
_cell_volume   537.89574439
_cell_formula_units_Z   1
loop_
 _symmetry_equiv_pos_site_id
 _symmetry_equiv_pos_as_xyz
  1  'x, y, z'
loop_
 _atom_site_type_symbol
 _atom_site_label
 _atom_site_symmetry_multiplicity
 _atom_site_fract_x
 _atom_site_fract_y
 _atom_site_fract_z
 _atom_site_occupancy
  Gd  Gd0  1  0.710381  0.288929  0.288929  1
  Gd  Gd1  1  0.289619  0.711071  0.711071  1
  Gd  Gd2  1  0.289619  0.711071  0.288238  1
  Gd  Gd3  1  0.710381  0.288929  0.711762  1
  Gd  Gd4  1  0.289619  0.288238  0.711071  1
  Gd  Gd5  1  0.710381  0.711762  0.288929  1
  Zn  Zn6  1  0.633024  0.122325  0.122325  1
  Zn  Zn7  1  0.366976  0.877675  0.877675  1
  Zn  Zn8  1  0.500000  0.000000  0.000000  1
  Zn  Zn9  1  0.000000  0.500000  0.500000  1
  Zn  Zn10  1  0.000000  0.500000  0.000000  1
  Zn  Zn11  1  0.500000  0.000000  0.500000  1
  Zn  Zn12  1  0.000000  0.000000  0.500000  1
  Zn  Zn13  1  0.500000  0.500000  0.000000  1
  Zn  Zn14  1  0.329373  0.327748  0.327748  1
  Zn  Zn15  1  0.670627  0.672252  0.672252  1
  Zn  Zn16  1  0.329373  0.327748  0.015133  1
  Zn  Zn17  1  0.329373  0.015133  0.327748  1
  Zn  Zn18  1  0.670627  0.672252  0.984867  1
  Zn  Zn19  1  0.670627  0.984867  0.672252  1
  Zn  Zn20  1  0.016918  0.327695  0.327695  1
  Zn  Zn21  1  0.983082  0.672305  0.672305  1
  Zn  Zn22  1  0.000000  0.000000  0.000000  1
  Ag  Ag23  1  0.121379  0.120196  0.120196  1
  Ag  Ag24  1  0.878621  0.879804  0.879804  1
  Ag  Ag25  1  0.121379  0.120196  0.638228  1
  Ag  Ag26  1  0.121379  0.638228  0.120196  1
  Ag  Ag27  1  0.878621  0.879804  0.361772  1
  Ag  Ag28  1  0.878621  0.361772  0.879804  1
  P  P29  1  0.500000  0.500000  0.500000  1
