# generated using pymatgen
data_Tb4Dy3Ho3Ru4
_symmetry_space_group_name_H-M   'P 1'
_cell_length_a   6.36564408
_cell_length_b   7.26547363
_cell_length_c   8.50409154
_cell_angle_alpha   96.68216304
_cell_angle_beta   112.11055494
_cell_angle_gamma   89.89699348
_symmetry_Int_Tables_number   1
_chemical_formula_structural   Tb4Dy3Ho3Ru4
_chemical_formula_sum   'Tb4 Dy3 Ho3 Ru4'
_cell_volume   361.53256647
_cell_formula_units_Z   1
loop_
 _symmetry_equiv_pos_site_id
 _symmetry_equiv_pos_as_xyz
  1  'x, y, z'
loop_
 _atom_site_type_symbol
 _atom_site_label
 _atom_site_symmetry_multiplicity
 _atom_site_fract_x
 _atom_site_fract_y
 _atom_site_fract_z
 _atom_site_occupancy
  Tb  Tb0  1  0.977620  0.915836  0.187089  1
  Tb  Tb1  1  0.791469  0.584056  0.812742  1
  Tb  Tb2  1  0.022068  0.084420  0.812925  1
  Tb  Tb3  1  0.208840  0.415697  0.187238  1
  Dy  Dy4  1  0.640381  0.814584  0.434085  1
  Dy  Dy5  1  0.205749  0.685482  0.566195  1
  Dy  Dy6  1  0.359757  0.185465  0.565800  1
  Ho  Ho7  1  0.794066  0.314628  0.433596  1
  Ho  Ho8  1  0.421430  0.749708  0.999880  1
  Ho  Ho9  1  0.578817  0.250359  0.000456  1
  Ru  Ru10  1  0.822977  0.575625  0.220812  1
  Ru  Ru11  1  0.602395  0.924938  0.779131  1
  Ru  Ru12  1  0.176437  0.423952  0.778987  1
  Ru  Ru13  1  0.397993  0.075250  0.221063  1
