# generated using pymatgen
data_SrTb6NiI12
_symmetry_space_group_name_H-M   'P 1'
_cell_length_a   9.83429130
_cell_length_b   9.83429176
_cell_length_c   9.83429303
_cell_angle_alpha   106.24741325
_cell_angle_beta   106.24741385
_cell_angle_gamma   106.24741848
_symmetry_Int_Tables_number   1
_chemical_formula_structural   SrTb6NiI12
_chemical_formula_sum   'Sr1 Tb6 Ni1 I12'
_cell_volume   807.80085616
_cell_formula_units_Z   1
loop_
 _symmetry_equiv_pos_site_id
 _symmetry_equiv_pos_as_xyz
  1  'x, y, z'
loop_
 _atom_site_type_symbol
 _atom_site_label
 _atom_site_symmetry_multiplicity
 _atom_site_fract_x
 _atom_site_fract_y
 _atom_site_fract_z
 _atom_site_occupancy
  Sr  Sr0  1  0.500000  0.500000  0.500000  1
  Tb  Tb1  1  0.907053  0.978465  0.709038  1
  Tb  Tb2  1  0.709038  0.907053  0.978465  1
  Tb  Tb3  1  0.978465  0.709038  0.907053  1
  Tb  Tb4  1  0.092947  0.021535  0.290962  1
  Tb  Tb5  1  0.290962  0.092947  0.021535  1
  Tb  Tb6  1  0.021535  0.290962  0.092947  1
  Ni  Ni7  1  0.000000  0.000000  0.000000  1
  I  I8  1  0.926139  0.322068  0.777454  1
  I  I9  1  0.777454  0.926139  0.322068  1
  I  I10  1  0.322068  0.777454  0.926139  1
  I  I11  1  0.073861  0.677932  0.222546  1
  I  I12  1  0.222546  0.073861  0.677932  1
  I  I13  1  0.677932  0.222546  0.073861  1
  I  I14  1  0.550888  0.863232  0.630183  1
  I  I15  1  0.630183  0.550888  0.863232  1
  I  I16  1  0.863232  0.630183  0.550888  1
  I  I17  1  0.449112  0.136768  0.369817  1
  I  I18  1  0.369817  0.449112  0.136768  1
  I  I19  1  0.136768  0.369817  0.449112  1
