# generated using pymatgen
data_Y8Sb(Pd5Pt3)3
_symmetry_space_group_name_H-M   'P 1'
_cell_length_a   8.42306404
_cell_length_b   8.41846700
_cell_length_c   8.41954004
_cell_angle_alpha   90.00000000
_cell_angle_beta   89.98841334
_cell_angle_gamma   90.00000000
_symmetry_Int_Tables_number   1
_chemical_formula_structural   Y8Sb(Pd5Pt3)3
_chemical_formula_sum   'Y8 Sb1 Pd15 Pt9'
_cell_volume   597.02356646
_cell_formula_units_Z   1
loop_
 _symmetry_equiv_pos_site_id
 _symmetry_equiv_pos_as_xyz
  1  'x, y, z'
loop_
 _atom_site_type_symbol
 _atom_site_label
 _atom_site_symmetry_multiplicity
 _atom_site_fract_x
 _atom_site_fract_y
 _atom_site_fract_z
 _atom_site_occupancy
  Y  Y0  1  0.745338  0.745136  0.254681  1
  Y  Y1  1  0.745089  0.254335  0.745545  1
  Y  Y2  1  0.255226  0.745415  0.744902  1
  Y  Y3  1  0.745089  0.745665  0.745545  1
  Y  Y4  1  0.745338  0.254864  0.254681  1
  Y  Y5  1  0.255226  0.254585  0.744902  1
  Y  Y6  1  0.254911  0.744503  0.255202  1
  Y  Y7  1  0.254911  0.255497  0.255202  1
  Sb  Sb8  1  0.999410  0.000000  0.999735  1
  Pd  Pd9  1  0.000292  0.000000  0.304320  1
  Pd  Pd10  1  0.999929  0.735859  0.500057  1
  Pd  Pd11  1  0.499584  0.000000  0.263342  1
  Pd  Pd12  1  0.999929  0.264141  0.500057  1
  Pd  Pd13  1  0.499509  0.736294  0.999624  1
  Pd  Pd14  1  0.303889  0.000000  0.000447  1
  Pd  Pd15  1  0.000288  0.000000  0.695215  1
  Pd  Pd16  1  0.999923  0.500000  0.263865  1
  Pd  Pd17  1  0.000357  0.304545  0.999852  1
  Pd  Pd18  1  0.000357  0.695455  0.999852  1
  Pd  Pd19  1  0.694985  0.000000  0.000422  1
  Pd  Pd20  1  0.263477  0.500000  0.000288  1
  Pd  Pd21  1  0.263066  0.000000  0.499478  1
  Pd  Pd22  1  0.999910  0.500000  0.735863  1
  Pd  Pd23  1  0.499509  0.263706  0.999624  1
  Pt  Pt24  1  0.736686  0.000000  0.499696  1
  Pt  Pt25  1  0.736263  0.500000  0.000296  1
  Pt  Pt26  1  0.499754  0.000000  0.736627  1
  Pt  Pt27  1  0.253821  0.500000  0.499979  1
  Pt  Pt28  1  0.500189  0.500000  0.747220  1
  Pt  Pt29  1  0.500243  0.500000  0.253291  1
  Pt  Pt30  1  0.500115  0.253157  0.500173  1
  Pt  Pt31  1  0.500115  0.746843  0.500173  1
  Pt  Pt32  1  0.747269  0.500000  0.499846  1
