# generated using pymatgen
data_Dy2Sc3Ga3Sn
_symmetry_space_group_name_H-M   'P 1'
_cell_length_a   7.32078358
_cell_length_b   7.67188269
_cell_length_c   14.64134786
_cell_angle_alpha   89.99041024
_cell_angle_beta   89.61122783
_cell_angle_gamma   89.93279018
_symmetry_Int_Tables_number   1
_chemical_formula_structural   Dy2Sc3Ga3Sn
_chemical_formula_sum   'Dy8 Sc12 Ga12 Sn4'
_cell_volume   822.29997781
_cell_formula_units_Z   4
loop_
 _symmetry_equiv_pos_site_id
 _symmetry_equiv_pos_as_xyz
  1  'x, y, z'
loop_
 _atom_site_type_symbol
 _atom_site_label
 _atom_site_symmetry_multiplicity
 _atom_site_fract_x
 _atom_site_fract_y
 _atom_site_fract_z
 _atom_site_occupancy
  Dy  Dy0  1  0.010132  0.174401  0.092446  1
  Dy  Dy1  1  0.996334  0.826145  0.904277  1
  Dy  Dy2  1  0.489164  0.680808  0.905680  1
  Dy  Dy3  1  0.993217  0.825519  0.601551  1
  Dy  Dy4  1  0.498614  0.315132  0.094362  1
  Dy  Dy5  1  0.995142  0.176737  0.398840  1
  Dy  Dy6  1  0.501091  0.317093  0.398507  1
  Dy  Dy7  1  0.503250  0.683878  0.603869  1
  Sc  Sc8  1  0.169844  0.502536  0.754707  1
  Sc  Sc9  1  0.829015  0.499343  0.247544  1
  Sc  Sc10  1  0.326095  0.001724  0.245738  1
  Sc  Sc11  1  0.672610  0.995769  0.753748  1
  Sc  Sc12  1  0.346967  0.166385  0.633487  1
  Sc  Sc13  1  0.665948  0.839180  0.369176  1
  Sc  Sc14  1  0.163365  0.667756  0.366453  1
  Sc  Sc15  1  0.660038  0.839714  0.124457  1
  Sc  Sc16  1  0.830486  0.321976  0.630869  1
  Sc  Sc17  1  0.333569  0.172518  0.877101  1
  Sc  Sc18  1  0.834743  0.319397  0.874242  1
  Sc  Sc19  1  0.176814  0.673899  0.122492  1
  Ga  Ga20  1  0.038799  0.115534  0.751049  1
  Ga  Ga21  1  0.963143  0.882453  0.245089  1
  Ga  Ga22  1  0.465926  0.616543  0.248403  1
  Ga  Ga23  1  0.536067  0.386218  0.755450  1
  Ga  Ga24  1  0.290850  0.871674  0.752546  1
  Ga  Ga25  1  0.709873  0.132309  0.247190  1
  Ga  Ga26  1  0.206876  0.369967  0.247614  1
  Ga  Ga27  1  0.793068  0.625979  0.752912  1
  Ga  Ga28  1  0.672469  0.040444  0.541283  1
  Ga  Ga29  1  0.168443  0.461915  0.957989  1
  Ga  Ga30  1  0.662182  0.035775  0.959043  1
  Ga  Ga31  1  0.337607  0.962092  0.038826  1
  Sn  Sn32  1  0.179994  0.457962  0.540928  1
  Sn  Sn33  1  0.820881  0.543851  0.460944  1
  Sn  Sn34  1  0.327130  0.957664  0.462409  1
  Sn  Sn35  1  0.830252  0.539706  0.038783  1
