# generated using pymatgen
data_TbDy11(TcOs)2
_symmetry_space_group_name_H-M   'P 1'
_cell_length_a   6.29106701
_cell_length_b   7.42979301
_cell_length_c   9.11485400
_cell_angle_alpha   90.00000000
_cell_angle_beta   90.00000000
_cell_angle_gamma   89.99473827
_symmetry_Int_Tables_number   1
_chemical_formula_structural   TbDy11(TcOs)2
_chemical_formula_sum   'Tb1 Dy11 Tc2 Os2'
_cell_volume   426.04035734
_cell_formula_units_Z   1
loop_
 _symmetry_equiv_pos_site_id
 _symmetry_equiv_pos_as_xyz
  1  'x, y, z'
loop_
 _atom_site_type_symbol
 _atom_site_label
 _atom_site_symmetry_multiplicity
 _atom_site_fract_x
 _atom_site_fract_y
 _atom_site_fract_z
 _atom_site_occupancy
  Tb  Tb0  1  0.876170  0.540131  0.250000  1
  Dy  Dy1  1  0.338259  0.675387  0.062558  1
  Dy  Dy2  1  0.162465  0.175646  0.437333  1
  Dy  Dy3  1  0.664908  0.324091  0.563011  1
  Dy  Dy4  1  0.834898  0.824559  0.936966  1
  Dy  Dy5  1  0.664908  0.324091  0.936989  1
  Dy  Dy6  1  0.834898  0.824559  0.563034  1
  Dy  Dy7  1  0.338259  0.675387  0.437442  1
  Dy  Dy8  1  0.162465  0.175646  0.062667  1
  Dy  Dy9  1  0.623491  0.040530  0.250000  1
  Dy  Dy10  1  0.131493  0.458764  0.750000  1
  Dy  Dy11  1  0.368364  0.958741  0.750000  1
  Tc  Tc12  1  0.038040  0.884338  0.250000  1
  Tc  Tc13  1  0.461418  0.383990  0.250000  1
  Os  Os14  1  0.959480  0.117111  0.750000  1
  Os  Os15  1  0.540483  0.617030  0.750000  1
