# generated using pymatgen
data_HoLu3(Al3Rh)6
_symmetry_space_group_name_H-M   'P 1'
_cell_length_a   7.52953142
_cell_length_b   7.53359878
_cell_length_c   9.41748000
_cell_angle_alpha   90.00000000
_cell_angle_beta   90.00000000
_cell_angle_gamma   119.35656256
_symmetry_Int_Tables_number   1
_chemical_formula_structural   HoLu3(Al3Rh)6
_chemical_formula_sum   'Ho1 Lu3 Al18 Rh6'
_cell_volume   465.60244639
_cell_formula_units_Z   1
loop_
 _symmetry_equiv_pos_site_id
 _symmetry_equiv_pos_as_xyz
  1  'x, y, z'
loop_
 _atom_site_type_symbol
 _atom_site_label
 _atom_site_symmetry_multiplicity
 _atom_site_fract_x
 _atom_site_fract_y
 _atom_site_fract_z
 _atom_site_occupancy
  Ho  Ho0  1  0.994639  0.671065  0.250000  1
  Lu  Lu1  1  0.005216  0.328669  0.750000  1
  Lu  Lu2  1  0.671114  0.994862  0.250000  1
  Lu  Lu3  1  0.328856  0.005347  0.750000  1
  Al  Al4  1  0.126934  0.127750  0.250000  1
  Al  Al5  1  0.872824  0.873184  0.750000  1
  Al  Al6  1  0.000216  0.334338  0.074576  1
  Al  Al7  1  0.999717  0.664377  0.923177  1
  Al  Al8  1  0.999717  0.664377  0.576823  1
  Al  Al9  1  0.336418  0.001177  0.425191  1
  Al  Al10  1  0.000216  0.334338  0.425424  1
  Al  Al11  1  0.664476  0.999874  0.575467  1
  Al  Al12  1  0.664476  0.999874  0.924533  1
  Al  Al13  1  0.336418  0.001177  0.074809  1
  Al  Al14  1  0.332530  0.332518  0.552573  1
  Al  Al15  1  0.666547  0.667529  0.449149  1
  Al  Al16  1  0.666547  0.667529  0.050851  1
  Al  Al17  1  0.332530  0.332518  0.947427  1
  Al  Al18  1  0.340140  0.550680  0.250000  1
  Al  Al19  1  0.660531  0.449485  0.750000  1
  Al  Al20  1  0.549707  0.338180  0.250000  1
  Al  Al21  1  0.449859  0.660881  0.750000  1
  Rh  Rh22  1  0.672320  0.327596  0.999769  1
  Rh  Rh23  1  0.327681  0.672275  0.999782  1
  Rh  Rh24  1  0.327681  0.672275  0.500218  1
  Rh  Rh25  1  0.672320  0.327596  0.500231  1
  Rh  Rh26  1  0.000184  0.000266  0.999588  1
  Rh  Rh27  1  0.000184  0.000266  0.500412  1
