# generated using pymatgen
data_Ta2Ti3Al4Mo(PtC)2
_symmetry_space_group_name_H-M   'P 1'
_cell_length_a   8.21819902
_cell_length_b   8.22015929
_cell_length_c   8.21819800
_cell_angle_alpha   59.94632365
_cell_angle_beta   60.03258662
_cell_angle_gamma   59.94632478
_symmetry_Int_Tables_number   1
_chemical_formula_structural   Ta2Ti3Al4Mo(PtC)2
_chemical_formula_sum   'Ta4 Ti6 Al8 Mo2 Pt4 C4'
_cell_volume   392.34880416
_cell_formula_units_Z   2
loop_
 _symmetry_equiv_pos_site_id
 _symmetry_equiv_pos_as_xyz
  1  'x, y, z'
loop_
 _atom_site_type_symbol
 _atom_site_label
 _atom_site_symmetry_multiplicity
 _atom_site_fract_x
 _atom_site_fract_y
 _atom_site_fract_z
 _atom_site_occupancy
  Ta  Ta0  1  0.313018  0.686949  0.685718  1
  Ta  Ta1  1  0.684876  0.681495  0.318231  1
  Ta  Ta2  1  0.685943  0.316906  0.681381  1
  Ta  Ta3  1  0.314519  0.683661  0.316357  1
  Ti  Ti4  1  0.568785  0.934445  0.562959  1
  Ti  Ti5  1  0.569527  0.931935  0.932832  1
  Ti  Ti6  1  0.933454  0.568610  0.563146  1
  Ti  Ti7  1  0.934103  0.567752  0.934513  1
  Ti  Ti8  1  0.315566  0.317899  0.682068  1
  Ti  Ti9  1  0.563883  0.562521  0.937605  1
  Al  Al10  1  0.913186  0.257586  0.916831  1
  Al  Al11  1  0.334132  0.334924  0.995272  1
  Al  Al12  1  0.996539  0.329481  0.332716  1
  Al  Al13  1  0.340118  0.331571  0.333816  1
  Al  Al14  1  0.257774  0.914105  0.912974  1
  Al  Al15  1  0.916745  0.915213  0.910629  1
  Al  Al16  1  0.913496  0.919329  0.258084  1
  Al  Al17  1  0.331955  0.997785  0.335689  1
  Mo  Mo18  1  0.930518  0.929530  0.570599  1
  Mo  Mo19  1  0.680127  0.320102  0.319261  1
  Pt  Pt20  1  0.122771  0.624951  0.127690  1
  Pt  Pt21  1  0.126241  0.128941  0.624745  1
  Pt  Pt22  1  0.625659  0.121411  0.122779  1
  Pt  Pt23  1  0.131014  0.124368  0.118979  1
  C  C24  1  0.621035  0.123740  0.627181  1
  C  C25  1  0.626830  0.626223  0.118900  1
  C  C26  1  0.123102  0.620690  0.628609  1
  C  C27  1  0.625088  0.627877  0.630434  1
