# generated using pymatgen
data_U4Mn7(Si2Ge)2
_symmetry_space_group_name_H-M   'P 1'
_cell_length_a   6.88889579
_cell_length_b   6.88746148
_cell_length_c   6.88746200
_cell_angle_alpha   109.49612686
_cell_angle_beta   109.45455216
_cell_angle_gamma   109.45455030
_symmetry_Int_Tables_number   1
_chemical_formula_structural   U4Mn7(Si2Ge)2
_chemical_formula_sum   'U4 Mn7 Si4 Ge2'
_cell_volume   251.58877161
_cell_formula_units_Z   1
loop_
 _symmetry_equiv_pos_site_id
 _symmetry_equiv_pos_as_xyz
  1  'x, y, z'
loop_
 _atom_site_type_symbol
 _atom_site_label
 _atom_site_symmetry_multiplicity
 _atom_site_fract_x
 _atom_site_fract_y
 _atom_site_fract_z
 _atom_site_occupancy
  U  U0  1  0.006236  0.003117  0.503117  1
  U  U1  1  0.491480  0.002754  0.002754  1
  U  U2  1  0.006236  0.503117  0.003117  1
  U  U3  1  0.491480  0.488726  0.488726  1
  Mn  Mn4  1  0.746687  0.498010  0.248675  1
  Mn  Mn5  1  0.495378  0.747689  0.247689  1
  Mn  Mn6  1  0.495378  0.247689  0.747689  1
  Mn  Mn7  1  0.746687  0.248675  0.498010  1
  Mn  Mn8  1  0.244366  0.746820  0.497545  1
  Mn  Mn9  1  0.244366  0.497545  0.746820  1
  Mn  Mn10  1  0.022245  0.011122  0.011122  1
  Si  Si11  1  0.319572  0.997702  0.321870  1
  Si  Si12  1  0.996311  0.317398  0.317398  1
  Si  Si13  1  0.996311  0.678914  0.678914  1
  Si  Si14  1  0.319572  0.321870  0.997702  1
  Ge  Ge15  1  0.688849  0.691202  0.997648  1
  Ge  Ge16  1  0.688849  0.997648  0.691202  1
