# generated using pymatgen
data_NdErMgCu9
_symmetry_space_group_name_H-M   'P 1'
_cell_length_a   5.09909900
_cell_length_b   5.09909852
_cell_length_c   16.40540800
_cell_angle_alpha   90.00000000
_cell_angle_beta   90.00000000
_cell_angle_gamma   119.99999665
_symmetry_Int_Tables_number   1
_chemical_formula_structural   NdErMgCu9
_chemical_formula_sum   'Nd2 Er2 Mg2 Cu18'
_cell_volume   369.40649642
_cell_formula_units_Z   2
loop_
 _symmetry_equiv_pos_site_id
 _symmetry_equiv_pos_as_xyz
  1  'x, y, z'
loop_
 _atom_site_type_symbol
 _atom_site_label
 _atom_site_symmetry_multiplicity
 _atom_site_fract_x
 _atom_site_fract_y
 _atom_site_fract_z
 _atom_site_occupancy
  Nd  Nd0  1  0.666667  0.333333  0.238575  1
  Nd  Nd1  1  0.333333  0.666667  0.738575  1
  Er  Er2  1  0.666667  0.333333  0.468988  1
  Er  Er3  1  0.333333  0.666667  0.968988  1
  Mg  Mg4  1  0.666667  0.333333  0.036466  1
  Mg  Mg5  1  0.333333  0.666667  0.536466  1
  Cu  Cu6  1  0.333333  0.666667  0.250629  1
  Cu  Cu7  1  0.666667  0.333333  0.750629  1
  Cu  Cu8  1  0.168525  0.831475  0.376635  1
  Cu  Cu9  1  0.168525  0.337050  0.376635  1
  Cu  Cu10  1  0.000000  0.000000  0.752543  1
  Cu  Cu11  1  0.000000  0.000000  0.252543  1
  Cu  Cu12  1  0.000000  0.000000  0.001382  1
  Cu  Cu13  1  0.000000  0.000000  0.501382  1
  Cu  Cu14  1  0.166463  0.332925  0.123838  1
  Cu  Cu15  1  0.833537  0.166463  0.623838  1
  Cu  Cu16  1  0.332925  0.166463  0.623838  1
  Cu  Cu17  1  0.667075  0.833537  0.123838  1
  Cu  Cu18  1  0.166463  0.833537  0.123838  1
  Cu  Cu19  1  0.831475  0.662950  0.876635  1
  Cu  Cu20  1  0.831475  0.168525  0.876635  1
  Cu  Cu21  1  0.833537  0.667075  0.623838  1
  Cu  Cu22  1  0.337050  0.168525  0.876635  1
  Cu  Cu23  1  0.662950  0.831475  0.376635  1
