# generated using pymatgen
data_Yb12Y8Si15Pd
_symmetry_space_group_name_H-M   'P 1'
_cell_length_a   7.45905199
_cell_length_b   7.78458082
_cell_length_c   15.11658835
_cell_angle_alpha   89.84786052
_cell_angle_beta   90.61105775
_cell_angle_gamma   90.30603205
_symmetry_Int_Tables_number   1
_chemical_formula_structural   Yb12Y8Si15Pd
_chemical_formula_sum   'Yb12 Y8 Si15 Pd1'
_cell_volume   877.68826645
_cell_formula_units_Z   1
loop_
 _symmetry_equiv_pos_site_id
 _symmetry_equiv_pos_as_xyz
  1  'x, y, z'
loop_
 _atom_site_type_symbol
 _atom_site_label
 _atom_site_symmetry_multiplicity
 _atom_site_fract_x
 _atom_site_fract_y
 _atom_site_fract_z
 _atom_site_occupancy
  Yb  Yb0  1  0.974697  0.813403  0.404547  1
  Yb  Yb1  1  0.469644  0.684221  0.097059  1
  Yb  Yb2  1  0.521742  0.325392  0.596311  1
  Yb  Yb3  1  0.029429  0.186099  0.902771  1
  Yb  Yb4  1  0.028339  0.185236  0.596096  1
  Yb  Yb5  1  0.531095  0.315513  0.902927  1
  Yb  Yb6  1  0.471664  0.682510  0.404767  1
  Yb  Yb7  1  0.970207  0.815981  0.097155  1
  Yb  Yb8  1  0.352601  0.020094  0.750087  1
  Yb  Yb9  1  0.850304  0.481209  0.747101  1
  Yb  Yb10  1  0.148890  0.519509  0.251074  1
  Yb  Yb11  1  0.645836  0.980267  0.250764  1
  Y  Y12  1  0.314300  0.176459  0.120858  1
  Y  Y13  1  0.821280  0.325292  0.378336  1
  Y  Y14  1  0.184077  0.676915  0.879227  1
  Y  Y15  1  0.677220  0.820067  0.621766  1
  Y  Y16  1  0.317275  0.178497  0.377983  1
  Y  Y17  1  0.814105  0.322285  0.121058  1
  Y  Y18  1  0.186678  0.674754  0.619645  1
  Y  Y19  1  0.684087  0.823299  0.878996  1
  Si  Si20  1  0.358968  0.967337  0.961117  1
  Si  Si21  1  0.644087  0.034198  0.463844  1
  Si  Si22  1  0.139759  0.468397  0.039454  1
  Si  Si23  1  0.153968  0.463779  0.461144  1
  Si  Si24  1  0.639869  0.031730  0.038949  1
  Si  Si25  1  0.359040  0.969359  0.538379  1
  Si  Si26  1  0.859030  0.532138  0.961162  1
  Si  Si27  1  0.975163  0.883048  0.746517  1
  Si  Si28  1  0.473721  0.617407  0.753395  1
  Si  Si29  1  0.524807  0.383317  0.247716  1
  Si  Si30  1  0.022832  0.114417  0.250144  1
  Si  Si31  1  0.246794  0.393616  0.751220  1
  Si  Si32  1  0.749370  0.105495  0.750361  1
  Si  Si33  1  0.250324  0.894012  0.249724  1
  Si  Si34  1  0.751585  0.606852  0.250959  1
  Pd  Pd35  1  0.857212  0.527897  0.537386  1
