# generated using pymatgen
data_Dy6CoP12Ir14Rh3
_symmetry_space_group_name_H-M   'P 1'
_cell_length_a   3.94229400
_cell_length_b   11.16516282
_cell_length_c   12.77151236
_cell_angle_alpha   90.09472429
_cell_angle_beta   90.00000000
_cell_angle_gamma   90.00000000
_symmetry_Int_Tables_number   1
_chemical_formula_structural   Dy6CoP12Ir14Rh3
_chemical_formula_sum   'Dy6 Co1 P12 Ir14 Rh3'
_cell_volume   562.15464582
_cell_formula_units_Z   1
loop_
 _symmetry_equiv_pos_site_id
 _symmetry_equiv_pos_as_xyz
  1  'x, y, z'
loop_
 _atom_site_type_symbol
 _atom_site_label
 _atom_site_symmetry_multiplicity
 _atom_site_fract_x
 _atom_site_fract_y
 _atom_site_fract_z
 _atom_site_occupancy
  Dy  Dy0  1  0.000000  0.500027  0.521337  1
  Dy  Dy1  1  0.500000  0.999907  0.478327  1
  Dy  Dy2  1  0.500000  0.819405  0.202413  1
  Dy  Dy3  1  0.500000  0.181684  0.202224  1
  Dy  Dy4  1  0.000000  0.687166  0.798106  1
  Dy  Dy5  1  0.000000  0.312012  0.797857  1
  Co  Co6  1  0.500000  0.000690  0.023113  1
  P  P7  1  0.500000  0.499677  0.877946  1
  P  P8  1  0.000000  0.000611  0.120988  1
  P  P9  1  0.500000  0.500282  0.354845  1
  P  P10  1  0.000000  0.999955  0.643333  1
  P  P11  1  0.500000  0.315179  0.618540  1
  P  P12  1  0.500000  0.684963  0.618599  1
  P  P13  1  0.000000  0.184582  0.381411  1
  P  P14  1  0.000000  0.815192  0.381273  1
  P  P15  1  0.500000  0.853630  0.896674  1
  P  P16  1  0.500000  0.145498  0.896311  1
  P  P17  1  0.000000  0.658211  0.105808  1
  P  P18  1  0.000000  0.343051  0.105769  1
  Ir  Ir19  1  0.500000  0.500054  0.700605  1
  Ir  Ir20  1  0.000000  0.999905  0.299562  1
  Ir  Ir21  1  0.000000  0.499244  0.975684  1
  Ir  Ir22  1  0.500000  0.667524  0.998979  1
  Ir  Ir23  1  0.000000  0.159606  0.004408  1
  Ir  Ir24  1  0.000000  0.842161  0.003088  1
  Ir  Ir25  1  0.500000  0.293403  0.429443  1
  Ir  Ir26  1  0.500000  0.706614  0.429257  1
  Ir  Ir27  1  0.000000  0.207901  0.570087  1
  Ir  Ir28  1  0.000000  0.792460  0.570208  1
  Ir  Ir29  1  0.500000  0.871206  0.713791  1
  Ir  Ir30  1  0.500000  0.128492  0.712543  1
  Ir  Ir31  1  0.000000  0.629151  0.285220  1
  Ir  Ir32  1  0.000000  0.369873  0.286471  1
  Rh  Rh33  1  0.500000  0.496955  0.175819  1
  Rh  Rh34  1  0.000000  0.001664  0.823001  1
  Rh  Rh35  1  0.500000  0.332064  0.996966  1
