# generated using pymatgen
data_V2Hg6(PCl3)3
_symmetry_space_group_name_H-M   'P 1'
_cell_length_a   10.26570072
_cell_length_b   10.59085300
_cell_length_c   10.73703000
_cell_angle_alpha   90.00000000
_cell_angle_beta   116.42906758
_cell_angle_gamma   90.00000000
_symmetry_Int_Tables_number   1
_chemical_formula_structural   V2Hg6(PCl3)3
_chemical_formula_sum   'V4 Hg12 P6 Cl18'
_cell_volume   1045.35196604
_cell_formula_units_Z   2
loop_
 _symmetry_equiv_pos_site_id
 _symmetry_equiv_pos_as_xyz
  1  'x, y, z'
loop_
 _atom_site_type_symbol
 _atom_site_label
 _atom_site_symmetry_multiplicity
 _atom_site_fract_x
 _atom_site_fract_y
 _atom_site_fract_z
 _atom_site_occupancy
  V  V0  1  0.386946  0.632453  0.107030  1
  V  V1  1  0.675872  0.744913  0.321418  1
  V  V2  1  0.324128  0.244912  0.678581  1
  V  V3  1  0.613054  0.132453  0.892970  1
  Hg  Hg4  1  0.830761  0.503912  0.004865  1
  Hg  Hg5  1  0.154042  0.275257  0.225892  1
  Hg  Hg6  1  0.532722  0.184459  0.297116  1
  Hg  Hg7  1  0.879688  0.361001  0.364406  1
  Hg  Hg8  1  0.124529  0.621224  0.361328  1
  Hg  Hg9  1  0.300866  0.945529  0.388465  1
  Hg  Hg10  1  0.699132  0.445530  0.611535  1
  Hg  Hg11  1  0.875473  0.121225  0.638673  1
  Hg  Hg12  1  0.120312  0.861002  0.635595  1
  Hg  Hg13  1  0.467278  0.684459  0.702884  1
  Hg  Hg14  1  0.845959  0.775258  0.774107  1
  Hg  Hg15  1  0.169240  0.003912  0.995136  1
  P  P16  1  0.294609  0.096515  0.218995  1
  P  P17  1  0.997212  0.439640  0.232406  1
  P  P18  1  0.742312  0.284174  0.477997  1
  P  P19  1  0.257689  0.784175  0.522003  1
  P  P20  1  0.002788  0.939639  0.767594  1
  P  P21  1  0.705391  0.596515  0.781006  1
  Cl  Cl22  1  0.158652  0.710965  0.087714  1
  Cl  Cl23  1  0.319772  0.423111  0.096964  1
  Cl  Cl24  1  0.478855  0.844702  0.131485  1
  Cl  Cl25  1  0.635036  0.574164  0.156104  1
  Cl  Cl26  1  0.691123  0.145880  0.135015  1
  Cl  Cl27  1  0.849697  0.840770  0.278865  1
  Cl  Cl28  1  0.486123  0.634381  0.359217  1
  Cl  Cl29  1  0.137615  0.133553  0.492748  1
  Cl  Cl30  1  0.657502  0.902225  0.470637  1
  Cl  Cl31  1  0.342500  0.402225  0.529364  1
  Cl  Cl32  1  0.862385  0.633554  0.507251  1
  Cl  Cl33  1  0.513876  0.134381  0.640783  1
  Cl  Cl34  1  0.150303  0.340770  0.721135  1
  Cl  Cl35  1  0.308877  0.645881  0.864984  1
  Cl  Cl36  1  0.364964  0.074164  0.843897  1
  Cl  Cl37  1  0.521146  0.344703  0.868516  1
  Cl  Cl38  1  0.680227  0.923111  0.903035  1
  Cl  Cl39  1  0.841347  0.210965  0.912285  1
