# generated using pymatgen
data_Nd8YEr11Si16
_symmetry_space_group_name_H-M   'P 1'
_cell_length_a   7.71420002
_cell_length_b   7.71522981
_cell_length_c   14.19488700
_cell_angle_alpha   90.04884292
_cell_angle_beta   90.04146669
_cell_angle_gamma   89.99718721
_symmetry_Int_Tables_number   1
_chemical_formula_structural   Nd8YEr11Si16
_chemical_formula_sum   'Nd8 Y1 Er11 Si16'
_cell_volume   844.83409010
_cell_formula_units_Z   1
loop_
 _symmetry_equiv_pos_site_id
 _symmetry_equiv_pos_as_xyz
  1  'x, y, z'
loop_
 _atom_site_type_symbol
 _atom_site_label
 _atom_site_symmetry_multiplicity
 _atom_site_fract_x
 _atom_site_fract_y
 _atom_site_fract_z
 _atom_site_occupancy
  Nd  Nd0  1  0.642843  0.992533  0.459185  1
  Nd  Nd1  1  0.357168  0.007290  0.958869  1
  Nd  Nd2  1  0.992589  0.643013  0.540928  1
  Nd  Nd3  1  0.492571  0.857083  0.209154  1
  Nd  Nd4  1  0.507329  0.142928  0.709045  1
  Nd  Nd5  1  0.857202  0.492592  0.790886  1
  Nd  Nd6  1  0.142691  0.507432  0.291205  1
  Nd  Nd7  1  0.007262  0.357041  0.040807  1
  Y  Y8  1  0.492828  0.360215  0.124342  1
  Er  Er9  1  0.992995  0.139998  0.625712  1
  Er  Er10  1  0.860326  0.006851  0.874059  1
  Er  Er11  1  0.139755  0.992803  0.374413  1
  Er  Er12  1  0.506970  0.639985  0.624229  1
  Er  Er13  1  0.360019  0.493115  0.875620  1
  Er  Er14  1  0.639948  0.506952  0.375844  1
  Er  Er15  1  0.007111  0.860071  0.125887  1
  Er  Er16  1  0.318029  0.318307  0.500064  1
  Er  Er17  1  0.181823  0.818207  0.749930  1
  Er  Er18  1  0.818342  0.181553  0.250097  1
  Er  Er19  1  0.682159  0.682354  0.999817  1
  Si  Si20  1  0.290078  0.937386  0.561515  1
  Si  Si21  1  0.710465  0.061715  0.061136  1
  Si  Si22  1  0.937314  0.290033  0.438558  1
  Si  Si23  1  0.437173  0.209024  0.312156  1
  Si  Si24  1  0.562630  0.790218  0.811398  1
  Si  Si25  1  0.209847  0.437369  0.688487  1
  Si  Si26  1  0.791097  0.563338  0.188886  1
  Si  Si27  1  0.062554  0.710033  0.938494  1
  Si  Si28  1  0.795417  0.848708  0.687950  1
  Si  Si29  1  0.203497  0.150930  0.188645  1
  Si  Si30  1  0.848680  0.795307  0.312071  1
  Si  Si31  1  0.348723  0.704565  0.438094  1
  Si  Si32  1  0.651744  0.295049  0.937218  1
  Si  Si33  1  0.704559  0.348716  0.561989  1
  Si  Si34  1  0.294910  0.652659  0.061369  1
  Si  Si35  1  0.151352  0.204626  0.811941  1
