# generated using pymatgen
data_TbTm3Lu2FeBi2
_symmetry_space_group_name_H-M   'P 1'
_cell_length_a   8.22483438
_cell_length_b   8.21551264
_cell_length_c   4.15407400
_cell_angle_alpha   90.00000000
_cell_angle_beta   90.00000000
_cell_angle_gamma   120.07252286
_symmetry_Int_Tables_number   1
_chemical_formula_structural   TbTm3Lu2FeBi2
_chemical_formula_sum   'Tb1 Tm3 Lu2 Fe1 Bi2'
_cell_volume   242.91193225
_cell_formula_units_Z   1
loop_
 _symmetry_equiv_pos_site_id
 _symmetry_equiv_pos_as_xyz
  1  'x, y, z'
loop_
 _atom_site_type_symbol
 _atom_site_label
 _atom_site_symmetry_multiplicity
 _atom_site_fract_x
 _atom_site_fract_y
 _atom_site_fract_z
 _atom_site_occupancy
  Tb  Tb0  1  0.609827  0.000201  0.000000  1
  Tm  Tm1  1  0.771251  0.770741  0.500000  1
  Tm  Tm2  1  0.999795  0.612904  0.000000  1
  Tm  Tm3  1  0.385858  0.386322  0.000000  1
  Lu  Lu4  1  0.230219  0.000197  0.500000  1
  Lu  Lu5  1  0.000795  0.229111  0.500000  1
  Fe  Fe6  1  0.004870  0.001168  0.000000  1
  Bi  Bi7  1  0.330620  0.664357  0.500000  1
  Bi  Bi8  1  0.666766  0.335000  0.500000  1
