# generated using pymatgen
data_Ho3Th(Al8Pt3)3
_symmetry_space_group_name_H-M   'P 1'
_cell_length_a   7.55694152
_cell_length_b   7.57539843
_cell_length_c   13.17331439
_cell_angle_alpha   84.53712035
_cell_angle_beta   78.99835212
_cell_angle_gamma   59.92032564
_symmetry_Int_Tables_number   1
_chemical_formula_structural   Ho3Th(Al8Pt3)3
_chemical_formula_sum   'Ho3 Th1 Al24 Pt9'
_cell_volume   640.57809458
_cell_formula_units_Z   1
loop_
 _symmetry_equiv_pos_site_id
 _symmetry_equiv_pos_as_xyz
  1  'x, y, z'
loop_
 _atom_site_type_symbol
 _atom_site_label
 _atom_site_symmetry_multiplicity
 _atom_site_fract_x
 _atom_site_fract_y
 _atom_site_fract_z
 _atom_site_occupancy
  Ho  Ho0  1  0.605692  0.831437  0.193608  1
  Ho  Ho1  1  0.733560  0.499090  0.807573  1
  Ho  Ho2  1  0.266130  0.501433  0.193647  1
  Th  Th3  1  0.394145  0.167780  0.807398  1
  Al  Al4  1  0.687055  0.830594  0.947287  1
  Al  Al5  1  0.315428  0.166210  0.058960  1
  Al  Al6  1  0.146868  0.832762  0.560091  1
  Al  Al7  1  0.854157  0.167675  0.437479  1
  Al  Al8  1  0.481164  0.166459  0.556487  1
  Al  Al9  1  0.520353  0.832460  0.440482  1
  Al  Al10  1  0.217712  0.165527  0.329049  1
  Al  Al11  1  0.787608  0.830882  0.666620  1
  Al  Al12  1  0.438218  0.510294  0.667315  1
  Al  Al13  1  0.562867  0.493653  0.328896  1
  Al  Al14  1  0.107120  0.159847  0.665569  1
  Al  Al15  1  0.890383  0.839861  0.330397  1
  Al  Al16  1  0.351498  0.502894  0.947112  1
  Al  Al17  1  0.645882  0.501595  0.056823  1
  Al  Al18  1  0.011563  0.167052  0.957015  1
  Al  Al19  1  0.983639  0.831318  0.049701  1
  Al  Al20  1  0.185994  0.500077  0.440643  1
  Al  Al21  1  0.813470  0.500257  0.558161  1
  Al  Al22  1  0.733664  0.164342  0.183566  1
  Al  Al23  1  0.265177  0.831856  0.816519  1
  Al  Al24  1  0.057541  0.635407  0.815334  1
  Al  Al25  1  0.937883  0.369790  0.184944  1
  Al  Al26  1  0.860043  0.041338  0.816263  1
  Al  Al27  1  0.144459  0.957950  0.184326  1
  Pt  Pt28  1  0.121132  0.490688  0.638674  1
  Pt  Pt29  1  0.880094  0.508251  0.360942  1
  Pt  Pt30  1  0.656691  0.171599  0.999906  1
  Pt  Pt31  1  0.342664  0.829573  0.000150  1
  Pt  Pt32  1  0.537602  0.166901  0.360967  1
  Pt  Pt33  1  0.462359  0.834000  0.638474  1
  Pt  Pt34  1  0.777801  0.175214  0.637355  1
  Pt  Pt35  1  0.221412  0.824966  0.362296  1
  Pt  Pt36  1  0.000971  0.498971  0.999973  1
