# generated using pymatgen
data_Ho16In4CoPd3
_symmetry_space_group_name_H-M   'P 1'
_cell_length_a   9.63314207
_cell_length_b   9.63314075
_cell_length_c   9.64831703
_cell_angle_alpha   60.05201982
_cell_angle_beta   60.05202228
_cell_angle_gamma   60.00000331
_symmetry_Int_Tables_number   1
_chemical_formula_structural   Ho16In4CoPd3
_chemical_formula_sum   'Ho16 In4 Co1 Pd3'
_cell_volume   633.59754699
_cell_formula_units_Z   1
loop_
 _symmetry_equiv_pos_site_id
 _symmetry_equiv_pos_as_xyz
  1  'x, y, z'
loop_
 _atom_site_type_symbol
 _atom_site_label
 _atom_site_symmetry_multiplicity
 _atom_site_fract_x
 _atom_site_fract_y
 _atom_site_fract_z
 _atom_site_occupancy
  Ho  Ho0  1  0.438453  0.438453  0.059900  1
  Ho  Ho1  1  0.646559  0.646559  0.060322  1
  Ho  Ho2  1  0.178667  0.812194  0.196944  1
  Ho  Ho3  1  0.063195  0.438453  0.059900  1
  Ho  Ho4  1  0.189091  0.810292  0.811527  1
  Ho  Ho5  1  0.062228  0.439203  0.436341  1
  Ho  Ho6  1  0.812194  0.178667  0.196944  1
  Ho  Ho7  1  0.654926  0.654926  0.640126  1
  Ho  Ho8  1  0.810292  0.189091  0.811527  1
  Ho  Ho9  1  0.189091  0.189091  0.811527  1
  Ho  Ho10  1  0.050023  0.654926  0.640126  1
  Ho  Ho11  1  0.438453  0.063195  0.059900  1
  Ho  Ho12  1  0.062228  0.062228  0.436341  1
  Ho  Ho13  1  0.654926  0.050023  0.640126  1
  Ho  Ho14  1  0.812194  0.812194  0.196944  1
  Ho  Ho15  1  0.439203  0.062228  0.436341  1
  In  In16  1  0.416611  0.416611  0.416804  1
  In  In17  1  0.416534  0.416534  0.750399  1
  In  In18  1  0.416611  0.749976  0.416804  1
  In  In19  1  0.749976  0.416611  0.416804  1
  Co  Co20  1  0.857091  0.857091  0.428724  1
  Pd  Pd21  1  0.431615  0.854920  0.858543  1
  Pd  Pd22  1  0.854920  0.854920  0.858543  1
  Pd  Pd23  1  0.854920  0.431615  0.858543  1
