# generated using pymatgen
data_Hf12Zn5Cu2Pd5N4
_symmetry_space_group_name_H-M   'P 1'
_cell_length_a   8.51138222
_cell_length_b   8.51145873
_cell_length_c   8.51373500
_cell_angle_alpha   59.99113346
_cell_angle_beta   59.99080489
_cell_angle_gamma   60.01306563
_symmetry_Int_Tables_number   1
_chemical_formula_structural   Hf12Zn5Cu2Pd5N4
_chemical_formula_sum   'Hf12 Zn5 Cu2 Pd5 N4'
_cell_volume   436.10672145
_cell_formula_units_Z   1
loop_
 _symmetry_equiv_pos_site_id
 _symmetry_equiv_pos_as_xyz
  1  'x, y, z'
loop_
 _atom_site_type_symbol
 _atom_site_label
 _atom_site_symmetry_multiplicity
 _atom_site_fract_x
 _atom_site_fract_y
 _atom_site_fract_z
 _atom_site_occupancy
  Hf  Hf0  1  0.811715  0.189825  0.186737  1
  Hf  Hf1  1  0.186660  0.812567  0.188039  1
  Hf  Hf2  1  0.810285  0.810598  0.189558  1
  Hf  Hf3  1  0.186660  0.812568  0.812734  1
  Hf  Hf4  1  0.811716  0.189825  0.811723  1
  Hf  Hf5  1  0.184664  0.188928  0.813203  1
  Hf  Hf6  1  0.439998  0.061098  0.059550  1
  Hf  Hf7  1  0.067588  0.435127  0.061920  1
  Hf  Hf8  1  0.436266  0.435265  0.064235  1
  Hf  Hf9  1  0.067588  0.435126  0.435365  1
  Hf  Hf10  1  0.439997  0.061098  0.439355  1
  Hf  Hf11  1  0.061881  0.059258  0.439431  1
  Zn  Zn12  1  0.830639  0.510689  0.829335  1
  Zn  Zn13  1  0.621522  0.618571  0.130374  1
  Zn  Zn14  1  0.621522  0.618572  0.629533  1
  Zn  Zn15  1  0.133102  0.614257  0.626321  1
  Zn  Zn16  1  0.618440  0.128709  0.626425  1
  Cu  Cu17  1  0.414607  0.413983  0.757229  1
  Cu  Cu18  1  0.414608  0.413983  0.414181  1
  Pd  Pd19  1  0.765081  0.410699  0.412110  1
  Pd  Pd20  1  0.411772  0.763830  0.412199  1
  Pd  Pd21  1  0.838631  0.837007  0.486623  1
  Pd  Pd22  1  0.838632  0.837008  0.837739  1
  Pd  Pd23  1  0.485471  0.837754  0.838387  1
  N  N24  1  0.125873  0.125363  0.623762  1
  N  N25  1  0.125873  0.125363  0.125001  1
  N  N26  1  0.625090  0.125457  0.124726  1
  N  N27  1  0.124118  0.627471  0.124205  1
