# generated using pymatgen
data_YbU(BRu)8
_symmetry_space_group_name_H-M   'P 1'
_cell_length_a   9.21152736
_cell_length_b   7.43660128
_cell_length_c   7.43660200
_cell_angle_alpha   90.00000000
_cell_angle_beta   113.80701900
_cell_angle_gamma   113.80702200
_symmetry_Int_Tables_number   1
_chemical_formula_structural   YbU(BRu)8
_chemical_formula_sum   'Yb2 U2 B16 Ru16'
_cell_volume   418.26328026
_cell_formula_units_Z   2
loop_
 _symmetry_equiv_pos_site_id
 _symmetry_equiv_pos_as_xyz
  1  'x, y, z'
loop_
 _atom_site_type_symbol
 _atom_site_label
 _atom_site_symmetry_multiplicity
 _atom_site_fract_x
 _atom_site_fract_y
 _atom_site_fract_z
 _atom_site_occupancy
  Yb  Yb0  1  0.750001  0.375000  0.625001  1
  Yb  Yb1  1  0.250000  0.125000  0.875001  1
  U  U2  1  0.750001  0.875000  0.125000  1
  U  U3  1  0.250000  0.625000  0.375001  1
  B  B4  1  0.914285  0.288987  0.070847  1
  B  B5  1  0.414285  0.570846  0.125299  1
  B  B6  1  0.085716  0.211013  0.156561  1
  B  B7  1  0.585041  0.150455  0.210617  1
  B  B8  1  0.414959  0.065413  0.289383  1
  B  B9  1  0.914285  0.625298  0.343439  1
  B  B10  1  0.585715  0.656560  0.374701  1
  B  B11  1  0.085716  0.874702  0.429153  1
  B  B12  1  0.914959  0.125574  0.565414  1
  B  B13  1  0.414959  0.349545  0.625575  1
  B  B14  1  0.085042  0.374426  0.650456  1
  B  B15  1  0.585715  0.929154  0.711013  1
  B  B16  1  0.414285  0.843440  0.788987  1
  B  B17  1  0.914959  0.789383  0.849544  1
  B  B18  1  0.585041  0.434587  0.874425  1
  B  B19  1  0.085042  0.710617  0.934586  1
  Ru  Ru20  1  0.871551  0.551576  0.037181  1
  Ru  Ru21  1  0.371551  0.834369  0.051577  1
  Ru  Ru22  1  0.128449  0.948424  0.165631  1
  Ru  Ru23  1  0.626545  0.468438  0.177119  1
  Ru  Ru24  1  0.373455  0.341893  0.322881  1
  Ru  Ru25  1  0.871551  0.319975  0.334370  1
  Ru  Ru26  1  0.628449  0.962818  0.448423  1
  Ru  Ru27  1  0.128449  0.180025  0.462819  1
  Ru  Ru28  1  0.873455  0.822881  0.531561  1
  Ru  Ru29  1  0.373455  0.031562  0.550575  1
  Ru  Ru30  1  0.126545  0.677119  0.658107  1
  Ru  Ru31  1  0.628449  0.665631  0.680025  1
  Ru  Ru32  1  0.371551  0.537182  0.819975  1
  Ru  Ru33  1  0.873455  0.050574  0.841894  1
  Ru  Ru34  1  0.626545  0.158107  0.949425  1
  Ru  Ru35  1  0.126545  0.449426  0.968439  1
