# generated using pymatgen
data_Eu5(GePd)6
_symmetry_space_group_name_H-M   'P 1'
_cell_length_a   7.79909146
_cell_length_b   7.79909182
_cell_length_c   7.79909100
_cell_angle_alpha   109.47121850
_cell_angle_beta   109.47121944
_cell_angle_gamma   109.47122090
_symmetry_Int_Tables_number   1
_chemical_formula_structural   Eu5(GePd)6
_chemical_formula_sum   'Eu5 Ge6 Pd6'
_cell_volume   365.18267055
_cell_formula_units_Z   1
loop_
 _symmetry_equiv_pos_site_id
 _symmetry_equiv_pos_as_xyz
  1  'x, y, z'
loop_
 _atom_site_type_symbol
 _atom_site_label
 _atom_site_symmetry_multiplicity
 _atom_site_fract_x
 _atom_site_fract_y
 _atom_site_fract_z
 _atom_site_occupancy
  Eu  Eu0  1  0.000000  0.000000  0.000000  1
  Eu  Eu1  1  0.000000  0.000000  0.500000  1
  Eu  Eu2  1  0.000000  0.500000  0.000000  1
  Eu  Eu3  1  0.500000  0.000000  0.000000  1
  Eu  Eu4  1  0.500000  0.500000  0.500000  1
  Ge  Ge5  1  0.650713  0.650713  0.000000  1
  Ge  Ge6  1  0.349287  0.000000  0.349287  1
  Ge  Ge7  1  0.000000  0.349287  0.349287  1
  Ge  Ge8  1  0.349287  0.349287  0.000000  1
  Ge  Ge9  1  0.650713  0.000000  0.650713  1
  Ge  Ge10  1  0.000000  0.650713  0.650713  1
  Pd  Pd11  1  0.750000  0.500000  0.250000  1
  Pd  Pd12  1  0.500000  0.250000  0.750000  1
  Pd  Pd13  1  0.750000  0.250000  0.500000  1
  Pd  Pd14  1  0.250000  0.750000  0.500000  1
  Pd  Pd15  1  0.500000  0.750000  0.250000  1
  Pd  Pd16  1  0.250000  0.500000  0.750000  1
