# generated using pymatgen
data_YbHo3(IrOs3)2
_symmetry_space_group_name_H-M   'P 1'
_cell_length_a   5.26133300
_cell_length_b   5.26133272
_cell_length_c   8.98331200
_cell_angle_alpha   90.00000000
_cell_angle_beta   90.00000000
_cell_angle_gamma   119.99999548
_symmetry_Int_Tables_number   1
_chemical_formula_structural   YbHo3(IrOs3)2
_chemical_formula_sum   'Yb1 Ho3 Ir2 Os6'
_cell_volume   215.35685077
_cell_formula_units_Z   1
loop_
 _symmetry_equiv_pos_site_id
 _symmetry_equiv_pos_as_xyz
  1  'x, y, z'
loop_
 _atom_site_type_symbol
 _atom_site_label
 _atom_site_symmetry_multiplicity
 _atom_site_fract_x
 _atom_site_fract_y
 _atom_site_fract_z
 _atom_site_occupancy
  Yb  Yb0  1  0.333333  0.666667  0.064824  1
  Ho  Ho1  1  0.333333  0.666667  0.427262  1
  Ho  Ho2  1  0.666667  0.333333  0.568235  1
  Ho  Ho3  1  0.666667  0.333333  0.936462  1
  Ir  Ir4  1  0.000000  0.000000  0.500581  1
  Ir  Ir5  1  0.000000  0.000000  0.001375  1
  Os  Os6  1  0.829442  0.170558  0.250628  1
  Os  Os7  1  0.829442  0.658884  0.250628  1
  Os  Os8  1  0.341116  0.170558  0.250628  1
  Os  Os9  1  0.170596  0.829404  0.749792  1
  Os  Os10  1  0.170596  0.341192  0.749792  1
  Os  Os11  1  0.658808  0.829404  0.749792  1
