# generated using pymatgen
data_Li8La7NdSn7Sb
_symmetry_space_group_name_H-M   'P 1'
_cell_length_a   9.66303200
_cell_length_b   9.66110905
_cell_length_c   7.84388224
_cell_angle_alpha   90.04817337
_cell_angle_beta   89.99973809
_cell_angle_gamma   120.00675662
_symmetry_Int_Tables_number   1
_chemical_formula_structural   Li8La7NdSn7Sb
_chemical_formula_sum   'Li8 La7 Nd1 Sn7 Sb1'
_cell_volume   634.12127211
_cell_formula_units_Z   1
loop_
 _symmetry_equiv_pos_site_id
 _symmetry_equiv_pos_as_xyz
  1  'x, y, z'
loop_
 _atom_site_type_symbol
 _atom_site_label
 _atom_site_symmetry_multiplicity
 _atom_site_fract_x
 _atom_site_fract_y
 _atom_site_fract_z
 _atom_site_occupancy
  Li  Li0  1  0.166696  0.333392  0.285643  1
  Li  Li1  1  0.166772  0.833381  0.287825  1
  Li  Li2  1  0.666610  0.833380  0.287824  1
  Li  Li3  1  0.833513  0.667025  0.788028  1
  Li  Li4  1  0.833381  0.166268  0.789203  1
  Li  Li5  1  0.332886  0.166270  0.789203  1
  Li  Li6  1  0.333191  0.666384  0.667802  1
  Li  Li7  1  0.666795  0.333589  0.168081  1
  La  La8  1  0.511535  0.023063  0.495165  1
  La  La9  1  0.514157  0.489986  0.493429  1
  La  La10  1  0.975827  0.489985  0.493429  1
  La  La11  1  0.488494  0.976995  0.995766  1
  La  La12  1  0.490492  0.512337  0.996112  1
  La  La13  1  0.021836  0.512327  0.996118  1
  La  La14  1  0.999206  0.998399  0.497338  1
  Nd  Nd15  1  0.998871  0.997742  0.000895  1
  Sn  Sn16  1  0.165555  0.833264  0.728740  1
  Sn  Sn17  1  0.667707  0.833264  0.728738  1
  Sn  Sn18  1  0.834257  0.668514  0.228039  1
  Sn  Sn19  1  0.834880  0.166365  0.227421  1
  Sn  Sn20  1  0.331485  0.166364  0.227421  1
  Sn  Sn21  1  0.332877  0.665754  0.268932  1
  Sn  Sn22  1  0.666841  0.333681  0.768482  1
  Sb  Sb23  1  0.166136  0.332272  0.732344  1
