# generated using pymatgen
data_Ce5SiSe4
_symmetry_space_group_name_H-M   'P 1'
_cell_length_a   7.32111253
_cell_length_b   7.32111164
_cell_length_c   7.32111150
_cell_angle_alpha   99.51635010
_cell_angle_beta   99.51635724
_cell_angle_gamma   132.01628695
_symmetry_Int_Tables_number   1
_chemical_formula_structural   Ce5SiSe4
_chemical_formula_sum   'Ce5 Si1 Se4'
_cell_volume   266.34897472
_cell_formula_units_Z   1
loop_
 _symmetry_equiv_pos_site_id
 _symmetry_equiv_pos_as_xyz
  1  'x, y, z'
loop_
 _atom_site_type_symbol
 _atom_site_label
 _atom_site_symmetry_multiplicity
 _atom_site_fract_x
 _atom_site_fract_y
 _atom_site_fract_z
 _atom_site_occupancy
  Ce  Ce0  1  0.403152  0.793406  0.196558  1
  Ce  Ce1  1  0.000000  0.000000  0.000000  1
  Ce  Ce2  1  0.596848  0.206594  0.803442  1
  Ce  Ce3  1  0.206594  0.403152  0.609746  1
  Ce  Ce4  1  0.793406  0.596848  0.390254  1
  Si  Si5  1  0.500000  0.500000  0.000000  1
  Se  Se6  1  0.097373  0.699081  0.796453  1
  Se  Se7  1  0.699081  0.902627  0.601709  1
  Se  Se8  1  0.300919  0.097373  0.398291  1
  Se  Se9  1  0.902627  0.300919  0.203547  1
