# generated using pymatgen
data_HoPu3H11
_symmetry_space_group_name_H-M   'P 1'
_cell_length_a   6.41717730
_cell_length_b   6.41717673
_cell_length_c   6.41717726
_cell_angle_alpha   130.68547207
_cell_angle_beta   133.28929989
_cell_angle_gamma   70.26997055
_symmetry_Int_Tables_number   1
_chemical_formula_structural   HoPu3H11
_chemical_formula_sum   'Ho1 Pu3 H11'
_cell_volume   142.96866626
_cell_formula_units_Z   1
loop_
 _symmetry_equiv_pos_site_id
 _symmetry_equiv_pos_as_xyz
  1  'x, y, z'
loop_
 _atom_site_type_symbol
 _atom_site_label
 _atom_site_symmetry_multiplicity
 _atom_site_fract_x
 _atom_site_fract_y
 _atom_site_fract_z
 _atom_site_occupancy
  Ho  Ho0  1  0.500000  0.000000  0.500000  1
  Pu  Pu1  1  0.263540  0.263540  0.000000  1
  Pu  Pu2  1  0.000000  0.500000  0.500000  1
  Pu  Pu3  1  0.736460  0.736460  0.000000  1
  H  H4  1  0.646867  0.107710  0.992717  1
  H  H5  1  0.353133  0.345850  0.460842  1
  H  H6  1  0.114992  0.654150  0.007283  1
  H  H7  1  0.885008  0.892290  0.539158  1
  H  H8  1  0.885008  0.345850  0.992717  1
  H  H9  1  0.646867  0.654150  0.539158  1
  H  H10  1  0.353133  0.892290  0.007283  1
  H  H11  1  0.114992  0.107710  0.460842  1
  H  H12  1  0.761140  0.261140  0.500000  1
  H  H13  1  0.500000  0.500000  0.000000  1
  H  H14  1  0.238860  0.738860  0.500000  1
