# generated using pymatgen
data_Ba3IrRh2F18
_symmetry_space_group_name_H-M   'P 1'
_cell_length_a   7.57198421
_cell_length_b   7.57186941
_cell_length_c   7.33562041
_cell_angle_alpha   89.88874551
_cell_angle_beta   89.98853463
_cell_angle_gamma   120.02937665
_symmetry_Int_Tables_number   1
_chemical_formula_structural   Ba3IrRh2F18
_chemical_formula_sum   'Ba3 Ir1 Rh2 F18'
_cell_volume   364.12495559
_cell_formula_units_Z   1
loop_
 _symmetry_equiv_pos_site_id
 _symmetry_equiv_pos_as_xyz
  1  'x, y, z'
loop_
 _atom_site_type_symbol
 _atom_site_label
 _atom_site_symmetry_multiplicity
 _atom_site_fract_x
 _atom_site_fract_y
 _atom_site_fract_z
 _atom_site_occupancy
  Ba  Ba0  1  0.333281  0.666599  0.166624  1
  Ba  Ba1  1  0.000232  0.000373  0.496824  1
  Ba  Ba2  1  0.666498  0.333023  0.836575  1
  Ir  Ir3  1  0.333329  0.666671  0.666684  1
  Rh  Rh4  1  0.999915  0.999868  0.999057  1
  Rh  Rh5  1  0.666760  0.333438  0.334309  1
  F  F6  1  0.582389  0.099447  0.171603  1
  F  F7  1  0.900864  0.483235  0.170920  1
  F  F8  1  0.516988  0.417540  0.171094  1
  F  F9  1  0.084195  0.233881  0.161891  1
  F  F10  1  0.149748  0.915748  0.162254  1
  F  F11  1  0.765688  0.849911  0.162349  1
  F  F12  1  0.181786  0.747193  0.504654  1
  F  F13  1  0.565431  0.818497  0.504485  1
  F  F14  1  0.252958  0.435042  0.504079  1
  F  F15  1  0.817483  0.250672  0.497937  1
  F  F16  1  0.749705  0.566974  0.497505  1
  F  F17  1  0.433071  0.182561  0.498113  1
  F  F18  1  0.849190  0.082680  0.835482  1
  F  F19  1  0.233650  0.150918  0.835360  1
  F  F20  1  0.917100  0.766434  0.835708  1
  F  F21  1  0.413783  0.898416  0.829152  1
  F  F22  1  0.101144  0.514850  0.828815  1
  F  F23  1  0.484864  0.586059  0.828646  1
