# generated using pymatgen
data_ZnFe13B6PdRh17
_symmetry_space_group_name_H-M   'P 1'
_cell_length_a   2.85916600
_cell_length_b   11.29862900
_cell_length_c   14.76607800
_cell_angle_alpha   90.00000000
_cell_angle_beta   90.00000000
_cell_angle_gamma   90.00000000
_symmetry_Int_Tables_number   1
_chemical_formula_structural   ZnFe13B6PdRh17
_chemical_formula_sum   'Zn1 Fe13 B6 Pd1 Rh17'
_cell_volume   477.01306854
_cell_formula_units_Z   1
loop_
 _symmetry_equiv_pos_site_id
 _symmetry_equiv_pos_as_xyz
  1  'x, y, z'
loop_
 _atom_site_type_symbol
 _atom_site_label
 _atom_site_symmetry_multiplicity
 _atom_site_fract_x
 _atom_site_fract_y
 _atom_site_fract_z
 _atom_site_occupancy
  Zn  Zn0  1  0.500000  0.500000  0.347879  1
  Fe  Fe1  1  0.500000  0.000000  0.652633  1
  Fe  Fe2  1  0.500000  0.394454  0.001166  1
  Fe  Fe3  1  0.500000  0.106985  0.995457  1
  Fe  Fe4  1  0.500000  0.605546  0.001166  1
  Fe  Fe5  1  0.500000  0.893015  0.995457  1
  Fe  Fe6  1  0.500000  0.366992  0.767233  1
  Fe  Fe7  1  0.500000  0.134801  0.235923  1
  Fe  Fe8  1  0.500000  0.633008  0.767233  1
  Fe  Fe9  1  0.500000  0.865199  0.235923  1
  Fe  Fe10  1  0.500000  0.302830  0.606943  1
  Fe  Fe11  1  0.500000  0.198998  0.394442  1
  Fe  Fe12  1  0.500000  0.697170  0.606943  1
  Fe  Fe13  1  0.500000  0.801002  0.394442  1
  B  B14  1  0.500000  0.500000  0.532576  1
  B  B15  1  0.500000  0.000000  0.470317  1
  B  B16  1  0.500000  0.145329  0.823440  1
  B  B17  1  0.500000  0.354416  0.174812  1
  B  B18  1  0.500000  0.854671  0.823440  1
  B  B19  1  0.500000  0.645584  0.174812  1
  Pd  Pd20  1  0.000000  0.000000  0.124538  1
  Rh  Rh21  1  0.000000  0.250307  0.896786  1
  Rh  Rh22  1  0.000000  0.249460  0.101204  1
  Rh  Rh23  1  0.000000  0.749693  0.896786  1
  Rh  Rh24  1  0.000000  0.750540  0.101204  1
  Rh  Rh25  1  0.000000  0.500000  0.646028  1
  Rh  Rh26  1  0.000000  0.000000  0.356894  1
  Rh  Rh27  1  0.000000  0.173345  0.717065  1
  Rh  Rh28  1  0.000000  0.325762  0.281531  1
  Rh  Rh29  1  0.000000  0.826655  0.717065  1
  Rh  Rh30  1  0.000000  0.674238  0.281531  1
  Rh  Rh31  1  0.000000  0.500000  0.138005  1
  Rh  Rh32  1  0.000000  0.000000  0.859823  1
  Rh  Rh33  1  0.000000  0.123677  0.531016  1
  Rh  Rh34  1  0.000000  0.376083  0.471639  1
  Rh  Rh35  1  0.000000  0.876323  0.531016  1
  Rh  Rh36  1  0.000000  0.623917  0.471639  1
  Rh  Rh37  1  0.000000  0.500000  0.873988  1
