# generated using pymatgen
data_Th8Re3WC8
_symmetry_space_group_name_H-M   'P 1'
_cell_length_a   5.36370600
_cell_length_b   6.71830695
_cell_length_c   10.18639006
_cell_angle_alpha   89.80286128
_cell_angle_beta   90.00000000
_cell_angle_gamma   90.00000000
_symmetry_Int_Tables_number   1
_chemical_formula_structural   Th8Re3WC8
_chemical_formula_sum   'Th8 Re3 W1 C8'
_cell_volume   367.06463042
_cell_formula_units_Z   1
loop_
 _symmetry_equiv_pos_site_id
 _symmetry_equiv_pos_as_xyz
  1  'x, y, z'
loop_
 _atom_site_type_symbol
 _atom_site_label
 _atom_site_symmetry_multiplicity
 _atom_site_fract_x
 _atom_site_fract_y
 _atom_site_fract_z
 _atom_site_occupancy
  Th  Th0  1  0.250000  0.472953  0.776781  1
  Th  Th1  1  0.750000  0.025659  0.277678  1
  Th  Th2  1  0.250000  0.972947  0.721888  1
  Th  Th3  1  0.750000  0.527623  0.223788  1
  Th  Th4  1  0.250000  0.809372  0.050200  1
  Th  Th5  1  0.750000  0.689323  0.549371  1
  Th  Th6  1  0.250000  0.310076  0.450640  1
  Th  Th7  1  0.750000  0.187913  0.949985  1
  Re  Re8  1  0.750000  0.227075  0.638238  1
  Re  Re9  1  0.250000  0.772681  0.364324  1
  Re  Re10  1  0.750000  0.726533  0.861999  1
  W  W11  1  0.250000  0.274820  0.136104  1
  C  C12  1  0.250000  0.168470  0.945814  1
  C  C13  1  0.750000  0.831275  0.050947  1
  C  C14  1  0.250000  0.668252  0.552171  1
  C  C15  1  0.750000  0.332164  0.448911  1
  C  C16  1  0.250000  0.032254  0.257732  1
  C  C17  1  0.750000  0.467557  0.756048  1
  C  C18  1  0.250000  0.536505  0.243863  1
  C  C19  1  0.750000  0.966545  0.743517  1
