# generated using pymatgen
data_Tb7Ag(Sn11Os3)2
_symmetry_space_group_name_H-M   'P 1'
_cell_length_a   9.86585500
_cell_length_b   9.86585433
_cell_length_c   10.09241600
_cell_angle_alpha   90.00000000
_cell_angle_beta   90.00000000
_cell_angle_gamma   120.00000559
_symmetry_Int_Tables_number   1
_chemical_formula_structural   Tb7Ag(Sn11Os3)2
_chemical_formula_sum   'Tb7 Ag1 Sn22 Os6'
_cell_volume   850.73671866
_cell_formula_units_Z   1
loop_
 _symmetry_equiv_pos_site_id
 _symmetry_equiv_pos_as_xyz
  1  'x, y, z'
loop_
 _atom_site_type_symbol
 _atom_site_label
 _atom_site_symmetry_multiplicity
 _atom_site_fract_x
 _atom_site_fract_y
 _atom_site_fract_z
 _atom_site_occupancy
  Tb  Tb0  1  0.000000  0.000000  0.000000  1
  Tb  Tb1  1  0.483991  0.516009  0.304007  1
  Tb  Tb2  1  0.516009  0.483991  0.695993  1
  Tb  Tb3  1  0.483991  0.967982  0.304007  1
  Tb  Tb4  1  0.516009  0.032018  0.695993  1
  Tb  Tb5  1  0.032018  0.516009  0.304007  1
  Tb  Tb6  1  0.967982  0.483991  0.695993  1
  Ag  Ag7  1  0.000000  0.000000  0.500000  1
  Sn  Sn8  1  0.349732  0.000000  0.000000  1
  Sn  Sn9  1  0.650268  0.000000  0.000000  1
  Sn  Sn10  1  0.000000  0.349732  0.000000  1
  Sn  Sn11  1  0.000000  0.650268  0.000000  1
  Sn  Sn12  1  0.650268  0.650268  0.000000  1
  Sn  Sn13  1  0.349732  0.349732  0.000000  1
  Sn  Sn14  1  0.333333  0.666667  0.826442  1
  Sn  Sn15  1  0.666667  0.333333  0.173558  1
  Sn  Sn16  1  0.780030  0.219970  0.463336  1
  Sn  Sn17  1  0.219970  0.780030  0.536664  1
  Sn  Sn18  1  0.780030  0.560061  0.463336  1
  Sn  Sn19  1  0.219970  0.439939  0.536664  1
  Sn  Sn20  1  0.439939  0.219970  0.463336  1
  Sn  Sn21  1  0.560061  0.780030  0.536664  1
  Sn  Sn22  1  0.333333  0.666667  0.127542  1
  Sn  Sn23  1  0.666667  0.333333  0.872458  1
  Sn  Sn24  1  0.118273  0.881727  0.276592  1
  Sn  Sn25  1  0.881727  0.118273  0.723408  1
  Sn  Sn26  1  0.118273  0.236547  0.276592  1
  Sn  Sn27  1  0.881727  0.763453  0.723408  1
  Sn  Sn28  1  0.763453  0.881727  0.276592  1
  Sn  Sn29  1  0.236547  0.118273  0.723408  1
  Os  Os30  1  0.831504  0.168496  0.204374  1
  Os  Os31  1  0.168496  0.831504  0.795626  1
  Os  Os32  1  0.831504  0.663008  0.204374  1
  Os  Os33  1  0.168496  0.336992  0.795626  1
  Os  Os34  1  0.336992  0.168496  0.204374  1
  Os  Os35  1  0.663008  0.831504  0.795626  1
