# generated using pymatgen
data_Ho4ZnGa6Ag
_symmetry_space_group_name_H-M   'P 1'
_cell_length_a   7.23651200
_cell_length_b   8.79155118
_cell_length_c   8.79155200
_cell_angle_alpha   119.99999556
_cell_angle_beta   90.00000000
_cell_angle_gamma   90.00000000
_symmetry_Int_Tables_number   1
_chemical_formula_structural   Ho4ZnGa6Ag
_chemical_formula_sum   'Ho8 Zn2 Ga12 Ag2'
_cell_volume   484.38534545
_cell_formula_units_Z   2
loop_
 _symmetry_equiv_pos_site_id
 _symmetry_equiv_pos_as_xyz
  1  'x, y, z'
loop_
 _atom_site_type_symbol
 _atom_site_label
 _atom_site_symmetry_multiplicity
 _atom_site_fract_x
 _atom_site_fract_y
 _atom_site_fract_z
 _atom_site_occupancy
  Ho  Ho0  1  0.748681  0.000000  0.000000  1
  Ho  Ho1  1  0.251319  0.000000  0.000000  1
  Ho  Ho2  1  0.751099  0.506016  0.493984  1
  Ho  Ho3  1  0.248901  0.493984  0.506016  1
  Ho  Ho4  1  0.751099  0.987967  0.493984  1
  Ho  Ho5  1  0.248901  0.012033  0.506016  1
  Ho  Ho6  1  0.751099  0.506016  0.012033  1
  Ho  Ho7  1  0.248901  0.493984  0.987967  1
  Zn  Zn8  1  0.552738  0.333333  0.666667  1
  Zn  Zn9  1  0.447262  0.666667  0.333333  1
  Ga  Ga10  1  0.976448  0.834528  0.165472  1
  Ga  Ga11  1  0.023552  0.165472  0.834528  1
  Ga  Ga12  1  0.976448  0.330944  0.165472  1
  Ga  Ga13  1  0.479471  0.168141  0.831859  1
  Ga  Ga14  1  0.023552  0.669056  0.834528  1
  Ga  Ga15  1  0.520529  0.831859  0.168141  1
  Ga  Ga16  1  0.976448  0.834528  0.669056  1
  Ga  Ga17  1  0.479471  0.663717  0.831859  1
  Ga  Ga18  1  0.023552  0.165472  0.330944  1
  Ga  Ga19  1  0.520529  0.336283  0.168141  1
  Ga  Ga20  1  0.479471  0.168141  0.336283  1
  Ga  Ga21  1  0.520529  0.831859  0.663717  1
  Ag  Ag22  1  0.051315  0.666667  0.333333  1
  Ag  Ag23  1  0.948685  0.333333  0.666667  1
