# generated using pymatgen
data_Dy5Si12Tc3Ir16
_symmetry_space_group_name_H-M   'P 1'
_cell_length_a   12.81143800
_cell_length_b   12.81143907
_cell_length_c   4.01404000
_cell_angle_alpha   90.00000000
_cell_angle_beta   90.00000000
_cell_angle_gamma   119.99999724
_symmetry_Int_Tables_number   1
_chemical_formula_structural   Dy5Si12Tc3Ir16
_chemical_formula_sum   'Dy5 Si12 Tc3 Ir16'
_cell_volume   570.56895044
_cell_formula_units_Z   1
loop_
 _symmetry_equiv_pos_site_id
 _symmetry_equiv_pos_as_xyz
  1  'x, y, z'
loop_
 _atom_site_type_symbol
 _atom_site_label
 _atom_site_symmetry_multiplicity
 _atom_site_fract_x
 _atom_site_fract_y
 _atom_site_fract_z
 _atom_site_occupancy
  Dy  Dy0  1  0.333333  0.666667  0.500000  1
  Dy  Dy1  1  0.666667  0.333333  0.500000  1
  Dy  Dy2  1  0.000000  0.813240  0.000000  1
  Dy  Dy3  1  0.186760  0.186760  0.000000  1
  Dy  Dy4  1  0.813240  0.000000  0.000000  1
  Si  Si5  1  0.000000  0.626666  0.500000  1
  Si  Si6  1  0.373334  0.373334  0.500000  1
  Si  Si7  1  0.626666  0.000000  0.500000  1
  Si  Si8  1  0.520943  0.686695  0.000000  1
  Si  Si9  1  0.313305  0.834248  0.000000  1
  Si  Si10  1  0.165752  0.479057  0.000000  1
  Si  Si11  1  0.479057  0.165752  0.000000  1
  Si  Si12  1  0.686695  0.520943  0.000000  1
  Si  Si13  1  0.834248  0.313305  0.000000  1
  Si  Si14  1  0.000000  0.181542  0.500000  1
  Si  Si15  1  0.818458  0.818458  0.500000  1
  Si  Si16  1  0.181542  0.000000  0.500000  1
  Tc  Tc17  1  0.000000  0.440726  0.500000  1
  Tc  Tc18  1  0.559274  0.559274  0.500000  1
  Tc  Tc19  1  0.440726  0.000000  0.500000  1
  Ir  Ir20  1  0.512454  0.872582  0.000000  1
  Ir  Ir21  1  0.127418  0.639874  0.000000  1
  Ir  Ir22  1  0.360126  0.487546  0.000000  1
  Ir  Ir23  1  0.487546  0.360126  0.000000  1
  Ir  Ir24  1  0.872582  0.512454  0.000000  1
  Ir  Ir25  1  0.639874  0.127418  0.000000  1
  Ir  Ir26  1  0.000000  0.279911  0.000000  1
  Ir  Ir27  1  0.720089  0.720089  0.000000  1
  Ir  Ir28  1  0.279911  0.000000  0.000000  1
  Ir  Ir29  1  0.624648  0.807435  0.500000  1
  Ir  Ir30  1  0.192565  0.817213  0.500000  1
  Ir  Ir31  1  0.182787  0.375352  0.500000  1
  Ir  Ir32  1  0.375352  0.182787  0.500000  1
  Ir  Ir33  1  0.807435  0.624648  0.500000  1
  Ir  Ir34  1  0.817213  0.192565  0.500000  1
  Ir  Ir35  1  0.000000  0.000000  0.500000  1
