# generated using pymatgen
data_Tm12CoTc2Ni2Hg
_symmetry_space_group_name_H-M   'P 1'
_cell_length_a   8.19929399
_cell_length_b   8.20658949
_cell_length_c   8.19929384
_cell_angle_alpha   110.98948368
_cell_angle_beta   112.55374466
_cell_angle_gamma   104.93396234
_symmetry_Int_Tables_number   1
_chemical_formula_structural   Tm12CoTc2Ni2Hg
_chemical_formula_sum   'Tm12 Co1 Tc2 Ni2 Hg1'
_cell_volume   422.83271937
_cell_formula_units_Z   1
loop_
 _symmetry_equiv_pos_site_id
 _symmetry_equiv_pos_as_xyz
  1  'x, y, z'
loop_
 _atom_site_type_symbol
 _atom_site_label
 _atom_site_symmetry_multiplicity
 _atom_site_fract_x
 _atom_site_fract_y
 _atom_site_fract_z
 _atom_site_occupancy
  Tm  Tm0  1  0.272139  0.182282  0.451565  1
  Tm  Tm1  1  0.726748  0.819905  0.543645  1
  Tm  Tm2  1  0.276259  0.819905  0.093155  1
  Tm  Tm3  1  0.730717  0.182282  0.910143  1
  Tm  Tm4  1  0.615878  0.305310  0.300209  1
  Tm  Tm5  1  0.383270  0.679890  0.693591  1
  Tm  Tm6  1  0.005100  0.305310  0.689432  1
  Tm  Tm7  1  0.986298  0.679890  0.296618  1
  Tm  Tm8  1  0.231940  0.423321  0.191382  1
  Tm  Tm9  1  0.770987  0.576062  0.805074  1
  Tm  Tm10  1  0.231182  0.036830  0.805649  1
  Tm  Tm11  1  0.769688  0.961146  0.191457  1
  Co  Co12  1  0.610284  0.106780  0.496496  1
  Tc  Tc13  1  0.001081  0.382290  0.381209  1
  Tc  Tc14  1  0.002059  0.002497  0.000438  1
  Ni  Ni15  1  0.001382  0.654622  0.653241  1
  Ni  Ni16  1  0.383828  0.883441  0.499614  1
  Hg  Hg17  1  0.501158  0.498242  0.997084  1
