# generated using pymatgen
data_DyY2B6Ir7Os
_symmetry_space_group_name_H-M   'P 1'
_cell_length_a   10.00282596
_cell_length_b   9.17984877
_cell_length_c   5.58213749
_cell_angle_alpha   81.37284819
_cell_angle_beta   65.14055979
_cell_angle_gamma   33.48659730
_symmetry_Int_Tables_number   1
_chemical_formula_structural   DyY2B6Ir7Os
_chemical_formula_sum   'Dy1 Y2 B6 Ir7 Os1'
_cell_volume   235.10132376
_cell_formula_units_Z   1
loop_
 _symmetry_equiv_pos_site_id
 _symmetry_equiv_pos_as_xyz
  1  'x, y, z'
loop_
 _atom_site_type_symbol
 _atom_site_label
 _atom_site_symmetry_multiplicity
 _atom_site_fract_x
 _atom_site_fract_y
 _atom_site_fract_z
 _atom_site_occupancy
  Dy  Dy0  1  0.000000  0.000000  0.000000  1
  Y  Y1  1  0.178925  0.178925  0.821075  1
  Y  Y2  1  0.821075  0.821075  0.178925  1
  B  B3  1  0.821478  0.528900  0.482951  1
  B  B4  1  0.166670  0.482951  0.528900  1
  B  B5  1  0.482951  0.166670  0.821478  1
  B  B6  1  0.670396  0.329604  0.670396  1
  B  B7  1  0.528900  0.821478  0.166670  1
  B  B8  1  0.329604  0.670396  0.329604  1
  Ir  Ir9  1  0.414229  0.414229  0.585771  1
  Ir  Ir10  1  0.585628  0.585628  0.914372  1
  Ir  Ir11  1  0.085908  0.085908  0.414092  1
  Ir  Ir12  1  0.914372  0.914372  0.585628  1
  Ir  Ir13  1  0.585771  0.585771  0.414229  1
  Ir  Ir14  1  0.250000  0.250000  0.250000  1
  Ir  Ir15  1  0.414092  0.414092  0.085908  1
  Os  Os16  1  0.750000  0.750000  0.750000  1
