# generated using pymatgen
data_Y3Er(PS4)4
_symmetry_space_group_name_H-M   'P 1'
_cell_length_a   8.81530648
_cell_length_b   6.56096203
_cell_length_c   12.77851500
_cell_angle_alpha   89.99492622
_cell_angle_beta   120.87693385
_cell_angle_gamma   90.00233401
_symmetry_Int_Tables_number   1
_chemical_formula_structural   Y3Er(PS4)4
_chemical_formula_sum   'Y3 Er1 P4 S16'
_cell_volume   634.32241190
_cell_formula_units_Z   1
loop_
 _symmetry_equiv_pos_site_id
 _symmetry_equiv_pos_as_xyz
  1  'x, y, z'
loop_
 _atom_site_type_symbol
 _atom_site_label
 _atom_site_symmetry_multiplicity
 _atom_site_fract_x
 _atom_site_fract_y
 _atom_site_fract_z
 _atom_site_occupancy
  Y  Y0  1  0.443466  0.818304  0.335257  1
  Y  Y1  1  0.556759  0.181847  0.664400  1
  Y  Y2  1  0.443312  0.681590  0.835796  1
  Er  Er3  1  0.556731  0.319437  0.164553  1
  P  P4  1  0.312953  0.769580  0.039286  1
  P  P5  1  0.687535  0.269925  0.460161  1
  P  P6  1  0.311916  0.730134  0.538989  1
  P  P7  1  0.687504  0.230349  0.961549  1
  S  S8  1  0.575316  0.730102  0.088816  1
  S  S9  1  0.282873  0.037820  0.112528  1
  S  S10  1  0.263439  0.549032  0.133303  1
  S  S11  1  0.843678  0.246688  0.144083  1
  S  S12  1  0.154288  0.746077  0.356743  1
  S  S13  1  0.736731  0.051239  0.365029  1
  S  S14  1  0.718261  0.536389  0.385686  1
  S  S15  1  0.425241  0.233131  0.411771  1
  S  S16  1  0.574717  0.766737  0.588278  1
  S  S17  1  0.280476  0.462837  0.612398  1
  S  S18  1  0.261906  0.950138  0.633079  1
  S  S19  1  0.845558  0.254014  0.642526  1
  S  S20  1  0.154472  0.754252  0.857126  1
  S  S21  1  0.738010  0.449707  0.867306  1
  S  S22  1  0.719520  0.963509  0.888137  1
  S  S23  1  0.425334  0.267164  0.913200  1
