# generated using pymatgen
data_Sm2Ni9P7Pd3
_symmetry_space_group_name_H-M   'P 1'
_cell_length_a   9.21556800
_cell_length_b   9.21556714
_cell_length_c   3.80722500
_cell_angle_alpha   90.00000000
_cell_angle_beta   90.00000000
_cell_angle_gamma   120.00000310
_symmetry_Int_Tables_number   1
_chemical_formula_structural   Sm2Ni9P7Pd3
_chemical_formula_sum   'Sm2 Ni9 P7 Pd3'
_cell_volume   280.01631567
_cell_formula_units_Z   1
loop_
 _symmetry_equiv_pos_site_id
 _symmetry_equiv_pos_as_xyz
  1  'x, y, z'
loop_
 _atom_site_type_symbol
 _atom_site_label
 _atom_site_symmetry_multiplicity
 _atom_site_fract_x
 _atom_site_fract_y
 _atom_site_fract_z
 _atom_site_occupancy
  Sm  Sm0  1  0.333333  0.666667  0.000000  1
  Sm  Sm1  1  0.666667  0.333333  0.500000  1
  Ni  Ni2  1  0.723035  0.877589  0.000000  1
  Ni  Ni3  1  0.154554  0.276965  0.000000  1
  Ni  Ni4  1  0.122411  0.845446  0.000000  1
  Ni  Ni5  1  0.632152  0.569926  0.000000  1
  Ni  Ni6  1  0.937774  0.367848  0.000000  1
  Ni  Ni7  1  0.430074  0.062226  0.000000  1
  Ni  Ni8  1  0.561848  0.946498  0.500000  1
  Ni  Ni9  1  0.384650  0.438152  0.500000  1
  Ni  Ni10  1  0.053502  0.615350  0.500000  1
  P  P11  1  0.590442  0.706462  0.500000  1
  P  P12  1  0.116020  0.409558  0.500000  1
  P  P13  1  0.293538  0.883980  0.500000  1
  P  P14  1  0.000000  0.000000  0.000000  1
  P  P15  1  0.895659  0.586702  0.000000  1
  P  P16  1  0.691043  0.104341  0.000000  1
  P  P17  1  0.413298  0.308957  0.000000  1
  Pd  Pd18  1  0.877552  0.776531  0.500000  1
  Pd  Pd19  1  0.898979  0.122448  0.500000  1
  Pd  Pd20  1  0.223469  0.101021  0.500000  1
