# generated using pymatgen
data_La3Nd15(BiO)10
_symmetry_space_group_name_H-M   'P 1'
_cell_length_a   10.39734338
_cell_length_b   10.40867065
_cell_length_c   9.36971119
_cell_angle_alpha   89.94038360
_cell_angle_beta   89.92651589
_cell_angle_gamma   90.02451730
_symmetry_Int_Tables_number   1
_chemical_formula_structural   La3Nd15(BiO)10
_chemical_formula_sum   'La3 Nd15 Bi10 O10'
_cell_volume   1014.01230731
_cell_formula_units_Z   1
loop_
 _symmetry_equiv_pos_site_id
 _symmetry_equiv_pos_as_xyz
  1  'x, y, z'
loop_
 _atom_site_type_symbol
 _atom_site_label
 _atom_site_symmetry_multiplicity
 _atom_site_fract_x
 _atom_site_fract_y
 _atom_site_fract_z
 _atom_site_occupancy
  La  La0  1  0.271213  0.080517  0.001837  1
  La  La1  1  0.728061  0.918494  0.002330  1
  La  La2  1  0.581508  0.229283  0.002172  1
  Nd  Nd3  1  0.000142  0.500164  0.327983  1
  Nd  Nd4  1  0.499120  0.998437  0.671805  1
  Nd  Nd5  1  0.796172  0.105746  0.341815  1
  Nd  Nd6  1  0.603821  0.704466  0.340387  1
  Nd  Nd7  1  0.394132  0.296250  0.342448  1
  Nd  Nd8  1  0.205000  0.893656  0.341518  1
  Nd  Nd9  1  0.706767  0.397088  0.658323  1
  Nd  Nd10  1  0.896823  0.793530  0.658576  1
  Nd  Nd11  1  0.103014  0.206629  0.658145  1
  Nd  Nd12  1  0.294612  0.604358  0.659372  1
  Nd  Nd13  1  0.082798  0.724523  0.998495  1
  Nd  Nd14  1  0.225449  0.418751  0.998282  1
  Nd  Nd15  1  0.774755  0.581891  0.998514  1
  Nd  Nd16  1  0.918466  0.275867  0.998793  1
  Nd  Nd17  1  0.418167  0.772379  0.001105  1
  Bi  Bi18  1  0.000451  0.500336  0.686588  1
  Bi  Bi19  1  0.500157  0.000620  0.313373  1
  Bi  Bi20  1  0.695745  0.404306  0.301573  1
  Bi  Bi21  1  0.903931  0.803995  0.301739  1
  Bi  Bi22  1  0.096163  0.195804  0.301620  1
  Bi  Bi23  1  0.304118  0.596198  0.300606  1
  Bi  Bi24  1  0.804168  0.096881  0.698544  1
  Bi  Bi25  1  0.596738  0.695181  0.699054  1
  Bi  Bi26  1  0.403407  0.304581  0.698478  1
  Bi  Bi27  1  0.194504  0.903332  0.698049  1
  O  O28  1  0.999955  0.500129  0.066396  1
  O  O29  1  0.497762  0.995307  0.928885  1
  O  O30  1  0.880312  0.773290  0.912304  1
  O  O31  1  0.274888  0.620545  0.912569  1
  O  O32  1  0.726277  0.380197  0.911927  1
  O  O33  1  0.120165  0.226928  0.911738  1
  O  O34  1  0.620821  0.723446  0.087992  1
  O  O35  1  0.225148  0.877004  0.088036  1
  O  O36  1  0.777140  0.122382  0.089324  1
  O  O37  1  0.378129  0.277509  0.089308  1
