# generated using pymatgen
data_Ho3Er7Os4
_symmetry_space_group_name_H-M   'P 1'
_cell_length_a   6.30848125
_cell_length_b   7.32575556
_cell_length_c   8.36646418
_cell_angle_alpha   96.94139893
_cell_angle_beta   112.18582411
_cell_angle_gamma   90.02459025
_symmetry_Int_Tables_number   1
_chemical_formula_structural   Ho3Er7Os4
_chemical_formula_sum   'Ho3 Er7 Os4'
_cell_volume   354.95415866
_cell_formula_units_Z   1
loop_
 _symmetry_equiv_pos_site_id
 _symmetry_equiv_pos_as_xyz
  1  'x, y, z'
loop_
 _atom_site_type_symbol
 _atom_site_label
 _atom_site_symmetry_multiplicity
 _atom_site_fract_x
 _atom_site_fract_y
 _atom_site_fract_z
 _atom_site_occupancy
  Ho  Ho0  1  0.792289  0.583932  0.815873  1
  Ho  Ho1  1  0.976176  0.916019  0.183740  1
  Ho  Ho2  1  0.207780  0.416020  0.184006  1
  Er  Er3  1  0.023706  0.084112  0.816249  1
  Er  Er4  1  0.203787  0.683460  0.564576  1
  Er  Er5  1  0.639671  0.816635  0.435780  1
  Er  Er6  1  0.796250  0.316488  0.435514  1
  Er  Er7  1  0.360330  0.183469  0.564415  1
  Er  Er8  1  0.420482  0.749881  0.999850  1
  Er  Er9  1  0.579362  0.250123  0.000027  1
  Os  Os10  1  0.602259  0.923147  0.780064  1
  Os  Os11  1  0.821738  0.577158  0.219907  1
  Os  Os12  1  0.398049  0.076930  0.219867  1
  Os  Os13  1  0.178121  0.422627  0.780131  1
