# generated using pymatgen
data_Sr4GaSn8Au7
_symmetry_space_group_name_H-M   'P 1'
_cell_length_a   4.74765700
_cell_length_b   4.74765700
_cell_length_c   23.13150700
_cell_angle_alpha   90.00000000
_cell_angle_beta   90.00000000
_cell_angle_gamma   90.00000000
_symmetry_Int_Tables_number   1
_chemical_formula_structural   Sr4GaSn8Au7
_chemical_formula_sum   'Sr4 Ga1 Sn8 Au7'
_cell_volume   521.38988102
_cell_formula_units_Z   1
loop_
 _symmetry_equiv_pos_site_id
 _symmetry_equiv_pos_as_xyz
  1  'x, y, z'
loop_
 _atom_site_type_symbol
 _atom_site_label
 _atom_site_symmetry_multiplicity
 _atom_site_fract_x
 _atom_site_fract_y
 _atom_site_fract_z
 _atom_site_occupancy
  Sr  Sr0  1  0.500000  0.000000  0.875558  1
  Sr  Sr1  1  0.500000  0.000000  0.383698  1
  Sr  Sr2  1  0.000000  0.500000  0.124442  1
  Sr  Sr3  1  0.000000  0.500000  0.616302  1
  Ga  Ga4  1  0.500000  0.500000  0.000000  1
  Sn  Sn5  1  0.500000  0.000000  0.066183  1
  Sn  Sn6  1  0.500000  0.000000  0.564034  1
  Sn  Sn7  1  0.000000  0.500000  0.933817  1
  Sn  Sn8  1  0.000000  0.500000  0.435966  1
  Sn  Sn9  1  0.500000  0.500000  0.746923  1
  Sn  Sn10  1  0.500000  0.500000  0.253077  1
  Sn  Sn11  1  0.000000  0.000000  0.747328  1
  Sn  Sn12  1  0.000000  0.000000  0.252672  1
  Au  Au13  1  0.500000  0.000000  0.182846  1
  Au  Au14  1  0.500000  0.000000  0.679955  1
  Au  Au15  1  0.000000  0.500000  0.817154  1
  Au  Au16  1  0.000000  0.500000  0.320045  1
  Au  Au17  1  0.500000  0.500000  0.500000  1
  Au  Au18  1  0.000000  0.000000  0.000000  1
  Au  Au19  1  0.000000  0.000000  0.500000  1
