# generated using pymatgen
data_Tb2Yb6SiPd24
_symmetry_space_group_name_H-M   'P 1'
_cell_length_a   8.29103728
_cell_length_b   8.29103756
_cell_length_c   8.29103700
_cell_angle_alpha   89.98516992
_cell_angle_beta   90.01483008
_cell_angle_gamma   90.01483392
_symmetry_Int_Tables_number   1
_chemical_formula_structural   Tb2Yb6SiPd24
_chemical_formula_sum   'Tb2 Yb6 Si1 Pd24'
_cell_volume   569.93661642
_cell_formula_units_Z   1
loop_
 _symmetry_equiv_pos_site_id
 _symmetry_equiv_pos_as_xyz
  1  'x, y, z'
loop_
 _atom_site_type_symbol
 _atom_site_label
 _atom_site_symmetry_multiplicity
 _atom_site_fract_x
 _atom_site_fract_y
 _atom_site_fract_z
 _atom_site_occupancy
  Tb  Tb0  1  0.253322  0.746678  0.746678  1
  Tb  Tb1  1  0.746678  0.253322  0.253322  1
  Yb  Yb2  1  0.252756  0.252693  0.252693  1
  Yb  Yb3  1  0.747244  0.747307  0.747307  1
  Yb  Yb4  1  0.747307  0.747244  0.252693  1
  Yb  Yb5  1  0.747307  0.252693  0.747244  1
  Yb  Yb6  1  0.252693  0.252756  0.747307  1
  Yb  Yb7  1  0.252693  0.747307  0.252756  1
  Si  Si8  1  0.000000  0.000000  0.000000  1
  Pd  Pd9  1  0.257616  0.499612  0.000707  1
  Pd  Pd10  1  0.742384  0.500388  0.999293  1
  Pd  Pd11  1  0.000707  0.257616  0.500388  1
  Pd  Pd12  1  0.499612  0.257616  0.999293  1
  Pd  Pd13  1  0.999293  0.742384  0.499612  1
  Pd  Pd14  1  0.500388  0.742384  0.000707  1
  Pd  Pd15  1  0.499612  0.999293  0.257616  1
  Pd  Pd16  1  0.257616  0.000707  0.499612  1
  Pd  Pd17  1  0.500388  0.000707  0.742384  1
  Pd  Pd18  1  0.742384  0.999293  0.500388  1
  Pd  Pd19  1  0.000707  0.500388  0.257616  1
  Pd  Pd20  1  0.999293  0.499612  0.742384  1
  Pd  Pd21  1  0.252285  0.499224  0.499224  1
  Pd  Pd22  1  0.747715  0.500776  0.500776  1
  Pd  Pd23  1  0.499224  0.252285  0.500776  1
  Pd  Pd24  1  0.500776  0.747715  0.499224  1
  Pd  Pd25  1  0.499224  0.500776  0.252285  1
  Pd  Pd26  1  0.500776  0.499224  0.747715  1
  Pd  Pd27  1  0.281248  0.000924  0.000924  1
  Pd  Pd28  1  0.718752  0.999076  0.999076  1
  Pd  Pd29  1  0.000924  0.281248  0.999076  1
  Pd  Pd30  1  0.999076  0.718752  0.000924  1
  Pd  Pd31  1  0.000924  0.999076  0.281248  1
  Pd  Pd32  1  0.999076  0.000924  0.718752  1
