# generated using pymatgen
data_Ho7Er3Rh4
_symmetry_space_group_name_H-M   'P 1'
_cell_length_a   6.36599581
_cell_length_b   7.14111080
_cell_length_c   8.56980000
_cell_angle_alpha   96.99263196
_cell_angle_beta   111.67564657
_cell_angle_gamma   89.94604239
_symmetry_Int_Tables_number   1
_chemical_formula_structural   Ho7Er3Rh4
_chemical_formula_sum   'Ho7 Er3 Rh4'
_cell_volume   358.93535551
_cell_formula_units_Z   1
loop_
 _symmetry_equiv_pos_site_id
 _symmetry_equiv_pos_as_xyz
  1  'x, y, z'
loop_
 _atom_site_type_symbol
 _atom_site_label
 _atom_site_symmetry_multiplicity
 _atom_site_fract_x
 _atom_site_fract_y
 _atom_site_fract_z
 _atom_site_occupancy
  Ho  Ho0  1  0.791752  0.082084  0.812672  1
  Ho  Ho1  1  0.979254  0.418438  0.188196  1
  Ho  Ho2  1  0.208011  0.917572  0.187752  1
  Ho  Ho3  1  0.021141  0.581928  0.811864  1
  Ho  Ho4  1  0.209318  0.187212  0.562317  1
  Ho  Ho5  1  0.646921  0.312983  0.437734  1
  Ho  Ho6  1  0.790625  0.812730  0.437576  1
  Er  Er7  1  0.353584  0.687138  0.563310  1
  Er  Er8  1  0.423454  0.249988  0.000148  1
  Er  Er9  1  0.576106  0.749724  0.999484  1
  Rh  Rh10  1  0.595724  0.426749  0.778826  1
  Rh  Rh11  1  0.816761  0.073525  0.219685  1
  Rh  Rh12  1  0.403774  0.573875  0.221285  1
  Rh  Rh13  1  0.183574  0.926055  0.779154  1
