# generated using pymatgen
data_Cs2RbErAs2
_symmetry_space_group_name_H-M   'P 1'
_cell_length_a   9.95457486
_cell_length_b   9.95457405
_cell_length_c   9.95457489
_cell_angle_alpha   130.58019072
_cell_angle_beta   136.37288534
_cell_angle_gamma   68.01542031
_symmetry_Int_Tables_number   1
_chemical_formula_structural   Cs2RbErAs2
_chemical_formula_sum   'Cs4 Rb2 Er2 As4'
_cell_volume   508.07211698
_cell_formula_units_Z   2
loop_
 _symmetry_equiv_pos_site_id
 _symmetry_equiv_pos_as_xyz
  1  'x, y, z'
loop_
 _atom_site_type_symbol
 _atom_site_label
 _atom_site_symmetry_multiplicity
 _atom_site_fract_x
 _atom_site_fract_y
 _atom_site_fract_z
 _atom_site_occupancy
  Cs  Cs0  1  0.689318  0.465671  0.776354  1
  Cs  Cs1  1  0.810682  0.087036  0.276354  1
  Cs  Cs2  1  0.189318  0.912964  0.723646  1
  Cs  Cs3  1  0.310682  0.534329  0.223646  1
  Rb  Rb4  1  0.750000  0.000000  0.750000  1
  Rb  Rb5  1  0.250000  0.000000  0.250000  1
  Er  Er6  1  0.250000  0.500000  0.750000  1
  Er  Er7  1  0.750000  0.500000  0.250000  1
  As  As8  1  0.409007  0.223046  0.814040  1
  As  As9  1  0.590993  0.776954  0.185960  1
  As  As10  1  0.090993  0.405033  0.314040  1
  As  As11  1  0.909007  0.594967  0.685960  1
