# generated using pymatgen
data_LiDyLu2(Co4P3)2
_symmetry_space_group_name_H-M   'P 1'
_cell_length_a   3.69021700
_cell_length_b   10.52605100
_cell_length_c   12.10872600
_cell_angle_alpha   90.00000000
_cell_angle_beta   90.00000000
_cell_angle_gamma   90.00000000
_symmetry_Int_Tables_number   1
_chemical_formula_structural   LiDyLu2(Co4P3)2
_chemical_formula_sum   'Li2 Dy2 Lu4 Co16 P12'
_cell_volume   470.34423697
_cell_formula_units_Z   2
loop_
 _symmetry_equiv_pos_site_id
 _symmetry_equiv_pos_as_xyz
  1  'x, y, z'
loop_
 _atom_site_type_symbol
 _atom_site_label
 _atom_site_symmetry_multiplicity
 _atom_site_fract_x
 _atom_site_fract_y
 _atom_site_fract_z
 _atom_site_occupancy
  Li  Li0  1  0.500000  0.500000  0.152865  1
  Li  Li1  1  0.000000  0.000000  0.847135  1
  Dy  Dy2  1  0.000000  0.500000  0.523482  1
  Dy  Dy3  1  0.500000  0.000000  0.476518  1
  Lu  Lu4  1  0.500000  0.820444  0.205727  1
  Lu  Lu5  1  0.500000  0.179556  0.205727  1
  Lu  Lu6  1  0.000000  0.679556  0.794273  1
  Lu  Lu7  1  0.000000  0.320444  0.794273  1
  Co  Co8  1  0.500000  0.500000  0.706235  1
  Co  Co9  1  0.000000  0.000000  0.293765  1
  Co  Co10  1  0.000000  0.500000  0.987756  1
  Co  Co11  1  0.500000  0.000000  0.012244  1
  Co  Co12  1  0.500000  0.332460  0.997357  1
  Co  Co13  1  0.500000  0.667540  0.997357  1
  Co  Co14  1  0.000000  0.167540  0.002643  1
  Co  Co15  1  0.000000  0.832460  0.002643  1
  Co  Co16  1  0.500000  0.296355  0.430718  1
  Co  Co17  1  0.500000  0.703645  0.430718  1
  Co  Co18  1  0.000000  0.203645  0.569282  1
  Co  Co19  1  0.000000  0.796355  0.569282  1
  Co  Co20  1  0.500000  0.877836  0.707642  1
  Co  Co21  1  0.500000  0.122164  0.707642  1
  Co  Co22  1  0.000000  0.622164  0.292358  1
  Co  Co23  1  0.000000  0.377836  0.292358  1
  P  P24  1  0.500000  0.500000  0.885132  1
  P  P25  1  0.000000  0.000000  0.114868  1
  P  P26  1  0.500000  0.500000  0.345685  1
  P  P27  1  0.000000  0.000000  0.654315  1
  P  P28  1  0.500000  0.310252  0.617522  1
  P  P29  1  0.500000  0.689748  0.617522  1
  P  P30  1  0.000000  0.189748  0.382478  1
  P  P31  1  0.000000  0.810252  0.382478  1
  P  P32  1  0.500000  0.842092  0.891938  1
  P  P33  1  0.500000  0.157908  0.891938  1
  P  P34  1  0.000000  0.657908  0.108062  1
  P  P35  1  0.000000  0.342092  0.108062  1
