# generated using pymatgen
data_DyHo11CdCo5
_symmetry_space_group_name_H-M   'P 1'
_cell_length_a   8.23727601
_cell_length_b   8.23727423
_cell_length_c   8.23488619
_cell_angle_alpha   107.51673130
_cell_angle_beta   110.28470174
_cell_angle_gamma   110.64142661
_symmetry_Int_Tables_number   1
_chemical_formula_structural   DyHo11CdCo5
_chemical_formula_sum   'Dy1 Ho11 Cd1 Co5'
_cell_volume   429.69289278
_cell_formula_units_Z   1
loop_
 _symmetry_equiv_pos_site_id
 _symmetry_equiv_pos_as_xyz
  1  'x, y, z'
loop_
 _atom_site_type_symbol
 _atom_site_label
 _atom_site_symmetry_multiplicity
 _atom_site_fract_x
 _atom_site_fract_y
 _atom_site_fract_z
 _atom_site_occupancy
  Dy  Dy0  1  0.806827  0.209513  0.016342  1
  Ho  Ho1  1  0.473411  0.289971  0.183730  1
  Ho  Ho2  1  0.106561  0.290327  0.816003  1
  Ho  Ho3  1  0.893759  0.710318  0.183730  1
  Ho  Ho4  1  0.525676  0.709444  0.816003  1
  Ho  Ho5  1  0.303986  0.619481  0.315942  1
  Ho  Ho6  1  0.303165  0.987751  0.684145  1
  Ho  Ho7  1  0.696396  0.380980  0.684145  1
  Ho  Ho8  1  0.696460  0.011955  0.315942  1
  Ho  Ho9  1  0.193676  0.209843  0.403519  1
  Ho  Ho10  1  0.806752  0.790375  0.597126  1
  Ho  Ho11  1  0.193562  0.790183  0.983743  1
  Cd  Cd12  1  0.000113  0.500197  0.500310  1
  Co  Co13  1  0.499950  0.613606  0.113556  1
  Co  Co14  1  0.499511  0.386343  0.885854  1
  Co  Co15  1  0.376894  0.000128  0.377022  1
  Co  Co16  1  0.622475  0.999954  0.622429  1
  Co  Co17  1  0.000828  0.999630  0.000458  1
