# generated using pymatgen
data_DySc(SiTe3)2
_symmetry_space_group_name_H-M   'P 1'
_cell_length_a   7.11052700
_cell_length_b   7.11052624
_cell_length_c   7.63074100
_cell_angle_alpha   90.00000000
_cell_angle_beta   90.00000000
_cell_angle_gamma   119.99998960
_symmetry_Int_Tables_number   1
_chemical_formula_structural   DySc(SiTe3)2
_chemical_formula_sum   'Dy1 Sc1 Si2 Te6'
_cell_volume   334.11880803
_cell_formula_units_Z   1
loop_
 _symmetry_equiv_pos_site_id
 _symmetry_equiv_pos_as_xyz
  1  'x, y, z'
loop_
 _atom_site_type_symbol
 _atom_site_label
 _atom_site_symmetry_multiplicity
 _atom_site_fract_x
 _atom_site_fract_y
 _atom_site_fract_z
 _atom_site_occupancy
  Dy  Dy0  1  0.333333  0.666667  0.500000  1
  Sc  Sc1  1  0.666667  0.333333  0.500000  1
  Si  Si2  1  0.000000  0.000000  0.348921  1
  Si  Si3  1  0.000000  0.000000  0.651079  1
  Te  Te4  1  0.984002  0.653244  0.247569  1
  Te  Te5  1  0.346756  0.330757  0.247569  1
  Te  Te6  1  0.984002  0.330757  0.752431  1
  Te  Te7  1  0.346756  0.015998  0.752431  1
  Te  Te8  1  0.669243  0.015998  0.247569  1
  Te  Te9  1  0.669243  0.653244  0.752431  1
