# generated using pymatgen
data_Sr8ScTc3O16
_symmetry_space_group_name_H-M   'P 1'
_cell_length_a   5.61073929
_cell_length_b   8.97950234
_cell_length_c   8.97961693
_cell_angle_alpha   88.57506450
_cell_angle_beta   71.80657360
_cell_angle_gamma   108.19433483
_symmetry_Int_Tables_number   1
_chemical_formula_structural   Sr8ScTc3O16
_chemical_formula_sum   'Sr8 Sc1 Tc3 O16'
_cell_volume   404.53299188
_cell_formula_units_Z   1
loop_
 _symmetry_equiv_pos_site_id
 _symmetry_equiv_pos_as_xyz
  1  'x, y, z'
loop_
 _atom_site_type_symbol
 _atom_site_label
 _atom_site_symmetry_multiplicity
 _atom_site_fract_x
 _atom_site_fract_y
 _atom_site_fract_z
 _atom_site_occupancy
  Sr  Sr0  1  0.252185  0.400199  0.895033  1
  Sr  Sr1  1  0.999957  0.646966  0.646926  1
  Sr  Sr2  1  0.747684  0.894875  0.400374  1
  Sr  Sr3  1  0.500044  0.148445  0.148312  1
  Sr  Sr4  1  0.000051  0.353010  0.353092  1
  Sr  Sr5  1  0.747832  0.599813  0.104956  1
  Sr  Sr6  1  0.499939  0.851533  0.851711  1
  Sr  Sr7  1  0.252294  0.105116  0.599632  1
  Sc  Sc8  1  0.499972  0.499976  0.500020  1
  Tc  Tc9  1  0.254269  0.754104  0.245934  1
  Tc  Tc10  1  0.999948  0.999964  0.000043  1
  Tc  Tc11  1  0.745778  0.245932  0.754031  1
  O  O12  1  0.251692  0.590307  0.086790  1
  O  O13  1  0.999737  0.837749  0.838238  1
  O  O14  1  0.748794  0.087170  0.589921  1
  O  O15  1  0.499611  0.334087  0.334517  1
  O  O16  1  0.000284  0.162289  0.161734  1
  O  O17  1  0.748303  0.409707  0.913186  1
  O  O18  1  0.500375  0.665921  0.665468  1
  O  O19  1  0.251217  0.912821  0.410096  1
  O  O20  1  0.877644  0.124697  0.875080  1
  O  O21  1  0.620948  0.367821  0.632327  1
  O  O22  1  0.379082  0.632156  0.367667  1
  O  O23  1  0.122346  0.875334  0.124912  1
  O  O24  1  0.374294  0.122138  0.877570  1
  O  O25  1  0.110651  0.371264  0.629031  1
  O  O26  1  0.889314  0.628721  0.370980  1
  O  O27  1  0.625753  0.877887  0.122415  1
