# generated using pymatgen
data_Rb2Zn(SiO3)2
_symmetry_space_group_name_H-M   'P 1'
_cell_length_a   5.92376472
_cell_length_b   5.92376402
_cell_length_c   10.60835500
_cell_angle_alpha   90.00000000
_cell_angle_beta   90.00000000
_cell_angle_gamma   111.37050041
_symmetry_Int_Tables_number   1
_chemical_formula_structural   Rb2Zn(SiO3)2
_chemical_formula_sum   'Rb4 Zn2 Si4 O12'
_cell_volume   346.66250838
_cell_formula_units_Z   2
loop_
 _symmetry_equiv_pos_site_id
 _symmetry_equiv_pos_as_xyz
  1  'x, y, z'
loop_
 _atom_site_type_symbol
 _atom_site_label
 _atom_site_symmetry_multiplicity
 _atom_site_fract_x
 _atom_site_fract_y
 _atom_site_fract_z
 _atom_site_occupancy
  Rb  Rb0  1  0.277981  0.936217  0.577799  1
  Rb  Rb1  1  0.063783  0.722019  0.922201  1
  Rb  Rb2  1  0.722019  0.063783  0.077799  1
  Rb  Rb3  1  0.936217  0.277981  0.422201  1
  Zn  Zn4  1  0.192174  0.807826  0.250000  1
  Zn  Zn5  1  0.807826  0.192174  0.750000  1
  Si  Si6  1  0.368615  0.330384  0.860909  1
  Si  Si7  1  0.330384  0.368615  0.139091  1
  Si  Si8  1  0.669616  0.631385  0.639091  1
  Si  Si9  1  0.631385  0.669616  0.360909  1
  O  O10  1  0.544563  0.455437  0.250000  1
  O  O11  1  0.508853  0.870580  0.336039  1
  O  O12  1  0.528871  0.528871  0.500000  1
  O  O13  1  0.870580  0.508853  0.663961  1
  O  O14  1  0.491147  0.129420  0.836039  1
  O  O15  1  0.074325  0.220148  0.866792  1
  O  O16  1  0.925675  0.779853  0.366792  1
  O  O17  1  0.455437  0.544563  0.750000  1
  O  O18  1  0.129420  0.491147  0.163961  1
  O  O19  1  0.220147  0.074325  0.133208  1
  O  O20  1  0.779852  0.925675  0.633208  1
  O  O21  1  0.471129  0.471129  0.000000  1
