# generated using pymatgen
data_DyTm19(CoSb2)4
_symmetry_space_group_name_H-M   'P 1'
_cell_length_a   7.77934703
_cell_length_b   8.69154500
_cell_length_c   12.03881004
_cell_angle_alpha   90.00000000
_cell_angle_beta   90.00984097
_cell_angle_gamma   90.00000000
_symmetry_Int_Tables_number   1
_chemical_formula_structural   DyTm19(CoSb2)4
_chemical_formula_sum   'Dy1 Tm19 Co4 Sb8'
_cell_volume   813.99864872
_cell_formula_units_Z   1
loop_
 _symmetry_equiv_pos_site_id
 _symmetry_equiv_pos_as_xyz
  1  'x, y, z'
loop_
 _atom_site_type_symbol
 _atom_site_label
 _atom_site_symmetry_multiplicity
 _atom_site_fract_x
 _atom_site_fract_y
 _atom_site_fract_z
 _atom_site_occupancy
  Dy  Dy0  1  0.120529  0.250000  0.192895  1
  Tm  Tm1  1  0.155401  0.750000  0.202715  1
  Tm  Tm2  1  0.344632  0.750000  0.702527  1
  Tm  Tm3  1  0.844607  0.250000  0.797312  1
  Tm  Tm4  1  0.655125  0.250000  0.297441  1
  Tm  Tm5  1  0.451936  0.750000  0.998445  1
  Tm  Tm6  1  0.048694  0.750000  0.498552  1
  Tm  Tm7  1  0.548691  0.250000  0.001550  1
  Tm  Tm8  1  0.951472  0.250000  0.501660  1
  Tm  Tm9  1  0.619459  0.750000  0.308105  1
  Tm  Tm10  1  0.880440  0.750000  0.808041  1
  Tm  Tm11  1  0.380492  0.250000  0.691856  1
  Tm  Tm12  1  0.822528  0.537480  0.064767  1
  Tm  Tm13  1  0.676847  0.963470  0.564849  1
  Tm  Tm14  1  0.176995  0.036003  0.934681  1
  Tm  Tm15  1  0.323170  0.463409  0.435208  1
  Tm  Tm16  1  0.176995  0.463997  0.934681  1
  Tm  Tm17  1  0.323170  0.036591  0.435208  1
  Tm  Tm18  1  0.822528  0.962520  0.064767  1
  Tm  Tm19  1  0.676847  0.536530  0.564849  1
  Co  Co20  1  0.433076  0.750000  0.490769  1
  Co  Co21  1  0.066851  0.750000  0.990704  1
  Co  Co22  1  0.566879  0.250000  0.509269  1
  Co  Co23  1  0.932621  0.250000  0.008709  1
  Sb  Sb24  1  0.928541  0.509737  0.327498  1
  Sb  Sb25  1  0.570688  0.990916  0.827232  1
  Sb  Sb26  1  0.070734  0.009135  0.672771  1
  Sb  Sb27  1  0.430045  0.491316  0.172718  1
  Sb  Sb28  1  0.070734  0.490865  0.672771  1
  Sb  Sb29  1  0.430045  0.008684  0.172718  1
  Sb  Sb30  1  0.928541  0.990263  0.327498  1
  Sb  Sb31  1  0.570688  0.509084  0.827232  1
