# generated using pymatgen
data_Dy7HoReTc2RuC8
_symmetry_space_group_name_H-M   'P 1'
_cell_length_a   5.10262600
_cell_length_b   6.57299600
_cell_length_c   9.87924900
_cell_angle_alpha   89.99796026
_cell_angle_beta   90.00000000
_cell_angle_gamma   90.00000000
_symmetry_Int_Tables_number   1
_chemical_formula_structural   Dy7HoReTc2RuC8
_chemical_formula_sum   'Dy7 Ho1 Re1 Tc2 Ru1 C8'
_cell_volume   331.34546985
_cell_formula_units_Z   1
loop_
 _symmetry_equiv_pos_site_id
 _symmetry_equiv_pos_as_xyz
  1  'x, y, z'
loop_
 _atom_site_type_symbol
 _atom_site_label
 _atom_site_symmetry_multiplicity
 _atom_site_fract_x
 _atom_site_fract_y
 _atom_site_fract_z
 _atom_site_occupancy
  Dy  Dy0  1  0.250000  0.465087  0.784909  1
  Dy  Dy1  1  0.750000  0.032670  0.284565  1
  Dy  Dy2  1  0.250000  0.967807  0.713768  1
  Dy  Dy3  1  0.750000  0.531768  0.215170  1
  Dy  Dy4  1  0.250000  0.822823  0.056581  1
  Dy  Dy5  1  0.750000  0.673538  0.556005  1
  Dy  Dy6  1  0.250000  0.322694  0.442593  1
  Ho  Ho7  1  0.750000  0.177939  0.941908  1
  Re  Re8  1  0.750000  0.719698  0.865220  1
  Tc  Tc9  1  0.250000  0.280439  0.133851  1
  Tc  Tc10  1  0.250000  0.780457  0.365249  1
  Ru  Ru11  1  0.750000  0.220162  0.635143  1
  C  C12  1  0.250000  0.178427  0.950418  1
  C  C13  1  0.750000  0.822138  0.049221  1
  C  C14  1  0.250000  0.679296  0.549277  1
  C  C15  1  0.750000  0.323003  0.452286  1
  C  C16  1  0.250000  0.047407  0.258510  1
  C  C17  1  0.750000  0.454325  0.760821  1
  C  C18  1  0.250000  0.547958  0.240877  1
  C  C19  1  0.750000  0.952363  0.743630  1
