# generated using pymatgen
data_Pr3Mg(PPt)4
_symmetry_space_group_name_H-M   'P 1'
_cell_length_a   4.11408200
_cell_length_b   4.11408105
_cell_length_c   16.25079600
_cell_angle_alpha   90.00000000
_cell_angle_beta   90.00000000
_cell_angle_gamma   119.99999160
_symmetry_Int_Tables_number   1
_chemical_formula_structural   Pr3Mg(PPt)4
_chemical_formula_sum   'Pr3 Mg1 P4 Pt4'
_cell_volume   238.20512078
_cell_formula_units_Z   1
loop_
 _symmetry_equiv_pos_site_id
 _symmetry_equiv_pos_as_xyz
  1  'x, y, z'
loop_
 _atom_site_type_symbol
 _atom_site_label
 _atom_site_symmetry_multiplicity
 _atom_site_fract_x
 _atom_site_fract_y
 _atom_site_fract_z
 _atom_site_occupancy
  Pr  Pr0  1  0.000000  0.000000  0.513815  1
  Pr  Pr1  1  0.000000  0.000000  0.986185  1
  Pr  Pr2  1  0.000000  0.000000  0.250000  1
  Mg  Mg3  1  0.000000  0.000000  0.750000  1
  P  P4  1  0.333333  0.666667  0.871055  1
  P  P5  1  0.666667  0.333333  0.120640  1
  P  P6  1  0.666667  0.333333  0.379360  1
  P  P7  1  0.333333  0.666667  0.628945  1
  Pt  Pt8  1  0.333333  0.666667  0.380608  1
  Pt  Pt9  1  0.666667  0.333333  0.651879  1
  Pt  Pt10  1  0.666667  0.333333  0.848121  1
  Pt  Pt11  1  0.333333  0.666667  0.119392  1
