# generated using pymatgen
data_Dy6Ho3TmRu4
_symmetry_space_group_name_H-M   'P 1'
_cell_length_a   6.33660961
_cell_length_b   7.26950964
_cell_length_c   8.47754505
_cell_angle_alpha   96.67665666
_cell_angle_beta   111.94578835
_cell_angle_gamma   90.00000138
_symmetry_Int_Tables_number   1
_chemical_formula_structural   Dy6Ho3TmRu4
_chemical_formula_sum   'Dy6 Ho3 Tm1 Ru4'
_cell_volume   359.35594510
_cell_formula_units_Z   1
loop_
 _symmetry_equiv_pos_site_id
 _symmetry_equiv_pos_as_xyz
  1  'x, y, z'
loop_
 _atom_site_type_symbol
 _atom_site_label
 _atom_site_symmetry_multiplicity
 _atom_site_fract_x
 _atom_site_fract_y
 _atom_site_fract_z
 _atom_site_occupancy
  Dy  Dy0  1  0.791659  0.083396  0.813656  1
  Dy  Dy1  1  0.978001  0.416604  0.186344  1
  Dy  Dy2  1  0.208022  0.915058  0.186310  1
  Dy  Dy3  1  0.021712  0.584942  0.813690  1
  Dy  Dy4  1  0.206670  0.184631  0.566072  1
  Dy  Dy5  1  0.640598  0.315369  0.433928  1
  Ho  Ho6  1  0.793452  0.815016  0.433202  1
  Ho  Ho7  1  0.360250  0.684984  0.566798  1
  Ho  Ho8  1  0.420755  0.250000  0.000000  1
  Tm  Tm9  1  0.578224  0.750000  0.000000  1
  Ru  Ru10  1  0.603226  0.425124  0.780780  1
  Ru  Ru11  1  0.822444  0.074876  0.219220  1
  Ru  Ru12  1  0.397586  0.576723  0.220185  1
  Ru  Ru13  1  0.177402  0.923277  0.779815  1
