# generated using pymatgen
data_KRb2FeSe3
_symmetry_space_group_name_H-M   'P 1'
_cell_length_a   10.67369189
_cell_length_b   10.67369218
_cell_length_c   13.53478800
_cell_angle_alpha   90.00000000
_cell_angle_beta   90.00000000
_cell_angle_gamma   140.78368890
_symmetry_Int_Tables_number   1
_chemical_formula_structural   KRb2FeSe3
_chemical_formula_sum   'K4 Rb8 Fe4 Se12'
_cell_volume   974.92129391
_cell_formula_units_Z   4
loop_
 _symmetry_equiv_pos_site_id
 _symmetry_equiv_pos_as_xyz
  1  'x, y, z'
loop_
 _atom_site_type_symbol
 _atom_site_label
 _atom_site_symmetry_multiplicity
 _atom_site_fract_x
 _atom_site_fract_y
 _atom_site_fract_z
 _atom_site_occupancy
  K  K0  1  0.840481  0.840481  0.335946  1
  K  K1  1  0.159519  0.159519  0.664054  1
  K  K2  1  0.659519  0.659519  0.835946  1
  K  K3  1  0.340481  0.340481  0.164054  1
  Rb  Rb4  1  0.838306  0.485741  0.128763  1
  Rb  Rb5  1  0.514259  0.161694  0.871237  1
  Rb  Rb6  1  0.014259  0.661694  0.628763  1
  Rb  Rb7  1  0.338306  0.985741  0.371237  1
  Rb  Rb8  1  0.161694  0.514259  0.871237  1
  Rb  Rb9  1  0.485741  0.838306  0.128763  1
  Rb  Rb10  1  0.985741  0.338306  0.371237  1
  Rb  Rb11  1  0.661694  0.014259  0.628763  1
  Fe  Fe12  1  0.081244  0.918756  0.000000  1
  Fe  Fe13  1  0.581244  0.418756  0.500000  1
  Fe  Fe14  1  0.918756  0.081244  0.000000  1
  Fe  Fe15  1  0.418756  0.581244  0.500000  1
  Se  Se16  1  0.015005  0.311960  0.116240  1
  Se  Se17  1  0.688040  0.984995  0.883760  1
  Se  Se18  1  0.188040  0.484995  0.616240  1
  Se  Se19  1  0.515005  0.811960  0.383760  1
  Se  Se20  1  0.984995  0.688040  0.883760  1
  Se  Se21  1  0.311960  0.015005  0.116240  1
  Se  Se22  1  0.811960  0.515005  0.383760  1
  Se  Se23  1  0.484995  0.188040  0.616240  1
  Se  Se24  1  0.790806  0.790806  0.083967  1
  Se  Se25  1  0.209194  0.209194  0.916033  1
  Se  Se26  1  0.709194  0.709194  0.583967  1
  Se  Se27  1  0.290806  0.290806  0.416033  1
