# generated using pymatgen
data_Y3ErCo8(PRu)12
_symmetry_space_group_name_H-M   'P 1'
_cell_length_a   3.79390300
_cell_length_b   10.61465412
_cell_length_c   12.14643607
_cell_angle_alpha   89.98520120
_cell_angle_beta   90.00000000
_cell_angle_gamma   90.00000000
_symmetry_Int_Tables_number   1
_chemical_formula_structural   Y3ErCo8(PRu)12
_chemical_formula_sum   'Y3 Er1 Co8 P12 Ru12'
_cell_volume   489.14872328
_cell_formula_units_Z   1
loop_
 _symmetry_equiv_pos_site_id
 _symmetry_equiv_pos_as_xyz
  1  'x, y, z'
loop_
 _atom_site_type_symbol
 _atom_site_label
 _atom_site_symmetry_multiplicity
 _atom_site_fract_x
 _atom_site_fract_y
 _atom_site_fract_z
 _atom_site_occupancy
  Y  Y0  1  0.250000  0.584249  0.706739  1
  Y  Y1  1  0.250000  0.915794  0.206642  1
  Y  Y2  1  0.750000  0.415651  0.293254  1
  Er  Er3  1  0.750000  0.084634  0.793543  1
  Co  Co4  1  0.250000  0.888194  0.696037  1
  Co  Co5  1  0.250000  0.612460  0.195201  1
  Co  Co6  1  0.750000  0.112548  0.304936  1
  Co  Co7  1  0.750000  0.387239  0.804562  1
  Co  Co8  1  0.250000  0.462580  0.935062  1
  Co  Co9  1  0.250000  0.037100  0.435886  1
  Co  Co10  1  0.750000  0.537118  0.064596  1
  Co  Co11  1  0.750000  0.963064  0.565343  1
  P  P12  1  0.250000  0.425581  0.112265  1
  P  P13  1  0.250000  0.074173  0.613356  1
  P  P14  1  0.750000  0.574277  0.887452  1
  P  P15  1  0.750000  0.925700  0.387974  1
  P  P16  1  0.250000  0.271399  0.871198  1
  P  P17  1  0.250000  0.228008  0.371680  1
  P  P18  1  0.750000  0.728187  0.128176  1
  P  P19  1  0.750000  0.771708  0.628317  1
  P  P20  1  0.250000  0.601559  0.387148  1
  P  P21  1  0.250000  0.899220  0.886528  1
  P  P22  1  0.750000  0.398437  0.612853  1
  P  P23  1  0.750000  0.101533  0.112844  1
  Ru  Ru24  1  0.250000  0.706274  0.985704  1
  Ru  Ru25  1  0.250000  0.794027  0.486201  1
  Ru  Ru26  1  0.750000  0.293745  0.013777  1
  Ru  Ru27  1  0.750000  0.206031  0.514330  1
  Ru  Ru28  1  0.250000  0.405128  0.486214  1
  Ru  Ru29  1  0.250000  0.094701  0.985060  1
  Ru  Ru30  1  0.750000  0.594696  0.513832  1
  Ru  Ru31  1  0.750000  0.905681  0.013425  1
  Ru  Ru32  1  0.250000  0.223273  0.180392  1
  Ru  Ru33  1  0.250000  0.275578  0.680850  1
  Ru  Ru34  1  0.750000  0.776615  0.819257  1
  Ru  Ru35  1  0.750000  0.723840  0.319367  1
