# generated using pymatgen
data_Sr(AuCl4)2
_symmetry_space_group_name_H-M   'P 1'
_cell_length_a   12.23556386
_cell_length_b   7.51512707
_cell_length_c   7.77015796
_cell_angle_alpha   89.84000829
_cell_angle_beta   81.36894227
_cell_angle_gamma   90.02215012
_symmetry_Int_Tables_number   1
_chemical_formula_structural   Sr(AuCl4)2
_chemical_formula_sum   'Sr2 Au4 Cl16'
_cell_volume   706.38579582
_cell_formula_units_Z   2
loop_
 _symmetry_equiv_pos_site_id
 _symmetry_equiv_pos_as_xyz
  1  'x, y, z'
loop_
 _atom_site_type_symbol
 _atom_site_label
 _atom_site_symmetry_multiplicity
 _atom_site_fract_x
 _atom_site_fract_y
 _atom_site_fract_z
 _atom_site_occupancy
  Sr  Sr0  1  0.750291  0.803528  0.499959  1
  Sr  Sr1  1  0.249447  0.196275  0.500226  1
  Au  Au2  1  0.135636  0.769023  0.268725  1
  Au  Au3  1  0.635865  0.232527  0.269260  1
  Au  Au4  1  0.364026  0.767273  0.731138  1
  Au  Au5  1  0.864469  0.231141  0.730801  1
  Cl  Cl6  1  0.581884  0.937307  0.281619  1
  Cl  Cl7  1  0.081317  0.063978  0.280582  1
  Cl  Cl8  1  0.194756  0.475170  0.242459  1
  Cl  Cl9  1  0.694560  0.526754  0.242181  1
  Cl  Cl10  1  0.456295  0.326909  0.250783  1
  Cl  Cl11  1  0.956176  0.673849  0.250498  1
  Cl  Cl12  1  0.816081  0.136217  0.276512  1
  Cl  Cl13  1  0.315753  0.866212  0.275454  1
  Cl  Cl14  1  0.684328  0.133814  0.725078  1
  Cl  Cl15  1  0.183739  0.863251  0.723798  1
  Cl  Cl16  1  0.044006  0.326697  0.748232  1
  Cl  Cl17  1  0.543650  0.673315  0.749770  1
  Cl  Cl18  1  0.305595  0.472918  0.758174  1
  Cl  Cl19  1  0.805353  0.524969  0.757676  1
  Cl  Cl20  1  0.918956  0.936271  0.718358  1
  Cl  Cl21  1  0.417815  0.062608  0.718719  1
