# generated using pymatgen
data_CaYbDy4(Si3Os)8
_symmetry_space_group_name_H-M   'P 1'
_cell_length_a   10.14549367
_cell_length_b   10.14605297
_cell_length_c   8.17018930
_cell_angle_alpha   89.98052172
_cell_angle_beta   90.01911064
_cell_angle_gamma   132.48824211
_symmetry_Int_Tables_number   1
_chemical_formula_structural   CaYbDy4(Si3Os)8
_chemical_formula_sum   'Ca1 Yb1 Dy4 Si24 Os8'
_cell_volume   620.17596791
_cell_formula_units_Z   1
loop_
 _symmetry_equiv_pos_site_id
 _symmetry_equiv_pos_as_xyz
  1  'x, y, z'
loop_
 _atom_site_type_symbol
 _atom_site_label
 _atom_site_symmetry_multiplicity
 _atom_site_fract_x
 _atom_site_fract_y
 _atom_site_fract_z
 _atom_site_occupancy
  Ca  Ca0  1  0.499752  0.999814  0.749829  1
  Yb  Yb1  1  0.500295  0.500223  0.500142  1
  Dy  Dy2  1  0.000316  0.000360  0.999567  1
  Dy  Dy3  1  0.001893  0.501924  0.250384  1
  Dy  Dy4  1  0.498258  0.998267  0.250469  1
  Dy  Dy5  1  0.001831  0.501804  0.749500  1
  Si  Si6  1  0.795475  0.202377  0.500993  1
  Si  Si7  1  0.297063  0.705576  0.998303  1
  Si  Si8  1  0.205395  0.797471  0.501718  1
  Si  Si9  1  0.702807  0.295409  0.999091  1
  Si  Si10  1  0.332656  0.336865  0.830782  1
  Si  Si11  1  0.663307  0.669175  0.168756  1
  Si  Si12  1  0.172688  0.166027  0.334447  1
  Si  Si13  1  0.833792  0.829062  0.665880  1
  Si  Si14  1  0.120997  0.886403  0.728682  1
  Si  Si15  1  0.111895  0.878069  0.272835  1
  Si  Si16  1  0.608257  0.376187  0.229886  1
  Si  Si17  1  0.624563  0.391622  0.768644  1
  Si  Si18  1  0.875463  0.108873  0.271917  1
  Si  Si19  1  0.891135  0.125405  0.729623  1
  Si  Si20  1  0.387099  0.620685  0.769360  1
  Si  Si21  1  0.378591  0.611323  0.229060  1
  Si  Si22  1  0.347342  0.114486  0.502848  1
  Si  Si23  1  0.886111  0.653890  0.495790  1
  Si  Si24  1  0.387047  0.152868  0.007536  1
  Si  Si25  1  0.844578  0.612009  0.992959  1
  Si  Si26  1  0.651333  0.884066  0.491931  1
  Si  Si27  1  0.114935  0.345971  0.507511  1
  Si  Si28  1  0.611582  0.845855  0.997488  1
  Si  Si29  1  0.155295  0.388971  0.004008  1
  Os  Os30  1  0.673053  0.330179  0.497680  1
  Os  Os31  1  0.167011  0.827929  0.002294  1
  Os  Os32  1  0.327037  0.667699  0.497646  1
  Os  Os33  1  0.830815  0.172285  0.002378  1
  Os  Os34  1  0.125423  0.125211  0.628756  1
  Os  Os35  1  0.874718  0.875211  0.372033  1
  Os  Os36  1  0.372108  0.371845  0.125017  1
  Os  Os37  1  0.628084  0.628605  0.874256  1
