# generated using pymatgen
data_Er12Th4CdHg3Ir4
_symmetry_space_group_name_H-M   'P 1'
_cell_length_a   9.66267512
_cell_length_b   9.67210628
_cell_length_c   9.67210700
_cell_angle_alpha   60.00000096
_cell_angle_beta   59.96770854
_cell_angle_gamma   59.96771293
_symmetry_Int_Tables_number   1
_chemical_formula_structural   Er12Th4CdHg3Ir4
_chemical_formula_sum   'Er12 Th4 Cd1 Hg3 Ir4'
_cell_volume   638.86986699
_cell_formula_units_Z   1
loop_
 _symmetry_equiv_pos_site_id
 _symmetry_equiv_pos_as_xyz
  1  'x, y, z'
loop_
 _atom_site_type_symbol
 _atom_site_label
 _atom_site_symmetry_multiplicity
 _atom_site_fract_x
 _atom_site_fract_y
 _atom_site_fract_z
 _atom_site_occupancy
  Er  Er0  1  0.062428  0.437560  0.437560  1
  Er  Er1  1  0.436972  0.062678  0.062678  1
  Er  Er2  1  0.436972  0.062678  0.437671  1
  Er  Er3  1  0.062428  0.437560  0.062452  1
  Er  Er4  1  0.436972  0.437671  0.062678  1
  Er  Er5  1  0.062428  0.062452  0.437560  1
  Er  Er6  1  0.183955  0.815016  0.815016  1
  Er  Er7  1  0.814773  0.185218  0.185218  1
  Er  Er8  1  0.814773  0.185218  0.814790  1
  Er  Er9  1  0.183955  0.815016  0.186013  1
  Er  Er10  1  0.814773  0.814790  0.185218  1
  Er  Er11  1  0.183955  0.186013  0.815016  1
  Th  Th12  1  0.601677  0.601337  0.601337  1
  Th  Th13  1  0.601677  0.601337  0.195649  1
  Th  Th14  1  0.601677  0.195649  0.601337  1
  Th  Th15  1  0.194417  0.601861  0.601861  1
  Cd  Cd16  1  0.499831  0.833390  0.833390  1
  Hg  Hg17  1  0.835581  0.837151  0.837151  1
  Hg  Hg18  1  0.835581  0.837151  0.490117  1
  Hg  Hg19  1  0.835581  0.490117  0.837151  1
  Ir  Ir20  1  0.392792  0.392896  0.392896  1
  Ir  Ir21  1  0.392792  0.392896  0.821413  1
  Ir  Ir22  1  0.392792  0.821413  0.392896  1
  Ir  Ir23  1  0.821216  0.392927  0.392927  1
