# generated using pymatgen
data_NdY2Ti(Co4P3)2
_symmetry_space_group_name_H-M   'P 1'
_cell_length_a   3.71830100
_cell_length_b   10.64890800
_cell_length_c   12.33924100
_cell_angle_alpha   90.00000000
_cell_angle_beta   90.00000000
_cell_angle_gamma   90.00000000
_symmetry_Int_Tables_number   1
_chemical_formula_structural   NdY2Ti(Co4P3)2
_chemical_formula_sum   'Nd2 Y4 Ti2 Co16 P12'
_cell_volume   488.58267733
_cell_formula_units_Z   2
loop_
 _symmetry_equiv_pos_site_id
 _symmetry_equiv_pos_as_xyz
  1  'x, y, z'
loop_
 _atom_site_type_symbol
 _atom_site_label
 _atom_site_symmetry_multiplicity
 _atom_site_fract_x
 _atom_site_fract_y
 _atom_site_fract_z
 _atom_site_occupancy
  Nd  Nd0  1  0.000000  0.500000  0.526427  1
  Nd  Nd1  1  0.500000  0.000000  0.473573  1
  Y  Y2  1  0.500000  0.819726  0.203655  1
  Y  Y3  1  0.500000  0.180274  0.203655  1
  Y  Y4  1  0.000000  0.680274  0.796345  1
  Y  Y5  1  0.000000  0.319726  0.796345  1
  Ti  Ti6  1  0.500000  0.500000  0.151799  1
  Ti  Ti7  1  0.000000  0.000000  0.848201  1
  Co  Co8  1  0.500000  0.500000  0.705709  1
  Co  Co9  1  0.000000  0.000000  0.294291  1
  Co  Co10  1  0.000000  0.500000  0.987656  1
  Co  Co11  1  0.500000  0.000000  0.012344  1
  Co  Co12  1  0.500000  0.332016  0.994195  1
  Co  Co13  1  0.500000  0.667984  0.994195  1
  Co  Co14  1  0.000000  0.167984  0.005805  1
  Co  Co15  1  0.000000  0.832016  0.005805  1
  Co  Co16  1  0.500000  0.295525  0.430887  1
  Co  Co17  1  0.500000  0.704475  0.430887  1
  Co  Co18  1  0.000000  0.204475  0.569113  1
  Co  Co19  1  0.000000  0.795525  0.569113  1
  Co  Co20  1  0.500000  0.878988  0.707647  1
  Co  Co21  1  0.500000  0.121012  0.707647  1
  Co  Co22  1  0.000000  0.621012  0.292353  1
  Co  Co23  1  0.000000  0.378988  0.292353  1
  P  P24  1  0.500000  0.500000  0.884500  1
  P  P25  1  0.000000  0.000000  0.115500  1
  P  P26  1  0.500000  0.500000  0.349688  1
  P  P27  1  0.000000  0.000000  0.650312  1
  P  P28  1  0.500000  0.307280  0.616865  1
  P  P29  1  0.500000  0.692720  0.616865  1
  P  P30  1  0.000000  0.192720  0.383135  1
  P  P31  1  0.000000  0.807280  0.383135  1
  P  P32  1  0.500000  0.843101  0.892743  1
  P  P33  1  0.500000  0.156899  0.892743  1
  P  P34  1  0.000000  0.656899  0.107257  1
  P  P35  1  0.000000  0.343101  0.107257  1
