# generated using pymatgen
data_Sm2Mg(PRh2)6
_symmetry_space_group_name_H-M   'P 1'
_cell_length_a   3.90352701
_cell_length_b   9.74518601
_cell_length_c   9.74429308
_cell_angle_alpha   119.99071070
_cell_angle_beta   89.99763460
_cell_angle_gamma   89.99477927
_symmetry_Int_Tables_number   1
_chemical_formula_structural   Sm2Mg(PRh2)6
_chemical_formula_sum   'Sm2 Mg1 P6 Rh12'
_cell_volume   321.04723379
_cell_formula_units_Z   1
loop_
 _symmetry_equiv_pos_site_id
 _symmetry_equiv_pos_as_xyz
  1  'x, y, z'
loop_
 _atom_site_type_symbol
 _atom_site_label
 _atom_site_symmetry_multiplicity
 _atom_site_fract_x
 _atom_site_fract_y
 _atom_site_fract_z
 _atom_site_occupancy
  Sm  Sm0  1  0.246371  0.666704  0.333413  1
  Sm  Sm1  1  0.753629  0.333296  0.666587  1
  Mg  Mg2  1  0.500000  0.000000  0.000000  1
  P  P3  1  0.746892  0.885081  0.599535  1
  P  P4  1  0.747042  0.400587  0.285593  1
  P  P5  1  0.747068  0.714451  0.115039  1
  P  P6  1  0.253108  0.114919  0.400465  1
  P  P7  1  0.252958  0.599413  0.714407  1
  P  P8  1  0.252932  0.285549  0.884961  1
  Rh  Rh9  1  0.754006  0.127730  0.839495  1
  Rh  Rh10  1  0.754211  0.160533  0.288130  1
  Rh  Rh11  1  0.753988  0.711788  0.872334  1
  Rh  Rh12  1  0.245994  0.872270  0.160505  1
  Rh  Rh13  1  0.245789  0.839467  0.711870  1
  Rh  Rh14  1  0.246012  0.288212  0.127666  1
  Rh  Rh15  1  0.748634  0.612908  0.548622  1
  Rh  Rh16  1  0.748691  0.451503  0.064410  1
  Rh  Rh17  1  0.748707  0.935734  0.387115  1
  Rh  Rh18  1  0.251366  0.387092  0.451378  1
  Rh  Rh19  1  0.251309  0.548497  0.935590  1
  Rh  Rh20  1  0.251293  0.064266  0.612885  1
