# generated using pymatgen
data_Tb9Yb3(PrSi2)8
_symmetry_space_group_name_H-M   'P 1'
_cell_length_a   7.52222059
_cell_length_b   7.87361310
_cell_length_c   14.97377800
_cell_angle_alpha   90.00000000
_cell_angle_beta   90.00000000
_cell_angle_gamma   90.03844732
_symmetry_Int_Tables_number   1
_chemical_formula_structural   Tb9Yb3(PrSi2)8
_chemical_formula_sum   'Tb9 Yb3 Pr8 Si16'
_cell_volume   886.85256673
_cell_formula_units_Z   1
loop_
 _symmetry_equiv_pos_site_id
 _symmetry_equiv_pos_as_xyz
  1  'x, y, z'
loop_
 _atom_site_type_symbol
 _atom_site_label
 _atom_site_symmetry_multiplicity
 _atom_site_fract_x
 _atom_site_fract_y
 _atom_site_fract_z
 _atom_site_occupancy
  Tb  Tb0  1  0.320392  0.182695  0.623138  1
  Tb  Tb1  1  0.677314  0.818127  0.377107  1
  Tb  Tb2  1  0.652018  0.988009  0.750000  1
  Tb  Tb3  1  0.177600  0.682931  0.376805  1
  Tb  Tb4  1  0.823093  0.319161  0.876468  1
  Tb  Tb5  1  0.823093  0.319161  0.623532  1
  Tb  Tb6  1  0.320392  0.182695  0.876862  1
  Tb  Tb7  1  0.177600  0.682931  0.123195  1
  Tb  Tb8  1  0.677314  0.818127  0.122893  1
  Yb  Yb9  1  0.847343  0.488013  0.250000  1
  Yb  Yb10  1  0.348582  0.011949  0.250000  1
  Yb  Yb11  1  0.152926  0.513265  0.750000  1
  Pr  Pr12  1  0.026896  0.181819  0.400317  1
  Pr  Pr13  1  0.526522  0.318207  0.400632  1
  Pr  Pr14  1  0.474035  0.678864  0.901755  1
  Pr  Pr15  1  0.474035  0.678864  0.598245  1
  Pr  Pr16  1  0.976226  0.817561  0.599654  1
  Pr  Pr17  1  0.976226  0.817561  0.900346  1
  Pr  Pr18  1  0.526522  0.318207  0.099368  1
  Pr  Pr19  1  0.026896  0.181819  0.099683  1
  Si  Si20  1  0.271318  0.889435  0.750000  1
  Si  Si21  1  0.468730  0.608186  0.250000  1
  Si  Si22  1  0.025994  0.103920  0.750000  1
  Si  Si23  1  0.531776  0.387102  0.750000  1
  Si  Si24  1  0.146325  0.466863  0.534579  1
  Si  Si25  1  0.968745  0.893255  0.250000  1
  Si  Si26  1  0.735717  0.112336  0.250000  1
  Si  Si27  1  0.852402  0.533618  0.035366  1
  Si  Si28  1  0.353400  0.968231  0.035499  1
  Si  Si29  1  0.146325  0.466863  0.965421  1
  Si  Si30  1  0.645263  0.030954  0.539019  1
  Si  Si31  1  0.353400  0.968231  0.464501  1
  Si  Si32  1  0.852402  0.533618  0.464634  1
  Si  Si33  1  0.761797  0.618661  0.750000  1
  Si  Si34  1  0.236119  0.387812  0.250000  1
  Si  Si35  1  0.645263  0.030954  0.960981  1
