# generated using pymatgen
data_Tm10IrOsPt4
_symmetry_space_group_name_H-M   'P 1'
_cell_length_a   10.90265800
_cell_length_b   10.90265800
_cell_length_c   6.31521400
_cell_angle_alpha   90.00000000
_cell_angle_beta   90.00000000
_cell_angle_gamma   90.00000000
_symmetry_Int_Tables_number   1
_chemical_formula_structural   Tm10IrOsPt4
_chemical_formula_sum   'Tm20 Ir2 Os2 Pt8'
_cell_volume   750.67655124
_cell_formula_units_Z   2
loop_
 _symmetry_equiv_pos_site_id
 _symmetry_equiv_pos_as_xyz
  1  'x, y, z'
loop_
 _atom_site_type_symbol
 _atom_site_label
 _atom_site_symmetry_multiplicity
 _atom_site_fract_x
 _atom_site_fract_y
 _atom_site_fract_z
 _atom_site_occupancy
  Tm  Tm0  1  0.297661  0.085415  0.372564  1
  Tm  Tm1  1  0.297661  0.914585  0.872564  1
  Tm  Tm2  1  0.702339  0.085415  0.872564  1
  Tm  Tm3  1  0.702339  0.914585  0.372564  1
  Tm  Tm4  1  0.585415  0.797661  0.872564  1
  Tm  Tm5  1  0.585415  0.202339  0.372564  1
  Tm  Tm6  1  0.414585  0.797661  0.372564  1
  Tm  Tm7  1  0.414585  0.202339  0.872564  1
  Tm  Tm8  1  0.205392  0.412776  0.626481  1
  Tm  Tm9  1  0.205392  0.587224  0.126481  1
  Tm  Tm10  1  0.794608  0.412776  0.126481  1
  Tm  Tm11  1  0.794608  0.587224  0.626481  1
  Tm  Tm12  1  0.912776  0.705392  0.126481  1
  Tm  Tm13  1  0.912776  0.294608  0.626481  1
  Tm  Tm14  1  0.087224  0.705392  0.626481  1
  Tm  Tm15  1  0.087224  0.294608  0.126481  1
  Tm  Tm16  1  0.000000  0.000000  0.499601  1
  Tm  Tm17  1  0.000000  0.000000  0.999601  1
  Tm  Tm18  1  0.500000  0.500000  0.999601  1
  Tm  Tm19  1  0.500000  0.500000  0.499601  1
  Ir  Ir20  1  0.000000  0.500000  0.878728  1
  Ir  Ir21  1  0.000000  0.500000  0.378728  1
  Os  Os22  1  0.500000  0.000000  0.124877  1
  Os  Os23  1  0.500000  0.000000  0.624877  1
  Pt  Pt24  1  0.847636  0.154334  0.250254  1
  Pt  Pt25  1  0.847636  0.845666  0.750254  1
  Pt  Pt26  1  0.152364  0.154334  0.750254  1
  Pt  Pt27  1  0.152364  0.845666  0.250254  1
  Pt  Pt28  1  0.654334  0.347636  0.750254  1
  Pt  Pt29  1  0.654334  0.652364  0.250254  1
  Pt  Pt30  1  0.345666  0.347636  0.250254  1
  Pt  Pt31  1  0.345666  0.652364  0.750254  1
