# generated using pymatgen
data_ZnCd2AsI3
_symmetry_space_group_name_H-M   'P 1'
_cell_length_a   4.37281900
_cell_length_b   7.43919727
_cell_length_c   7.88382224
_cell_angle_alpha   88.36148690
_cell_angle_beta   90.00000000
_cell_angle_gamma   90.00000000
_symmetry_Int_Tables_number   1
_chemical_formula_structural   ZnCd2AsI3
_chemical_formula_sum   'Zn1 Cd2 As1 I3'
_cell_volume   256.35794986
_cell_formula_units_Z   1
loop_
 _symmetry_equiv_pos_site_id
 _symmetry_equiv_pos_as_xyz
  1  'x, y, z'
loop_
 _atom_site_type_symbol
 _atom_site_label
 _atom_site_symmetry_multiplicity
 _atom_site_fract_x
 _atom_site_fract_y
 _atom_site_fract_z
 _atom_site_occupancy
  Zn  Zn0  1  0.000000  0.944996  0.288713  1
  Cd  Cd1  1  0.500000  0.394757  0.163219  1
  Cd  Cd2  1  0.500000  0.939416  0.871770  1
  As  As3  1  0.500000  0.044259  0.184141  1
  I  I4  1  0.000000  0.056828  0.641450  1
  I  I5  1  0.000000  0.571907  0.351333  1
  I  I6  1  0.500000  0.555836  0.832706  1
