# generated using pymatgen
data_Yb3YIr3PdO14
_symmetry_space_group_name_H-M   'P 1'
_cell_length_a   7.25815394
_cell_length_b   7.22084275
_cell_length_c   7.25815479
_cell_angle_alpha   59.79121429
_cell_angle_beta   60.05392036
_cell_angle_gamma   59.79121066
_symmetry_Int_Tables_number   1
_chemical_formula_structural   Yb3YIr3PdO14
_chemical_formula_sum   'Yb3 Y1 Ir3 Pd1 O14'
_cell_volume   268.23968923
_cell_formula_units_Z   1
loop_
 _symmetry_equiv_pos_site_id
 _symmetry_equiv_pos_as_xyz
  1  'x, y, z'
loop_
 _atom_site_type_symbol
 _atom_site_label
 _atom_site_symmetry_multiplicity
 _atom_site_fract_x
 _atom_site_fract_y
 _atom_site_fract_z
 _atom_site_occupancy
  Yb  Yb0  1  0.625000  0.125000  0.125000  1
  Yb  Yb1  1  0.125000  0.625000  0.125000  1
  Yb  Yb2  1  0.125000  0.125000  0.625000  1
  Y  Y3  1  0.125000  0.125000  0.125000  1
  Ir  Ir4  1  0.125000  0.625000  0.625000  1
  Ir  Ir5  1  0.625000  0.625000  0.125000  1
  Ir  Ir6  1  0.625000  0.625000  0.625000  1
  Pd  Pd7  1  0.625000  0.125000  0.625000  1
  O  O8  1  0.708299  0.691701  0.299407  1
  O  O9  1  0.285596  0.294955  0.712277  1
  O  O10  1  0.708730  0.296827  0.708730  1
  O  O11  1  0.298707  0.697326  0.298707  1
  O  O12  1  0.299407  0.691701  0.708299  1
  O  O13  1  0.712277  0.294955  0.285596  1
  O  O14  1  0.541701  0.558299  0.950593  1
  O  O15  1  0.964404  0.955045  0.537723  1
  O  O16  1  0.541270  0.953173  0.541270  1
  O  O17  1  0.951293  0.552674  0.951293  1
  O  O18  1  0.950593  0.558299  0.541701  1
  O  O19  1  0.537723  0.955045  0.964404  1
  O  O20  1  0.246926  0.248463  0.246926  1
  O  O21  1  0.003074  0.001537  0.003074  1
