# generated using pymatgen
data_Sr5Rh2
_symmetry_space_group_name_H-M   'P 1'
_cell_length_a   9.32786337
_cell_length_b   9.32786361
_cell_length_c   8.06794296
_cell_angle_alpha   83.61218463
_cell_angle_beta   83.61218292
_cell_angle_gamma   44.16009606
_symmetry_Int_Tables_number   1
_chemical_formula_structural   Sr5Rh2
_chemical_formula_sum   'Sr10 Rh4'
_cell_volume   485.51045124
_cell_formula_units_Z   2
loop_
 _symmetry_equiv_pos_site_id
 _symmetry_equiv_pos_as_xyz
  1  'x, y, z'
loop_
 _atom_site_type_symbol
 _atom_site_label
 _atom_site_symmetry_multiplicity
 _atom_site_fract_x
 _atom_site_fract_y
 _atom_site_fract_z
 _atom_site_occupancy
  Sr  Sr0  1  0.016043  0.804444  0.914825  1
  Sr  Sr1  1  0.195556  0.983957  0.585175  1
  Sr  Sr2  1  0.983957  0.195556  0.085175  1
  Sr  Sr3  1  0.804444  0.016043  0.414825  1
  Sr  Sr4  1  0.365278  0.203812  0.823076  1
  Sr  Sr5  1  0.796188  0.634722  0.676924  1
  Sr  Sr6  1  0.634722  0.796188  0.176924  1
  Sr  Sr7  1  0.203812  0.365278  0.323076  1
  Sr  Sr8  1  0.567357  0.432643  0.750000  1
  Sr  Sr9  1  0.432643  0.567357  0.250000  1
  Rh  Rh10  1  0.172253  0.604450  0.582399  1
  Rh  Rh11  1  0.395550  0.827747  0.917601  1
  Rh  Rh12  1  0.827747  0.395550  0.417601  1
  Rh  Rh13  1  0.604450  0.172253  0.082399  1
