# generated using pymatgen
data_La2RhBr
_symmetry_space_group_name_H-M   'P 1'
_cell_length_a   4.16995800
_cell_length_b   4.16995888
_cell_length_c   16.03958900
_cell_angle_alpha   90.00000000
_cell_angle_beta   90.00000000
_cell_angle_gamma   120.00000888
_symmetry_Int_Tables_number   1
_chemical_formula_structural   La2RhBr
_chemical_formula_sum   'La4 Rh2 Br2'
_cell_volume   241.53900990
_cell_formula_units_Z   2
loop_
 _symmetry_equiv_pos_site_id
 _symmetry_equiv_pos_as_xyz
  1  'x, y, z'
loop_
 _atom_site_type_symbol
 _atom_site_label
 _atom_site_symmetry_multiplicity
 _atom_site_fract_x
 _atom_site_fract_y
 _atom_site_fract_z
 _atom_site_occupancy
  La  La0  1  0.333333  0.666667  0.097919  1
  La  La1  1  0.666667  0.333333  0.597919  1
  La  La2  1  0.666667  0.333333  0.902081  1
  La  La3  1  0.333333  0.666667  0.402081  1
  Rh  Rh4  1  0.000000  0.000000  0.000000  1
  Rh  Rh5  1  0.000000  0.000000  0.500000  1
  Br  Br6  1  0.666667  0.333333  0.250000  1
  Br  Br7  1  0.333333  0.666667  0.750000  1
