# generated using pymatgen
data_CeHo2Er5(ReB6)4
_symmetry_space_group_name_H-M   'P 1'
_cell_length_a   3.67571500
_cell_length_b   9.14645880
_cell_length_c   11.52672903
_cell_angle_alpha   90.04049777
_cell_angle_beta   90.00000000
_cell_angle_gamma   90.00000000
_symmetry_Int_Tables_number   1
_chemical_formula_structural   CeHo2Er5(ReB6)4
_chemical_formula_sum   'Ce1 Ho2 Er5 Re4 B24'
_cell_volume   387.52594920
_cell_formula_units_Z   1
loop_
 _symmetry_equiv_pos_site_id
 _symmetry_equiv_pos_as_xyz
  1  'x, y, z'
loop_
 _atom_site_type_symbol
 _atom_site_label
 _atom_site_symmetry_multiplicity
 _atom_site_fract_x
 _atom_site_fract_y
 _atom_site_fract_z
 _atom_site_occupancy
  Ce  Ce0  1  0.000000  0.322818  0.414075  1
  Ho  Ho1  1  0.000000  0.677718  0.586728  1
  Ho  Ho2  1  0.000000  0.822912  0.085369  1
  Er  Er3  1  0.000000  0.176358  0.914058  1
  Er  Er4  1  0.000000  0.942341  0.369907  1
  Er  Er5  1  0.000000  0.056618  0.630600  1
  Er  Er6  1  0.000000  0.443050  0.128729  1
  Er  Er7  1  0.000000  0.557385  0.870544  1
  Re  Re8  1  0.000000  0.638148  0.320589  1
  Re  Re9  1  0.000000  0.361768  0.679395  1
  Re  Re10  1  0.000000  0.138782  0.179274  1
  Re  Re11  1  0.000000  0.861967  0.820974  1
  B  B12  1  0.500000  0.553872  0.432410  1
  B  B13  1  0.500000  0.446548  0.568074  1
  B  B14  1  0.500000  0.053154  0.066515  1
  B  B15  1  0.500000  0.947174  0.933108  1
  B  B16  1  0.500000  0.749785  0.418387  1
  B  B17  1  0.500000  0.250703  0.582994  1
  B  B18  1  0.500000  0.249064  0.080438  1
  B  B19  1  0.500000  0.750683  0.918531  1
  B  B20  1  0.500000  0.792030  0.265084  1
  B  B21  1  0.500000  0.208047  0.735765  1
  B  B22  1  0.500000  0.291181  0.233639  1
  B  B23  1  0.500000  0.708103  0.765355  1
  B  B24  1  0.500000  0.630907  0.184551  1
  B  B25  1  0.500000  0.369839  0.815304  1
  B  B26  1  0.500000  0.130000  0.313862  1
  B  B27  1  0.500000  0.869584  0.685615  1
  B  B28  1  0.500000  0.981654  0.211487  1
  B  B29  1  0.500000  0.018278  0.788359  1
  B  B30  1  0.500000  0.483138  0.287124  1
  B  B31  1  0.500000  0.518504  0.713008  1
  B  B32  1  0.500000  0.600246  0.027613  1
  B  B33  1  0.500000  0.399815  0.971694  1
  B  B34  1  0.500000  0.098531  0.472552  1
  B  B35  1  0.500000  0.899296  0.528287  1
