# generated using pymatgen
data_Lu5P12Ru18Rh
_symmetry_space_group_name_H-M   'P 1'
_cell_length_a   12.50304410
_cell_length_b   12.50304493
_cell_length_c   3.96087800
_cell_angle_alpha   90.00000000
_cell_angle_beta   90.00000000
_cell_angle_gamma   120.30161071
_symmetry_Int_Tables_number   1
_chemical_formula_structural   Lu5P12Ru18Rh
_chemical_formula_sum   'Lu5 P12 Ru18 Rh1'
_cell_volume   534.59598414
_cell_formula_units_Z   1
loop_
 _symmetry_equiv_pos_site_id
 _symmetry_equiv_pos_as_xyz
  1  'x, y, z'
loop_
 _atom_site_type_symbol
 _atom_site_label
 _atom_site_symmetry_multiplicity
 _atom_site_fract_x
 _atom_site_fract_y
 _atom_site_fract_z
 _atom_site_occupancy
  Lu  Lu0  1  0.181637  0.181637  0.500000  1
  Lu  Lu1  1  0.816999  0.999576  0.500000  1
  Lu  Lu2  1  0.999576  0.816999  0.500000  1
  Lu  Lu3  1  0.331728  0.667925  0.000000  1
  Lu  Lu4  1  0.667925  0.331728  0.000000  1
  P  P5  1  0.814492  0.814492  0.000000  1
  P  P6  1  0.183160  0.000932  0.000000  1
  P  P7  1  0.000932  0.183160  0.000000  1
  P  P8  1  0.172444  0.479519  0.500000  1
  P  P9  1  0.520533  0.696415  0.500000  1
  P  P10  1  0.306457  0.830267  0.500000  1
  P  P11  1  0.696415  0.520533  0.500000  1
  P  P12  1  0.830267  0.306457  0.500000  1
  P  P13  1  0.479519  0.172444  0.500000  1
  P  P14  1  0.369149  0.369149  0.000000  1
  P  P15  1  0.627309  0.999739  0.000000  1
  P  P16  1  0.999739  0.627309  0.000000  1
  Ru  Ru17  1  0.445388  0.000816  0.000000  1
  Ru  Ru18  1  0.000816  0.445388  0.000000  1
  Ru  Ru19  1  0.715400  0.715400  0.500000  1
  Ru  Ru20  1  0.281925  0.001527  0.500000  1
  Ru  Ru21  1  0.001527  0.281925  0.500000  1
  Ru  Ru22  1  0.186458  0.377398  0.000000  1
  Ru  Ru23  1  0.622939  0.808595  0.000000  1
  Ru  Ru24  1  0.189845  0.815506  0.000000  1
  Ru  Ru25  1  0.808595  0.622939  0.000000  1
  Ru  Ru26  1  0.815506  0.189845  0.000000  1
  Ru  Ru27  1  0.377398  0.186458  0.000000  1
  Ru  Ru28  1  0.366316  0.493416  0.500000  1
  Ru  Ru29  1  0.507246  0.874629  0.500000  1
  Ru  Ru30  1  0.127943  0.635349  0.500000  1
  Ru  Ru31  1  0.874629  0.507246  0.500000  1
  Ru  Ru32  1  0.635349  0.127943  0.500000  1
  Ru  Ru33  1  0.493416  0.366316  0.500000  1
  Ru  Ru34  1  0.998550  0.998550  0.000000  1
  Rh  Rh35  1  0.552476  0.552476  0.000000  1
