# generated using pymatgen
data_LiEuBPd6
_symmetry_space_group_name_H-M   'P 1'
_cell_length_a   4.29548300
_cell_length_b   4.29548300
_cell_length_c   7.71517700
_cell_angle_alpha   90.00000000
_cell_angle_beta   90.00000000
_cell_angle_gamma   90.00000000
_symmetry_Int_Tables_number   1
_chemical_formula_structural   LiEuBPd6
_chemical_formula_sum   'Li1 Eu1 B1 Pd6'
_cell_volume   142.35407484
_cell_formula_units_Z   1
loop_
 _symmetry_equiv_pos_site_id
 _symmetry_equiv_pos_as_xyz
  1  'x, y, z'
loop_
 _atom_site_type_symbol
 _atom_site_label
 _atom_site_symmetry_multiplicity
 _atom_site_fract_x
 _atom_site_fract_y
 _atom_site_fract_z
 _atom_site_occupancy
  Li  Li0  1  0.000000  0.000000  0.990155  1
  Eu  Eu1  1  0.000000  0.000000  0.506657  1
  B  B2  1  0.500000  0.500000  0.255159  1
  Pd  Pd3  1  0.000000  0.500000  0.221163  1
  Pd  Pd4  1  0.000000  0.500000  0.772447  1
  Pd  Pd5  1  0.500000  0.500000  0.986980  1
  Pd  Pd6  1  0.500000  0.500000  0.523828  1
  Pd  Pd7  1  0.500000  0.000000  0.221163  1
  Pd  Pd8  1  0.500000  0.000000  0.772447  1
