# generated using pymatgen
data_RbFe(SeO3)2
_symmetry_space_group_name_H-M   'P 1'
_cell_length_a   5.51282900
_cell_length_b   8.34410000
_cell_length_c   13.21201205
_cell_angle_alpha   89.99419428
_cell_angle_beta   90.00047411
_cell_angle_gamma   89.99967263
_symmetry_Int_Tables_number   1
_chemical_formula_structural   RbFe(SeO3)2
_chemical_formula_sum   'Rb4 Fe4 Se8 O24'
_cell_volume   607.74721956
_cell_formula_units_Z   4
loop_
 _symmetry_equiv_pos_site_id
 _symmetry_equiv_pos_as_xyz
  1  'x, y, z'
loop_
 _atom_site_type_symbol
 _atom_site_label
 _atom_site_symmetry_multiplicity
 _atom_site_fract_x
 _atom_site_fract_y
 _atom_site_fract_z
 _atom_site_occupancy
  Rb  Rb0  1  0.250006  0.510448  0.875706  1
  Rb  Rb1  1  0.250011  0.989686  0.375704  1
  Rb  Rb2  1  0.750003  0.489660  0.124282  1
  Rb  Rb3  1  0.750002  0.010364  0.624310  1
  Fe  Fe4  1  0.249941  0.805478  0.105612  1
  Fe  Fe5  1  0.749944  0.305492  0.394405  1
  Fe  Fe6  1  0.250006  0.694447  0.605537  1
  Fe  Fe7  1  0.749998  0.194461  0.894433  1
  Se  Se8  1  0.749992  0.014082  0.200693  1
  Se  Se9  1  0.250007  0.985860  0.799321  1
  Se  Se10  1  0.249992  0.514111  0.299299  1
  Se  Se11  1  0.749990  0.798117  0.940805  1
  Se  Se12  1  0.750002  0.701929  0.440736  1
  Se  Se13  1  0.250007  0.201956  0.059258  1
  Se  Se14  1  0.750005  0.485832  0.700683  1
  Se  Se15  1  0.249992  0.298097  0.559202  1
  O  O16  1  0.508880  0.618619  0.705537  1
  O  O17  1  0.008906  0.381310  0.294385  1
  O  O18  1  0.250008  0.005352  0.023346  1
  O  O19  1  0.493584  0.220006  0.492864  1
  O  O20  1  0.250011  0.580566  0.174222  1
  O  O21  1  0.006409  0.220012  0.492860  1
  O  O22  1  0.991078  0.881274  0.205639  1
  O  O23  1  0.250009  0.494706  0.523224  1
  O  O24  1  0.991133  0.618615  0.705536  1
  O  O25  1  0.506459  0.780033  0.507104  1
  O  O26  1  0.750001  0.505334  0.476672  1
  O  O27  1  0.993589  0.720025  0.007143  1
  O  O28  1  0.008884  0.118636  0.794446  1
  O  O29  1  0.250006  0.919426  0.674232  1
  O  O30  1  0.508937  0.881261  0.205630  1
  O  O31  1  0.491077  0.381308  0.294377  1
  O  O32  1  0.993554  0.780031  0.507101  1
  O  O33  1  0.491119  0.118644  0.794445  1
  O  O34  1  0.506420  0.720028  0.007148  1
  O  O35  1  0.750009  0.994715  0.976789  1
  O  O36  1  0.006468  0.280047  0.992884  1
  O  O37  1  0.493543  0.280046  0.992884  1
  O  O38  1  0.750007  0.419422  0.825782  1
  O  O39  1  0.750010  0.080563  0.325769  1
