# generated using pymatgen
data_Tb8Er12Sn3Pb13
_symmetry_space_group_name_H-M   'P 1'
_cell_length_a   8.15125855
_cell_length_b   15.52434000
_cell_length_c   8.19517200
_cell_angle_alpha   90.00000000
_cell_angle_beta   89.89946314
_cell_angle_gamma   90.00000000
_symmetry_Int_Tables_number   1
_chemical_formula_structural   Tb8Er12Sn3Pb13
_chemical_formula_sum   'Tb8 Er12 Sn3 Pb13'
_cell_volume   1037.03930926
_cell_formula_units_Z   1
loop_
 _symmetry_equiv_pos_site_id
 _symmetry_equiv_pos_as_xyz
  1  'x, y, z'
loop_
 _atom_site_type_symbol
 _atom_site_label
 _atom_site_symmetry_multiplicity
 _atom_site_fract_x
 _atom_site_fract_y
 _atom_site_fract_z
 _atom_site_occupancy
  Tb  Tb0  1  0.462789  0.601396  0.672883  1
  Tb  Tb1  1  0.963101  0.898605  0.827459  1
  Tb  Tb2  1  0.536997  0.100785  0.327163  1
  Tb  Tb3  1  0.036702  0.400114  0.176043  1
  Tb  Tb4  1  0.536997  0.399215  0.327163  1
  Tb  Tb5  1  0.036702  0.099886  0.176043  1
  Tb  Tb6  1  0.462789  0.898604  0.672883  1
  Tb  Tb7  1  0.963101  0.601395  0.827459  1
  Er  Er8  1  0.620839  0.623254  0.161500  1
  Er  Er9  1  0.121569  0.876923  0.338179  1
  Er  Er10  1  0.381029  0.122460  0.837992  1
  Er  Er11  1  0.876468  0.378617  0.659438  1
  Er  Er12  1  0.381029  0.377540  0.837992  1
  Er  Er13  1  0.876468  0.121383  0.659438  1
  Er  Er14  1  0.620839  0.876746  0.161500  1
  Er  Er15  1  0.121569  0.623077  0.338179  1
  Er  Er16  1  0.788985  0.750000  0.492300  1
  Er  Er17  1  0.288649  0.750000  0.007668  1
  Er  Er18  1  0.211910  0.250000  0.506156  1
  Er  Er19  1  0.708838  0.250000  0.992821  1
  Sn  Sn20  1  0.425087  0.750000  0.375371  1
  Sn  Sn21  1  0.925582  0.750000  0.125095  1
  Sn  Sn22  1  0.575087  0.250000  0.624560  1
  Pb  Pb23  1  0.717246  0.457973  0.967673  1
  Pb  Pb24  1  0.217238  0.042019  0.533232  1
  Pb  Pb25  1  0.283452  0.958121  0.032410  1
  Pb  Pb26  1  0.783011  0.542397  0.466211  1
  Pb  Pb27  1  0.283452  0.541879  0.032410  1
  Pb  Pb28  1  0.783011  0.957603  0.466211  1
  Pb  Pb29  1  0.717246  0.042027  0.967673  1
  Pb  Pb30  1  0.217238  0.457981  0.533232  1
  Pb  Pb31  1  0.073075  0.250000  0.874524  1
  Pb  Pb32  1  0.652613  0.750000  0.847984  1
  Pb  Pb33  1  0.152883  0.750000  0.652135  1
  Pb  Pb34  1  0.348760  0.250000  0.152924  1
  Pb  Pb35  1  0.847651  0.250000  0.348096  1
