# generated using pymatgen
data_SrHg3Pt2(RhO7)2
_symmetry_space_group_name_H-M   'P 1'
_cell_length_a   7.31929093
_cell_length_b   7.38948273
_cell_length_c   7.30222700
_cell_angle_alpha   60.38983262
_cell_angle_beta   60.07707743
_cell_angle_gamma   60.49672670
_symmetry_Int_Tables_number   1
_chemical_formula_structural   SrHg3Pt2(RhO7)2
_chemical_formula_sum   'Sr1 Hg3 Pt2 Rh2 O14'
_cell_volume   281.29103266
_cell_formula_units_Z   1
loop_
 _symmetry_equiv_pos_site_id
 _symmetry_equiv_pos_as_xyz
  1  'x, y, z'
loop_
 _atom_site_type_symbol
 _atom_site_label
 _atom_site_symmetry_multiplicity
 _atom_site_fract_x
 _atom_site_fract_y
 _atom_site_fract_z
 _atom_site_occupancy
  Sr  Sr0  1  0.125000  0.625000  0.125000  1
  Hg  Hg1  1  0.125000  0.125000  0.125000  1
  Hg  Hg2  1  0.625000  0.125000  0.125000  1
  Hg  Hg3  1  0.125000  0.125000  0.625000  1
  Pt  Pt4  1  0.625000  0.625000  0.125000  1
  Pt  Pt5  1  0.625000  0.625000  0.625000  1
  Rh  Rh6  1  0.625000  0.125000  0.625000  1
  Rh  Rh7  1  0.125000  0.625000  0.625000  1
  O  O8  1  0.699569  0.300478  0.301497  1
  O  O9  1  0.699569  0.300478  0.698455  1
  O  O10  1  0.987196  0.041597  0.985603  1
  O  O11  1  0.299961  0.702198  0.302064  1
  O  O12  1  0.703056  0.704893  0.296025  1
  O  O13  1  0.950039  0.547802  0.554225  1
  O  O14  1  0.299961  0.702198  0.695775  1
  O  O15  1  0.262804  0.208403  0.264397  1
  O  O16  1  0.950039  0.547802  0.947936  1
  O  O17  1  0.550431  0.949522  0.551545  1
  O  O18  1  0.546944  0.545107  0.953975  1
  O  O19  1  0.945294  0.947290  0.553709  1
  O  O20  1  0.550431  0.949522  0.948503  1
  O  O21  1  0.304706  0.302710  0.696291  1
