# generated using pymatgen
data_Lu12ZnCu3NiSn
_symmetry_space_group_name_H-M   'P 1'
_cell_length_a   8.23270659
_cell_length_b   8.23270677
_cell_length_c   8.23270699
_cell_angle_alpha   112.22098063
_cell_angle_beta   110.62221655
_cell_angle_gamma   105.64139647
_symmetry_Int_Tables_number   1
_chemical_formula_structural   Lu12ZnCu3NiSn
_chemical_formula_sum   'Lu12 Zn1 Cu3 Ni1 Sn1'
_cell_volume   428.02587506
_cell_formula_units_Z   1
loop_
 _symmetry_equiv_pos_site_id
 _symmetry_equiv_pos_as_xyz
  1  'x, y, z'
loop_
 _atom_site_type_symbol
 _atom_site_label
 _atom_site_symmetry_multiplicity
 _atom_site_fract_x
 _atom_site_fract_y
 _atom_site_fract_z
 _atom_site_occupancy
  Lu  Lu0  1  0.677016  0.876588  0.199572  1
  Lu  Lu1  1  0.318542  0.514972  0.196430  1
  Lu  Lu2  1  0.822163  0.789123  0.606677  1
  Lu  Lu3  1  0.182447  0.789123  0.966960  1
  Lu  Lu4  1  0.822163  0.215486  0.033040  1
  Lu  Lu5  1  0.182447  0.215486  0.393323  1
  Lu  Lu6  1  0.677016  0.477445  0.800428  1
  Lu  Lu7  1  0.318542  0.122112  0.803570  1
  Lu  Lu8  1  0.569880  0.268282  0.301597  1
  Lu  Lu9  1  0.426765  0.730616  0.696150  1
  Lu  Lu10  1  0.034467  0.730616  0.303850  1
  Lu  Lu11  1  0.966684  0.268282  0.698403  1
  Zn  Zn12  1  0.999420  0.499420  0.500000  1
  Cu  Cu13  1  0.353788  0.500253  0.853535  1
  Cu  Cu14  1  0.646718  0.500253  0.146465  1
  Cu  Cu15  1  0.875760  0.875760  0.000000  1
  Ni  Ni16  1  0.126258  0.126258  0.000000  1
  Sn  Sn17  1  0.499925  0.999925  0.500000  1
