# generated using pymatgen
data_HoTh4Np3N12
_symmetry_space_group_name_H-M   'P 1'
_cell_length_a   5.89177357
_cell_length_b   6.02947951
_cell_length_c   8.47929877
_cell_angle_alpha   90.44801838
_cell_angle_beta   90.02037144
_cell_angle_gamma   89.54052993
_symmetry_Int_Tables_number   1
_chemical_formula_structural   HoTh4Np3N12
_chemical_formula_sum   'Ho1 Th4 Np3 N12'
_cell_volume   301.20248388
_cell_formula_units_Z   1
loop_
 _symmetry_equiv_pos_site_id
 _symmetry_equiv_pos_as_xyz
  1  'x, y, z'
loop_
 _atom_site_type_symbol
 _atom_site_label
 _atom_site_symmetry_multiplicity
 _atom_site_fract_x
 _atom_site_fract_y
 _atom_site_fract_z
 _atom_site_occupancy
  Ho  Ho0  1  0.000000  0.500000  0.000000  1
  Th  Th1  1  0.508542  0.545418  0.246841  1
  Th  Th2  1  0.983232  0.051901  0.246928  1
  Th  Th3  1  0.491458  0.454582  0.753159  1
  Th  Th4  1  0.016768  0.948099  0.753072  1
  Np  Np5  1  0.500000  0.000000  0.500000  1
  Np  Np6  1  0.000000  0.500000  0.500000  1
  Np  Np7  1  0.500000  0.000000  0.000000  1
  N  N8  1  0.374069  0.949466  0.254818  1
  N  N9  1  0.117848  0.451153  0.265863  1
  N  N10  1  0.625931  0.050534  0.745182  1
  N  N11  1  0.882152  0.548847  0.734137  1
  N  N12  1  0.788334  0.821216  0.059666  1
  N  N13  1  0.705516  0.305806  0.434385  1
  N  N14  1  0.210599  0.190185  0.567740  1
  N  N15  1  0.317133  0.705511  0.933687  1
  N  N16  1  0.211666  0.178784  0.940334  1
  N  N17  1  0.294484  0.694194  0.565615  1
  N  N18  1  0.789401  0.809815  0.432260  1
  N  N19  1  0.682867  0.294489  0.066313  1
