# generated using pymatgen
data_Y9TmCd3Cu
_symmetry_space_group_name_H-M   'P 1'
_cell_length_a   9.63639008
_cell_length_b   9.63650460
_cell_length_c   9.86031000
_cell_angle_alpha   90.00000000
_cell_angle_beta   90.00000000
_cell_angle_gamma   119.97900025
_symmetry_Int_Tables_number   1
_chemical_formula_structural   Y9TmCd3Cu
_chemical_formula_sum   'Y18 Tm2 Cd6 Cu2'
_cell_volume   793.13472872
_cell_formula_units_Z   2
loop_
 _symmetry_equiv_pos_site_id
 _symmetry_equiv_pos_as_xyz
  1  'x, y, z'
loop_
 _atom_site_type_symbol
 _atom_site_label
 _atom_site_symmetry_multiplicity
 _atom_site_fract_x
 _atom_site_fract_y
 _atom_site_fract_z
 _atom_site_occupancy
  Y  Y0  1  0.543645  0.456351  0.250000  1
  Y  Y1  1  0.543636  0.087353  0.250000  1
  Y  Y2  1  0.912649  0.456363  0.250000  1
  Y  Y3  1  0.456355  0.543649  0.750000  1
  Y  Y4  1  0.456364  0.912647  0.750000  1
  Y  Y5  1  0.087351  0.543637  0.750000  1
  Y  Y6  1  0.208463  0.791537  0.441393  1
  Y  Y7  1  0.208452  0.416911  0.441394  1
  Y  Y8  1  0.583081  0.791545  0.441390  1
  Y  Y9  1  0.791537  0.208463  0.558607  1
  Y  Y10  1  0.791548  0.583089  0.558606  1
  Y  Y11  1  0.416919  0.208455  0.558610  1
  Y  Y12  1  0.791537  0.208463  0.941393  1
  Y  Y13  1  0.791548  0.583089  0.941394  1
  Y  Y14  1  0.416919  0.208455  0.941390  1
  Y  Y15  1  0.208463  0.791537  0.058607  1
  Y  Y16  1  0.208452  0.416911  0.058606  1
  Y  Y17  1  0.583081  0.791545  0.058610  1
  Tm  Tm18  1  0.000000  0.000000  0.500000  1
  Tm  Tm19  1  0.000000  0.000000  0.000000  1
  Cd  Cd20  1  0.886276  0.113725  0.250000  1
  Cd  Cd21  1  0.886242  0.772536  0.250000  1
  Cd  Cd22  1  0.227460  0.113757  0.250000  1
  Cd  Cd23  1  0.113724  0.886275  0.750000  1
  Cd  Cd24  1  0.113758  0.227464  0.750000  1
  Cd  Cd25  1  0.772540  0.886243  0.750000  1
  Cu  Cu26  1  0.333106  0.666721  0.250000  1
  Cu  Cu27  1  0.666894  0.333279  0.750000  1
