# generated using pymatgen
data_Li2TbNdSi3
_symmetry_space_group_name_H-M   'P 1'
_cell_length_a   9.38246800
_cell_length_b   9.38246735
_cell_length_c   6.78547700
_cell_angle_alpha   90.00000000
_cell_angle_beta   90.00000000
_cell_angle_gamma   153.22614225
_symmetry_Int_Tables_number   1
_chemical_formula_structural   Li2TbNdSi3
_chemical_formula_sum   'Li4 Tb2 Nd2 Si6'
_cell_volume   269.07951531
_cell_formula_units_Z   2
loop_
 _symmetry_equiv_pos_site_id
 _symmetry_equiv_pos_as_xyz
  1  'x, y, z'
loop_
 _atom_site_type_symbol
 _atom_site_label
 _atom_site_symmetry_multiplicity
 _atom_site_fract_x
 _atom_site_fract_y
 _atom_site_fract_z
 _atom_site_occupancy
  Li  Li0  1  0.190004  0.809996  0.059668  1
  Li  Li1  1  0.190004  0.809996  0.440332  1
  Li  Li2  1  0.809996  0.190004  0.940332  1
  Li  Li3  1  0.809996  0.190004  0.559668  1
  Tb  Tb4  1  0.343744  0.656256  0.250000  1
  Tb  Tb5  1  0.656256  0.343744  0.750000  1
  Nd  Nd6  1  0.553226  0.446774  0.250000  1
  Nd  Nd7  1  0.446774  0.553226  0.750000  1
  Si  Si8  1  0.722566  0.277434  0.250000  1
  Si  Si9  1  0.277434  0.722566  0.750000  1
  Si  Si10  1  0.059196  0.940804  0.925534  1
  Si  Si11  1  0.940804  0.059196  0.074466  1
  Si  Si12  1  0.940804  0.059196  0.425534  1
  Si  Si13  1  0.059196  0.940804  0.574466  1
