# generated using pymatgen
data_MgTiB4Ru5
_symmetry_space_group_name_H-M   'P 1'
_cell_length_a   2.96063000
_cell_length_b   8.41171200
_cell_length_c   10.02716707
_cell_angle_alpha   90.69592901
_cell_angle_beta   90.00000000
_cell_angle_gamma   90.00000000
_symmetry_Int_Tables_number   1
_chemical_formula_structural   MgTiB4Ru5
_chemical_formula_sum   'Mg2 Ti2 B8 Ru10'
_cell_volume   249.69781633
_cell_formula_units_Z   2
loop_
 _symmetry_equiv_pos_site_id
 _symmetry_equiv_pos_as_xyz
  1  'x, y, z'
loop_
 _atom_site_type_symbol
 _atom_site_label
 _atom_site_symmetry_multiplicity
 _atom_site_fract_x
 _atom_site_fract_y
 _atom_site_fract_z
 _atom_site_occupancy
  Mg  Mg0  1  0.500000  0.151665  0.681512  1
  Mg  Mg1  1  0.500000  0.848335  0.318488  1
  Ti  Ti2  1  0.500000  0.651472  0.816530  1
  Ti  Ti3  1  0.500000  0.348528  0.183470  1
  B  B4  1  0.500000  0.854975  0.600243  1
  B  B5  1  0.500000  0.145025  0.399757  1
  B  B6  1  0.500000  0.349699  0.895569  1
  B  B7  1  0.500000  0.650301  0.104431  1
  B  B8  1  0.500000  0.961251  0.911032  1
  B  B9  1  0.500000  0.038749  0.088968  1
  B  B10  1  0.500000  0.459780  0.587516  1
  B  B11  1  0.500000  0.540220  0.412484  1
  Ru  Ru12  1  0.000000  0.405135  0.738470  1
  Ru  Ru13  1  0.000000  0.594865  0.261530  1
  Ru  Ru14  1  0.000000  0.892705  0.764344  1
  Ru  Ru15  1  0.000000  0.107295  0.235656  1
  Ru  Ru16  1  0.000000  0.000000  0.500000  1
  Ru  Ru17  1  0.000000  0.500000  0.000000  1
  Ru  Ru18  1  0.000000  0.657550  0.551413  1
  Ru  Ru19  1  0.000000  0.342450  0.448587  1
  Ru  Ru20  1  0.000000  0.160323  0.953371  1
  Ru  Ru21  1  0.000000  0.839677  0.046629  1
