# generated using pymatgen
data_Tb4Nd2ZrCo17P12
_symmetry_space_group_name_H-M   'P 1'
_cell_length_a   3.72715100
_cell_length_b   10.62545400
_cell_length_c   12.36118800
_cell_angle_alpha   90.00000000
_cell_angle_beta   90.00000000
_cell_angle_gamma   90.00000000
_symmetry_Int_Tables_number   1
_chemical_formula_structural   Tb4Nd2ZrCo17P12
_chemical_formula_sum   'Tb4 Nd2 Zr1 Co17 P12'
_cell_volume   489.53606773
_cell_formula_units_Z   1
loop_
 _symmetry_equiv_pos_site_id
 _symmetry_equiv_pos_as_xyz
  1  'x, y, z'
loop_
 _atom_site_type_symbol
 _atom_site_label
 _atom_site_symmetry_multiplicity
 _atom_site_fract_x
 _atom_site_fract_y
 _atom_site_fract_z
 _atom_site_occupancy
  Tb  Tb0  1  0.500000  0.820849  0.206564  1
  Tb  Tb1  1  0.500000  0.179151  0.206564  1
  Tb  Tb2  1  0.000000  0.683452  0.796581  1
  Tb  Tb3  1  0.000000  0.316548  0.796581  1
  Nd  Nd4  1  0.000000  0.500000  0.530206  1
  Nd  Nd5  1  0.500000  0.000000  0.477333  1
  Zr  Zr6  1  0.500000  0.500000  0.152020  1
  Co  Co7  1  0.000000  0.000000  0.839042  1
  Co  Co8  1  0.500000  0.500000  0.705887  1
  Co  Co9  1  0.000000  0.000000  0.293010  1
  Co  Co10  1  0.000000  0.500000  0.982838  1
  Co  Co11  1  0.500000  0.000000  0.012939  1
  Co  Co12  1  0.500000  0.326611  0.988167  1
  Co  Co13  1  0.500000  0.673389  0.988167  1
  Co  Co14  1  0.000000  0.161444  0.001269  1
  Co  Co15  1  0.000000  0.838556  0.001269  1
  Co  Co16  1  0.500000  0.294169  0.433541  1
  Co  Co17  1  0.500000  0.705831  0.433541  1
  Co  Co18  1  0.000000  0.202470  0.571558  1
  Co  Co19  1  0.000000  0.797530  0.571558  1
  Co  Co20  1  0.500000  0.881054  0.710106  1
  Co  Co21  1  0.500000  0.118946  0.710106  1
  Co  Co22  1  0.000000  0.621964  0.296020  1
  Co  Co23  1  0.000000  0.378036  0.296020  1
  P  P24  1  0.500000  0.500000  0.882544  1
  P  P25  1  0.000000  0.000000  0.115010  1
  P  P26  1  0.500000  0.500000  0.357974  1
  P  P27  1  0.000000  0.000000  0.658904  1
  P  P28  1  0.500000  0.305463  0.618989  1
  P  P29  1  0.500000  0.694537  0.618989  1
  P  P30  1  0.000000  0.191593  0.385641  1
  P  P31  1  0.000000  0.808407  0.385641  1
  P  P32  1  0.500000  0.852293  0.889539  1
  P  P33  1  0.500000  0.147707  0.889539  1
  P  P34  1  0.000000  0.664903  0.098170  1
  P  P35  1  0.000000  0.335097  0.098170  1
