# generated using pymatgen
data_Tb3LuSc2MnBi2
_symmetry_space_group_name_H-M   'P 1'
_cell_length_a   8.04588437
_cell_length_b   8.04588422
_cell_length_c   4.28639600
_cell_angle_alpha   90.00000000
_cell_angle_beta   90.00000000
_cell_angle_gamma   119.93304629
_symmetry_Int_Tables_number   1
_chemical_formula_structural   Tb3LuSc2MnBi2
_chemical_formula_sum   'Tb3 Lu1 Sc2 Mn1 Bi2'
_cell_volume   240.47121559
_cell_formula_units_Z   1
loop_
 _symmetry_equiv_pos_site_id
 _symmetry_equiv_pos_as_xyz
  1  'x, y, z'
loop_
 _atom_site_type_symbol
 _atom_site_label
 _atom_site_symmetry_multiplicity
 _atom_site_fract_x
 _atom_site_fract_y
 _atom_site_fract_z
 _atom_site_occupancy
  Tb  Tb0  1  0.610030  0.001802  0.000000  1
  Tb  Tb1  1  0.001802  0.610030  0.000000  1
  Tb  Tb2  1  0.386343  0.386343  0.000000  1
  Lu  Lu3  1  0.773527  0.773527  0.500000  1
  Sc  Sc4  1  0.224889  0.001662  0.500000  1
  Sc  Sc5  1  0.001662  0.224889  0.500000  1
  Mn  Mn6  1  0.006095  0.006095  0.000000  1
  Bi  Bi7  1  0.329685  0.665967  0.500000  1
  Bi  Bi8  1  0.665967  0.329685  0.500000  1
