# generated using pymatgen
data_YbSm2Lu(B6Os)2
_symmetry_space_group_name_H-M   'P 1'
_cell_length_a   3.66858100
_cell_length_b   9.14083868
_cell_length_c   11.55321218
_cell_angle_alpha   89.98794673
_cell_angle_beta   90.00000000
_cell_angle_gamma   90.00000000
_symmetry_Int_Tables_number   1
_chemical_formula_structural   YbSm2Lu(B6Os)2
_chemical_formula_sum   'Yb2 Sm4 Lu2 B24 Os4'
_cell_volume   387.42433518
_cell_formula_units_Z   2
loop_
 _symmetry_equiv_pos_site_id
 _symmetry_equiv_pos_as_xyz
  1  'x, y, z'
loop_
 _atom_site_type_symbol
 _atom_site_label
 _atom_site_symmetry_multiplicity
 _atom_site_fract_x
 _atom_site_fract_y
 _atom_site_fract_z
 _atom_site_occupancy
  Yb  Yb0  1  0.000000  0.942704  0.370363  1
  Yb  Yb1  1  0.000000  0.057296  0.629638  1
  Sm  Sm2  1  0.000000  0.321051  0.414497  1
  Sm  Sm3  1  0.000000  0.678949  0.585503  1
  Sm  Sm4  1  0.000000  0.822456  0.086448  1
  Sm  Sm5  1  0.000000  0.177544  0.913552  1
  Lu  Lu6  1  0.000000  0.443428  0.128279  1
  Lu  Lu7  1  0.000000  0.556572  0.871720  1
  B  B8  1  0.500000  0.555086  0.431041  1
  B  B9  1  0.500000  0.444914  0.568959  1
  B  B10  1  0.500000  0.055312  0.068962  1
  B  B11  1  0.500000  0.944688  0.931038  1
  B  B12  1  0.500000  0.749942  0.416874  1
  B  B13  1  0.500000  0.250058  0.583126  1
  B  B14  1  0.500000  0.250680  0.082206  1
  B  B15  1  0.500000  0.749320  0.917794  1
  B  B16  1  0.500000  0.790526  0.266303  1
  B  B17  1  0.500000  0.209474  0.733697  1
  B  B18  1  0.500000  0.290972  0.233477  1
  B  B19  1  0.500000  0.709027  0.766523  1
  B  B20  1  0.500000  0.629356  0.185393  1
  B  B21  1  0.500000  0.370644  0.814607  1
  B  B22  1  0.500000  0.129450  0.314327  1
  B  B23  1  0.500000  0.870550  0.685673  1
  B  B24  1  0.500000  0.984290  0.213599  1
  B  B25  1  0.500000  0.015710  0.786401  1
  B  B26  1  0.500000  0.482911  0.286202  1
  B  B27  1  0.500000  0.517089  0.713798  1
  B  B28  1  0.500000  0.600443  0.027759  1
  B  B29  1  0.500000  0.399557  0.972241  1
  B  B30  1  0.500000  0.097802  0.473059  1
  B  B31  1  0.500000  0.902198  0.526941  1
  Os  Os32  1  0.000000  0.637580  0.319174  1
  Os  Os33  1  0.000000  0.362420  0.680826  1
  Os  Os34  1  0.000000  0.139840  0.179357  1
  Os  Os35  1  0.000000  0.860160  0.820643  1
