# generated using pymatgen
data_Sr8Ta2AlCoO16
_symmetry_space_group_name_H-M   'P 1'
_cell_length_a   5.52380187
_cell_length_b   5.52382128
_cell_length_c   13.35297469
_cell_angle_alpha   101.93530366
_cell_angle_beta   101.93533764
_cell_angle_gamma   89.99974152
_symmetry_Int_Tables_number   1
_chemical_formula_structural   Sr8Ta2AlCoO16
_chemical_formula_sum   'Sr8 Ta2 Al1 Co1 O16'
_cell_volume   389.61756271
_cell_formula_units_Z   1
loop_
 _symmetry_equiv_pos_site_id
 _symmetry_equiv_pos_as_xyz
  1  'x, y, z'
loop_
 _atom_site_type_symbol
 _atom_site_label
 _atom_site_symmetry_multiplicity
 _atom_site_fract_x
 _atom_site_fract_y
 _atom_site_fract_z
 _atom_site_occupancy
  Sr  Sr0  1  0.072281  0.572403  0.144806  1
  Sr  Sr1  1  0.574902  0.075138  0.150133  1
  Sr  Sr2  1  0.321690  0.321545  0.643338  1
  Sr  Sr3  1  0.824830  0.824608  0.649535  1
  Sr  Sr4  1  0.678462  0.678299  0.356662  1
  Sr  Sr5  1  0.175386  0.175176  0.350465  1
  Sr  Sr6  1  0.924860  0.425097  0.849868  1
  Sr  Sr7  1  0.427599  0.927718  0.855195  1
  Ta  Ta8  1  0.500093  0.499910  0.000001  1
  Ta  Ta9  1  0.249884  0.750084  0.499995  1
  Al  Al10  1  0.000130  0.999869  0.000000  1
  Co  Co11  1  0.749848  0.250163  0.500000  1
  O  O12  1  0.169840  0.670541  0.340265  1
  O  O13  1  0.670960  0.171479  0.342169  1
  O  O14  1  0.420414  0.419749  0.840261  1
  O  O15  1  0.922251  0.921703  0.844073  1
  O  O16  1  0.580250  0.579585  0.159738  1
  O  O17  1  0.078297  0.077748  0.155927  1
  O  O18  1  0.828521  0.329039  0.657831  1
  O  O19  1  0.329460  0.830164  0.659738  1
  O  O20  1  0.246614  0.246380  0.000007  1
  O  O21  1  0.753620  0.753383  0.999992  1
  O  O22  1  0.502678  0.002881  0.499979  1
  O  O23  1  0.997136  0.497337  0.500023  1
  O  O24  1  0.246668  0.753332  0.999999  1
  O  O25  1  0.753677  0.246320  0.000000  1
  O  O26  1  0.502613  0.497388  0.500001  1
  O  O27  1  0.997037  0.002962  0.500001  1
