# generated using pymatgen
data_Be3Si2PRu6
_symmetry_space_group_name_H-M   'P 1'
_cell_length_a   4.04607200
_cell_length_b   5.71004500
_cell_length_c   12.12682500
_cell_angle_alpha   90.00000000
_cell_angle_beta   89.99674148
_cell_angle_gamma   90.00000000
_symmetry_Int_Tables_number   1
_chemical_formula_structural   Be3Si2PRu6
_chemical_formula_sum   'Be6 Si4 P2 Ru12'
_cell_volume   280.16910818
_cell_formula_units_Z   2
loop_
 _symmetry_equiv_pos_site_id
 _symmetry_equiv_pos_as_xyz
  1  'x, y, z'
loop_
 _atom_site_type_symbol
 _atom_site_label
 _atom_site_symmetry_multiplicity
 _atom_site_fract_x
 _atom_site_fract_y
 _atom_site_fract_z
 _atom_site_occupancy
  Be  Be0  1  0.999986  0.000000  0.994955  1
  Be  Be1  1  0.499340  0.500001  0.171741  1
  Be  Be2  1  0.999352  0.000000  0.338289  1
  Be  Be3  1  0.500018  0.500001  0.499644  1
  Be  Be4  1  0.000699  0.000000  0.666993  1
  Be  Be5  1  0.500630  0.500001  0.828373  1
  Si  Si6  1  0.999483  0.500001  0.331970  1
  Si  Si7  1  0.500004  0.000000  0.498960  1
  Si  Si8  1  0.000509  0.500001  0.667708  1
  Si  Si9  1  0.500489  0.000000  0.834724  1
  P  P10  1  0.999972  0.500001  0.000278  1
  P  P11  1  0.499526  0.000000  0.166380  1
  Ru  Ru12  1  0.499973  0.253232  0.003859  1
  Ru  Ru13  1  0.499973  0.746770  0.003859  1
  Ru  Ru14  1  0.999621  0.246721  0.162772  1
  Ru  Ru15  1  0.999621  0.753279  0.162772  1
  Ru  Ru16  1  0.499589  0.246457  0.328639  1
  Ru  Ru17  1  0.499589  0.753545  0.328639  1
  Ru  Ru18  1  0.000006  0.251974  0.499159  1
  Ru  Ru19  1  0.000006  0.748026  0.499159  1
  Ru  Ru20  1  0.500402  0.248022  0.667519  1
  Ru  Ru21  1  0.500402  0.751980  0.667519  1
  Ru  Ru22  1  0.000404  0.253548  0.838045  1
  Ru  Ru23  1  0.000404  0.746452  0.838045  1
