# generated using pymatgen
data_K4Yb2(CrH9)3
_symmetry_space_group_name_H-M   'P 1'
_cell_length_a   8.87033700
_cell_length_b   8.89625248
_cell_length_c   5.16475700
_cell_angle_alpha   90.00000000
_cell_angle_beta   90.00000000
_cell_angle_gamma   119.90368655
_symmetry_Int_Tables_number   1
_chemical_formula_structural   K4Yb2(CrH9)3
_chemical_formula_sum   'K4 Yb2 Cr3 H27'
_cell_volume   353.30388858
_cell_formula_units_Z   1
loop_
 _symmetry_equiv_pos_site_id
 _symmetry_equiv_pos_as_xyz
  1  'x, y, z'
loop_
 _atom_site_type_symbol
 _atom_site_label
 _atom_site_symmetry_multiplicity
 _atom_site_fract_x
 _atom_site_fract_y
 _atom_site_fract_z
 _atom_site_occupancy
  K  K0  1  0.023784  0.285179  0.500000  1
  K  K1  1  0.738603  0.714821  0.500000  1
  K  K2  1  0.998367  0.593999  0.000000  1
  K  K3  1  0.404368  0.406001  0.000000  1
  Yb  Yb4  1  0.235776  0.000000  0.500000  1
  Yb  Yb5  1  0.602017  0.000000  0.000000  1
  Cr  Cr6  1  0.000540  0.000000  0.000000  1
  Cr  Cr7  1  0.361162  0.733069  0.500000  1
  Cr  Cr8  1  0.628095  0.266931  0.500000  1
  H  H9  1  0.863279  0.000000  0.210294  1
  H  H10  1  0.001336  0.870874  0.221588  1
  H  H11  1  0.863279  0.000000  0.789706  1
  H  H12  1  0.001336  0.870874  0.778412  1
  H  H13  1  0.130462  0.129126  0.221588  1
  H  H14  1  0.130462  0.129126  0.778412  1
  H  H15  1  0.184024  0.000000  0.000000  1
  H  H16  1  0.004672  0.182220  0.000000  1
  H  H17  1  0.822451  0.817780  0.000000  1
  H  H18  1  0.243856  0.583576  0.295877  1
  H  H19  1  0.500027  0.754397  0.275691  1
  H  H20  1  0.243856  0.583576  0.704123  1
  H  H21  1  0.496236  0.158897  0.740319  1
  H  H22  1  0.337339  0.841103  0.259681  1
  H  H23  1  0.500027  0.754397  0.724309  1
  H  H24  1  0.660281  0.416424  0.704123  1
  H  H25  1  0.496236  0.158897  0.259681  1
  H  H26  1  0.337339  0.841103  0.740319  1
  H  H27  1  0.660281  0.416424  0.295877  1
  H  H28  1  0.745631  0.245603  0.724309  1
  H  H29  1  0.745631  0.245603  0.275691  1
  H  H30  1  0.399716  0.577873  0.500000  1
  H  H31  1  0.562306  0.937237  0.500000  1
  H  H32  1  0.464160  0.298003  0.500000  1
  H  H33  1  0.166156  0.701997  0.500000  1
  H  H34  1  0.821843  0.422127  0.500000  1
  H  H35  1  0.625069  0.062763  0.500000  1
