# generated using pymatgen
data_LuTa(SiTc)2
_symmetry_space_group_name_H-M   'P 1'
_cell_length_a   3.37984600
_cell_length_b   6.99548778
_cell_length_c   12.13284275
_cell_angle_alpha   89.62176417
_cell_angle_beta   90.00000000
_cell_angle_gamma   90.00000000
_symmetry_Int_Tables_number   1
_chemical_formula_structural   LuTa(SiTc)2
_chemical_formula_sum   'Lu3 Ta3 Si6 Tc6'
_cell_volume   286.85869623
_cell_formula_units_Z   3
loop_
 _symmetry_equiv_pos_site_id
 _symmetry_equiv_pos_as_xyz
  1  'x, y, z'
loop_
 _atom_site_type_symbol
 _atom_site_label
 _atom_site_symmetry_multiplicity
 _atom_site_fract_x
 _atom_site_fract_y
 _atom_site_fract_z
 _atom_site_occupancy
  Lu  Lu0  1  0.500000  0.302547  0.298671  1
  Lu  Lu1  1  0.500000  0.295257  0.700969  1
  Lu  Lu2  1  0.500000  0.804402  0.201661  1
  Ta  Ta3  1  0.500000  0.402092  0.995308  1
  Ta  Ta4  1  0.500000  0.898756  0.505726  1
  Ta  Ta5  1  0.500000  0.795508  0.799941  1
  Si  Si6  1  0.500000  0.003592  0.998206  1
  Si  Si7  1  0.500000  0.499700  0.500181  1
  Si  Si8  1  0.000000  0.989724  0.668545  1
  Si  Si9  1  0.000000  0.499809  0.156301  1
  Si  Si10  1  0.000000  0.502340  0.833956  1
  Si  Si11  1  0.000000  0.997502  0.343808  1
  Tc  Tc12  1  0.000000  0.236929  0.503813  1
  Tc  Tc13  1  0.000000  0.742546  0.991499  1
  Tc  Tc14  1  0.000000  0.632600  0.629703  1
  Tc  Tc15  1  0.000000  0.137899  0.118966  1
  Tc  Tc16  1  0.000000  0.122538  0.872027  1
  Tc  Tc17  1  0.000000  0.636457  0.380719  1
