# generated using pymatgen
data_U4ReTc(MoC4)2
_symmetry_space_group_name_H-M   'P 1'
_cell_length_a   3.19026600
_cell_length_b   5.63231822
_cell_length_c   11.06905956
_cell_angle_alpha   89.98803635
_cell_angle_beta   90.00000000
_cell_angle_gamma   90.00000000
_symmetry_Int_Tables_number   1
_chemical_formula_structural   U4ReTc(MoC4)2
_chemical_formula_sum   'U4 Re1 Tc1 Mo2 C8'
_cell_volume   198.89542530
_cell_formula_units_Z   1
loop_
 _symmetry_equiv_pos_site_id
 _symmetry_equiv_pos_as_xyz
  1  'x, y, z'
loop_
 _atom_site_type_symbol
 _atom_site_label
 _atom_site_symmetry_multiplicity
 _atom_site_fract_x
 _atom_site_fract_y
 _atom_site_fract_z
 _atom_site_occupancy
  U  U0  1  0.250000  0.081101  0.856495  1
  U  U1  1  0.250000  0.580168  0.642788  1
  U  U2  1  0.750000  0.919528  0.140766  1
  U  U3  1  0.750000  0.417454  0.358997  1
  Re  Re4  1  0.750000  0.578236  0.898111  1
  Tc  Tc5  1  0.750000  0.078201  0.602053  1
  Mo  Mo6  1  0.250000  0.421551  0.101032  1
  Mo  Mo7  1  0.250000  0.919569  0.399367  1
  C  C8  1  0.250000  0.162863  0.243079  1
  C  C9  1  0.250000  0.663519  0.257121  1
  C  C10  1  0.750000  0.838292  0.756066  1
  C  C11  1  0.750000  0.340637  0.745234  1
  C  C12  1  0.250000  0.748293  0.991338  1
  C  C13  1  0.250000  0.246815  0.507896  1
  C  C14  1  0.750000  0.252235  0.005094  1
  C  C15  1  0.750000  0.751540  0.494563  1
