# generated using pymatgen
data_Ba5Sr5Au8
_symmetry_space_group_name_H-M   'P 1'
_cell_length_a   8.72952715
_cell_length_b   8.57888507
_cell_length_c   8.71711700
_cell_angle_alpha   70.99100539
_cell_angle_beta   90.04867510
_cell_angle_gamma   89.98587554
_symmetry_Int_Tables_number   1
_chemical_formula_structural   Ba5Sr5Au8
_chemical_formula_sum   'Ba5 Sr5 Au8'
_cell_volume   617.22115897
_cell_formula_units_Z   1
loop_
 _symmetry_equiv_pos_site_id
 _symmetry_equiv_pos_as_xyz
  1  'x, y, z'
loop_
 _atom_site_type_symbol
 _atom_site_label
 _atom_site_symmetry_multiplicity
 _atom_site_fract_x
 _atom_site_fract_y
 _atom_site_fract_z
 _atom_site_occupancy
  Ba  Ba0  1  0.322983  0.066169  0.305665  1
  Ba  Ba1  1  0.176667  0.569003  0.303646  1
  Ba  Ba2  1  0.821334  0.433493  0.692627  1
  Ba  Ba3  1  0.332146  0.254923  0.744950  1
  Ba  Ba4  1  0.679008  0.930375  0.694488  1
  Sr  Sr5  1  0.996762  0.998148  0.002565  1
  Sr  Sr6  1  0.832938  0.246341  0.252206  1
  Sr  Sr7  1  0.166474  0.753384  0.747403  1
  Sr  Sr8  1  0.669164  0.745960  0.253648  1
  Sr  Sr9  1  0.501456  0.501469  0.001791  1
  Au  Au10  1  0.873730  0.625644  0.996157  1
  Au  Au11  1  0.962664  0.864329  0.414764  1
  Au  Au12  1  0.122212  0.377557  0.008896  1
  Au  Au13  1  0.541645  0.366865  0.407066  1
  Au  Au14  1  0.374606  0.868351  0.009147  1
  Au  Au15  1  0.464547  0.644820  0.581824  1
  Au  Au16  1  0.030941  0.130786  0.582014  1
  Au  Au17  1  0.630723  0.122384  0.001145  1
