# generated using pymatgen
data_LaY7(WC2)4
_symmetry_space_group_name_H-M   'P 1'
_cell_length_a   5.76592143
_cell_length_b   5.76592129
_cell_length_c   9.98756800
_cell_angle_alpha   89.52226476
_cell_angle_beta   89.52226477
_cell_angle_gamma   89.91436745
_symmetry_Int_Tables_number   1
_chemical_formula_structural   LaY7(WC2)4
_chemical_formula_sum   'La1 Y7 W4 C8'
_cell_volume   332.02175731
_cell_formula_units_Z   1
loop_
 _symmetry_equiv_pos_site_id
 _symmetry_equiv_pos_as_xyz
  1  'x, y, z'
loop_
 _atom_site_type_symbol
 _atom_site_label
 _atom_site_symmetry_multiplicity
 _atom_site_fract_x
 _atom_site_fract_y
 _atom_site_fract_z
 _atom_site_occupancy
  La  La0  1  0.801943  0.801943  0.661043  1
  Y  Y1  1  0.301564  0.701656  0.158527  1
  Y  Y2  1  0.700220  0.302371  0.843938  1
  Y  Y3  1  0.799727  0.799727  0.342520  1
  Y  Y4  1  0.197467  0.197467  0.656302  1
  Y  Y5  1  0.701656  0.301564  0.158527  1
  Y  Y6  1  0.302371  0.700220  0.843938  1
  Y  Y7  1  0.199673  0.199673  0.340130  1
  W  W8  1  0.673628  0.319373  0.496431  1
  W  W9  1  0.319373  0.673628  0.496431  1
  W  W10  1  0.825146  0.825146  0.003831  1
  W  W11  1  0.181595  0.181595  0.002165  1
  C  C12  1  0.007560  0.007560  0.854568  1
  C  C13  1  0.492751  0.492751  0.649926  1
  C  C14  1  0.499528  0.499528  0.345535  1
  C  C15  1  0.502967  0.001684  0.001328  1
  C  C16  1  0.491078  0.998867  0.494440  1
  C  C17  1  0.001684  0.502967  0.001328  1
  C  C18  1  0.998867  0.491078  0.494440  1
  C  C19  1  0.001206  0.001206  0.154649  1
