# generated using pymatgen
data_Dy4Er5Tm11(CoSb2)4
_symmetry_space_group_name_H-M   'P 1'
_cell_length_a   7.79406036
_cell_length_b   8.72650000
_cell_length_c   12.08735455
_cell_angle_alpha   90.00000000
_cell_angle_beta   90.03465038
_cell_angle_gamma   90.00000000
_symmetry_Int_Tables_number   1
_chemical_formula_structural   Dy4Er5Tm11(CoSb2)4
_chemical_formula_sum   'Dy4 Er5 Tm11 Co4 Sb8'
_cell_volume   822.11967039
_cell_formula_units_Z   1
loop_
 _symmetry_equiv_pos_site_id
 _symmetry_equiv_pos_as_xyz
  1  'x, y, z'
loop_
 _atom_site_type_symbol
 _atom_site_label
 _atom_site_symmetry_multiplicity
 _atom_site_fract_x
 _atom_site_fract_y
 _atom_site_fract_z
 _atom_site_occupancy
  Dy  Dy0  1  0.621795  0.750000  0.307234  1
  Dy  Dy1  1  0.878196  0.750000  0.807184  1
  Dy  Dy2  1  0.378226  0.250000  0.692780  1
  Dy  Dy3  1  0.121782  0.250000  0.192802  1
  Er  Er4  1  0.155106  0.750000  0.203947  1
  Er  Er5  1  0.344578  0.750000  0.703847  1
  Er  Er6  1  0.844683  0.250000  0.796258  1
  Er  Er7  1  0.655425  0.250000  0.296136  1
  Er  Er8  1  0.450748  0.750000  0.998027  1
  Tm  Tm9  1  0.049572  0.750000  0.497974  1
  Tm  Tm10  1  0.549532  0.250000  0.001996  1
  Tm  Tm11  1  0.950425  0.250000  0.502016  1
  Tm  Tm12  1  0.822997  0.536167  0.065255  1
  Tm  Tm13  1  0.677161  0.963741  0.565231  1
  Tm  Tm14  1  0.176933  0.036426  0.934684  1
  Tm  Tm15  1  0.322839  0.463772  0.434757  1
  Tm  Tm16  1  0.176933  0.463574  0.934684  1
  Tm  Tm17  1  0.322839  0.036228  0.434757  1
  Tm  Tm18  1  0.822997  0.963833  0.065255  1
  Tm  Tm19  1  0.677161  0.536259  0.565231  1
  Co  Co20  1  0.433144  0.750000  0.491143  1
  Co  Co21  1  0.066602  0.750000  0.991167  1
  Co  Co22  1  0.566829  0.250000  0.508846  1
  Co  Co23  1  0.933157  0.250000  0.008830  1
  Sb  Sb24  1  0.930001  0.508589  0.328393  1
  Sb  Sb25  1  0.570178  0.991686  0.828137  1
  Sb  Sb26  1  0.070000  0.008614  0.671574  1
  Sb  Sb27  1  0.429990  0.491096  0.171875  1
  Sb  Sb28  1  0.070000  0.491386  0.671574  1
  Sb  Sb29  1  0.429990  0.008904  0.171875  1
  Sb  Sb30  1  0.930001  0.991411  0.328393  1
  Sb  Sb31  1  0.570178  0.508314  0.828137  1
