# generated using pymatgen
data_Tb2Y2Al15(GaRh2)3
_symmetry_space_group_name_H-M   'P 1'
_cell_length_a   7.53917412
_cell_length_b   7.54055760
_cell_length_c   9.55642500
_cell_angle_alpha   90.00000000
_cell_angle_beta   90.00000000
_cell_angle_gamma   119.37201047
_symmetry_Int_Tables_number   1
_chemical_formula_structural   Tb2Y2Al15(GaRh2)3
_chemical_formula_sum   'Tb2 Y2 Al15 Ga3 Rh6'
_cell_volume   473.44214824
_cell_formula_units_Z   1
loop_
 _symmetry_equiv_pos_site_id
 _symmetry_equiv_pos_as_xyz
  1  'x, y, z'
loop_
 _atom_site_type_symbol
 _atom_site_label
 _atom_site_symmetry_multiplicity
 _atom_site_fract_x
 _atom_site_fract_y
 _atom_site_fract_z
 _atom_site_occupancy
  Tb  Tb0  1  0.997108  0.673284  0.250000  1
  Tb  Tb1  1  0.669961  0.991701  0.250000  1
  Y  Y2  1  0.005532  0.326864  0.750000  1
  Y  Y3  1  0.326847  0.004602  0.750000  1
  Al  Al4  1  0.001521  0.334884  0.072587  1
  Al  Al5  1  0.998537  0.664493  0.926720  1
  Al  Al6  1  0.998537  0.664493  0.573280  1
  Al  Al7  1  0.335691  0.002821  0.427290  1
  Al  Al8  1  0.001521  0.334884  0.427413  1
  Al  Al9  1  0.664566  0.998758  0.573079  1
  Al  Al10  1  0.664566  0.998758  0.926921  1
  Al  Al11  1  0.335691  0.002821  0.072710  1
  Al  Al12  1  0.334346  0.334275  0.553750  1
  Al  Al13  1  0.665956  0.665470  0.449366  1
  Al  Al14  1  0.665956  0.665470  0.050634  1
  Al  Al15  1  0.334346  0.334275  0.946250  1
  Al  Al16  1  0.662820  0.451048  0.750000  1
  Al  Al17  1  0.549211  0.338952  0.250000  1
  Al  Al18  1  0.451153  0.662562  0.750000  1
  Ga  Ga19  1  0.128903  0.129546  0.250000  1
  Ga  Ga20  1  0.868917  0.868720  0.750000  1
  Ga  Ga21  1  0.338309  0.547427  0.250000  1
  Rh  Rh22  1  0.671462  0.328942  0.000265  1
  Rh  Rh23  1  0.328365  0.672561  0.997899  1
  Rh  Rh24  1  0.328365  0.672561  0.502101  1
  Rh  Rh25  1  0.671462  0.328942  0.499735  1
  Rh  Rh26  1  0.000175  0.000441  0.000003  1
  Rh  Rh27  1  0.000175  0.000441  0.499997  1
