# generated using pymatgen
data_U3Hg(PO5)4
_symmetry_space_group_name_H-M   'P 1'
_cell_length_a   5.44299604
_cell_length_b   8.81627694
_cell_length_c   9.34634724
_cell_angle_alpha   100.55792954
_cell_angle_beta   104.48462607
_cell_angle_gamma   95.81103091
_symmetry_Int_Tables_number   1
_chemical_formula_structural   U3Hg(PO5)4
_chemical_formula_sum   'U3 Hg1 P4 O20'
_cell_volume   421.76803772
_cell_formula_units_Z   1
loop_
 _symmetry_equiv_pos_site_id
 _symmetry_equiv_pos_as_xyz
  1  'x, y, z'
loop_
 _atom_site_type_symbol
 _atom_site_label
 _atom_site_symmetry_multiplicity
 _atom_site_fract_x
 _atom_site_fract_y
 _atom_site_fract_z
 _atom_site_occupancy
  U  U0  1  0.642751  0.705101  0.954902  1
  U  U1  1  0.329749  0.799864  0.549666  1
  U  U2  1  0.660938  0.205994  0.444116  1
  Hg  Hg3  1  0.309672  0.273451  0.026519  1
  P  P4  1  0.092678  0.520067  0.770392  1
  P  P5  1  0.921330  0.488823  0.241834  1
  P  P6  1  0.276865  0.923127  0.178832  1
  P  P7  1  0.728513  0.070820  0.818468  1
  O  O8  1  0.017690  0.082385  0.864971  1
  O  O9  1  0.989578  0.861158  0.094782  1
  O  O10  1  0.974462  0.379744  0.643607  1
  O  O11  1  0.019327  0.625825  0.379060  1
  O  O12  1  0.723357  0.369231  0.271313  1
  O  O13  1  0.259085  0.653847  0.733214  1
  O  O14  1  0.427459  0.820180  0.082344  1
  O  O15  1  0.616221  0.189601  0.910312  1
  O  O16  1  0.422652  0.309892  0.498121  1
  O  O17  1  0.573313  0.683727  0.522120  1
  O  O18  1  0.871573  0.591122  0.830689  1
  O  O19  1  0.133084  0.427975  0.182781  1
  O  O20  1  0.302783  0.491799  0.907184  1
  O  O21  1  0.757281  0.571652  0.109714  1
  O  O22  1  0.892411  0.099042  0.385097  1
  O  O23  1  0.091062  0.911934  0.591072  1
  O  O24  1  0.357057  0.903402  0.341851  1
  O  O25  1  0.621955  0.052970  0.642612  1
  O  O26  1  0.362271  0.096024  0.189683  1
  O  O27  1  0.624884  0.891245  0.834745  1
