# generated using pymatgen
data_K6Li4ScNbAs6
_symmetry_space_group_name_H-M   'P 1'
_cell_length_a   10.17876200
_cell_length_b   10.17876320
_cell_length_c   15.16176600
_cell_angle_alpha   90.00000000
_cell_angle_beta   90.00000000
_cell_angle_gamma   143.06101032
_symmetry_Int_Tables_number   1
_chemical_formula_structural   K6Li4ScNbAs6
_chemical_formula_sum   'K12 Li8 Sc2 Nb2 As12'
_cell_volume   944.03568852
_cell_formula_units_Z   2
loop_
 _symmetry_equiv_pos_site_id
 _symmetry_equiv_pos_as_xyz
  1  'x, y, z'
loop_
 _atom_site_type_symbol
 _atom_site_label
 _atom_site_symmetry_multiplicity
 _atom_site_fract_x
 _atom_site_fract_y
 _atom_site_fract_z
 _atom_site_occupancy
  K  K0  1  0.602798  0.947439  0.825583  1
  K  K1  1  0.281303  0.285748  0.320056  1
  K  K2  1  0.218697  0.214252  0.820056  1
  K  K3  1  0.714252  0.718697  0.679944  1
  K  K4  1  0.447439  0.102798  0.674417  1
  K  K5  1  0.897202  0.552561  0.325583  1
  K  K6  1  0.052561  0.397202  0.174417  1
  K  K7  1  0.397280  0.055773  0.172665  1
  K  K8  1  0.555773  0.897280  0.327335  1
  K  K9  1  0.102720  0.444227  0.672665  1
  K  K10  1  0.944227  0.602720  0.827335  1
  K  K11  1  0.785748  0.781303  0.179944  1
  Li  Li12  1  0.084420  0.915580  0.000000  1
  Li  Li13  1  0.582345  0.417655  0.500000  1
  Li  Li14  1  0.917655  0.082345  0.000000  1
  Li  Li15  1  0.749450  0.250550  0.000000  1
  Li  Li16  1  0.750550  0.249450  0.500000  1
  Li  Li17  1  0.247676  0.752324  0.000000  1
  Li  Li18  1  0.252324  0.747676  0.500000  1
  Li  Li19  1  0.415580  0.584420  0.500000  1
  Sc  Sc20  1  0.910642  0.089358  0.500000  1
  Sc  Sc21  1  0.589358  0.410642  0.000000  1
  Nb  Nb22  1  0.086267  0.913733  0.500000  1
  Nb  Nb23  1  0.413733  0.586267  0.000000  1
  As  As24  1  0.076261  0.406051  0.403122  1
  As  As25  1  0.906051  0.576261  0.096878  1
  As  As26  1  0.423739  0.093949  0.903122  1
  As  As27  1  0.593949  0.923739  0.596878  1
  As  As28  1  0.932194  0.611252  0.591971  1
  As  As29  1  0.111252  0.432194  0.908029  1
  As  As30  1  0.567806  0.888748  0.091971  1
  As  As31  1  0.388748  0.067806  0.408029  1
  As  As32  1  0.232284  0.220577  0.590585  1
  As  As33  1  0.720577  0.732284  0.909415  1
  As  As34  1  0.267716  0.279423  0.090585  1
  As  As35  1  0.779423  0.767716  0.409415  1
