# generated using pymatgen
data_Ca7La(Sb2O5)4
_symmetry_space_group_name_H-M   'P 1'
_cell_length_a   5.91931900
_cell_length_b   7.44971212
_cell_length_c   14.40879300
_cell_angle_alpha   89.83978845
_cell_angle_beta   90.00000000
_cell_angle_gamma   90.00000000
_symmetry_Int_Tables_number   1
_chemical_formula_structural   Ca7La(Sb2O5)4
_chemical_formula_sum   'Ca7 La1 Sb8 O20'
_cell_volume   635.38526717
_cell_formula_units_Z   1
loop_
 _symmetry_equiv_pos_site_id
 _symmetry_equiv_pos_as_xyz
  1  'x, y, z'
loop_
 _atom_site_type_symbol
 _atom_site_label
 _atom_site_symmetry_multiplicity
 _atom_site_fract_x
 _atom_site_fract_y
 _atom_site_fract_z
 _atom_site_occupancy
  Ca  Ca0  1  0.250000  0.630529  0.066793  1
  Ca  Ca1  1  0.750000  0.624192  0.447491  1
  Ca  Ca2  1  0.750000  0.875334  0.950609  1
  Ca  Ca3  1  0.250000  0.873499  0.562504  1
  Ca  Ca4  1  0.250000  0.119367  0.054633  1
  Ca  Ca5  1  0.750000  0.126555  0.436497  1
  Ca  Ca6  1  0.250000  0.376007  0.549718  1
  La  La7  1  0.750000  0.374036  0.934769  1
  Sb  Sb8  1  0.250000  0.615879  0.823190  1
  Sb  Sb9  1  0.750000  0.629265  0.680581  1
  Sb  Sb10  1  0.250000  0.881773  0.324077  1
  Sb  Sb11  1  0.750000  0.867942  0.183587  1
  Sb  Sb12  1  0.250000  0.134338  0.817506  1
  Sb  Sb13  1  0.750000  0.116340  0.674412  1
  Sb  Sb14  1  0.250000  0.373472  0.316767  1
  Sb  Sb15  1  0.750000  0.383050  0.177830  1
  O  O16  1  0.250000  0.629905  0.267609  1
  O  O17  1  0.009029  0.633282  0.920336  1
  O  O18  1  0.490971  0.633282  0.920336  1
  O  O19  1  0.509739  0.617140  0.585897  1
  O  O20  1  0.990261  0.617140  0.585897  1
  O  O21  1  0.490698  0.867994  0.418162  1
  O  O22  1  0.250000  0.873814  0.772965  1
  O  O23  1  0.509420  0.880122  0.088023  1
  O  O24  1  0.009302  0.867994  0.418162  1
  O  O25  1  0.990580  0.880122  0.088023  1
  O  O26  1  0.750000  0.128419  0.228720  1
  O  O27  1  0.509687  0.132603  0.580035  1
  O  O28  1  0.990313  0.132603  0.580035  1
  O  O29  1  0.009274  0.116829  0.915132  1
  O  O30  1  0.490726  0.116829  0.915132  1
  O  O31  1  0.750000  0.370653  0.732486  1
  O  O32  1  0.009517  0.381874  0.411201  1
  O  O33  1  0.490483  0.381874  0.411201  1
  O  O34  1  0.511473  0.367967  0.079843  1
  O  O35  1  0.988527  0.367967  0.079843  1
