# generated using pymatgen
data_Lu12Co2Cu3Bi
_symmetry_space_group_name_H-M   'P 1'
_cell_length_a   8.20365538
_cell_length_b   8.20365445
_cell_length_c   8.20365457
_cell_angle_alpha   111.50052239
_cell_angle_beta   110.11661109
_cell_angle_gamma   106.83151919
_symmetry_Int_Tables_number   1
_chemical_formula_structural   Lu12Co2Cu3Bi
_chemical_formula_sum   'Lu12 Co2 Cu3 Bi1'
_cell_volume   424.27335127
_cell_formula_units_Z   1
loop_
 _symmetry_equiv_pos_site_id
 _symmetry_equiv_pos_as_xyz
  1  'x, y, z'
loop_
 _atom_site_type_symbol
 _atom_site_label
 _atom_site_symmetry_multiplicity
 _atom_site_fract_x
 _atom_site_fract_y
 _atom_site_fract_z
 _atom_site_occupancy
  Lu  Lu0  1  0.821805  0.714282  0.536088  1
  Lu  Lu1  1  0.178195  0.285718  0.463912  1
  Lu  Lu2  1  0.178195  0.714282  0.892478  1
  Lu  Lu3  1  0.821805  0.285718  0.107522  1
  Lu  Lu4  1  0.690496  0.384533  0.694037  1
  Lu  Lu5  1  0.309504  0.615467  0.305963  1
  Lu  Lu6  1  0.690496  0.996459  0.305963  1
  Lu  Lu7  1  0.309504  0.003541  0.694037  1
  Lu  Lu8  1  0.575009  0.774811  0.800199  1
  Lu  Lu9  1  0.424991  0.225189  0.199801  1
  Lu  Lu10  1  0.974613  0.774811  0.199801  1
  Lu  Lu11  1  0.025387  0.225189  0.800199  1
  Co  Co12  1  0.114964  0.614964  0.500000  1
  Co  Co13  1  0.885036  0.385036  0.500000  1
  Cu  Cu14  1  0.636660  0.000000  0.636660  1
  Cu  Cu15  1  0.363340  0.000000  0.363340  1
  Cu  Cu16  1  0.000000  0.000000  0.000000  1
  Bi  Bi17  1  0.500000  0.500000  0.000000  1
