# generated using pymatgen
data_CsNaP2Pd
_symmetry_space_group_name_H-M   'P 1'
_cell_length_a   7.15744923
_cell_length_b   7.15744938
_cell_length_c   6.11556600
_cell_angle_alpha   90.00000000
_cell_angle_beta   90.00000000
_cell_angle_gamma   123.20940187
_symmetry_Int_Tables_number   1
_chemical_formula_structural   CsNaP2Pd
_chemical_formula_sum   'Cs2 Na2 P4 Pd2'
_cell_volume   262.12577424
_cell_formula_units_Z   2
loop_
 _symmetry_equiv_pos_site_id
 _symmetry_equiv_pos_as_xyz
  1  'x, y, z'
loop_
 _atom_site_type_symbol
 _atom_site_label
 _atom_site_symmetry_multiplicity
 _atom_site_fract_x
 _atom_site_fract_y
 _atom_site_fract_z
 _atom_site_occupancy
  Cs  Cs0  1  0.401556  0.598444  0.250000  1
  Cs  Cs1  1  0.598444  0.401556  0.750000  1
  Na  Na2  1  0.790186  0.209814  0.250000  1
  Na  Na3  1  0.209814  0.790186  0.750000  1
  P  P4  1  0.961581  0.717804  0.250000  1
  P  P5  1  0.038419  0.282196  0.750000  1
  P  P6  1  0.282196  0.038419  0.250000  1
  P  P7  1  0.717804  0.961581  0.750000  1
  Pd  Pd8  1  0.000000  0.000000  0.000000  1
  Pd  Pd9  1  0.000000  0.000000  0.500000  1
