# generated using pymatgen
data_Tm4Sc2B4Ir7Rh3
_symmetry_space_group_name_H-M   'P 1'
_cell_length_a   3.15412000
_cell_length_b   9.72517924
_cell_length_c   9.71441124
_cell_angle_alpha   90.02523545
_cell_angle_beta   90.00000000
_cell_angle_gamma   90.00000000
_symmetry_Int_Tables_number   1
_chemical_formula_structural   Tm4Sc2B4Ir7Rh3
_chemical_formula_sum   'Tm4 Sc2 B4 Ir7 Rh3'
_cell_volume   297.98353546
_cell_formula_units_Z   1
loop_
 _symmetry_equiv_pos_site_id
 _symmetry_equiv_pos_as_xyz
  1  'x, y, z'
loop_
 _atom_site_type_symbol
 _atom_site_label
 _atom_site_symmetry_multiplicity
 _atom_site_fract_x
 _atom_site_fract_y
 _atom_site_fract_z
 _atom_site_occupancy
  Tm  Tm0  1  0.000000  0.175898  0.676278  1
  Tm  Tm1  1  0.000000  0.823734  0.324061  1
  Tm  Tm2  1  0.000000  0.323796  0.175766  1
  Tm  Tm3  1  0.000000  0.675846  0.824329  1
  Sc  Sc4  1  0.000000  0.000495  0.001413  1
  Sc  Sc5  1  0.000000  0.500093  0.499809  1
  B  B6  1  0.000000  0.620641  0.120405  1
  B  B7  1  0.000000  0.378751  0.878516  1
  B  B8  1  0.000000  0.878959  0.621264  1
  B  B9  1  0.000000  0.122378  0.381051  1
  Ir  Ir10  1  0.500000  0.931289  0.774974  1
  Ir  Ir11  1  0.500000  0.774536  0.068907  1
  Ir  Ir12  1  0.500000  0.431521  0.724576  1
  Ir  Ir13  1  0.500000  0.224937  0.930480  1
  Ir  Ir14  1  0.500000  0.569016  0.274822  1
  Ir  Ir15  1  0.500000  0.725338  0.568804  1
  Ir  Ir16  1  0.500000  0.274341  0.430070  1
  Rh  Rh17  1  0.500000  0.068985  0.225384  1
  Rh  Rh18  1  0.500000  0.000124  0.499047  1
  Rh  Rh19  1  0.500000  0.499322  0.000043  1
