# generated using pymatgen
data_Lu8B24MoOs2W
_symmetry_space_group_name_H-M   'P 1'
_cell_length_a   3.58332900
_cell_length_b   9.11131116
_cell_length_c   11.49104906
_cell_angle_alpha   89.83378288
_cell_angle_beta   90.00000000
_cell_angle_gamma   90.00000000
_symmetry_Int_Tables_number   1
_chemical_formula_structural   Lu8B24MoOs2W
_chemical_formula_sum   'Lu8 B24 Mo1 Os2 W1'
_cell_volume   375.16767671
_cell_formula_units_Z   1
loop_
 _symmetry_equiv_pos_site_id
 _symmetry_equiv_pos_as_xyz
  1  'x, y, z'
loop_
 _atom_site_type_symbol
 _atom_site_label
 _atom_site_symmetry_multiplicity
 _atom_site_fract_x
 _atom_site_fract_y
 _atom_site_fract_z
 _atom_site_occupancy
  Lu  Lu0  1  0.000000  0.321179  0.414849  1
  Lu  Lu1  1  0.000000  0.678227  0.586653  1
  Lu  Lu2  1  0.000000  0.820708  0.086130  1
  Lu  Lu3  1  0.000000  0.179155  0.913148  1
  Lu  Lu4  1  0.000000  0.945119  0.371977  1
  Lu  Lu5  1  0.000000  0.056224  0.628685  1
  Lu  Lu6  1  0.000000  0.442205  0.127233  1
  Lu  Lu7  1  0.000000  0.557107  0.871737  1
  B  B8  1  0.500000  0.550727  0.435346  1
  B  B9  1  0.500000  0.448360  0.565898  1
  B  B10  1  0.500000  0.053430  0.065930  1
  B  B11  1  0.500000  0.946296  0.933998  1
  B  B12  1  0.500000  0.752332  0.422494  1
  B  B13  1  0.500000  0.248733  0.578554  1
  B  B14  1  0.500000  0.249355  0.080121  1
  B  B15  1  0.500000  0.750318  0.919517  1
  B  B16  1  0.500000  0.796689  0.262710  1
  B  B17  1  0.500000  0.204504  0.736919  1
  B  B18  1  0.500000  0.290730  0.233917  1
  B  B19  1  0.500000  0.708999  0.765781  1
  B  B20  1  0.500000  0.631182  0.180924  1
  B  B21  1  0.500000  0.369044  0.817995  1
  B  B22  1  0.500000  0.130088  0.314285  1
  B  B23  1  0.500000  0.870271  0.685913  1
  B  B24  1  0.500000  0.982002  0.211625  1
  B  B25  1  0.500000  0.018484  0.788425  1
  B  B26  1  0.500000  0.475949  0.286379  1
  B  B27  1  0.500000  0.522806  0.713349  1
  B  B28  1  0.500000  0.601661  0.027070  1
  B  B29  1  0.500000  0.397965  0.972338  1
  B  B30  1  0.500000  0.102029  0.471088  1
  B  B31  1  0.500000  0.898675  0.529283  1
  Mo  Mo32  1  0.000000  0.361426  0.680654  1
  Os  Os33  1  0.000000  0.137219  0.177822  1
  Os  Os34  1  0.000000  0.862340  0.821788  1
  W  W35  1  0.000000  0.638463  0.319467  1
