# generated using pymatgen
data_La5SmU4O20
_symmetry_space_group_name_H-M   'P 1'
_cell_length_a   6.83117594
_cell_length_b   7.77831745
_cell_length_c   8.70049500
_cell_angle_alpha   101.64430522
_cell_angle_beta   97.74605860
_cell_angle_gamma   107.15599700
_symmetry_Int_Tables_number   1
_chemical_formula_structural   La5SmU4O20
_chemical_formula_sum   'La5 Sm1 U4 O20'
_cell_volume   423.21083789
_cell_formula_units_Z   1
loop_
 _symmetry_equiv_pos_site_id
 _symmetry_equiv_pos_as_xyz
  1  'x, y, z'
loop_
 _atom_site_type_symbol
 _atom_site_label
 _atom_site_symmetry_multiplicity
 _atom_site_fract_x
 _atom_site_fract_y
 _atom_site_fract_z
 _atom_site_occupancy
  La  La0  1  0.610632  0.702576  0.700343  1
  La  La1  1  0.389368  0.297424  0.299657  1
  La  La2  1  0.199551  0.897421  0.894688  1
  La  La3  1  0.000000  0.500000  0.500000  1
  La  La4  1  0.800449  0.102579  0.105312  1
  Sm  Sm5  1  0.000000  0.000000  0.500000  1
  U  U6  1  0.402304  0.804116  0.302403  1
  U  U7  1  0.198671  0.401894  0.902050  1
  U  U8  1  0.801329  0.598106  0.097950  1
  U  U9  1  0.597696  0.195884  0.697597  1
  O  O10  1  0.438293  0.534180  0.131738  1
  O  O11  1  0.558547  0.997073  0.835628  1
  O  O12  1  0.275481  0.153713  0.744151  1
  O  O13  1  0.361249  0.601869  0.435674  1
  O  O14  1  0.056483  0.732714  0.324909  1
  O  O15  1  0.441453  0.002927  0.164372  1
  O  O16  1  0.149863  0.192870  0.027184  1
  O  O17  1  0.561707  0.465820  0.868262  1
  O  O18  1  0.854945  0.343841  0.948624  1
  O  O19  1  0.254847  0.599119  0.765726  1
  O  O20  1  0.954299  0.776243  0.649254  1
  O  O21  1  0.356614  0.058205  0.456550  1
  O  O22  1  0.643386  0.941795  0.543450  1
  O  O23  1  0.045701  0.223757  0.350746  1
  O  O24  1  0.745153  0.400881  0.234274  1
  O  O25  1  0.145055  0.656159  0.051376  1
  O  O26  1  0.850137  0.807130  0.972816  1
  O  O27  1  0.943517  0.267286  0.675091  1
  O  O28  1  0.638751  0.398131  0.564326  1
  O  O29  1  0.724519  0.846287  0.255849  1
