# generated using pymatgen
data_Ba6HPb2N
_symmetry_space_group_name_H-M   'P 1'
_cell_length_a   7.95413527
_cell_length_b   7.95413523
_cell_length_c   7.95413500
_cell_angle_alpha   59.99999678
_cell_angle_beta   59.99999697
_cell_angle_gamma   59.99999779
_symmetry_Int_Tables_number   1
_chemical_formula_structural   Ba6HPb2N
_chemical_formula_sum   'Ba6 H1 Pb2 N1'
_cell_volume   355.84746365
_cell_formula_units_Z   1
loop_
 _symmetry_equiv_pos_site_id
 _symmetry_equiv_pos_as_xyz
  1  'x, y, z'
loop_
 _atom_site_type_symbol
 _atom_site_label
 _atom_site_symmetry_multiplicity
 _atom_site_fract_x
 _atom_site_fract_y
 _atom_site_fract_z
 _atom_site_occupancy
  Ba  Ba0  1  0.258114  0.741886  0.741886  1
  Ba  Ba1  1  0.258114  0.741886  0.258114  1
  Ba  Ba2  1  0.741886  0.258114  0.741886  1
  Ba  Ba3  1  0.741886  0.741886  0.258114  1
  Ba  Ba4  1  0.258114  0.258114  0.741886  1
  Ba  Ba5  1  0.741886  0.258114  0.258114  1
  H  H6  1  0.000000  0.000000  0.000000  1
  Pb  Pb7  1  0.250000  0.250000  0.250000  1
  Pb  Pb8  1  0.750000  0.750000  0.750000  1
  N  N9  1  0.500000  0.500000  0.500000  1
