# generated using pymatgen
data_Tb2Th2ZrAl7
_symmetry_space_group_name_H-M   'P 1'
_cell_length_a   5.64970900
_cell_length_b   5.64970867
_cell_length_c   9.41189100
_cell_angle_alpha   90.00000000
_cell_angle_beta   90.00000000
_cell_angle_gamma   119.99998438
_symmetry_Int_Tables_number   1
_chemical_formula_structural   Tb2Th2ZrAl7
_chemical_formula_sum   'Tb2 Th2 Zr1 Al7'
_cell_volume   260.17150052
_cell_formula_units_Z   1
loop_
 _symmetry_equiv_pos_site_id
 _symmetry_equiv_pos_as_xyz
  1  'x, y, z'
loop_
 _atom_site_type_symbol
 _atom_site_label
 _atom_site_symmetry_multiplicity
 _atom_site_fract_x
 _atom_site_fract_y
 _atom_site_fract_z
 _atom_site_occupancy
  Tb  Tb0  1  0.666667  0.333333  0.437927  1
  Tb  Tb1  1  0.333333  0.666667  0.562073  1
  Th  Th2  1  0.333333  0.666667  0.946267  1
  Th  Th3  1  0.666667  0.333333  0.053733  1
  Zr  Zr4  1  0.000000  0.000000  0.000000  1
  Al  Al5  1  0.000000  0.000000  0.500000  1
  Al  Al6  1  0.661162  0.830581  0.261361  1
  Al  Al7  1  0.169419  0.830581  0.261361  1
  Al  Al8  1  0.169419  0.338838  0.261361  1
  Al  Al9  1  0.338838  0.169419  0.738639  1
  Al  Al10  1  0.830581  0.169419  0.738639  1
  Al  Al11  1  0.830581  0.661162  0.738639  1
