# generated using pymatgen
data_Tm2Al5Ga4Ir3
_symmetry_space_group_name_H-M   'P 1'
_cell_length_a   7.52420915
_cell_length_b   7.51906939
_cell_length_c   9.50696266
_cell_angle_alpha   90.09191821
_cell_angle_beta   89.86721908
_cell_angle_gamma   119.69389317
_symmetry_Int_Tables_number   1
_chemical_formula_structural   Tm2Al5Ga4Ir3
_chemical_formula_sum   'Tm4 Al10 Ga8 Ir6'
_cell_volume   467.22653006
_cell_formula_units_Z   2
loop_
 _symmetry_equiv_pos_site_id
 _symmetry_equiv_pos_as_xyz
  1  'x, y, z'
loop_
 _atom_site_type_symbol
 _atom_site_label
 _atom_site_symmetry_multiplicity
 _atom_site_fract_x
 _atom_site_fract_y
 _atom_site_fract_z
 _atom_site_occupancy
  Tm  Tm0  1  0.995947  0.667524  0.246471  1
  Tm  Tm1  1  0.004053  0.332476  0.753529  1
  Tm  Tm2  1  0.672143  0.998027  0.249077  1
  Tm  Tm3  1  0.327857  0.001973  0.750923  1
  Al  Al4  1  0.998420  0.665405  0.571752  1
  Al  Al5  1  0.334547  0.000575  0.426910  1
  Al  Al6  1  0.001580  0.334595  0.428248  1
  Al  Al7  1  0.665453  0.999425  0.573090  1
  Al  Al8  1  0.664456  0.997727  0.925891  1
  Al  Al9  1  0.335544  0.002273  0.074109  1
  Al  Al10  1  0.333247  0.333180  0.556473  1
  Al  Al11  1  0.666753  0.666820  0.443527  1
  Al  Al12  1  0.667010  0.666493  0.055764  1
  Al  Al13  1  0.332990  0.333507  0.944236  1
  Ga  Ga14  1  0.129080  0.126324  0.250466  1
  Ga  Ga15  1  0.870920  0.873676  0.749534  1
  Ga  Ga16  1  0.999023  0.333887  0.079640  1
  Ga  Ga17  1  0.000977  0.666113  0.920360  1
  Ga  Ga18  1  0.340625  0.549073  0.250672  1
  Ga  Ga19  1  0.659375  0.450927  0.749328  1
  Ga  Ga20  1  0.547295  0.339647  0.250143  1
  Ga  Ga21  1  0.452705  0.660353  0.749857  1
  Ir  Ir22  1  0.667273  0.325520  0.999299  1
  Ir  Ir23  1  0.332727  0.674480  0.000701  1
  Ir  Ir24  1  0.327876  0.672070  0.500651  1
  Ir  Ir25  1  0.672124  0.327930  0.499349  1
  Ir  Ir26  1  0.000000  0.000000  0.000000  1
  Ir  Ir27  1  0.000000  0.000000  0.500000  1
