# generated using pymatgen
data_Tb10Pb6AuCl
_symmetry_space_group_name_H-M   'P 1'
_cell_length_a   9.28163101
_cell_length_b   9.28156256
_cell_length_c   6.71469100
_cell_angle_alpha   90.00183150
_cell_angle_beta   90.00007681
_cell_angle_gamma   119.99863518
_symmetry_Int_Tables_number   1
_chemical_formula_structural   Tb10Pb6AuCl
_chemical_formula_sum   'Tb10 Pb6 Au1 Cl1'
_cell_volume   500.96574567
_cell_formula_units_Z   1
loop_
 _symmetry_equiv_pos_site_id
 _symmetry_equiv_pos_as_xyz
  1  'x, y, z'
loop_
 _atom_site_type_symbol
 _atom_site_label
 _atom_site_symmetry_multiplicity
 _atom_site_fract_x
 _atom_site_fract_y
 _atom_site_fract_z
 _atom_site_occupancy
  Tb  Tb0  1  0.258514  0.000013  0.247896  1
  Tb  Tb1  1  0.741486  0.999987  0.752104  1
  Tb  Tb2  1  0.000007  0.258510  0.247896  1
  Tb  Tb3  1  0.999993  0.741490  0.752104  1
  Tb  Tb4  1  0.741482  0.741486  0.247898  1
  Tb  Tb5  1  0.258518  0.258514  0.752102  1
  Tb  Tb6  1  0.333331  0.666671  0.000000  1
  Tb  Tb7  1  0.666669  0.333329  0.000000  1
  Tb  Tb8  1  0.666665  0.333333  0.500000  1
  Tb  Tb9  1  0.333335  0.666667  0.500000  1
  Pb  Pb10  1  0.610405  0.000009  0.249713  1
  Pb  Pb11  1  0.389595  0.999991  0.750287  1
  Pb  Pb12  1  0.000000  0.610409  0.249713  1
  Pb  Pb13  1  0.000000  0.389591  0.750287  1
  Pb  Pb14  1  0.389611  0.389617  0.249707  1
  Pb  Pb15  1  0.610389  0.610383  0.750293  1
  Au  Au16  1  0.000000  0.000000  0.500000  1
  Cl  Cl17  1  0.000000  0.000000  0.000000  1
