# generated using pymatgen
data_Y2Al(BRh2)3
_symmetry_space_group_name_H-M   'P 1'
_cell_length_a   5.52511100
_cell_length_b   5.52448719
_cell_length_c   13.08290200
_cell_angle_alpha   90.00006875
_cell_angle_beta   89.99994951
_cell_angle_gamma   120.01149457
_symmetry_Int_Tables_number   1
_chemical_formula_structural   Y2Al(BRh2)3
_chemical_formula_sum   'Y4 Al2 B6 Rh12'
_cell_volume   345.79394433
_cell_formula_units_Z   2
loop_
 _symmetry_equiv_pos_site_id
 _symmetry_equiv_pos_as_xyz
  1  'x, y, z'
loop_
 _atom_site_type_symbol
 _atom_site_label
 _atom_site_symmetry_multiplicity
 _atom_site_fract_x
 _atom_site_fract_y
 _atom_site_fract_z
 _atom_site_occupancy
  Y  Y0  1  0.999991  0.000001  0.000068  1
  Y  Y1  1  0.999989  0.000000  0.499978  1
  Y  Y2  1  0.999984  0.000000  0.256806  1
  Y  Y3  1  0.999997  0.000000  0.743296  1
  Al  Al4  1  0.333274  0.666763  0.000002  1
  Al  Al5  1  0.666712  0.333234  0.000005  1
  B  B6  1  0.333335  0.666640  0.499939  1
  B  B7  1  0.666643  0.333359  0.499938  1
  B  B8  1  0.333306  0.666681  0.265002  1
  B  B9  1  0.666666  0.333318  0.265002  1
  B  B10  1  0.666683  0.333315  0.735047  1
  B  B11  1  0.333303  0.666684  0.735047  1
  Rh  Rh12  1  0.499993  0.000016  0.156529  1
  Rh  Rh13  1  0.499997  0.499993  0.156578  1
  Rh  Rh14  1  0.999974  0.499995  0.156554  1
  Rh  Rh15  1  0.499997  0.000001  0.843757  1
  Rh  Rh16  1  0.499994  0.499999  0.843758  1
  Rh  Rh17  1  0.999997  0.499998  0.843766  1
  Rh  Rh18  1  0.499992  0.999997  0.384967  1
  Rh  Rh19  1  0.499991  0.499998  0.384947  1
  Rh  Rh20  1  0.999997  0.500000  0.384963  1
  Rh  Rh21  1  0.499995  0.000001  0.614680  1
  Rh  Rh22  1  0.499992  0.500003  0.614688  1
  Rh  Rh23  1  0.000001  0.500006  0.614681  1
