# generated using pymatgen
data_DyTm5Al24Os7Pt
_symmetry_space_group_name_H-M   'P 1'
_cell_length_a   8.80513329
_cell_length_b   8.80022992
_cell_length_c   9.52048989
_cell_angle_alpha   89.63438553
_cell_angle_beta   90.35478430
_cell_angle_gamma   119.88941276
_symmetry_Int_Tables_number   1
_chemical_formula_structural   DyTm5Al24Os7Pt
_chemical_formula_sum   'Dy1 Tm5 Al24 Os7 Pt1'
_cell_volume   639.57473036
_cell_formula_units_Z   1
loop_
 _symmetry_equiv_pos_site_id
 _symmetry_equiv_pos_as_xyz
  1  'x, y, z'
loop_
 _atom_site_type_symbol
 _atom_site_label
 _atom_site_symmetry_multiplicity
 _atom_site_fract_x
 _atom_site_fract_y
 _atom_site_fract_z
 _atom_site_occupancy
  Dy  Dy0  1  0.190924  0.387583  0.251542  1
  Tm  Tm1  1  0.808727  0.611154  0.748143  1
  Tm  Tm2  1  0.611075  0.808801  0.251847  1
  Tm  Tm3  1  0.388879  0.191321  0.748138  1
  Tm  Tm4  1  0.195952  0.804154  0.251672  1
  Tm  Tm5  1  0.804131  0.195976  0.748314  1
  Al  Al6  1  0.331706  0.668727  0.021724  1
  Al  Al7  1  0.668345  0.331719  0.977981  1
  Al  Al8  1  0.666580  0.333641  0.518495  1
  Al  Al9  1  0.333733  0.666791  0.481798  1
  Al  Al10  1  0.163797  0.325354  0.578116  1
  Al  Al11  1  0.836256  0.674655  0.422416  1
  Al  Al12  1  0.674803  0.836335  0.577802  1
  Al  Al13  1  0.842130  0.675634  0.077847  1
  Al  Al14  1  0.325432  0.163442  0.422444  1
  Al  Al15  1  0.157893  0.324387  0.921666  1
  Al  Al16  1  0.163400  0.836687  0.575899  1
  Al  Al17  1  0.324434  0.157705  0.077830  1
  Al  Al18  1  0.836268  0.163196  0.424355  1
  Al  Al19  1  0.675707  0.842134  0.921972  1
  Al  Al20  1  0.836549  0.162889  0.075825  1
  Al  Al21  1  0.163075  0.836975  0.923899  1
  Al  Al22  1  0.560168  0.121728  0.249055  1
  Al  Al23  1  0.439779  0.878212  0.750949  1
  Al  Al24  1  0.877731  0.439937  0.249032  1
  Al  Al25  1  0.121769  0.560246  0.750894  1
  Al  Al26  1  0.562052  0.438634  0.251884  1
  Al  Al27  1  0.438609  0.561478  0.748265  1
  Al  Al28  1  0.999235  0.999491  0.250146  1
  Al  Al29  1  0.000354  0.999685  0.749876  1
  Os  Os30  1  0.500146  0.000225  0.999897  1
  Os  Os31  1  0.999643  0.500209  0.999548  1
  Os  Os32  1  0.500133  0.000236  0.500104  1
  Os  Os33  1  0.999804  0.500216  0.500335  1
  Os  Os34  1  0.500508  0.500175  0.500392  1
  Os  Os35  1  0.000016  0.000063  0.999980  1
  Os  Os36  1  0.000025  0.000051  0.500063  1
  Pt  Pt37  1  0.500233  0.500155  0.999857  1
