# generated using pymatgen
data_Ho2Mn2VFe7P6
_symmetry_space_group_name_H-M   'P 1'
_cell_length_a   3.65566500
_cell_length_b   10.29600000
_cell_length_c   12.15028600
_cell_angle_alpha   90.00000000
_cell_angle_beta   90.00000000
_cell_angle_gamma   90.00000000
_symmetry_Int_Tables_number   1
_chemical_formula_structural   Ho2Mn2VFe7P6
_chemical_formula_sum   'Ho4 Mn4 V2 Fe14 P12'
_cell_volume   457.32129578
_cell_formula_units_Z   2
loop_
 _symmetry_equiv_pos_site_id
 _symmetry_equiv_pos_as_xyz
  1  'x, y, z'
loop_
 _atom_site_type_symbol
 _atom_site_label
 _atom_site_symmetry_multiplicity
 _atom_site_fract_x
 _atom_site_fract_y
 _atom_site_fract_z
 _atom_site_occupancy
  Ho  Ho0  1  0.250000  0.579997  0.710236  1
  Ho  Ho1  1  0.250000  0.920003  0.210236  1
  Ho  Ho2  1  0.750000  0.419060  0.289602  1
  Ho  Ho3  1  0.750000  0.080940  0.789602  1
  Mn  Mn4  1  0.250000  0.705001  0.992133  1
  Mn  Mn5  1  0.250000  0.794999  0.492133  1
  Mn  Mn6  1  0.250000  0.411179  0.490597  1
  Mn  Mn7  1  0.250000  0.088821  0.990597  1
  V  V8  1  0.750000  0.299587  0.007583  1
  V  V9  1  0.750000  0.200413  0.507583  1
  Fe  Fe10  1  0.750000  0.591168  0.509958  1
  Fe  Fe11  1  0.750000  0.908832  0.009958  1
  Fe  Fe12  1  0.250000  0.216828  0.172390  1
  Fe  Fe13  1  0.250000  0.283172  0.672390  1
  Fe  Fe14  1  0.750000  0.777886  0.827746  1
  Fe  Fe15  1  0.750000  0.722114  0.327746  1
  Fe  Fe16  1  0.250000  0.877970  0.694947  1
  Fe  Fe17  1  0.250000  0.622030  0.194947  1
  Fe  Fe18  1  0.750000  0.123424  0.303554  1
  Fe  Fe19  1  0.750000  0.376576  0.803554  1
  Fe  Fe20  1  0.250000  0.466253  0.936156  1
  Fe  Fe21  1  0.250000  0.033747  0.436156  1
  Fe  Fe22  1  0.750000  0.539298  0.064876  1
  Fe  Fe23  1  0.750000  0.960702  0.564876  1
  P  P24  1  0.250000  0.421747  0.113026  1
  P  P25  1  0.250000  0.078253  0.613026  1
  P  P26  1  0.750000  0.575568  0.886385  1
  P  P27  1  0.750000  0.924432  0.386385  1
  P  P28  1  0.250000  0.271264  0.861057  1
  P  P29  1  0.250000  0.228736  0.361057  1
  P  P30  1  0.750000  0.733036  0.139881  1
  P  P31  1  0.750000  0.766964  0.639881  1
  P  P32  1  0.250000  0.604787  0.380599  1
  P  P33  1  0.250000  0.895213  0.880599  1
  P  P34  1  0.750000  0.398421  0.619273  1
  P  P35  1  0.750000  0.101579  0.119273  1
