# generated using pymatgen
data_La3Ag5Ru
_symmetry_space_group_name_H-M   'P 1'
_cell_length_a   7.89641100
_cell_length_b   7.89641166
_cell_length_c   4.02661400
_cell_angle_alpha   90.00000000
_cell_angle_beta   90.00000000
_cell_angle_gamma   120.00000142
_symmetry_Int_Tables_number   1
_chemical_formula_structural   La3Ag5Ru
_chemical_formula_sum   'La3 Ag5 Ru1'
_cell_volume   217.43534945
_cell_formula_units_Z   1
loop_
 _symmetry_equiv_pos_site_id
 _symmetry_equiv_pos_as_xyz
  1  'x, y, z'
loop_
 _atom_site_type_symbol
 _atom_site_label
 _atom_site_symmetry_multiplicity
 _atom_site_fract_x
 _atom_site_fract_y
 _atom_site_fract_z
 _atom_site_occupancy
  La  La0  1  0.575179  0.966641  0.000000  1
  La  La1  1  0.033359  0.608538  0.000000  1
  La  La2  1  0.391462  0.424821  0.000000  1
  Ag  Ag3  1  0.262604  0.010701  0.500000  1
  Ag  Ag4  1  0.989299  0.251903  0.500000  1
  Ag  Ag5  1  0.748097  0.737396  0.500000  1
  Ag  Ag6  1  0.666667  0.333333  0.500000  1
  Ag  Ag7  1  0.000000  0.000000  0.000000  1
  Ru  Ru8  1  0.333333  0.666667  0.500000  1
