# generated using pymatgen
data_Cs4Na2YHoAs4
_symmetry_space_group_name_H-M   'P 1'
_cell_length_a   9.75816707
_cell_length_b   9.75816753
_cell_length_c   9.75816670
_cell_angle_alpha   136.19767786
_cell_angle_beta   136.36002160
_cell_angle_gamma   63.54961495
_symmetry_Int_Tables_number   1
_chemical_formula_structural   Cs4Na2YHoAs4
_chemical_formula_sum   'Cs4 Na2 Y1 Ho1 As4'
_cell_volume   438.07310191
_cell_formula_units_Z   1
loop_
 _symmetry_equiv_pos_site_id
 _symmetry_equiv_pos_as_xyz
  1  'x, y, z'
loop_
 _atom_site_type_symbol
 _atom_site_label
 _atom_site_symmetry_multiplicity
 _atom_site_fract_x
 _atom_site_fract_y
 _atom_site_fract_z
 _atom_site_occupancy
  Cs  Cs0  1  0.681206  0.392805  0.711477  1
  Cs  Cs1  1  0.818794  0.030270  0.211600  1
  Cs  Cs2  1  0.181330  0.969730  0.788523  1
  Cs  Cs3  1  0.318670  0.607195  0.288400  1
  Na  Na4  1  0.750000  0.000000  0.750000  1
  Na  Na5  1  0.250000  0.000000  0.250000  1
  Y  Y6  1  0.750000  0.500000  0.250000  1
  Ho  Ho7  1  0.250000  0.500000  0.750000  1
  As  As8  1  0.409004  0.188654  0.777907  1
  As  As9  1  0.589251  0.811346  0.220349  1
  As  As10  1  0.090996  0.368902  0.279651  1
  As  As11  1  0.910749  0.631098  0.722093  1
