# generated using pymatgen
data_TiCo4W7O24
_symmetry_space_group_name_H-M   'P 1'
_cell_length_a   4.69993100
_cell_length_b   10.58547665
_cell_length_c   9.40857204
_cell_angle_alpha   63.54962233
_cell_angle_beta   90.42575164
_cell_angle_gamma   90.22120729
_symmetry_Int_Tables_number   1
_chemical_formula_structural   TiCo4W7O24
_chemical_formula_sum   'Ti1 Co4 W7 O24'
_cell_volume   419.07529051
_cell_formula_units_Z   1
loop_
 _symmetry_equiv_pos_site_id
 _symmetry_equiv_pos_as_xyz
  1  'x, y, z'
loop_
 _atom_site_type_symbol
 _atom_site_label
 _atom_site_symmetry_multiplicity
 _atom_site_fract_x
 _atom_site_fract_y
 _atom_site_fract_z
 _atom_site_occupancy
  Ti  Ti0  1  0.016673  0.996285  0.490716  1
  Co  Co1  1  0.000014  0.328127  0.335577  1
  Co  Co2  1  0.498621  0.834471  0.831210  1
  Co  Co3  1  0.000141  0.333489  0.833206  1
  Co  Co4  1  0.498079  0.832505  0.336015  1
  W  W5  1  0.991670  0.001254  0.003122  1
  W  W6  1  0.998888  0.668229  0.165823  1
  W  W7  1  0.000900  0.674821  0.663778  1
  W  W8  1  0.501698  0.167445  0.170059  1
  W  W9  1  0.501301  0.158983  0.664191  1
  W  W10  1  0.499178  0.498154  0.000405  1
  W  W11  1  0.499041  0.495373  0.504364  1
  O  O12  1  0.190281  0.840161  0.676224  1
  O  O13  1  0.193707  0.834644  0.176719  1
  O  O14  1  0.307610  0.332928  0.180263  1
  O  O15  1  0.312393  0.325999  0.680508  1
  O  O16  1  0.690916  0.333685  0.988246  1
  O  O17  1  0.687713  0.324824  0.493510  1
  O  O18  1  0.809039  0.835242  0.984101  1
  O  O19  1  0.808660  0.839794  0.486911  1
  O  O20  1  0.206101  0.160577  0.024615  1
  O  O21  1  0.205788  0.156788  0.524618  1
  O  O22  1  0.207093  0.508481  0.848619  1
  O  O23  1  0.207253  0.504898  0.351731  1
  O  O24  1  0.293806  0.005026  0.348695  1
  O  O25  1  0.292961  0.016893  0.846552  1
  O  O26  1  0.291730  0.660392  0.023952  1
  O  O27  1  0.292203  0.658556  0.524920  1
  O  O28  1  0.704172  0.004811  0.143685  1
  O  O29  1  0.705383  0.018163  0.641682  1
  O  O30  1  0.708577  0.660279  0.815775  1
  O  O31  1  0.707752  0.658411  0.316885  1
  O  O32  1  0.794485  0.154514  0.319226  1
  O  O33  1  0.789862  0.162453  0.817538  1
  O  O34  1  0.792301  0.505225  0.144857  1
  O  O35  1  0.794009  0.508115  0.641698  1
