# generated using pymatgen
data_CdHgRu4(PbO7)2
_symmetry_space_group_name_H-M   'P 1'
_cell_length_a   7.26911375
_cell_length_b   7.35547588
_cell_length_c   7.35547652
_cell_angle_alpha   60.48272559
_cell_angle_beta   59.98212915
_cell_angle_gamma   59.98212105
_symmetry_Int_Tables_number   1
_chemical_formula_structural   CdHgRu4(PbO7)2
_chemical_formula_sum   'Cd1 Hg1 Ru4 Pb2 O14'
_cell_volume   279.01604751
_cell_formula_units_Z   1
loop_
 _symmetry_equiv_pos_site_id
 _symmetry_equiv_pos_as_xyz
  1  'x, y, z'
loop_
 _atom_site_type_symbol
 _atom_site_label
 _atom_site_symmetry_multiplicity
 _atom_site_fract_x
 _atom_site_fract_y
 _atom_site_fract_z
 _atom_site_occupancy
  Cd  Cd0  1  0.125000  0.125000  0.125000  1
  Hg  Hg1  1  0.625000  0.125000  0.125000  1
  Ru  Ru2  1  0.625000  0.125000  0.625000  1
  Ru  Ru3  1  0.625000  0.625000  0.125000  1
  Ru  Ru4  1  0.125000  0.625000  0.625000  1
  Ru  Ru5  1  0.625000  0.625000  0.625000  1
  Pb  Pb6  1  0.125000  0.625000  0.125000  1
  Pb  Pb7  1  0.125000  0.125000  0.625000  1
  O  O8  1  0.700820  0.685867  0.307713  1
  O  O9  1  0.950495  0.550017  0.550017  1
  O  O10  1  0.558704  0.937618  0.937618  1
  O  O11  1  0.947589  0.944180  0.559158  1
  O  O12  1  0.947589  0.559158  0.944180  1
  O  O13  1  0.549180  0.942287  0.564133  1
  O  O14  1  0.302411  0.690842  0.305820  1
  O  O15  1  0.299505  0.699983  0.699983  1
  O  O16  1  0.691296  0.312382  0.312382  1
  O  O17  1  0.700820  0.307713  0.685867  1
  O  O18  1  0.549180  0.564133  0.942287  1
  O  O19  1  0.302411  0.305820  0.690842  1
  O  O20  1  0.271154  0.231405  0.231405  1
  O  O21  1  0.978846  0.018595  0.018595  1
