# generated using pymatgen
data_TiRe2Cl13
_symmetry_space_group_name_H-M   'P 1'
_cell_length_a   11.48307800
_cell_length_b   9.86498314
_cell_length_c   10.35162607
_cell_angle_alpha   84.35569794
_cell_angle_beta   90.00000000
_cell_angle_gamma   90.00000000
_symmetry_Int_Tables_number   1
_chemical_formula_structural   TiRe2Cl13
_chemical_formula_sum   'Ti2 Re4 Cl26'
_cell_volume   1166.95069090
_cell_formula_units_Z   2
loop_
 _symmetry_equiv_pos_site_id
 _symmetry_equiv_pos_as_xyz
  1  'x, y, z'
loop_
 _atom_site_type_symbol
 _atom_site_label
 _atom_site_symmetry_multiplicity
 _atom_site_fract_x
 _atom_site_fract_y
 _atom_site_fract_z
 _atom_site_occupancy
  Ti  Ti0  1  0.250000  0.260384  0.502509  1
  Ti  Ti1  1  0.750000  0.739616  0.497491  1
  Re  Re2  1  0.250000  0.824905  0.089395  1
  Re  Re3  1  0.750000  0.175095  0.910605  1
  Re  Re4  1  0.250000  0.688627  0.873904  1
  Re  Re5  1  0.750000  0.311373  0.126096  1
  Cl  Cl6  1  0.594657  0.819336  0.585614  1
  Cl  Cl7  1  0.094657  0.180664  0.414386  1
  Cl  Cl8  1  0.750000  0.423220  0.904911  1
  Cl  Cl9  1  0.250000  0.576780  0.095089  1
  Cl  Cl10  1  0.903767  0.153848  0.074692  1
  Cl  Cl11  1  0.403767  0.846152  0.925308  1
  Cl  Cl12  1  0.096233  0.846152  0.925308  1
  Cl  Cl13  1  0.596233  0.153848  0.074692  1
  Cl  Cl14  1  0.750000  0.204931  0.331535  1
  Cl  Cl15  1  0.250000  0.795069  0.668465  1
  Cl  Cl16  1  0.893332  0.458637  0.172354  1
  Cl  Cl17  1  0.393332  0.541363  0.827646  1
  Cl  Cl18  1  0.106668  0.541363  0.827646  1
  Cl  Cl19  1  0.606668  0.458637  0.172354  1
  Cl  Cl20  1  0.750000  0.943054  0.918064  1
  Cl  Cl21  1  0.250000  0.056946  0.081936  1
  Cl  Cl22  1  0.893254  0.196023  0.757623  1
  Cl  Cl23  1  0.393254  0.803977  0.242377  1
  Cl  Cl24  1  0.106746  0.803977  0.242377  1
  Cl  Cl25  1  0.606746  0.196023  0.757623  1
  Cl  Cl26  1  0.750000  0.801734  0.289102  1
  Cl  Cl27  1  0.250000  0.198266  0.710898  1
  Cl  Cl28  1  0.750000  0.517616  0.531172  1
  Cl  Cl29  1  0.250000  0.482384  0.468828  1
  Cl  Cl30  1  0.905343  0.819336  0.585614  1
  Cl  Cl31  1  0.405343  0.180664  0.414386  1
