# generated using pymatgen
data_Tm4Sc8TlInFe3
_symmetry_space_group_name_H-M   'P 1'
_cell_length_a   7.93310537
_cell_length_b   7.93310798
_cell_length_c   7.93310620
_cell_angle_alpha   108.26830567
_cell_angle_beta   108.22352699
_cell_angle_gamma   111.95063301
_symmetry_Int_Tables_number   1
_chemical_formula_structural   Tm4Sc8TlInFe3
_chemical_formula_sum   'Tm4 Sc8 Tl1 In1 Fe3'
_cell_volume   383.79090721
_cell_formula_units_Z   1
loop_
 _symmetry_equiv_pos_site_id
 _symmetry_equiv_pos_as_xyz
  1  'x, y, z'
loop_
 _atom_site_type_symbol
 _atom_site_label
 _atom_site_symmetry_multiplicity
 _atom_site_fract_x
 _atom_site_fract_y
 _atom_site_fract_z
 _atom_site_occupancy
  Tm  Tm0  1  0.303535  0.303451  0.606985  1
  Tm  Tm1  1  0.696465  0.696549  0.393015  1
  Tm  Tm2  1  0.696465  0.303451  0.999917  1
  Tm  Tm3  1  0.303535  0.696549  0.000083  1
  Sc  Sc4  1  0.189530  0.422120  0.232591  1
  Sc  Sc5  1  0.810470  0.577880  0.767409  1
  Sc  Sc6  1  0.189530  0.956939  0.767409  1
  Sc  Sc7  1  0.956921  0.189449  0.767472  1
  Sc  Sc8  1  0.810470  0.043061  0.232591  1
  Sc  Sc9  1  0.043079  0.810551  0.232528  1
  Sc  Sc10  1  0.421977  0.189449  0.232528  1
  Sc  Sc11  1  0.578023  0.810551  0.767472  1
  Tl  Tl12  1  0.000000  0.500000  0.500000  1
  In  In13  1  0.500000  0.000000  0.500000  1
  Fe  Fe14  1  0.377779  0.377779  0.000000  1
  Fe  Fe15  1  0.622221  0.622221  0.000000  1
  Fe  Fe16  1  0.000000  0.000000  0.000000  1
