# generated using pymatgen
data_Zr8Tc4Ir3Ru
_symmetry_space_group_name_H-M   'P 1'
_cell_length_a   6.56282100
_cell_length_b   4.67429500
_cell_length_c   9.33929700
_cell_angle_alpha   89.99996934
_cell_angle_beta   89.99830654
_cell_angle_gamma   90.00019409
_symmetry_Int_Tables_number   1
_chemical_formula_structural   Zr8Tc4Ir3Ru
_chemical_formula_sum   'Zr8 Tc4 Ir3 Ru1'
_cell_volume   286.49751766
_cell_formula_units_Z   1
loop_
 _symmetry_equiv_pos_site_id
 _symmetry_equiv_pos_as_xyz
  1  'x, y, z'
loop_
 _atom_site_type_symbol
 _atom_site_label
 _atom_site_symmetry_multiplicity
 _atom_site_fract_x
 _atom_site_fract_y
 _atom_site_fract_z
 _atom_site_occupancy
  Zr  Zr0  1  0.999152  0.749999  0.123320  1
  Zr  Zr1  1  0.501291  0.749999  0.123315  1
  Zr  Zr2  1  0.500542  0.249999  0.374986  1
  Zr  Zr3  1  0.999890  0.249998  0.374979  1
  Zr  Zr4  1  0.998717  0.749998  0.626705  1
  Zr  Zr5  1  0.500844  0.750000  0.626692  1
  Zr  Zr6  1  0.502077  0.249998  0.874982  1
  Zr  Zr7  1  0.997489  0.249998  0.874994  1
  Tc  Tc8  1  0.750164  0.250000  0.125983  1
  Tc  Tc9  1  0.250171  0.749998  0.374999  1
  Tc  Tc10  1  0.749832  0.249999  0.624012  1
  Tc  Tc11  1  0.249834  0.749999  0.874999  1
  Ir  Ir12  1  0.250178  0.249999  0.125424  1
  Ir  Ir13  1  0.750184  0.750000  0.375001  1
  Ir  Ir14  1  0.249817  0.250000  0.624567  1
  Ru  Ru15  1  0.749816  0.749999  0.875040  1
