# generated using pymatgen
data_Tm2Pa2Ge6Ir2Rh5
_symmetry_space_group_name_H-M   'P 1'
_cell_length_a   7.27701905
_cell_length_b   7.30127638
_cell_length_c   7.27693903
_cell_angle_alpha   109.47854440
_cell_angle_beta   109.32420572
_cell_angle_gamma   109.47996324
_symmetry_Int_Tables_number   1
_chemical_formula_structural   Tm2Pa2Ge6Ir2Rh5
_chemical_formula_sum   'Tm2 Pa2 Ge6 Ir2 Rh5'
_cell_volume   298.11115397
_cell_formula_units_Z   1
loop_
 _symmetry_equiv_pos_site_id
 _symmetry_equiv_pos_as_xyz
  1  'x, y, z'
loop_
 _atom_site_type_symbol
 _atom_site_label
 _atom_site_symmetry_multiplicity
 _atom_site_fract_x
 _atom_site_fract_y
 _atom_site_fract_z
 _atom_site_occupancy
  Tm  Tm0  1  0.999890  0.999785  0.499896  1
  Tm  Tm1  1  0.499888  0.999774  0.999881  1
  Pa  Pa2  1  0.000270  0.500357  0.000275  1
  Pa  Pa3  1  0.500107  0.500334  0.500099  1
  Ge  Ge4  1  0.682628  0.687477  0.004829  1
  Ge  Ge5  1  0.316308  0.000694  0.316321  1
  Ge  Ge6  1  0.994383  0.311893  0.317557  1
  Ge  Ge7  1  0.317543  0.311889  0.994368  1
  Ge  Ge8  1  0.684392  0.000755  0.684388  1
  Ge  Ge9  1  0.004815  0.687466  0.682620  1
  Ir  Ir10  1  0.249885  0.746024  0.496178  1
  Ir  Ir11  1  0.496175  0.746044  0.249901  1
  Rh  Rh12  1  0.749655  0.252968  0.503252  1
  Rh  Rh13  1  0.750303  0.500578  0.250267  1
  Rh  Rh14  1  0.503279  0.252973  0.749657  1
  Rh  Rh15  1  0.250298  0.500609  0.750331  1
  Rh  Rh16  1  0.000180  0.000381  0.000183  1
