# generated using pymatgen
data_Tb3Dy2InSb2
_symmetry_space_group_name_H-M   'P 1'
_cell_length_a   6.50409800
_cell_length_b   9.00821441
_cell_length_c   9.02188900
_cell_angle_alpha   120.05163818
_cell_angle_beta   90.00012763
_cell_angle_gamma   90.00000410
_symmetry_Int_Tables_number   1
_chemical_formula_structural   Tb3Dy2InSb2
_chemical_formula_sum   'Tb6 Dy4 In2 Sb4'
_cell_volume   457.53854396
_cell_formula_units_Z   2
loop_
 _symmetry_equiv_pos_site_id
 _symmetry_equiv_pos_as_xyz
  1  'x, y, z'
loop_
 _atom_site_type_symbol
 _atom_site_label
 _atom_site_symmetry_multiplicity
 _atom_site_fract_x
 _atom_site_fract_y
 _atom_site_fract_z
 _atom_site_occupancy
  Tb  Tb0  1  0.750000  0.241906  0.004329  1
  Tb  Tb1  1  0.750001  0.758101  0.762422  1
  Tb  Tb2  1  0.749999  0.999995  0.240012  1
  Tb  Tb3  1  0.249999  0.759156  0.997890  1
  Tb  Tb4  1  0.250000  0.240856  0.238736  1
  Tb  Tb5  1  0.250002  0.000002  0.757076  1
  Dy  Dy6  1  0.499442  0.336121  0.667714  1
  Dy  Dy7  1  0.499443  0.663880  0.331595  1
  Dy  Dy8  1  0.000558  0.663879  0.331593  1
  Dy  Dy9  1  0.000558  0.336123  0.667714  1
  In  In10  1  0.750000  0.604736  0.000971  1
  In  In11  1  0.750001  0.395248  0.396168  1
  Sb  Sb12  1  0.750003  0.999987  0.608452  1
  Sb  Sb13  1  0.249999  0.392583  0.998416  1
  Sb  Sb14  1  0.250000  0.607441  0.605820  1
  Sb  Sb15  1  0.250000  0.999986  0.391094  1
