# generated using pymatgen
data_YEr4ReOsC7
_symmetry_space_group_name_H-M   'P 1'
_cell_length_a   8.20802901
_cell_length_b   8.20803045
_cell_length_c   3.44991900
_cell_angle_alpha   90.00000000
_cell_angle_beta   90.00000000
_cell_angle_gamma   122.04313841
_symmetry_Int_Tables_number   1
_chemical_formula_structural   YEr4ReOsC7
_chemical_formula_sum   'Y1 Er4 Re1 Os1 C7'
_cell_volume   197.01655943
_cell_formula_units_Z   1
loop_
 _symmetry_equiv_pos_site_id
 _symmetry_equiv_pos_as_xyz
  1  'x, y, z'
loop_
 _atom_site_type_symbol
 _atom_site_label
 _atom_site_symmetry_multiplicity
 _atom_site_fract_x
 _atom_site_fract_y
 _atom_site_fract_z
 _atom_site_occupancy
  Y  Y0  1  0.500654  0.499346  0.000000  1
  Er  Er1  1  0.076116  0.337443  0.500000  1
  Er  Er2  1  0.922133  0.661838  0.500000  1
  Er  Er3  1  0.662557  0.923884  0.500000  1
  Er  Er4  1  0.338162  0.077867  0.500000  1
  Re  Re5  1  0.284225  0.715775  0.000000  1
  Os  Os6  1  0.714132  0.285868  0.000000  1
  C  C7  1  0.631981  0.368019  0.500000  1
  C  C8  1  0.373308  0.626692  0.500000  1
  C  C9  1  0.999438  0.000562  0.000000  1
  C  C10  1  0.170084  0.170854  0.000000  1
  C  C11  1  0.829146  0.829916  0.000000  1
  C  C12  1  0.999307  0.501242  0.000000  1
  C  C13  1  0.498758  0.000693  0.000000  1
