# generated using pymatgen
data_Ac2CdAg3O8
_symmetry_space_group_name_H-M   'P 1'
_cell_length_a   7.03699837
_cell_length_b   6.95370036
_cell_length_c   6.75257400
_cell_angle_alpha   126.40547562
_cell_angle_beta   125.23586590
_cell_angle_gamma   82.07721514
_symmetry_Int_Tables_number   1
_chemical_formula_structural   Ac2CdAg3O8
_chemical_formula_sum   'Ac2 Cd1 Ag3 O8'
_cell_volume   206.42825502
_cell_formula_units_Z   1
loop_
 _symmetry_equiv_pos_site_id
 _symmetry_equiv_pos_as_xyz
  1  'x, y, z'
loop_
 _atom_site_type_symbol
 _atom_site_label
 _atom_site_symmetry_multiplicity
 _atom_site_fract_x
 _atom_site_fract_y
 _atom_site_fract_z
 _atom_site_occupancy
  Ac  Ac0  1  0.753619  0.250154  0.502989  1
  Ac  Ac1  1  0.996381  0.999846  0.997011  1
  Cd  Cd2  1  0.375000  0.125000  0.750000  1
  Ag  Ag3  1  0.375000  0.625000  0.250000  1
  Ag  Ag4  1  0.875000  0.625000  0.250000  1
  Ag  Ag5  1  0.375000  0.625000  0.750000  1
  O  O6  1  0.026700  0.994087  0.638179  1
  O  O7  1  0.602613  0.932295  0.934599  1
  O  O8  1  0.023413  0.679823  0.094675  1
  O  O9  1  0.392420  0.853762  0.138408  1
  O  O10  1  0.726587  0.570177  0.405325  1
  O  O11  1  0.147387  0.317705  0.565401  1
  O  O12  1  0.357580  0.396238  0.361592  1
  O  O13  1  0.723300  0.255913  0.861821  1
