# generated using pymatgen
data_CeAl28
_symmetry_space_group_name_H-M   'P 1'
_cell_length_a   8.77446750
_cell_length_b   8.77446769
_cell_length_c   8.77446748
_cell_angle_alpha   110.19719765
_cell_angle_beta   110.19719813
_cell_angle_gamma   110.19719797
_symmetry_Int_Tables_number   1
_chemical_formula_structural   CeAl28
_chemical_formula_sum   'Ce1 Al28'
_cell_volume   505.58381056
_cell_formula_units_Z   1
loop_
 _symmetry_equiv_pos_site_id
 _symmetry_equiv_pos_as_xyz
  1  'x, y, z'
loop_
 _atom_site_type_symbol
 _atom_site_label
 _atom_site_symmetry_multiplicity
 _atom_site_fract_x
 _atom_site_fract_y
 _atom_site_fract_z
 _atom_site_occupancy
  Ce  Ce0  1  0.367891  0.367891  0.367891  1
  Al  Al1  1  0.988721  0.988721  0.988721  1
  Al  Al2  1  0.311054  0.311054  0.719269  1
  Al  Al3  1  0.607272  0.607272  0.275358  1
  Al  Al4  1  0.994732  0.994732  0.651788  1
  Al  Al5  1  0.689988  0.405702  0.997061  1
  Al  Al6  1  0.997061  0.689988  0.405702  1
  Al  Al7  1  0.607272  0.275358  0.607272  1
  Al  Al8  1  0.994732  0.651788  0.994732  1
  Al  Al9  1  0.405702  0.997061  0.689988  1
  Al  Al10  1  0.719269  0.311054  0.311054  1
  Al  Al11  1  0.311054  0.719269  0.311054  1
  Al  Al12  1  0.997061  0.405702  0.689988  1
  Al  Al13  1  0.651788  0.994732  0.994732  1
  Al  Al14  1  0.275358  0.607272  0.607272  1
  Al  Al15  1  0.689988  0.997061  0.405702  1
  Al  Al16  1  0.405702  0.689988  0.997061  1
  Al  Al17  1  0.620207  0.620207  0.810716  1
  Al  Al18  1  0.809550  0.809550  0.181404  1
  Al  Al19  1  0.378329  0.192956  0.995569  1
  Al  Al20  1  0.810716  0.620207  0.620207  1
  Al  Al21  1  0.192956  0.995569  0.378329  1
  Al  Al22  1  0.181404  0.809550  0.809550  1
  Al  Al23  1  0.378329  0.995569  0.192956  1
  Al  Al24  1  0.995569  0.378329  0.192956  1
  Al  Al25  1  0.809550  0.181404  0.809550  1
  Al  Al26  1  0.995569  0.192956  0.378329  1
  Al  Al27  1  0.620207  0.810716  0.620207  1
  Al  Al28  1  0.192956  0.378329  0.995569  1
