# generated using pymatgen
data_Ho3Er5Tc3B24Rh
_symmetry_space_group_name_H-M   'P 1'
_cell_length_a   3.66071600
_cell_length_b   9.12522408
_cell_length_c   11.50563800
_cell_angle_alpha   90.12759276
_cell_angle_beta   90.00000000
_cell_angle_gamma   90.00000000
_symmetry_Int_Tables_number   1
_chemical_formula_structural   Ho3Er5Tc3B24Rh
_chemical_formula_sum   'Ho3 Er5 Tc3 B24 Rh1'
_cell_volume   384.34320249
_cell_formula_units_Z   1
loop_
 _symmetry_equiv_pos_site_id
 _symmetry_equiv_pos_as_xyz
  1  'x, y, z'
loop_
 _atom_site_type_symbol
 _atom_site_label
 _atom_site_symmetry_multiplicity
 _atom_site_fract_x
 _atom_site_fract_y
 _atom_site_fract_z
 _atom_site_occupancy
  Ho  Ho0  1  0.500000  0.318811  0.415749  1
  Ho  Ho1  1  0.500000  0.677879  0.591073  1
  Ho  Ho2  1  0.500000  0.176898  0.912803  1
  Er  Er3  1  0.500000  0.827404  0.081221  1
  Er  Er4  1  0.500000  0.440837  0.128966  1
  Er  Er5  1  0.500000  0.556862  0.871138  1
  Er  Er6  1  0.500000  0.055938  0.629559  1
  Er  Er7  1  0.500000  0.944070  0.369730  1
  Tc  Tc8  1  0.500000  0.138579  0.180241  1
  Tc  Tc9  1  0.500000  0.861288  0.820813  1
  Tc  Tc10  1  0.500000  0.362290  0.677890  1
  B  B11  1  0.000000  0.101924  0.471260  1
  B  B12  1  0.000000  0.895164  0.528215  1
  B  B13  1  0.000000  0.396908  0.971908  1
  B  B14  1  0.000000  0.604164  0.029375  1
  B  B15  1  0.000000  0.131011  0.315094  1
  B  B16  1  0.000000  0.868303  0.685359  1
  B  B17  1  0.000000  0.369131  0.814352  1
  B  B18  1  0.000000  0.631988  0.183826  1
  B  B19  1  0.000000  0.053555  0.066505  1
  B  B20  1  0.000000  0.947022  0.932780  1
  B  B21  1  0.000000  0.446380  0.566543  1
  B  B22  1  0.000000  0.554075  0.433811  1
  B  B23  1  0.000000  0.483167  0.287863  1
  B  B24  1  0.000000  0.517923  0.712428  1
  B  B25  1  0.000000  0.017386  0.787104  1
  B  B26  1  0.000000  0.982772  0.211902  1
  B  B27  1  0.000000  0.249327  0.081053  1
  B  B28  1  0.000000  0.751471  0.919241  1
  B  B29  1  0.000000  0.250205  0.580793  1
  B  B30  1  0.000000  0.749255  0.420380  1
  B  B31  1  0.000000  0.292131  0.235304  1
  B  B32  1  0.000000  0.707859  0.765812  1
  B  B33  1  0.000000  0.208087  0.734274  1
  B  B34  1  0.000000  0.791611  0.264743  1
  Rh  Rh35  1  0.500000  0.638326  0.320891  1
