# generated using pymatgen
data_SrLi2P10(PbO10)3
_symmetry_space_group_name_H-M   'P 1'
_cell_length_a   5.61848209
_cell_length_b   9.70845200
_cell_length_c   12.52375365
_cell_angle_alpha   89.64961556
_cell_angle_beta   91.41082280
_cell_angle_gamma   90.21588589
_symmetry_Int_Tables_number   1
_chemical_formula_structural   SrLi2P10(PbO10)3
_chemical_formula_sum   'Sr1 Li2 P10 Pb3 O30'
_cell_volume   682.90590393
_cell_formula_units_Z   1
loop_
 _symmetry_equiv_pos_site_id
 _symmetry_equiv_pos_as_xyz
  1  'x, y, z'
loop_
 _atom_site_type_symbol
 _atom_site_label
 _atom_site_symmetry_multiplicity
 _atom_site_fract_x
 _atom_site_fract_y
 _atom_site_fract_z
 _atom_site_occupancy
  Sr  Sr0  1  0.088117  0.678697  0.095310  1
  Li  Li1  1  0.558306  0.019902  0.473222  1
  Li  Li2  1  0.062718  0.978689  0.969812  1
  P  P3  1  0.887784  0.460561  0.345789  1
  P  P4  1  0.103342  0.538955  0.651825  1
  P  P5  1  0.599929  0.460625  0.152053  1
  P  P6  1  0.387921  0.540227  0.849792  1
  P  P7  1  0.262201  0.999877  0.252571  1
  P  P8  1  0.762772  0.999721  0.750907  1
  P  P9  1  0.076308  0.189037  0.416289  1
  P  P10  1  0.920643  0.808292  0.581054  1
  P  P11  1  0.420865  0.190385  0.079364  1
  P  P12  1  0.576470  0.812328  0.918360  1
  Pb  Pb13  1  0.900318  0.312009  0.913060  1
  Pb  Pb14  1  0.401171  0.690971  0.413766  1
  Pb  Pb15  1  0.597761  0.317848  0.592588  1
  O  O16  1  0.728615  0.385288  0.253557  1
  O  O17  1  0.242275  0.611565  0.750751  1
  O  O18  1  0.306105  0.167685  0.478216  1
  O  O19  1  0.689664  0.836791  0.521209  1
  O  O20  1  0.190893  0.160611  0.019444  1
  O  O21  1  0.806751  0.832366  0.980027  1
  O  O22  1  0.420138  0.935102  0.337909  1
  O  O23  1  0.622006  0.084190  0.671483  1
  O  O24  1  0.124111  0.910209  0.177026  1
  O  O25  1  0.919066  0.068884  0.834234  1
  O  O26  1  0.840572  0.165340  0.468596  1
  O  O27  1  0.150948  0.827176  0.524856  1
  O  O28  1  0.653117  0.172716  0.024945  1
  O  O29  1  0.341611  0.835699  0.969830  1
  O  O30  1  0.087821  0.345697  0.369634  1
  O  O31  1  0.899986  0.651932  0.627027  1
  O  O32  1  0.399582  0.347488  0.122743  1
  O  O33  1  0.588023  0.655669  0.872479  1
  O  O34  1  0.732778  0.479742  0.441392  1
  O  O35  1  0.273362  0.527488  0.560465  1
  O  O36  1  0.781999  0.476144  0.065554  1
  O  O37  1  0.221650  0.527657  0.942061  1
  O  O38  1  0.009426  0.585960  0.300723  1
  O  O39  1  0.981058  0.408609  0.686958  1
  O  O40  1  0.474519  0.589378  0.184818  1
  O  O41  1  0.511433  0.412067  0.812888  1
  O  O42  1  0.434088  0.105623  0.189921  1
  O  O43  1  0.573679  0.899033  0.807793  1
  O  O44  1  0.071786  0.101384  0.307504  1
  O  O45  1  0.936316  0.894384  0.690196  1
