# generated using pymatgen
data_Sr3PrOs6O19
_symmetry_space_group_name_H-M   'P 1'
_cell_length_a   8.02097231
_cell_length_b   8.00260837
_cell_length_c   8.00260878
_cell_angle_alpha   109.42469427
_cell_angle_beta   109.51770978
_cell_angle_gamma   109.51771058
_symmetry_Int_Tables_number   1
_chemical_formula_structural   Sr3PrOs6O19
_chemical_formula_sum   'Sr3 Pr1 Os6 O19'
_cell_volume   395.20166368
_cell_formula_units_Z   1
loop_
 _symmetry_equiv_pos_site_id
 _symmetry_equiv_pos_as_xyz
  1  'x, y, z'
loop_
 _atom_site_type_symbol
 _atom_site_label
 _atom_site_symmetry_multiplicity
 _atom_site_fract_x
 _atom_site_fract_y
 _atom_site_fract_z
 _atom_site_occupancy
  Sr  Sr0  1  0.000208  0.998727  0.303460  1
  Sr  Sr1  1  0.001480  0.304733  0.001273  1
  Sr  Sr2  1  0.696747  0.696540  0.695267  1
  Pr  Pr3  1  0.295985  0.000000  0.000000  1
  Os  Os4  1  0.362298  0.499555  0.861925  1
  Os  Os5  1  0.862744  0.362370  0.500445  1
  Os  Os6  1  0.500374  0.138075  0.637630  1
  Os  Os7  1  0.136172  0.636113  0.499717  1
  Os  Os8  1  0.500058  0.863604  0.363887  1
  Os  Os9  1  0.636455  0.500283  0.136396  1
  O  O10  1  0.332097  0.000474  0.329162  1
  O  O11  1  0.331623  0.328688  0.999526  1
  O  O12  1  0.002936  0.670838  0.671312  1
  O  O13  1  0.667172  0.668841  0.998881  1
  O  O14  1  0.998333  0.330041  0.331159  1
  O  O15  1  0.668291  0.001119  0.669959  1
  O  O16  1  0.021342  0.000000  0.000000  1
  O  O17  1  0.353916  0.288895  0.641375  1
  O  O18  1  0.065020  0.352478  0.711105  1
  O  O19  1  0.712542  0.358625  0.647522  1
  O  O20  1  0.358929  0.649451  0.713531  1
  O  O21  1  0.286669  0.937734  0.652597  1
  O  O22  1  0.634072  0.347403  0.285136  1
  O  O23  1  0.289231  0.642201  0.354771  1
  O  O24  1  0.709479  0.064080  0.350549  1
  O  O25  1  0.934460  0.645229  0.287429  1
  O  O26  1  0.647031  0.712571  0.357799  1
  O  O27  1  0.645399  0.286469  0.935920  1
  O  O28  1  0.348935  0.714864  0.062266  1
