# generated using pymatgen
data_Ho8Ta3Ti8Si16Hg
_symmetry_space_group_name_H-M   'P 1'
_cell_length_a   7.06183762
_cell_length_b   7.06183730
_cell_length_c   12.92317834
_cell_angle_alpha   90.15022174
_cell_angle_beta   89.84977481
_cell_angle_gamma   89.56672156
_symmetry_Int_Tables_number   1
_chemical_formula_structural   Ho8Ta3Ti8Si16Hg
_chemical_formula_sum   'Ho8 Ta3 Ti8 Si16 Hg1'
_cell_volume   644.45017580
_cell_formula_units_Z   1
loop_
 _symmetry_equiv_pos_site_id
 _symmetry_equiv_pos_as_xyz
  1  'x, y, z'
loop_
 _atom_site_type_symbol
 _atom_site_label
 _atom_site_symmetry_multiplicity
 _atom_site_fract_x
 _atom_site_fract_y
 _atom_site_fract_z
 _atom_site_occupancy
  Ho  Ho0  1  0.342471  0.000592  0.467226  1
  Ho  Ho1  1  0.498193  0.840717  0.716068  1
  Ho  Ho2  1  0.500777  0.156732  0.215823  1
  Ho  Ho3  1  0.840717  0.498193  0.283932  1
  Ho  Ho4  1  0.156732  0.500777  0.784177  1
  Ho  Ho5  1  0.657022  0.002046  0.968512  1
  Ho  Ho6  1  0.000592  0.342471  0.532774  1
  Ho  Ho7  1  0.002046  0.657022  0.031488  1
  Ta  Ta8  1  0.173086  0.826323  0.250627  1
  Ta  Ta9  1  0.826323  0.173086  0.749373  1
  Ta  Ta10  1  0.672866  0.672866  0.500000  1
  Ti  Ti11  1  0.146725  0.009252  0.875956  1
  Ti  Ti12  1  0.495356  0.650368  0.123432  1
  Ti  Ti13  1  0.508484  0.350840  0.624106  1
  Ti  Ti14  1  0.650368  0.495356  0.876568  1
  Ti  Ti15  1  0.350840  0.508484  0.375894  1
  Ti  Ti16  1  0.847313  0.990466  0.373562  1
  Ti  Ti17  1  0.009252  0.146725  0.124044  1
  Ti  Ti18  1  0.990466  0.847313  0.626438  1
  Si  Si19  1  0.201313  0.132144  0.683218  1
  Si  Si20  1  0.374295  0.725637  0.926206  1
  Si  Si21  1  0.631546  0.294415  0.432873  1
  Si  Si22  1  0.725637  0.374295  0.073794  1
  Si  Si23  1  0.294415  0.631546  0.567127  1
  Si  Si24  1  0.798000  0.866553  0.182447  1
  Si  Si25  1  0.132144  0.201313  0.316782  1
  Si  Si26  1  0.866553  0.798000  0.817553  1
  Si  Si27  1  0.287813  0.934049  0.066067  1
  Si  Si28  1  0.546481  0.791871  0.313472  1
  Si  Si29  1  0.456787  0.206100  0.805293  1
  Si  Si30  1  0.791871  0.546481  0.686528  1
  Si  Si31  1  0.206100  0.456787  0.194707  1
  Si  Si32  1  0.708763  0.046578  0.563116  1
  Si  Si33  1  0.934049  0.287813  0.933933  1
  Si  Si34  1  0.046578  0.708763  0.436884  1
  Hg  Hg35  1  0.328021  0.328021  0.000000  1
