# generated using pymatgen
data_PrSm2Bi(SO6)2
_symmetry_space_group_name_H-M   'P 1'
_cell_length_a   4.25374401
_cell_length_b   7.39483047
_cell_length_c   8.24700309
_cell_angle_alpha   106.23216347
_cell_angle_beta   90.52954549
_cell_angle_gamma   106.43149720
_symmetry_Int_Tables_number   1
_chemical_formula_structural   PrSm2Bi(SO6)2
_chemical_formula_sum   'Pr1 Sm2 Bi1 S2 O12'
_cell_volume   237.80074759
_cell_formula_units_Z   1
loop_
 _symmetry_equiv_pos_site_id
 _symmetry_equiv_pos_as_xyz
  1  'x, y, z'
loop_
 _atom_site_type_symbol
 _atom_site_label
 _atom_site_symmetry_multiplicity
 _atom_site_fract_x
 _atom_site_fract_y
 _atom_site_fract_z
 _atom_site_occupancy
  Pr  Pr0  1  0.658337  0.333461  0.083413  1
  Sm  Sm1  1  0.327796  0.671319  0.415855  1
  Sm  Sm2  1  0.338700  0.669757  0.920290  1
  Bi  Bi3  1  0.681169  0.358064  0.589625  1
  S  S4  1  0.940660  0.992991  0.751753  1
  S  S5  1  0.053587  0.993788  0.244531  1
  O  O6  1  0.767393  0.514779  0.874253  1
  O  O7  1  0.231708  0.500261  0.125735  1
  O  O8  1  0.273183  0.504631  0.625414  1
  O  O9  1  0.747764  0.517920  0.384671  1
  O  O10  1  0.732636  0.978356  0.600066  1
  O  O11  1  0.250215  0.986677  0.391576  1
  O  O12  1  0.729557  0.990983  0.896946  1
  O  O13  1  0.263450  0.987927  0.098462  1
  O  O14  1  0.210675  0.181814  0.800743  1
  O  O15  1  0.758423  0.817004  0.197038  1
  O  O16  1  0.068854  0.819960  0.714502  1
  O  O17  1  0.965894  0.180309  0.285126  1
