# generated using pymatgen
data_Ac8Y12Si15Au
_symmetry_space_group_name_H-M   'P 1'
_cell_length_a   7.98969378
_cell_length_b   8.00677314
_cell_length_c   14.80553400
_cell_angle_alpha   89.72403827
_cell_angle_beta   89.77286564
_cell_angle_gamma   90.07611060
_symmetry_Int_Tables_number   1
_chemical_formula_structural   Ac8Y12Si15Au
_chemical_formula_sum   'Ac8 Y12 Si15 Au1'
_cell_volume   947.11538154
_cell_formula_units_Z   1
loop_
 _symmetry_equiv_pos_site_id
 _symmetry_equiv_pos_as_xyz
  1  'x, y, z'
loop_
 _atom_site_type_symbol
 _atom_site_label
 _atom_site_symmetry_multiplicity
 _atom_site_fract_x
 _atom_site_fract_y
 _atom_site_fract_z
 _atom_site_occupancy
  Ac  Ac0  1  0.645150  0.987485  0.460769  1
  Ac  Ac1  1  0.358674  0.010417  0.959643  1
  Ac  Ac2  1  0.989116  0.641042  0.539273  1
  Ac  Ac3  1  0.489541  0.853396  0.210071  1
  Ac  Ac4  1  0.513193  0.149476  0.710623  1
  Ac  Ac5  1  0.856478  0.494525  0.792815  1
  Ac  Ac6  1  0.142755  0.506904  0.289685  1
  Ac  Ac7  1  0.011099  0.356066  0.040880  1
  Y  Y8  1  0.492603  0.358310  0.125761  1
  Y  Y9  1  0.987152  0.146788  0.628296  1
  Y  Y10  1  0.859506  0.007060  0.876188  1
  Y  Y11  1  0.138651  0.987786  0.373541  1
  Y  Y12  1  0.507882  0.634219  0.625478  1
  Y  Y13  1  0.363068  0.495090  0.875243  1
  Y  Y14  1  0.641821  0.503161  0.372988  1
  Y  Y15  1  0.006359  0.860907  0.123758  1
  Y  Y16  1  0.311445  0.317196  0.498436  1
  Y  Y17  1  0.185564  0.824827  0.750295  1
  Y  Y18  1  0.818554  0.179066  0.251084  1
  Y  Y19  1  0.681022  0.682688  0.000534  1
  Si  Si20  1  0.713903  0.065385  0.063154  1
  Si  Si21  1  0.934670  0.286919  0.436232  1
  Si  Si22  1  0.434566  0.211989  0.312558  1
  Si  Si23  1  0.565459  0.787670  0.812479  1
  Si  Si24  1  0.212824  0.436164  0.689344  1
  Si  Si25  1  0.786227  0.565535  0.185688  1
  Si  Si26  1  0.066074  0.714240  0.936957  1
  Si  Si27  1  0.795774  0.851481  0.692833  1
  Si  Si28  1  0.202923  0.148593  0.192561  1
  Si  Si29  1  0.848918  0.794086  0.305607  1
  Si  Si30  1  0.355504  0.697173  0.439195  1
  Si  Si31  1  0.651070  0.296775  0.944842  1
  Si  Si32  1  0.703857  0.349933  0.554764  1
  Si  Si33  1  0.297112  0.650444  0.055994  1
  Si  Si34  1  0.149154  0.209778  0.808485  1
  Au  Au35  1  0.282331  0.937427  0.563950  1
