# generated using pymatgen
data_Tb4Nd3ThCdInIr2
_symmetry_space_group_name_H-M   'P 1'
_cell_length_a   9.82346117
_cell_length_b   9.82346095
_cell_length_c   9.82325800
_cell_angle_alpha   60.00067667
_cell_angle_beta   60.00067743
_cell_angle_gamma   60.17106620
_symmetry_Int_Tables_number   1
_chemical_formula_structural   Tb4Nd3ThCdInIr2
_chemical_formula_sum   'Tb8 Nd6 Th2 Cd2 In2 Ir4'
_cell_volume   671.16977494
_cell_formula_units_Z   2
loop_
 _symmetry_equiv_pos_site_id
 _symmetry_equiv_pos_as_xyz
  1  'x, y, z'
loop_
 _atom_site_type_symbol
 _atom_site_label
 _atom_site_symmetry_multiplicity
 _atom_site_fract_x
 _atom_site_fract_y
 _atom_site_fract_z
 _atom_site_occupancy
  Tb  Tb0  1  0.351537  0.950144  0.349159  1
  Tb  Tb1  1  0.950144  0.351537  0.349159  1
  Tb  Tb2  1  0.813247  0.187564  0.187525  1
  Tb  Tb3  1  0.187564  0.813247  0.811664  1
  Tb  Tb4  1  0.187564  0.813247  0.187525  1
  Tb  Tb5  1  0.813247  0.187564  0.811664  1
  Tb  Tb6  1  0.184722  0.184722  0.815278  1
  Tb  Tb7  1  0.811092  0.811092  0.188908  1
  Nd  Nd8  1  0.943011  0.561144  0.560466  1
  Nd  Nd9  1  0.561144  0.943011  0.935378  1
  Nd  Nd10  1  0.561144  0.943011  0.560466  1
  Nd  Nd11  1  0.943011  0.561144  0.935378  1
  Nd  Nd12  1  0.562190  0.562190  0.937810  1
  Nd  Nd13  1  0.943434  0.943434  0.556566  1
  Th  Th14  1  0.344582  0.344582  0.349242  1
  Th  Th15  1  0.344582  0.344582  0.961593  1
  Cd  Cd16  1  0.578954  0.259938  0.580554  1
  Cd  Cd17  1  0.259938  0.578954  0.580554  1
  In  In18  1  0.580169  0.580169  0.580055  1
  In  In19  1  0.580169  0.580169  0.259608  1
  Ir  Ir20  1  0.141414  0.141414  0.144264  1
  Ir  Ir21  1  0.141414  0.141414  0.572908  1
  Ir  Ir22  1  0.144964  0.570759  0.142138  1
  Ir  Ir23  1  0.570759  0.144964  0.142138  1
