# generated using pymatgen
data_Tm15Lu(In3Os)2
_symmetry_space_group_name_H-M   'P 1'
_cell_length_a   10.25348700
_cell_length_b   10.25348656
_cell_length_c   6.97943700
_cell_angle_alpha   90.00000000
_cell_angle_beta   90.00000000
_cell_angle_gamma   119.99999819
_symmetry_Int_Tables_number   1
_chemical_formula_structural   Tm15Lu(In3Os)2
_chemical_formula_sum   'Tm15 Lu1 In6 Os2'
_cell_volume   635.46872695
_cell_formula_units_Z   1
loop_
 _symmetry_equiv_pos_site_id
 _symmetry_equiv_pos_as_xyz
  1  'x, y, z'
loop_
 _atom_site_type_symbol
 _atom_site_label
 _atom_site_symmetry_multiplicity
 _atom_site_fract_x
 _atom_site_fract_y
 _atom_site_fract_z
 _atom_site_occupancy
  Tm  Tm0  1  0.532317  0.064632  0.523478  1
  Tm  Tm1  1  0.935368  0.467683  0.523478  1
  Tm  Tm2  1  0.532317  0.467683  0.523478  1
  Tm  Tm3  1  0.467677  0.935354  0.023491  1
  Tm  Tm4  1  0.064646  0.532323  0.023491  1
  Tm  Tm5  1  0.467677  0.532323  0.023491  1
  Tm  Tm6  1  0.177214  0.354427  0.729098  1
  Tm  Tm7  1  0.645573  0.822786  0.729098  1
  Tm  Tm8  1  0.177214  0.822786  0.729098  1
  Tm  Tm9  1  0.822816  0.645633  0.228804  1
  Tm  Tm10  1  0.354367  0.177184  0.228804  1
  Tm  Tm11  1  0.822816  0.177184  0.228804  1
  Tm  Tm12  1  0.666667  0.333333  0.901357  1
  Tm  Tm13  1  0.333333  0.666667  0.401301  1
  Tm  Tm14  1  0.000000  0.000000  0.506629  1
  Lu  Lu15  1  0.000000  0.000000  0.006453  1
  In  In16  1  0.836720  0.673438  0.770868  1
  In  In17  1  0.326562  0.163280  0.770868  1
  In  In18  1  0.836720  0.163280  0.770868  1
  In  In19  1  0.163306  0.326613  0.270610  1
  In  In20  1  0.673387  0.836694  0.270610  1
  In  In21  1  0.163306  0.836694  0.270610  1
  Os  Os22  1  0.666667  0.333333  0.300525  1
  Os  Os23  1  0.333333  0.666667  0.800359  1
