# generated using pymatgen
data_DyMg(AlPt)2
_symmetry_space_group_name_H-M   'P 1'
_cell_length_a   4.19174800
_cell_length_b   6.76586404
_cell_length_c   7.84869849
_cell_angle_alpha   84.97846836
_cell_angle_beta   90.00000000
_cell_angle_gamma   90.00000000
_symmetry_Int_Tables_number   1
_chemical_formula_structural   DyMg(AlPt)2
_chemical_formula_sum   'Dy2 Mg2 Al4 Pt4'
_cell_volume   221.74099602
_cell_formula_units_Z   2
loop_
 _symmetry_equiv_pos_site_id
 _symmetry_equiv_pos_as_xyz
  1  'x, y, z'
loop_
 _atom_site_type_symbol
 _atom_site_label
 _atom_site_symmetry_multiplicity
 _atom_site_fract_x
 _atom_site_fract_y
 _atom_site_fract_z
 _atom_site_occupancy
  Dy  Dy0  1  0.750000  0.030597  0.683349  1
  Dy  Dy1  1  0.250000  0.969403  0.316651  1
  Mg  Mg2  1  0.250000  0.469711  0.168168  1
  Mg  Mg3  1  0.750000  0.530289  0.831832  1
  Al  Al4  1  0.250000  0.847395  0.939359  1
  Al  Al5  1  0.750000  0.152605  0.060641  1
  Al  Al6  1  0.750000  0.635422  0.444609  1
  Al  Al7  1  0.250000  0.364578  0.555391  1
  Pt  Pt8  1  0.250000  0.719333  0.633648  1
  Pt  Pt9  1  0.750000  0.280667  0.366352  1
  Pt  Pt10  1  0.750000  0.762670  0.119211  1
  Pt  Pt11  1  0.250000  0.237330  0.880789  1
