# generated using pymatgen
data_TbTi4Pd15
_symmetry_space_group_name_H-M   'P 1'
_cell_length_a   3.97600000
_cell_length_b   3.97600000
_cell_length_c   19.82584600
_cell_angle_alpha   90.00000000
_cell_angle_beta   90.00000000
_cell_angle_gamma   90.00000000
_symmetry_Int_Tables_number   1
_chemical_formula_structural   TbTi4Pd15
_chemical_formula_sum   'Tb1 Ti4 Pd15'
_cell_volume   313.41839326
_cell_formula_units_Z   1
loop_
 _symmetry_equiv_pos_site_id
 _symmetry_equiv_pos_as_xyz
  1  'x, y, z'
loop_
 _atom_site_type_symbol
 _atom_site_label
 _atom_site_symmetry_multiplicity
 _atom_site_fract_x
 _atom_site_fract_y
 _atom_site_fract_z
 _atom_site_occupancy
  Tb  Tb0  1  0.000000  0.000000  0.000000  1
  Ti  Ti1  1  0.000000  0.000000  0.202950  1
  Ti  Ti2  1  0.000000  0.000000  0.401145  1
  Ti  Ti3  1  0.000000  0.000000  0.598855  1
  Ti  Ti4  1  0.000000  0.000000  0.797050  1
  Pd  Pd5  1  0.500000  0.500000  0.000000  1
  Pd  Pd6  1  0.500000  0.500000  0.206995  1
  Pd  Pd7  1  0.500000  0.500000  0.402370  1
  Pd  Pd8  1  0.500000  0.500000  0.597630  1
  Pd  Pd9  1  0.500000  0.500000  0.793005  1
  Pd  Pd10  1  0.500000  0.000000  0.110105  1
  Pd  Pd11  1  0.500000  0.000000  0.304623  1
  Pd  Pd12  1  0.500000  0.000000  0.500000  1
  Pd  Pd13  1  0.500000  0.000000  0.695377  1
  Pd  Pd14  1  0.500000  0.000000  0.889895  1
  Pd  Pd15  1  0.000000  0.500000  0.110105  1
  Pd  Pd16  1  0.000000  0.500000  0.304623  1
  Pd  Pd17  1  0.000000  0.500000  0.500000  1
  Pd  Pd18  1  0.000000  0.500000  0.695377  1
  Pd  Pd19  1  0.000000  0.500000  0.889895  1
