# generated using pymatgen
data_Ba2Mg3V3(PO4)6
_symmetry_space_group_name_H-M   'P 1'
_cell_length_a   9.25531282
_cell_length_b   9.25531415
_cell_length_c   9.25991815
_cell_angle_alpha   137.28881750
_cell_angle_beta   109.94992883
_cell_angle_gamma   85.61165238
_symmetry_Int_Tables_number   1
_chemical_formula_structural   Ba2Mg3V3(PO4)6
_chemical_formula_sum   'Ba2 Mg3 V3 P6 O24'
_cell_volume   486.51142686
_cell_formula_units_Z   1
loop_
 _symmetry_equiv_pos_site_id
 _symmetry_equiv_pos_as_xyz
  1  'x, y, z'
loop_
 _atom_site_type_symbol
 _atom_site_label
 _atom_site_symmetry_multiplicity
 _atom_site_fract_x
 _atom_site_fract_y
 _atom_site_fract_z
 _atom_site_occupancy
  Ba  Ba0  1  0.748941  0.141594  0.391681  1
  Ba  Ba1  1  0.249913  0.857259  0.608319  1
  Mg  Mg2  1  0.617916  0.617916  0.500000  1
  Mg  Mg3  1  0.883784  0.383784  0.000000  1
  Mg  Mg4  1  0.115655  0.615655  0.000000  1
  V  V5  1  0.999556  0.001448  0.001400  1
  V  V6  1  0.500048  0.498156  0.998600  1
  V  V7  1  0.382215  0.382215  0.500000  1
  P  P8  1  0.820411  0.820411  0.500000  1
  P  P9  1  0.680307  0.180307  0.000000  1
  P  P10  1  0.318821  0.818821  0.000000  1
  P  P11  1  0.176866  0.176866  0.500000  1
  P  P12  1  0.752099  0.651100  0.900618  1
  P  P13  1  0.250481  0.351481  0.099382  1
  O  O14  1  0.637993  0.516527  0.644199  1
  O  O15  1  0.130361  0.487694  0.117762  1
  O  O16  1  0.372329  0.493795  0.355801  1
  O  O17  1  0.869933  0.512599  0.882238  1
  O  O18  1  0.158830  0.130227  0.974891  1
  O  O19  1  0.845869  0.876158  0.034873  1
  O  O20  1  0.655335  0.683938  0.025109  1
  O  O21  1  0.341286  0.310996  0.965127  1
  O  O22  1  0.856337  0.790903  0.656940  1
  O  O23  1  0.866916  0.211003  0.065774  1
  O  O24  1  0.354197  0.696544  0.063554  1
  O  O25  1  0.363982  0.296276  0.655852  1
  O  O26  1  0.140424  0.208129  0.344148  1
  O  O27  1  0.132989  0.790643  0.936446  1
  O  O28  1  0.645228  0.301141  0.934226  1
  O  O29  1  0.633962  0.699397  0.343060  1
  O  O30  1  0.847176  0.064779  0.648303  1
  O  O31  1  0.584541  0.936161  0.782874  1
  O  O32  1  0.345222  0.701387  0.783686  1
  O  O33  1  0.081833  0.299760  0.648982  1
  O  O34  1  0.150778  0.932850  0.351018  1
  O  O35  1  0.417701  0.061537  0.216314  1
  O  O36  1  0.653288  0.301667  0.217126  1
  O  O37  1  0.916475  0.698874  0.351697  1
