# generated using pymatgen
data_Na6YbBr8
_symmetry_space_group_name_H-M   'P 1'
_cell_length_a   8.53914295
_cell_length_b   8.53914262
_cell_length_c   8.53914400
_cell_angle_alpha   60.00000242
_cell_angle_beta   60.00000370
_cell_angle_gamma   60.00000342
_symmetry_Int_Tables_number   1
_chemical_formula_structural   Na6YbBr8
_chemical_formula_sum   'Na6 Yb1 Br8'
_cell_volume   440.27895030
_cell_formula_units_Z   1
loop_
 _symmetry_equiv_pos_site_id
 _symmetry_equiv_pos_as_xyz
  1  'x, y, z'
loop_
 _atom_site_type_symbol
 _atom_site_label
 _atom_site_symmetry_multiplicity
 _atom_site_fract_x
 _atom_site_fract_y
 _atom_site_fract_z
 _atom_site_occupancy
  Na  Na0  1  0.000000  0.500000  0.000000  1
  Na  Na1  1  0.500000  0.000000  0.000000  1
  Na  Na2  1  0.000000  0.500000  0.500000  1
  Na  Na3  1  0.500000  0.000000  0.500000  1
  Na  Na4  1  0.000000  0.000000  0.500000  1
  Na  Na5  1  0.500000  0.500000  0.000000  1
  Yb  Yb6  1  0.000000  0.000000  0.000000  1
  Br  Br7  1  0.250000  0.250000  0.250000  1
  Br  Br8  1  0.750000  0.750000  0.750000  1
  Br  Br9  1  0.240138  0.759862  0.240138  1
  Br  Br10  1  0.240138  0.759862  0.759862  1
  Br  Br11  1  0.759862  0.240138  0.240138  1
  Br  Br12  1  0.759862  0.759862  0.240138  1
  Br  Br13  1  0.240138  0.240138  0.759862  1
  Br  Br14  1  0.759862  0.240138  0.759862  1
