# generated using pymatgen
data_TbTaReB6
_symmetry_space_group_name_H-M   'P 1'
_cell_length_a   3.56023300
_cell_length_b   8.95098700
_cell_length_c   11.32149500
_cell_angle_alpha   90.00000000
_cell_angle_beta   90.00000000
_cell_angle_gamma   90.00000000
_symmetry_Int_Tables_number   1
_chemical_formula_structural   TbTaReB6
_chemical_formula_sum   'Tb4 Ta4 Re4 B24'
_cell_volume   360.78886614
_cell_formula_units_Z   4
loop_
 _symmetry_equiv_pos_site_id
 _symmetry_equiv_pos_as_xyz
  1  'x, y, z'
loop_
 _atom_site_type_symbol
 _atom_site_label
 _atom_site_symmetry_multiplicity
 _atom_site_fract_x
 _atom_site_fract_y
 _atom_site_fract_z
 _atom_site_occupancy
  Tb  Tb0  1  0.000000  0.322424  0.413360  1
  Tb  Tb1  1  0.000000  0.677576  0.586640  1
  Tb  Tb2  1  0.000000  0.822424  0.086640  1
  Tb  Tb3  1  0.000000  0.177576  0.913360  1
  Ta  Ta4  1  0.000000  0.945620  0.374640  1
  Ta  Ta5  1  0.000000  0.054380  0.625360  1
  Ta  Ta6  1  0.000000  0.445620  0.125360  1
  Ta  Ta7  1  0.000000  0.554380  0.874640  1
  Re  Re8  1  0.000000  0.643232  0.317406  1
  Re  Re9  1  0.000000  0.356768  0.682594  1
  Re  Re10  1  0.000000  0.143232  0.182594  1
  Re  Re11  1  0.000000  0.856768  0.817406  1
  B  B12  1  0.500000  0.554682  0.433484  1
  B  B13  1  0.500000  0.445318  0.566516  1
  B  B14  1  0.500000  0.054682  0.066516  1
  B  B15  1  0.500000  0.945318  0.933484  1
  B  B16  1  0.500000  0.754749  0.418094  1
  B  B17  1  0.500000  0.245251  0.581906  1
  B  B18  1  0.500000  0.254749  0.081906  1
  B  B19  1  0.500000  0.745251  0.918094  1
  B  B20  1  0.500000  0.796912  0.263539  1
  B  B21  1  0.500000  0.203088  0.736461  1
  B  B22  1  0.500000  0.296912  0.236461  1
  B  B23  1  0.500000  0.703088  0.763539  1
  B  B24  1  0.500000  0.629020  0.181532  1
  B  B25  1  0.500000  0.370980  0.818468  1
  B  B26  1  0.500000  0.129020  0.318468  1
  B  B27  1  0.500000  0.870980  0.681532  1
  B  B28  1  0.500000  0.981350  0.214246  1
  B  B29  1  0.500000  0.018650  0.785754  1
  B  B30  1  0.500000  0.481350  0.285754  1
  B  B31  1  0.500000  0.518650  0.714246  1
  B  B32  1  0.500000  0.598663  0.026435  1
  B  B33  1  0.500000  0.401337  0.973565  1
  B  B34  1  0.500000  0.098663  0.473565  1
  B  B35  1  0.500000  0.901337  0.526435  1
