# generated using pymatgen
data_Y4Hf3VF28
_symmetry_space_group_name_H-M   'P 1'
_cell_length_a   5.65652532
_cell_length_b   9.01628571
_cell_length_c   12.08624292
_cell_angle_alpha   62.67655524
_cell_angle_beta   90.06766723
_cell_angle_gamma   90.02041441
_symmetry_Int_Tables_number   1
_chemical_formula_structural   Y4Hf3VF28
_chemical_formula_sum   'Y4 Hf3 V1 F28'
_cell_volume   547.63521936
_cell_formula_units_Z   1
loop_
 _symmetry_equiv_pos_site_id
 _symmetry_equiv_pos_as_xyz
  1  'x, y, z'
loop_
 _atom_site_type_symbol
 _atom_site_label
 _atom_site_symmetry_multiplicity
 _atom_site_fract_x
 _atom_site_fract_y
 _atom_site_fract_z
 _atom_site_occupancy
  Y  Y0  1  0.256655  0.811504  0.260855  1
  Y  Y1  1  0.742443  0.186033  0.733185  1
  Y  Y2  1  0.757052  0.183186  0.234592  1
  Y  Y3  1  0.241841  0.812579  0.771375  1
  Hf  Hf4  1  0.245772  0.273745  0.957076  1
  Hf  Hf5  1  0.255648  0.273858  0.455208  1
  Hf  Hf6  1  0.742530  0.726408  0.544318  1
  V  V7  1  0.755942  0.725662  0.044661  1
  F  F8  1  0.955109  0.708711  0.418747  1
  F  F9  1  0.042977  0.293969  0.579551  1
  F  F10  1  0.460597  0.290840  0.081984  1
  F  F11  1  0.546312  0.712751  0.926158  1
  F  F12  1  0.494749  0.732151  0.141031  1
  F  F13  1  0.524964  0.261575  0.859562  1
  F  F14  1  0.979975  0.272644  0.350772  1
  F  F15  1  0.018578  0.731399  0.646987  1
  F  F16  1  0.961254  0.742355  0.165140  1
  F  F17  1  0.037604  0.250376  0.830106  1
  F  F18  1  0.461669  0.255140  0.325910  1
  F  F19  1  0.538029  0.748003  0.673352  1
  F  F20  1  0.767155  0.496613  0.133334  1
  F  F21  1  0.235092  0.522336  0.859855  1
  F  F22  1  0.276783  0.523109  0.358067  1
  F  F23  1  0.722421  0.476780  0.641705  1
  F  F24  1  0.952168  0.282497  0.048752  1
  F  F25  1  0.028180  0.719303  0.951785  1
  F  F26  1  0.448365  0.724200  0.450654  1
  F  F27  1  0.552121  0.278019  0.546769  1
  F  F28  1  0.742094  0.975675  0.443788  1
  F  F29  1  0.257988  0.026610  0.557213  1
  F  F30  1  0.238903  0.025309  0.055690  1
  F  F31  1  0.759357  0.954188  0.953300  1
  F  F32  1  0.577002  0.971234  0.231902  1
  F  F33  1  0.421311  0.030385  0.768824  1
  F  F34  1  0.077455  0.026050  0.266000  1
  F  F35  1  0.923903  0.974800  0.731787  1
