# generated using pymatgen
data_Na5La8InAu20
_symmetry_space_group_name_H-M   'P 1'
_cell_length_a   8.92343244
_cell_length_b   8.92340267
_cell_length_c   10.51293144
_cell_angle_alpha   89.75757288
_cell_angle_beta   90.24240362
_cell_angle_gamma   108.66100223
_symmetry_Int_Tables_number   1
_chemical_formula_structural   Na5La8InAu20
_chemical_formula_sum   'Na5 La8 In1 Au20'
_cell_volume   793.09774921
_cell_formula_units_Z   1
loop_
 _symmetry_equiv_pos_site_id
 _symmetry_equiv_pos_as_xyz
  1  'x, y, z'
loop_
 _atom_site_type_symbol
 _atom_site_label
 _atom_site_symmetry_multiplicity
 _atom_site_fract_x
 _atom_site_fract_y
 _atom_site_fract_z
 _atom_site_occupancy
  Na  Na0  1  0.985586  0.485585  0.749999  1
  Na  Na1  1  0.999617  0.999677  0.999798  1
  Na  Na2  1  0.014233  0.514233  0.250000  1
  Na  Na3  1  0.486271  0.986270  0.749999  1
  Na  Na4  1  0.499676  0.499618  0.500200  1
  La  La5  1  0.698856  0.297033  0.002520  1
  La  La6  1  0.201590  0.800166  0.499690  1
  La  La7  1  0.795969  0.801394  0.297064  1
  La  La8  1  0.301391  0.295992  0.202939  1
  La  La9  1  0.797040  0.198863  0.497480  1
  La  La10  1  0.300173  0.701579  0.000306  1
  La  La11  1  0.699575  0.700181  0.796735  1
  La  La12  1  0.200179  0.199571  0.703282  1
  In  In13  1  0.516398  0.016398  0.250000  1
  Au  Au14  1  0.153172  0.431922  0.486931  1
  Au  Au15  1  0.903073  0.902450  0.593975  1
  Au  Au16  1  0.569971  0.846975  0.514478  1
  Au  Au17  1  0.884367  0.160608  0.208889  1
  Au  Au18  1  0.383414  0.663562  0.290649  1
  Au  Au19  1  0.660606  0.384369  0.291105  1
  Au  Au20  1  0.402456  0.403077  0.906026  1
  Au  Au21  1  0.931920  0.653168  0.013066  1
  Au  Au22  1  0.339500  0.617752  0.708892  1
  Au  Au23  1  0.346979  0.069972  0.985521  1
  Au  Au24  1  0.597678  0.596414  0.093593  1
  Au  Au25  1  0.650969  0.929961  0.013920  1
  Au  Au26  1  0.096416  0.097680  0.406402  1
  Au  Au27  1  0.617515  0.337877  0.708752  1
  Au  Au28  1  0.117754  0.839497  0.791111  1
  Au  Au29  1  0.068606  0.347650  0.988024  1
  Au  Au30  1  0.847648  0.568607  0.511975  1
  Au  Au31  1  0.163566  0.883413  0.209348  1
  Au  Au32  1  0.429962  0.150970  0.486077  1
  Au  Au33  1  0.837873  0.117514  0.791252  1
