# generated using pymatgen
data_K2LaTeO6
_symmetry_space_group_name_H-M   'P 1'
_cell_length_a   6.11720702
_cell_length_b   6.12798903
_cell_length_c   8.65269302
_cell_angle_alpha   90.00043475
_cell_angle_beta   89.99956023
_cell_angle_gamma   89.99472747
_symmetry_Int_Tables_number   1
_chemical_formula_structural   K2LaTeO6
_chemical_formula_sum   'K4 La2 Te2 O12'
_cell_volume   324.35638530
_cell_formula_units_Z   2
loop_
 _symmetry_equiv_pos_site_id
 _symmetry_equiv_pos_as_xyz
  1  'x, y, z'
loop_
 _atom_site_type_symbol
 _atom_site_label
 _atom_site_symmetry_multiplicity
 _atom_site_fract_x
 _atom_site_fract_y
 _atom_site_fract_z
 _atom_site_occupancy
  K  K0  1  0.000111  0.500703  0.249940  1
  K  K1  1  0.499880  0.000685  0.250088  1
  K  K2  1  0.500120  0.999316  0.749912  1
  K  K3  1  0.999888  0.499298  0.750059  1
  La  La4  1  0.000000  0.000000  0.000000  1
  La  La5  1  0.500001  0.499999  0.500000  1
  Te  Te6  1  0.499999  0.499999  0.000000  1
  Te  Te7  1  0.000000  0.000000  0.500000  1
  O  O8  1  0.726411  0.723971  0.000267  1
  O  O9  1  0.724532  0.274125  0.000641  1
  O  O10  1  0.499196  0.500566  0.225279  1
  O  O11  1  0.000794  0.000536  0.274697  1
  O  O12  1  0.775431  0.774104  0.499371  1
  O  O13  1  0.773551  0.223997  0.499728  1
  O  O14  1  0.226449  0.776002  0.500272  1
  O  O15  1  0.224569  0.225896  0.500629  1
  O  O16  1  0.999208  0.999463  0.725303  1
  O  O17  1  0.500804  0.499435  0.774721  1
  O  O18  1  0.275467  0.725876  0.999360  1
  O  O19  1  0.273589  0.276030  0.999732  1
