# generated using pymatgen
data_Sr2PrU3S10
_symmetry_space_group_name_H-M   'P 1'
_cell_length_a   7.48069100
_cell_length_b   8.17286844
_cell_length_c   11.79061300
_cell_angle_alpha   89.70896543
_cell_angle_beta   90.00000000
_cell_angle_gamma   90.00000000
_symmetry_Int_Tables_number   1
_chemical_formula_structural   Sr2PrU3S10
_chemical_formula_sum   'Sr4 Pr2 U6 S20'
_cell_volume   720.85349090
_cell_formula_units_Z   2
loop_
 _symmetry_equiv_pos_site_id
 _symmetry_equiv_pos_as_xyz
  1  'x, y, z'
loop_
 _atom_site_type_symbol
 _atom_site_label
 _atom_site_symmetry_multiplicity
 _atom_site_fract_x
 _atom_site_fract_y
 _atom_site_fract_z
 _atom_site_occupancy
  Sr  Sr0  1  0.044534  0.494516  0.329117  1
  Sr  Sr1  1  0.544534  0.505484  0.170883  1
  Sr  Sr2  1  0.951305  0.505692  0.672264  1
  Sr  Sr3  1  0.451305  0.494308  0.827736  1
  Pr  Pr4  1  0.033601  0.001177  0.322111  1
  Pr  Pr5  1  0.533601  0.998823  0.177889  1
  U  U6  1  0.971984  0.998872  0.678441  1
  U  U7  1  0.471984  0.001128  0.821559  1
  U  U8  1  0.063345  0.750920  0.005568  1
  U  U9  1  0.563345  0.249080  0.494432  1
  U  U10  1  0.932621  0.245631  0.990409  1
  U  U11  1  0.432621  0.754369  0.509591  1
  S  S12  1  0.663767  0.959913  0.412545  1
  S  S13  1  0.163767  0.040087  0.087455  1
  S  S14  1  0.333489  0.044462  0.599060  1
  S  S15  1  0.833489  0.955538  0.900940  1
  S  S16  1  0.448167  0.774906  0.993789  1
  S  S17  1  0.948167  0.225094  0.506211  1
  S  S18  1  0.550607  0.223777  0.989111  1
  S  S19  1  0.050607  0.776223  0.510889  1
  S  S20  1  0.843614  0.760152  0.186108  1
  S  S21  1  0.343614  0.239848  0.313892  1
  S  S22  1  0.156310  0.224243  0.807847  1
  S  S23  1  0.656310  0.775757  0.692153  1
  S  S24  1  0.318461  0.755339  0.290503  1
  S  S25  1  0.818461  0.244661  0.209497  1
  S  S26  1  0.683964  0.229478  0.714895  1
  S  S27  1  0.183964  0.770522  0.785105  1
  S  S28  1  0.176538  0.460080  0.072864  1
  S  S29  1  0.676538  0.539920  0.427136  1
  S  S30  1  0.827696  0.539112  0.916991  1
  S  S31  1  0.327696  0.460888  0.583009  1
