# generated using pymatgen
data_Rb16LaPaBi8
_symmetry_space_group_name_H-M   'P 1'
_cell_length_a   12.47309823
_cell_length_b   12.47309832
_cell_length_c   12.47309800
_cell_angle_alpha   60.00000086
_cell_angle_beta   60.00000062
_cell_angle_gamma   59.99999759
_symmetry_Int_Tables_number   1
_chemical_formula_structural   Rb16LaPaBi8
_chemical_formula_sum   'Rb16 La1 Pa1 Bi8'
_cell_volume   1372.17032271
_cell_formula_units_Z   1
loop_
 _symmetry_equiv_pos_site_id
 _symmetry_equiv_pos_as_xyz
  1  'x, y, z'
loop_
 _atom_site_type_symbol
 _atom_site_label
 _atom_site_symmetry_multiplicity
 _atom_site_fract_x
 _atom_site_fract_y
 _atom_site_fract_z
 _atom_site_occupancy
  Rb  Rb0  1  0.624871  0.125386  0.624871  1
  Rb  Rb1  1  0.624871  0.624871  0.125386  1
  Rb  Rb2  1  0.125386  0.624871  0.624871  1
  Rb  Rb3  1  0.624871  0.624871  0.624871  1
  Rb  Rb4  1  0.038968  0.038968  0.461032  1
  Rb  Rb5  1  0.776997  0.223003  0.223003  1
  Rb  Rb6  1  0.223003  0.776997  0.776997  1
  Rb  Rb7  1  0.776997  0.776997  0.223003  1
  Rb  Rb8  1  0.776997  0.223003  0.776997  1
  Rb  Rb9  1  0.223003  0.776997  0.223003  1
  Rb  Rb10  1  0.461032  0.038968  0.461032  1
  Rb  Rb11  1  0.461032  0.038968  0.038968  1
  Rb  Rb12  1  0.038968  0.461032  0.461032  1
  Rb  Rb13  1  0.038968  0.461032  0.038968  1
  Rb  Rb14  1  0.223003  0.223003  0.776997  1
  Rb  Rb15  1  0.461032  0.461032  0.038968  1
  La  La16  1  0.500000  0.500000  0.500000  1
  Pa  Pa17  1  0.750000  0.750000  0.750000  1
  Bi  Bi18  1  0.393319  0.820043  0.393319  1
  Bi  Bi19  1  0.850388  0.850388  0.448838  1
  Bi  Bi20  1  0.448838  0.850388  0.850388  1
  Bi  Bi21  1  0.850388  0.850388  0.850388  1
  Bi  Bi22  1  0.820043  0.393319  0.393319  1
  Bi  Bi23  1  0.393319  0.393319  0.393319  1
  Bi  Bi24  1  0.393319  0.393319  0.820043  1
  Bi  Bi25  1  0.850388  0.448838  0.850388  1
