# generated using pymatgen
data_Tb6Al24Os3Ru5
_symmetry_space_group_name_H-M   'P 1'
_cell_length_a   8.82065100
_cell_length_b   8.83688828
_cell_length_c   9.61268302
_cell_angle_alpha   90.07769494
_cell_angle_beta   89.92025576
_cell_angle_gamma   120.32355612
_symmetry_Int_Tables_number   1
_chemical_formula_structural   Tb6Al24Os3Ru5
_chemical_formula_sum   'Tb6 Al24 Os3 Ru5'
_cell_volume   646.76945232
_cell_formula_units_Z   1
loop_
 _symmetry_equiv_pos_site_id
 _symmetry_equiv_pos_as_xyz
  1  'x, y, z'
loop_
 _atom_site_type_symbol
 _atom_site_label
 _atom_site_symmetry_multiplicity
 _atom_site_fract_x
 _atom_site_fract_y
 _atom_site_fract_z
 _atom_site_occupancy
  Tb  Tb0  1  0.194610  0.386341  0.249267  1
  Tb  Tb1  1  0.805390  0.613659  0.750733  1
  Tb  Tb2  1  0.611996  0.806702  0.249245  1
  Tb  Tb3  1  0.388004  0.193298  0.750755  1
  Tb  Tb4  1  0.195845  0.808574  0.249966  1
  Tb  Tb5  1  0.804155  0.191426  0.750034  1
  Al  Al6  1  0.332977  0.665755  0.015382  1
  Al  Al7  1  0.667023  0.334245  0.984618  1
  Al  Al8  1  0.666624  0.334623  0.515938  1
  Al  Al9  1  0.333376  0.665377  0.484062  1
  Al  Al10  1  0.162733  0.325344  0.577081  1
  Al  Al11  1  0.837267  0.674656  0.422919  1
  Al  Al12  1  0.673870  0.836826  0.576033  1
  Al  Al13  1  0.837046  0.674548  0.077123  1
  Al  Al14  1  0.326130  0.163174  0.423967  1
  Al  Al15  1  0.162954  0.325452  0.922877  1
  Al  Al16  1  0.162449  0.837193  0.575513  1
  Al  Al17  1  0.326288  0.163463  0.076027  1
  Al  Al18  1  0.837551  0.162807  0.424487  1
  Al  Al19  1  0.673712  0.836537  0.923973  1
  Al  Al20  1  0.837561  0.162826  0.075712  1
  Al  Al21  1  0.162439  0.837174  0.924288  1
  Al  Al22  1  0.563647  0.125673  0.250172  1
  Al  Al23  1  0.436353  0.874327  0.749828  1
  Al  Al24  1  0.877987  0.438363  0.250159  1
  Al  Al25  1  0.122013  0.561637  0.749841  1
  Al  Al26  1  0.561747  0.439033  0.250623  1
  Al  Al27  1  0.438253  0.560967  0.749377  1
  Al  Al28  1  0.000228  0.999789  0.249991  1
  Al  Al29  1  0.999772  0.000211  0.750009  1
  Os  Os30  1  0.500000  0.000000  0.000000  1
  Os  Os31  1  0.500000  0.000000  0.500000  1
  Os  Os32  1  0.500000  0.500000  0.000000  1
  Ru  Ru33  1  0.000000  0.500000  0.000000  1
  Ru  Ru34  1  0.000000  0.500000  0.500000  1
  Ru  Ru35  1  0.500000  0.500000  0.500000  1
  Ru  Ru36  1  0.000000  0.000000  0.000000  1
  Ru  Ru37  1  0.000000  0.000000  0.500000  1
