# generated using pymatgen
data_Nd7Y4Cd9Ni4
_symmetry_space_group_name_H-M   'P 1'
_cell_length_a   13.27251722
_cell_length_b   13.27251668
_cell_length_c   3.72923900
_cell_angle_alpha   90.00000000
_cell_angle_beta   90.00000000
_cell_angle_gamma   113.57396814
_symmetry_Int_Tables_number   1
_chemical_formula_structural   Nd7Y4Cd9Ni4
_chemical_formula_sum   'Nd7 Y4 Cd9 Ni4'
_cell_volume   602.11627276
_cell_formula_units_Z   1
loop_
 _symmetry_equiv_pos_site_id
 _symmetry_equiv_pos_as_xyz
  1  'x, y, z'
loop_
 _atom_site_type_symbol
 _atom_site_label
 _atom_site_symmetry_multiplicity
 _atom_site_fract_x
 _atom_site_fract_y
 _atom_site_fract_z
 _atom_site_occupancy
  Nd  Nd0  1  0.625401  0.374599  0.000000  1
  Nd  Nd1  1  0.374599  0.625401  0.000000  1
  Nd  Nd2  1  0.837589  0.162411  0.000000  1
  Nd  Nd3  1  0.162411  0.837589  0.000000  1
  Nd  Nd4  1  0.000000  0.000000  0.000000  1
  Nd  Nd5  1  0.308089  0.308089  0.000000  1
  Nd  Nd6  1  0.691911  0.691911  0.000000  1
  Y  Y7  1  0.081615  0.418206  0.000000  1
  Y  Y8  1  0.918385  0.581794  0.000000  1
  Y  Y9  1  0.418206  0.081615  0.000000  1
  Y  Y10  1  0.581794  0.918385  0.000000  1
  Cd  Cd11  1  0.840938  0.369963  0.500000  1
  Cd  Cd12  1  0.159062  0.630037  0.500000  1
  Cd  Cd13  1  0.369963  0.840938  0.500000  1
  Cd  Cd14  1  0.630037  0.159062  0.500000  1
  Cd  Cd15  1  0.075401  0.220385  0.500000  1
  Cd  Cd16  1  0.924599  0.779615  0.500000  1
  Cd  Cd17  1  0.220385  0.075401  0.500000  1
  Cd  Cd18  1  0.779615  0.924599  0.500000  1
  Cd  Cd19  1  0.500000  0.500000  0.500000  1
  Ni  Ni20  1  0.247798  0.453137  0.500000  1
  Ni  Ni21  1  0.752202  0.546863  0.500000  1
  Ni  Ni22  1  0.453137  0.247798  0.500000  1
  Ni  Ni23  1  0.546863  0.752202  0.500000  1
