# generated using pymatgen
data_Tm14Lu6Bi11Sb
_symmetry_space_group_name_H-M   'P 1'
_cell_length_a   8.12565863
_cell_length_b   9.41608110
_cell_length_c   11.84373030
_cell_angle_alpha   90.00676786
_cell_angle_beta   89.99119042
_cell_angle_gamma   90.01549052
_symmetry_Int_Tables_number   1
_chemical_formula_structural   Tm14Lu6Bi11Sb
_chemical_formula_sum   'Tm14 Lu6 Bi11 Sb1'
_cell_volume   906.18579301
_cell_formula_units_Z   1
loop_
 _symmetry_equiv_pos_site_id
 _symmetry_equiv_pos_as_xyz
  1  'x, y, z'
loop_
 _atom_site_type_symbol
 _atom_site_label
 _atom_site_symmetry_multiplicity
 _atom_site_fract_x
 _atom_site_fract_y
 _atom_site_fract_z
 _atom_site_occupancy
  Tm  Tm0  1  0.356002  0.249889  0.285923  1
  Tm  Tm1  1  0.645104  0.750115  0.717199  1
  Tm  Tm2  1  0.144718  0.750032  0.782273  1
  Tm  Tm3  1  0.855395  0.249961  0.217430  1
  Tm  Tm4  1  0.189471  0.249937  0.780128  1
  Tm  Tm5  1  0.812053  0.750063  0.217832  1
  Tm  Tm6  1  0.312526  0.749987  0.282119  1
  Tm  Tm7  1  0.682847  0.250007  0.715007  1
  Tm  Tm8  1  0.307941  0.938259  0.559416  1
  Tm  Tm9  1  0.806583  0.565602  0.940355  1
  Tm  Tm10  1  0.690578  0.067875  0.441895  1
  Tm  Tm11  1  0.193480  0.433999  0.059927  1
  Tm  Tm12  1  0.690555  0.432101  0.441882  1
  Tm  Tm13  1  0.307969  0.561763  0.559422  1
  Lu  Lu14  1  0.027998  0.250044  0.511224  1
  Lu  Lu15  1  0.976549  0.749960  0.489324  1
  Lu  Lu16  1  0.475631  0.750113  0.011163  1
  Lu  Lu17  1  0.524818  0.249883  0.988744  1
  Lu  Lu18  1  0.193592  0.066229  0.059994  1
  Lu  Lu19  1  0.806468  0.934190  0.940306  1
  Bi  Bi20  1  0.594753  0.749994  0.457210  1
  Bi  Bi21  1  0.094328  0.750593  0.042646  1
  Bi  Bi22  1  0.906406  0.249404  0.956517  1
  Bi  Bi23  1  0.066330  0.003497  0.325965  1
  Bi  Bi24  1  0.933075  0.996862  0.674152  1
  Bi  Bi25  1  0.433512  0.996184  0.826003  1
  Bi  Bi26  1  0.933073  0.503156  0.674104  1
  Bi  Bi27  1  0.566457  0.003920  0.174160  1
  Bi  Bi28  1  0.066330  0.496478  0.326009  1
  Bi  Bi29  1  0.566554  0.496102  0.174190  1
  Bi  Bi30  1  0.433407  0.503793  0.825985  1
  Sb  Sb31  1  0.405501  0.250007  0.541499  1
