# generated using pymatgen
data_Cs8Dy2O7
_symmetry_space_group_name_H-M   'P 1'
_cell_length_a   19.71258200
_cell_length_b   7.46839851
_cell_length_c   7.64729347
_cell_angle_alpha   61.25625993
_cell_angle_beta   90.00000000
_cell_angle_gamma   90.00000000
_symmetry_Int_Tables_number   1
_chemical_formula_structural   Cs8Dy2O7
_chemical_formula_sum   'Cs16 Dy4 O14'
_cell_volume   987.11793445
_cell_formula_units_Z   2
loop_
 _symmetry_equiv_pos_site_id
 _symmetry_equiv_pos_as_xyz
  1  'x, y, z'
loop_
 _atom_site_type_symbol
 _atom_site_label
 _atom_site_symmetry_multiplicity
 _atom_site_fract_x
 _atom_site_fract_y
 _atom_site_fract_z
 _atom_site_occupancy
  Cs  Cs0  1  0.504312  0.021344  0.240663  1
  Cs  Cs1  1  0.004312  0.478656  0.759337  1
  Cs  Cs2  1  0.495688  0.978656  0.759337  1
  Cs  Cs3  1  0.995688  0.521344  0.240663  1
  Cs  Cs4  1  0.704810  0.040204  0.232944  1
  Cs  Cs5  1  0.204810  0.459796  0.767056  1
  Cs  Cs6  1  0.295190  0.959796  0.767056  1
  Cs  Cs7  1  0.795190  0.540204  0.232944  1
  Cs  Cs8  1  0.088305  0.995552  0.359280  1
  Cs  Cs9  1  0.588305  0.504448  0.640720  1
  Cs  Cs10  1  0.911695  0.004448  0.640720  1
  Cs  Cs11  1  0.411695  0.495552  0.359280  1
  Cs  Cs12  1  0.807164  0.454627  0.779723  1
  Cs  Cs13  1  0.307164  0.045373  0.220277  1
  Cs  Cs14  1  0.192836  0.545373  0.220277  1
  Cs  Cs15  1  0.692836  0.954627  0.779723  1
  Dy  Dy16  1  0.596373  0.499845  0.146264  1
  Dy  Dy17  1  0.096373  0.000155  0.853736  1
  Dy  Dy18  1  0.403627  0.500155  0.853736  1
  Dy  Dy19  1  0.903627  0.999845  0.146264  1
  O  O20  1  0.500000  0.500000  0.000000  1
  O  O21  1  0.000000  0.000000  0.000000  1
  O  O22  1  0.177205  0.012844  0.038434  1
  O  O23  1  0.677205  0.487156  0.961566  1
  O  O24  1  0.822795  0.987156  0.961566  1
  O  O25  1  0.322795  0.512844  0.038434  1
  O  O26  1  0.892224  0.278186  0.164075  1
  O  O27  1  0.392224  0.221814  0.835925  1
  O  O28  1  0.107776  0.721814  0.835925  1
  O  O29  1  0.607776  0.778186  0.164075  1
  O  O30  1  0.599354  0.233492  0.435895  1
  O  O31  1  0.099354  0.266508  0.564105  1
  O  O32  1  0.400646  0.766508  0.564105  1
  O  O33  1  0.900646  0.733492  0.435895  1
