# generated using pymatgen
data_Pr4Sn10Pd3Pt
_symmetry_space_group_name_H-M   'P 1'
_cell_length_a   4.56666200
_cell_length_b   9.40919703
_cell_length_c   10.36946900
_cell_angle_alpha   89.26650095
_cell_angle_beta   90.00000000
_cell_angle_gamma   90.00000000
_symmetry_Int_Tables_number   1
_chemical_formula_structural   Pr4Sn10Pd3Pt
_chemical_formula_sum   'Pr4 Sn10 Pd3 Pt1'
_cell_volume   445.52528802
_cell_formula_units_Z   1
loop_
 _symmetry_equiv_pos_site_id
 _symmetry_equiv_pos_as_xyz
  1  'x, y, z'
loop_
 _atom_site_type_symbol
 _atom_site_label
 _atom_site_symmetry_multiplicity
 _atom_site_fract_x
 _atom_site_fract_y
 _atom_site_fract_z
 _atom_site_occupancy
  Pr  Pr0  1  0.750000  0.637318  0.246778  1
  Pr  Pr1  1  0.250000  0.361250  0.754631  1
  Pr  Pr2  1  0.750000  0.103137  0.246455  1
  Pr  Pr3  1  0.250000  0.897699  0.749309  1
  Sn  Sn4  1  0.250000  0.129642  0.482466  1
  Sn  Sn5  1  0.750000  0.871235  0.516416  1
  Sn  Sn6  1  0.250000  0.368346  0.237886  1
  Sn  Sn7  1  0.750000  0.630357  0.762415  1
  Sn  Sn8  1  0.250000  0.609286  0.516250  1
  Sn  Sn9  1  0.750000  0.392439  0.486250  1
  Sn  Sn10  1  0.250000  0.620655  0.987279  1
  Sn  Sn11  1  0.750000  0.380590  0.011420  1
  Sn  Sn12  1  0.750000  0.099635  0.884681  1
  Sn  Sn13  1  0.250000  0.897767  0.116166  1
  Pd  Pd14  1  0.750000  0.146121  0.623797  1
  Pd  Pd15  1  0.250000  0.855413  0.376887  1
  Pd  Pd16  1  0.750000  0.820202  0.972568  1
  Pt  Pt17  1  0.250000  0.178908  0.028350  1
