# generated using pymatgen
data_InAg(RhSe2)4
_symmetry_space_group_name_H-M   'P 1'
_cell_length_a   7.62344522
_cell_length_b   7.62344543
_cell_length_c   7.62344500
_cell_angle_alpha   59.99999752
_cell_angle_beta   59.99999662
_cell_angle_gamma   59.99999865
_symmetry_Int_Tables_number   1
_chemical_formula_structural   InAg(RhSe2)4
_chemical_formula_sum   'In1 Ag1 Rh4 Se8'
_cell_volume   313.28444320
_cell_formula_units_Z   1
loop_
 _symmetry_equiv_pos_site_id
 _symmetry_equiv_pos_as_xyz
  1  'x, y, z'
loop_
 _atom_site_type_symbol
 _atom_site_label
 _atom_site_symmetry_multiplicity
 _atom_site_fract_x
 _atom_site_fract_y
 _atom_site_fract_z
 _atom_site_occupancy
  In  In0  1  0.000000  0.000000  0.000000  1
  Ag  Ag1  1  0.750000  0.750000  0.750000  1
  Rh  Rh2  1  0.377677  0.377677  0.377677  1
  Rh  Rh3  1  0.377677  0.866968  0.377677  1
  Rh  Rh4  1  0.866968  0.377677  0.377677  1
  Rh  Rh5  1  0.377677  0.377677  0.866968  1
  Se  Se6  1  0.142792  0.142792  0.142792  1
  Se  Se7  1  0.142792  0.571622  0.142792  1
  Se  Se8  1  0.571622  0.142792  0.142792  1
  Se  Se9  1  0.142792  0.142792  0.571622  1
  Se  Se10  1  0.607644  0.607644  0.607644  1
  Se  Se11  1  0.607644  0.177069  0.607644  1
  Se  Se12  1  0.177069  0.607644  0.607644  1
  Se  Se13  1  0.607644  0.607644  0.177069  1
