# generated using pymatgen
data_La11Nd2Th3(CdIr)4
_symmetry_space_group_name_H-M   'P 1'
_cell_length_a   10.09361483
_cell_length_b   10.09863421
_cell_length_c   10.09094200
_cell_angle_alpha   60.02520043
_cell_angle_beta   60.00876580
_cell_angle_gamma   60.10032097
_symmetry_Int_Tables_number   1
_chemical_formula_structural   La11Nd2Th3(CdIr)4
_chemical_formula_sum   'La11 Nd2 Th3 Cd4 Ir4'
_cell_volume   728.05779922
_cell_formula_units_Z   1
loop_
 _symmetry_equiv_pos_site_id
 _symmetry_equiv_pos_as_xyz
  1  'x, y, z'
loop_
 _atom_site_type_symbol
 _atom_site_label
 _atom_site_symmetry_multiplicity
 _atom_site_fract_x
 _atom_site_fract_y
 _atom_site_fract_z
 _atom_site_occupancy
  La  La0  1  0.956220  0.348564  0.347608  1
  La  La1  1  0.807053  0.192317  0.193267  1
  La  La2  1  0.191364  0.808117  0.808130  1
  La  La3  1  0.191364  0.808117  0.192389  1
  La  La4  1  0.807053  0.192317  0.807363  1
  La  La5  1  0.191329  0.190677  0.808997  1
  La  La6  1  0.806294  0.806822  0.193442  1
  La  La7  1  0.940902  0.561280  0.564265  1
  La  La8  1  0.560216  0.939367  0.937083  1
  La  La9  1  0.560216  0.939367  0.563333  1
  La  La10  1  0.940902  0.561280  0.933553  1
  Nd  Nd11  1  0.557524  0.559033  0.941721  1
  Nd  Nd12  1  0.943531  0.938611  0.558929  1
  Th  Th13  1  0.345311  0.345834  0.345803  1
  Th  Th14  1  0.345311  0.345834  0.963053  1
  Th  Th15  1  0.346717  0.962359  0.345462  1
  Cd  Cd16  1  0.576504  0.580748  0.581884  1
  Cd  Cd17  1  0.576504  0.580748  0.260863  1
  Cd  Cd18  1  0.578253  0.261075  0.580335  1
  Cd  Cd19  1  0.260162  0.581853  0.578992  1
  Ir  Ir20  1  0.151019  0.140907  0.141802  1
  Ir  Ir21  1  0.151019  0.140907  0.566270  1
  Ir  Ir22  1  0.152162  0.567075  0.140381  1
  Ir  Ir23  1  0.563065  0.146789  0.145073  1
