# generated using pymatgen
data_Nd3MgAu5
_symmetry_space_group_name_H-M   'P 1'
_cell_length_a   8.09248458
_cell_length_b   8.09248457
_cell_length_c   8.09248521
_cell_angle_alpha   65.93709069
_cell_angle_beta   65.93709258
_cell_angle_gamma   65.93707858
_symmetry_Int_Tables_number   1
_chemical_formula_structural   Nd3MgAu5
_chemical_formula_sum   'Nd6 Mg2 Au10'
_cell_volume   422.91594352
_cell_formula_units_Z   2
loop_
 _symmetry_equiv_pos_site_id
 _symmetry_equiv_pos_as_xyz
  1  'x, y, z'
loop_
 _atom_site_type_symbol
 _atom_site_label
 _atom_site_symmetry_multiplicity
 _atom_site_fract_x
 _atom_site_fract_y
 _atom_site_fract_z
 _atom_site_occupancy
  Nd  Nd0  1  0.891823  0.193378  0.619134  1
  Nd  Nd1  1  0.619134  0.891823  0.193378  1
  Nd  Nd2  1  0.193378  0.619134  0.891823  1
  Nd  Nd3  1  0.108177  0.806622  0.380866  1
  Nd  Nd4  1  0.380866  0.108177  0.806622  1
  Nd  Nd5  1  0.806622  0.380866  0.108177  1
  Mg  Mg6  1  0.654764  0.654764  0.654764  1
  Mg  Mg7  1  0.345236  0.345236  0.345236  1
  Au  Au8  1  0.000000  0.000000  0.000000  1
  Au  Au9  1  0.500000  0.500000  0.500000  1
  Au  Au10  1  0.800820  0.800820  0.800820  1
  Au  Au11  1  0.199180  0.199180  0.199180  1
  Au  Au12  1  0.941711  0.550875  0.318046  1
  Au  Au13  1  0.318046  0.941711  0.550875  1
  Au  Au14  1  0.550875  0.318046  0.941711  1
  Au  Au15  1  0.058289  0.449125  0.681954  1
  Au  Au16  1  0.681954  0.058289  0.449125  1
  Au  Au17  1  0.449125  0.681954  0.058289  1
