# generated using pymatgen
data_Tb5ErAl24(Os3Pt)2
_symmetry_space_group_name_H-M   'P 1'
_cell_length_a   8.81770033
_cell_length_b   8.84015673
_cell_length_c   9.56825648
_cell_angle_alpha   89.87393775
_cell_angle_beta   89.96071201
_cell_angle_gamma   119.69867870
_symmetry_Int_Tables_number   1
_chemical_formula_structural   Tb5ErAl24(Os3Pt)2
_chemical_formula_sum   'Tb5 Er1 Al24 Os6 Pt2'
_cell_volume   647.86936406
_cell_formula_units_Z   1
loop_
 _symmetry_equiv_pos_site_id
 _symmetry_equiv_pos_as_xyz
  1  'x, y, z'
loop_
 _atom_site_type_symbol
 _atom_site_label
 _atom_site_symmetry_multiplicity
 _atom_site_fract_x
 _atom_site_fract_y
 _atom_site_fract_z
 _atom_site_occupancy
  Tb  Tb0  1  0.190306  0.383231  0.252579  1
  Tb  Tb1  1  0.809743  0.616632  0.747495  1
  Tb  Tb2  1  0.613991  0.810921  0.253445  1
  Tb  Tb3  1  0.386466  0.189257  0.746599  1
  Tb  Tb4  1  0.194392  0.809816  0.252269  1
  Er  Er5  1  0.803481  0.191102  0.747094  1
  Al  Al6  1  0.335454  0.671480  0.025754  1
  Al  Al7  1  0.665191  0.328567  0.973234  1
  Al  Al8  1  0.667603  0.333314  0.523307  1
  Al  Al9  1  0.332447  0.666501  0.477459  1
  Al  Al10  1  0.163148  0.327177  0.574975  1
  Al  Al11  1  0.836093  0.672130  0.425810  1
  Al  Al12  1  0.671907  0.835793  0.575732  1
  Al  Al13  1  0.837390  0.675984  0.078322  1
  Al  Al14  1  0.328722  0.164752  0.424967  1
  Al  Al15  1  0.161911  0.323437  0.920921  1
  Al  Al16  1  0.163460  0.835193  0.576058  1
  Al  Al17  1  0.325565  0.158434  0.077320  1
  Al  Al18  1  0.836663  0.164631  0.425036  1
  Al  Al19  1  0.675181  0.842360  0.921833  1
  Al  Al20  1  0.832074  0.159035  0.076794  1
  Al  Al21  1  0.168141  0.841061  0.922047  1
  Al  Al22  1  0.560758  0.124117  0.248939  1
  Al  Al23  1  0.440085  0.876314  0.751003  1
  Al  Al24  1  0.874868  0.438073  0.251872  1
  Al  Al25  1  0.124504  0.560941  0.748421  1
  Al  Al26  1  0.562524  0.437359  0.252234  1
  Al  Al27  1  0.437428  0.562682  0.747991  1
  Al  Al28  1  0.999738  0.002667  0.250354  1
  Al  Al29  1  0.999155  0.998515  0.749648  1
  Os  Os30  1  0.500776  0.000484  0.999389  1
  Os  Os31  1  0.500697  0.000298  0.500550  1
  Os  Os32  1  0.999614  0.499283  0.500628  1
  Os  Os33  1  0.500061  0.499861  0.500428  1
  Os  Os34  1  0.000205  0.999793  0.000009  1
  Os  Os35  1  0.000296  0.999705  0.499995  1
  Pt  Pt36  1  0.999743  0.499314  0.999632  1
  Pt  Pt37  1  0.500221  0.499788  0.999857  1
