# generated using pymatgen
data_Th2Ga10Tc2Os
_symmetry_space_group_name_H-M   'P 1'
_cell_length_a   9.02446500
_cell_length_b   9.02446500
_cell_length_c   6.66519400
_cell_angle_alpha   90.00000000
_cell_angle_beta   90.00000000
_cell_angle_gamma   90.00000000
_symmetry_Int_Tables_number   1
_chemical_formula_structural   Th2Ga10Tc2Os
_chemical_formula_sum   'Th4 Ga20 Tc4 Os2'
_cell_volume   542.81985484
_cell_formula_units_Z   2
loop_
 _symmetry_equiv_pos_site_id
 _symmetry_equiv_pos_as_xyz
  1  'x, y, z'
loop_
 _atom_site_type_symbol
 _atom_site_label
 _atom_site_symmetry_multiplicity
 _atom_site_fract_x
 _atom_site_fract_y
 _atom_site_fract_z
 _atom_site_occupancy
  Th  Th0  1  0.184893  0.315107  0.000000  1
  Th  Th1  1  0.684893  0.184893  0.000000  1
  Th  Th2  1  0.815107  0.684893  0.000000  1
  Th  Th3  1  0.315107  0.815107  0.000000  1
  Ga  Ga4  1  0.500000  0.000000  0.298663  1
  Ga  Ga5  1  0.500000  0.000000  0.701337  1
  Ga  Ga6  1  0.293963  0.559293  0.697944  1
  Ga  Ga7  1  0.000000  0.500000  0.298663  1
  Ga  Ga8  1  0.000000  0.500000  0.701337  1
  Ga  Ga9  1  0.059293  0.793963  0.697944  1
  Ga  Ga10  1  0.206037  0.059293  0.302056  1
  Ga  Ga11  1  0.059293  0.793963  0.302056  1
  Ga  Ga12  1  0.706037  0.440707  0.697944  1
  Ga  Ga13  1  0.206037  0.059293  0.697944  1
  Ga  Ga14  1  0.940707  0.206037  0.697944  1
  Ga  Ga15  1  0.706037  0.440707  0.302056  1
  Ga  Ga16  1  0.559293  0.706037  0.302056  1
  Ga  Ga17  1  0.940707  0.206037  0.302056  1
  Ga  Ga18  1  0.559293  0.706037  0.697944  1
  Ga  Ga19  1  0.793963  0.940707  0.302056  1
  Ga  Ga20  1  0.440707  0.293963  0.697944  1
  Ga  Ga21  1  0.793963  0.940707  0.697944  1
  Ga  Ga22  1  0.440707  0.293963  0.302056  1
  Ga  Ga23  1  0.293963  0.559293  0.302056  1
  Tc  Tc24  1  0.179429  0.320571  0.500000  1
  Tc  Tc25  1  0.320571  0.820571  0.500000  1
  Tc  Tc26  1  0.820571  0.679429  0.500000  1
  Tc  Tc27  1  0.679429  0.179429  0.500000  1
  Os  Os28  1  0.000000  0.000000  0.000000  1
  Os  Os29  1  0.500000  0.500000  0.000000  1
