# generated using pymatgen
data_Ti3Mo(PRu)4
_symmetry_space_group_name_H-M   'P 1'
_cell_length_a   3.77037200
_cell_length_b   6.20526066
_cell_length_c   7.10689335
_cell_angle_alpha   89.75257036
_cell_angle_beta   90.00000000
_cell_angle_gamma   90.00000000
_symmetry_Int_Tables_number   1
_chemical_formula_structural   Ti3Mo(PRu)4
_chemical_formula_sum   'Ti3 Mo1 P4 Ru4'
_cell_volume   166.27232868
_cell_formula_units_Z   1
loop_
 _symmetry_equiv_pos_site_id
 _symmetry_equiv_pos_as_xyz
  1  'x, y, z'
loop_
 _atom_site_type_symbol
 _atom_site_label
 _atom_site_symmetry_multiplicity
 _atom_site_fract_x
 _atom_site_fract_y
 _atom_site_fract_z
 _atom_site_occupancy
  Ti  Ti0  1  0.250000  0.025897  0.181318  1
  Ti  Ti1  1  0.250000  0.525969  0.324345  1
  Ti  Ti2  1  0.750000  0.972182  0.819715  1
  Mo  Mo3  1  0.750000  0.477759  0.669786  1
  P  P4  1  0.250000  0.764892  0.624466  1
  P  P5  1  0.250000  0.272732  0.873350  1
  P  P6  1  0.750000  0.236704  0.381256  1
  P  P7  1  0.750000  0.731545  0.123773  1
  Ru  Ru8  1  0.250000  0.144861  0.566094  1
  Ru  Ru9  1  0.250000  0.651812  0.941685  1
  Ru  Ru10  1  0.750000  0.850753  0.436357  1
  Ru  Ru11  1  0.750000  0.344895  0.057856  1
