# generated using pymatgen
data_PrY2Cd3Ga2Hg
_symmetry_space_group_name_H-M   'P 1'
_cell_length_a   7.45913181
_cell_length_b   7.42019716
_cell_length_c   4.50707300
_cell_angle_alpha   90.00000000
_cell_angle_beta   90.00000000
_cell_angle_gamma   119.82748163
_symmetry_Int_Tables_number   1
_chemical_formula_structural   PrY2Cd3Ga2Hg
_chemical_formula_sum   'Pr1 Y2 Cd3 Ga2 Hg1'
_cell_volume   216.41198603
_cell_formula_units_Z   1
loop_
 _symmetry_equiv_pos_site_id
 _symmetry_equiv_pos_as_xyz
  1  'x, y, z'
loop_
 _atom_site_type_symbol
 _atom_site_label
 _atom_site_symmetry_multiplicity
 _atom_site_fract_x
 _atom_site_fract_y
 _atom_site_fract_z
 _atom_site_occupancy
  Pr  Pr0  1  0.000000  0.576256  0.500000  1
  Y  Y1  1  0.423388  0.422615  0.500000  1
  Y  Y2  1  0.576612  0.999228  0.500000  1
  Cd  Cd3  1  0.742663  0.744651  0.000000  1
  Cd  Cd4  1  0.257337  0.001988  0.000000  1
  Cd  Cd5  1  0.000000  0.253667  0.000000  1
  Ga  Ga6  1  0.661981  0.329867  0.000000  1
  Ga  Ga7  1  0.338019  0.667887  0.000000  1
  Hg  Hg8  1  0.000000  0.003842  0.500000  1
