# generated using pymatgen
data_Y16Cd4CuRu3
_symmetry_space_group_name_H-M   'P 1'
_cell_length_a   9.67312390
_cell_length_b   9.63616613
_cell_length_c   9.67312400
_cell_angle_alpha   59.87304701
_cell_angle_beta   59.99999965
_cell_angle_gamma   59.87304316
_symmetry_Int_Tables_number   1
_chemical_formula_structural   Y16Cd4CuRu3
_chemical_formula_sum   'Y16 Cd4 Cu1 Ru3'
_cell_volume   636.33635613
_cell_formula_units_Z   1
loop_
 _symmetry_equiv_pos_site_id
 _symmetry_equiv_pos_as_xyz
  1  'x, y, z'
loop_
 _atom_site_type_symbol
 _atom_site_label
 _atom_site_symmetry_multiplicity
 _atom_site_fract_x
 _atom_site_fract_y
 _atom_site_fract_z
 _atom_site_occupancy
  Y  Y0  1  0.438176  0.437426  0.062199  1
  Y  Y1  1  0.067361  0.059624  0.436507  1
  Y  Y2  1  0.436507  0.059624  0.067361  1
  Y  Y3  1  0.849960  0.847491  0.849960  1
  Y  Y4  1  0.689800  0.314767  0.305634  1
  Y  Y5  1  0.062199  0.437426  0.438176  1
  Y  Y6  1  0.311441  0.688485  0.688633  1
  Y  Y7  1  0.305634  0.314767  0.689800  1
  Y  Y8  1  0.849960  0.847491  0.452589  1
  Y  Y9  1  0.688633  0.688485  0.311441  1
  Y  Y10  1  0.452589  0.847491  0.849960  1
  Y  Y11  1  0.062199  0.437426  0.062199  1
  Y  Y12  1  0.847437  0.457690  0.847437  1
  Y  Y13  1  0.436507  0.059624  0.436507  1
  Y  Y14  1  0.311441  0.688485  0.311441  1
  Y  Y15  1  0.689800  0.314767  0.689800  1
  Cd  Cd16  1  0.080671  0.757986  0.080671  1
  Cd  Cd17  1  0.080266  0.079560  0.759908  1
  Cd  Cd18  1  0.759908  0.079560  0.080266  1
  Cd  Cd19  1  0.080266  0.079560  0.080266  1
  Cu  Cu20  1  0.641917  0.074247  0.641917  1
  Ru  Ru21  1  0.640777  0.642673  0.640777  1
  Ru  Ru22  1  0.640777  0.642673  0.075772  1
  Ru  Ru23  1  0.075772  0.642673  0.640777  1
