# generated using pymatgen
data_Zr6Zn22AgS
_symmetry_space_group_name_H-M   'P 1'
_cell_length_a   8.77755984
_cell_length_b   8.77733784
_cell_length_c   8.77741400
_cell_angle_alpha   60.00149182
_cell_angle_beta   59.99885372
_cell_angle_gamma   59.99963395
_symmetry_Int_Tables_number   1
_chemical_formula_structural   Zr6Zn22AgS
_chemical_formula_sum   'Zr6 Zn22 Ag1 S1'
_cell_volume   478.17639223
_cell_formula_units_Z   1
loop_
 _symmetry_equiv_pos_site_id
 _symmetry_equiv_pos_as_xyz
  1  'x, y, z'
loop_
 _atom_site_type_symbol
 _atom_site_label
 _atom_site_symmetry_multiplicity
 _atom_site_fract_x
 _atom_site_fract_y
 _atom_site_fract_z
 _atom_site_occupancy
  Zr  Zr0  1  0.704609  0.295390  0.295392  1
  Zr  Zr1  1  0.295382  0.704616  0.704617  1
  Zr  Zr2  1  0.295399  0.704600  0.295402  1
  Zr  Zr3  1  0.704616  0.295383  0.704618  1
  Zr  Zr4  1  0.295386  0.295387  0.704616  1
  Zr  Zr5  1  0.704605  0.704605  0.295395  1
  Zn  Zn6  1  0.123661  0.123664  0.123662  1
  Zn  Zn7  1  0.876343  0.876337  0.876331  1
  Zn  Zn8  1  0.123665  0.123659  0.629015  1
  Zn  Zn9  1  0.123669  0.629011  0.123656  1
  Zn  Zn10  1  0.876338  0.876339  0.370991  1
  Zn  Zn11  1  0.876339  0.370986  0.876339  1
  Zn  Zn12  1  0.629011  0.123668  0.123662  1
  Zn  Zn13  1  0.370985  0.876338  0.876336  1
  Zn  Zn14  1  0.499996  0.999991  0.000009  1
  Zn  Zn15  1  0.000003  0.500006  0.499995  1
  Zn  Zn16  1  0.999994  0.499999  0.000007  1
  Zn  Zn17  1  0.500004  0.999999  0.499998  1
  Zn  Zn18  1  0.000003  0.999996  0.499994  1
  Zn  Zn19  1  0.499997  0.500002  0.000010  1
  Zn  Zn20  1  0.332308  0.332317  0.332307  1
  Zn  Zn21  1  0.667694  0.667695  0.667683  1
  Zn  Zn22  1  0.332307  0.332307  0.003070  1
  Zn  Zn23  1  0.332311  0.003074  0.332298  1
  Zn  Zn24  1  0.667686  0.667696  0.996925  1
  Zn  Zn25  1  0.667688  0.996930  0.667687  1
  Zn  Zn26  1  0.003076  0.332313  0.332302  1
  Zn  Zn27  1  0.996931  0.667691  0.667680  1
  Ag  Ag28  1  0.999997  0.999995  0.000009  1
  S  S29  1  0.499999  0.500006  0.499992  1
