# generated using pymatgen
data_Pr6Cd16SiAg7
_symmetry_space_group_name_H-M   'P 1'
_cell_length_a   9.97915771
_cell_length_b   9.97915856
_cell_length_c   9.97915900
_cell_angle_alpha   60.00000187
_cell_angle_beta   59.99999903
_cell_angle_gamma   60.00000028
_symmetry_Int_Tables_number   1
_chemical_formula_structural   Pr6Cd16SiAg7
_chemical_formula_sum   'Pr6 Cd16 Si1 Ag7'
_cell_volume   702.69482959
_cell_formula_units_Z   1
loop_
 _symmetry_equiv_pos_site_id
 _symmetry_equiv_pos_as_xyz
  1  'x, y, z'
loop_
 _atom_site_type_symbol
 _atom_site_label
 _atom_site_symmetry_multiplicity
 _atom_site_fract_x
 _atom_site_fract_y
 _atom_site_fract_z
 _atom_site_occupancy
  Pr  Pr0  1  0.790661  0.790661  0.209339  1
  Pr  Pr1  1  0.209339  0.790661  0.209339  1
  Pr  Pr2  1  0.790661  0.209339  0.209339  1
  Pr  Pr3  1  0.209339  0.209339  0.790661  1
  Pr  Pr4  1  0.790661  0.209339  0.790661  1
  Pr  Pr5  1  0.209339  0.790661  0.790661  1
  Cd  Cd6  1  0.832827  0.832827  0.501518  1
  Cd  Cd7  1  0.832827  0.501518  0.832827  1
  Cd  Cd8  1  0.501518  0.832827  0.832827  1
  Cd  Cd9  1  0.832827  0.832827  0.832827  1
  Cd  Cd10  1  0.167173  0.167173  0.498482  1
  Cd  Cd11  1  0.167173  0.498482  0.167173  1
  Cd  Cd12  1  0.498482  0.167173  0.167173  1
  Cd  Cd13  1  0.167173  0.167173  0.167173  1
  Cd  Cd14  1  0.620445  0.620445  0.138663  1
  Cd  Cd15  1  0.620445  0.138663  0.620445  1
  Cd  Cd16  1  0.138663  0.620445  0.620445  1
  Cd  Cd17  1  0.620445  0.620445  0.620445  1
  Cd  Cd18  1  0.379555  0.379555  0.861337  1
  Cd  Cd19  1  0.379555  0.861337  0.379555  1
  Cd  Cd20  1  0.861337  0.379555  0.379555  1
  Cd  Cd21  1  0.379555  0.379555  0.379555  1
  Si  Si22  1  0.000000  0.000000  0.000000  1
  Ag  Ag23  1  0.000000  0.000000  0.500000  1
  Ag  Ag24  1  0.500000  0.000000  0.500000  1
  Ag  Ag25  1  0.000000  0.500000  0.500000  1
  Ag  Ag26  1  0.500000  0.500000  0.000000  1
  Ag  Ag27  1  0.000000  0.500000  0.000000  1
  Ag  Ag28  1  0.500000  0.000000  0.000000  1
  Ag  Ag29  1  0.500000  0.500000  0.500000  1
