# generated using pymatgen
data_NaTb5SmPtI12
_symmetry_space_group_name_H-M   'P 1'
_cell_length_a   9.87037731
_cell_length_b   9.88176083
_cell_length_c   9.79265793
_cell_angle_alpha   106.82824139
_cell_angle_beta   107.11309951
_cell_angle_gamma   106.70681730
_symmetry_Int_Tables_number   1
_chemical_formula_structural   NaTb5SmPtI12
_chemical_formula_sum   'Na1 Tb5 Sm1 Pt1 I12'
_cell_volume   797.97574753
_cell_formula_units_Z   1
loop_
 _symmetry_equiv_pos_site_id
 _symmetry_equiv_pos_as_xyz
  1  'x, y, z'
loop_
 _atom_site_type_symbol
 _atom_site_label
 _atom_site_symmetry_multiplicity
 _atom_site_fract_x
 _atom_site_fract_y
 _atom_site_fract_z
 _atom_site_occupancy
  Na  Na0  1  0.499932  0.499956  0.499936  1
  Tb  Tb1  1  0.309410  0.102176  0.028268  1
  Tb  Tb2  1  0.029014  0.309112  0.100905  1
  Tb  Tb3  1  0.901224  0.972502  0.700112  1
  Tb  Tb4  1  0.690423  0.897848  0.971456  1
  Tb  Tb5  1  0.970523  0.690403  0.897710  1
  Sm  Sm6  1  0.099476  0.027385  0.302690  1
  Pt  Pt7  1  0.999635  0.999627  0.999176  1
  I  I8  1  0.075635  0.677139  0.223161  1
  I  I9  1  0.222804  0.075424  0.681459  1
  I  I10  1  0.679794  0.223043  0.075429  1
  I  I11  1  0.923668  0.319156  0.774728  1
  I  I12  1  0.773704  0.923648  0.320466  1
  I  I13  1  0.320149  0.776810  0.924350  1
  I  I14  1  0.454064  0.143823  0.372291  1
  I  I15  1  0.371819  0.450337  0.142193  1
  I  I16  1  0.142655  0.374851  0.451206  1
  I  I17  1  0.550334  0.858007  0.627614  1
  I  I18  1  0.628188  0.549571  0.857693  1
  I  I19  1  0.857550  0.629180  0.549156  1
