# generated using pymatgen
data_Nd4Al18(CoPd)3
_symmetry_space_group_name_H-M   'P 1'
_cell_length_a   7.57433102
_cell_length_b   7.57433016
_cell_length_c   9.52139212
_cell_angle_alpha   89.99080253
_cell_angle_beta   89.99080253
_cell_angle_gamma   119.23655859
_symmetry_Int_Tables_number   1
_chemical_formula_structural   Nd4Al18(CoPd)3
_chemical_formula_sum   'Nd4 Al18 Co3 Pd3'
_cell_volume   476.66079396
_cell_formula_units_Z   1
loop_
 _symmetry_equiv_pos_site_id
 _symmetry_equiv_pos_as_xyz
  1  'x, y, z'
loop_
 _atom_site_type_symbol
 _atom_site_label
 _atom_site_symmetry_multiplicity
 _atom_site_fract_x
 _atom_site_fract_y
 _atom_site_fract_z
 _atom_site_occupancy
  Nd  Nd0  1  0.001618  0.324127  0.750019  1
  Nd  Nd1  1  0.327366  0.006560  0.750606  1
  Nd  Nd2  1  0.993440  0.672634  0.249394  1
  Nd  Nd3  1  0.675873  0.998382  0.249981  1
  Al  Al4  1  0.656023  0.999361  0.928887  1
  Al  Al5  1  0.007883  0.664166  0.573681  1
  Al  Al6  1  0.139632  0.138116  0.248858  1
  Al  Al7  1  0.659887  0.661000  0.043382  1
  Al  Al8  1  0.336238  0.343437  0.550818  1
  Al  Al9  1  0.339000  0.340113  0.956618  1
  Al  Al10  1  0.656563  0.663762  0.449182  1
  Al  Al11  1  0.342718  0.998505  0.070776  1
  Al  Al12  1  0.014334  0.346637  0.425488  1
  Al  Al13  1  0.341451  0.557301  0.247707  1
  Al  Al14  1  0.000639  0.343977  0.071113  1
  Al  Al15  1  0.549543  0.340378  0.240275  1
  Al  Al16  1  0.659622  0.450457  0.759725  1
  Al  Al17  1  0.861884  0.860368  0.751142  1
  Al  Al18  1  0.001495  0.657282  0.929224  1
  Al  Al19  1  0.653363  0.985666  0.574512  1
  Al  Al20  1  0.335834  0.992117  0.426319  1
  Al  Al21  1  0.442699  0.658549  0.752293  1
  Co  Co22  1  0.670556  0.329444  0.000000  1
  Co  Co23  1  0.330563  0.669437  0.500000  1
  Co  Co24  1  0.329609  0.670391  0.000000  1
  Pd  Pd25  1  0.671988  0.328012  0.500000  1
  Pd  Pd26  1  0.999876  0.000124  0.000000  1
  Pd  Pd27  1  0.000302  0.999698  0.500000  1
