# generated using pymatgen
data_ScCo2(PRu)3
_symmetry_space_group_name_H-M   'P 1'
_cell_length_a   3.73622600
_cell_length_b   10.55444800
_cell_length_c   11.97817100
_cell_angle_alpha   90.00000000
_cell_angle_beta   90.00000000
_cell_angle_gamma   90.00000000
_symmetry_Int_Tables_number   1
_chemical_formula_structural   ScCo2(PRu)3
_chemical_formula_sum   'Sc4 Co8 P12 Ru12'
_cell_volume   472.34483591
_cell_formula_units_Z   4
loop_
 _symmetry_equiv_pos_site_id
 _symmetry_equiv_pos_as_xyz
  1  'x, y, z'
loop_
 _atom_site_type_symbol
 _atom_site_label
 _atom_site_symmetry_multiplicity
 _atom_site_fract_x
 _atom_site_fract_y
 _atom_site_fract_z
 _atom_site_occupancy
  Sc  Sc0  1  0.250000  0.584483  0.705878  1
  Sc  Sc1  1  0.250000  0.915517  0.205878  1
  Sc  Sc2  1  0.750000  0.415517  0.294122  1
  Sc  Sc3  1  0.750000  0.084483  0.794122  1
  Co  Co4  1  0.250000  0.889229  0.698105  1
  Co  Co5  1  0.250000  0.610771  0.198105  1
  Co  Co6  1  0.750000  0.110771  0.301895  1
  Co  Co7  1  0.750000  0.389229  0.801895  1
  Co  Co8  1  0.250000  0.463323  0.933663  1
  Co  Co9  1  0.250000  0.036677  0.433663  1
  Co  Co10  1  0.750000  0.536677  0.066337  1
  Co  Co11  1  0.750000  0.963323  0.566337  1
  P  P12  1  0.250000  0.426032  0.115250  1
  P  P13  1  0.250000  0.073968  0.615250  1
  P  P14  1  0.750000  0.573968  0.884750  1
  P  P15  1  0.750000  0.926032  0.384750  1
  P  P16  1  0.250000  0.269244  0.870221  1
  P  P17  1  0.250000  0.230756  0.370221  1
  P  P18  1  0.750000  0.730756  0.129779  1
  P  P19  1  0.750000  0.769244  0.629779  1
  P  P20  1  0.250000  0.599143  0.385967  1
  P  P21  1  0.250000  0.900857  0.885967  1
  P  P22  1  0.750000  0.400857  0.614033  1
  P  P23  1  0.750000  0.099143  0.114033  1
  Ru  Ru24  1  0.250000  0.706801  0.988478  1
  Ru  Ru25  1  0.250000  0.793199  0.488478  1
  Ru  Ru26  1  0.750000  0.293199  0.011522  1
  Ru  Ru27  1  0.750000  0.206801  0.511522  1
  Ru  Ru28  1  0.250000  0.406245  0.482732  1
  Ru  Ru29  1  0.250000  0.093755  0.982732  1
  Ru  Ru30  1  0.750000  0.593755  0.517268  1
  Ru  Ru31  1  0.750000  0.906245  0.017268  1
  Ru  Ru32  1  0.250000  0.225013  0.180262  1
  Ru  Ru33  1  0.250000  0.274988  0.680262  1
  Ru  Ru34  1  0.750000  0.774988  0.819738  1
  Ru  Ru35  1  0.750000  0.725012  0.319738  1
