# generated using pymatgen
data_DyTmTh2(AlRh)4
_symmetry_space_group_name_H-M   'P 1'
_cell_length_a   4.29345600
_cell_length_b   6.91500243
_cell_length_c   8.04341631
_cell_angle_alpha   90.20841906
_cell_angle_beta   90.00000000
_cell_angle_gamma   90.00000000
_symmetry_Int_Tables_number   1
_chemical_formula_structural   DyTmTh2(AlRh)4
_chemical_formula_sum   'Dy1 Tm1 Th2 Al4 Rh4'
_cell_volume   238.80148759
_cell_formula_units_Z   1
loop_
 _symmetry_equiv_pos_site_id
 _symmetry_equiv_pos_as_xyz
  1  'x, y, z'
loop_
 _atom_site_type_symbol
 _atom_site_label
 _atom_site_symmetry_multiplicity
 _atom_site_fract_x
 _atom_site_fract_y
 _atom_site_fract_z
 _atom_site_occupancy
  Dy  Dy0  1  0.250000  0.457268  0.182473  1
  Tm  Tm1  1  0.750000  0.043164  0.682595  1
  Th  Th2  1  0.250000  0.962126  0.325045  1
  Th  Th3  1  0.750000  0.538525  0.823403  1
  Al  Al4  1  0.750000  0.625575  0.439039  1
  Al  Al5  1  0.750000  0.132684  0.057449  1
  Al  Al6  1  0.250000  0.365838  0.558806  1
  Al  Al7  1  0.250000  0.875467  0.937834  1
  Rh  Rh8  1  0.750000  0.759903  0.120911  1
  Rh  Rh9  1  0.750000  0.254385  0.377183  1
  Rh  Rh10  1  0.250000  0.242768  0.874253  1
  Rh  Rh11  1  0.250000  0.742297  0.621010  1
