# generated using pymatgen
data_Lu10Sn5PbO2
_symmetry_space_group_name_H-M   'P 1'
_cell_length_a   8.84103417
_cell_length_b   8.84103436
_cell_length_c   8.84103416
_cell_angle_alpha   125.85374251
_cell_angle_beta   125.85373135
_cell_angle_gamma   80.12866134
_symmetry_Int_Tables_number   1
_chemical_formula_structural   Lu10Sn5PbO2
_chemical_formula_sum   'Lu10 Sn5 Pb1 O2'
_cell_volume   438.20719840
_cell_formula_units_Z   1
loop_
 _symmetry_equiv_pos_site_id
 _symmetry_equiv_pos_as_xyz
  1  'x, y, z'
loop_
 _atom_site_type_symbol
 _atom_site_label
 _atom_site_symmetry_multiplicity
 _atom_site_fract_x
 _atom_site_fract_y
 _atom_site_fract_z
 _atom_site_occupancy
  Lu  Lu0  1  0.502862  0.301686  0.502064  1
  Lu  Lu1  1  0.799622  0.000798  0.497936  1
  Lu  Lu2  1  0.000798  0.502862  0.201176  1
  Lu  Lu3  1  0.301686  0.799622  0.798824  1
  Lu  Lu4  1  0.501667  0.702852  0.502044  1
  Lu  Lu5  1  0.200808  0.999623  0.497956  1
  Lu  Lu6  1  0.999623  0.501667  0.798815  1
  Lu  Lu7  1  0.702852  0.200808  0.201185  1
  Lu  Lu8  1  0.502480  0.502480  0.000000  1
  Lu  Lu9  1  0.000327  0.000327  0.000000  1
  Sn  Sn10  1  0.148666  0.353796  0.500028  1
  Sn  Sn11  1  0.853768  0.648637  0.499972  1
  Sn  Sn12  1  0.648637  0.148666  0.794869  1
  Sn  Sn13  1  0.353796  0.853768  0.205131  1
  Sn  Sn14  1  0.751410  0.751410  0.000000  1
  Pb  Pb15  1  0.251348  0.251348  0.000000  1
  O  O16  1  0.751244  0.251244  0.500000  1
  O  O17  1  0.251244  0.751244  0.500000  1
