# generated using pymatgen
data_LiPr2Y4Co17P12
_symmetry_space_group_name_H-M   'P 1'
_cell_length_a   3.74504800
_cell_length_b   10.63112800
_cell_length_c   12.27839400
_cell_angle_alpha   90.00000000
_cell_angle_beta   90.00000000
_cell_angle_gamma   90.00000000
_symmetry_Int_Tables_number   1
_chemical_formula_structural   LiPr2Y4Co17P12
_chemical_formula_sum   'Li1 Pr2 Y4 Co17 P12'
_cell_volume   488.85301813
_cell_formula_units_Z   1
loop_
 _symmetry_equiv_pos_site_id
 _symmetry_equiv_pos_as_xyz
  1  'x, y, z'
loop_
 _atom_site_type_symbol
 _atom_site_label
 _atom_site_symmetry_multiplicity
 _atom_site_fract_x
 _atom_site_fract_y
 _atom_site_fract_z
 _atom_site_occupancy
  Li  Li0  1  0.500000  0.500000  0.148798  1
  Pr  Pr1  1  0.000000  0.500000  0.523291  1
  Pr  Pr2  1  0.500000  0.000000  0.477943  1
  Y  Y3  1  0.500000  0.818711  0.204746  1
  Y  Y4  1  0.500000  0.181289  0.204746  1
  Y  Y5  1  0.000000  0.682556  0.795605  1
  Y  Y6  1  0.000000  0.317444  0.795605  1
  Co  Co7  1  0.000000  0.000000  0.843932  1
  Co  Co8  1  0.500000  0.500000  0.707188  1
  Co  Co9  1  0.000000  0.000000  0.293593  1
  Co  Co10  1  0.000000  0.500000  0.985963  1
  Co  Co11  1  0.500000  0.000000  0.011969  1
  Co  Co12  1  0.500000  0.331014  0.995085  1
  Co  Co13  1  0.500000  0.668986  0.995085  1
  Co  Co14  1  0.000000  0.164845  0.003199  1
  Co  Co15  1  0.000000  0.835155  0.003199  1
  Co  Co16  1  0.500000  0.295453  0.430387  1
  Co  Co17  1  0.500000  0.704547  0.430387  1
  Co  Co18  1  0.000000  0.203095  0.571906  1
  Co  Co19  1  0.000000  0.796905  0.571906  1
  Co  Co20  1  0.500000  0.880397  0.712855  1
  Co  Co21  1  0.500000  0.119603  0.712855  1
  Co  Co22  1  0.000000  0.621726  0.289589  1
  Co  Co23  1  0.000000  0.378274  0.289589  1
  P  P24  1  0.500000  0.500000  0.885430  1
  P  P25  1  0.000000  0.000000  0.115606  1
  P  P26  1  0.500000  0.500000  0.339895  1
  P  P27  1  0.000000  0.000000  0.661743  1
  P  P28  1  0.500000  0.305925  0.618142  1
  P  P29  1  0.500000  0.694075  0.618142  1
  P  P30  1  0.000000  0.193663  0.383286  1
  P  P31  1  0.000000  0.806337  0.383286  1
  P  P32  1  0.500000  0.847213  0.893630  1
  P  P33  1  0.500000  0.152787  0.893630  1
  P  P34  1  0.000000  0.657241  0.103895  1
  P  P35  1  0.000000  0.342759  0.103895  1
