# generated using pymatgen
data_Dy5Er5(Pb3Se)2
_symmetry_space_group_name_H-M   'P 1'
_cell_length_a   9.15271300
_cell_length_b   9.15268863
_cell_length_c   6.72822200
_cell_angle_alpha   90.00000000
_cell_angle_beta   90.00000000
_cell_angle_gamma   119.98937973
_symmetry_Int_Tables_number   1
_chemical_formula_structural   Dy5Er5(Pb3Se)2
_chemical_formula_sum   'Dy5 Er5 Pb6 Se2'
_cell_volume   488.17546001
_cell_formula_units_Z   1
loop_
 _symmetry_equiv_pos_site_id
 _symmetry_equiv_pos_as_xyz
  1  'x, y, z'
loop_
 _atom_site_type_symbol
 _atom_site_label
 _atom_site_symmetry_multiplicity
 _atom_site_fract_x
 _atom_site_fract_y
 _atom_site_fract_z
 _atom_site_occupancy
  Dy  Dy0  1  0.251739  0.000259  0.750000  1
  Dy  Dy1  1  0.000270  0.251750  0.750000  1
  Dy  Dy2  1  0.250986  0.250984  0.250000  1
  Dy  Dy3  1  0.748477  0.999696  0.250000  1
  Dy  Dy4  1  0.999703  0.748476  0.250000  1
  Er  Er5  1  0.749368  0.749376  0.750000  1
  Er  Er6  1  0.666766  0.333499  0.999903  1
  Er  Er7  1  0.333509  0.666782  0.999902  1
  Er  Er8  1  0.333509  0.666782  0.500098  1
  Er  Er9  1  0.666766  0.333499  0.500097  1
  Pb  Pb10  1  0.397483  0.397475  0.750000  1
  Pb  Pb11  1  0.603697  0.999544  0.750000  1
  Pb  Pb12  1  0.999530  0.603702  0.750000  1
  Pb  Pb13  1  0.603110  0.603103  0.250000  1
  Pb  Pb14  1  0.396492  0.999937  0.250000  1
  Pb  Pb15  1  0.999938  0.396484  0.250000  1
  Se  Se16  1  0.999329  0.999328  0.999262  1
  Se  Se17  1  0.999329  0.999328  0.500738  1
