# generated using pymatgen
data_Sc2FeCo4Si14Ir
_symmetry_space_group_name_H-M   'P 1'
_cell_length_a   7.64963917
_cell_length_b   7.62935692
_cell_length_c   7.65053491
_cell_angle_alpha   57.24196954
_cell_angle_beta   57.09087022
_cell_angle_gamma   57.15208842
_symmetry_Int_Tables_number   1
_chemical_formula_structural   Sc2FeCo4Si14Ir
_chemical_formula_sum   'Sc2 Fe1 Co4 Si14 Ir1'
_cell_volume   295.07533178
_cell_formula_units_Z   1
loop_
 _symmetry_equiv_pos_site_id
 _symmetry_equiv_pos_as_xyz
  1  'x, y, z'
loop_
 _atom_site_type_symbol
 _atom_site_label
 _atom_site_symmetry_multiplicity
 _atom_site_fract_x
 _atom_site_fract_y
 _atom_site_fract_z
 _atom_site_occupancy
  Sc  Sc0  1  0.001539  0.002112  0.999052  1
  Sc  Sc1  1  0.495561  0.496911  0.504803  1
  Fe  Fe2  1  0.074316  0.425071  0.751141  1
  Co  Co3  1  0.250542  0.926194  0.572725  1
  Co  Co4  1  0.571829  0.250748  0.926913  1
  Co  Co5  1  0.927784  0.574254  0.248708  1
  Co  Co6  1  0.427809  0.749349  0.072370  1
  Si  Si7  1  0.752648  0.736904  0.760889  1
  Si  Si8  1  0.249522  0.250840  0.249490  1
  Si  Si9  1  0.855686  0.074565  0.672841  1
  Si  Si10  1  0.667944  0.850303  0.070870  1
  Si  Si11  1  0.076323  0.665611  0.848219  1
  Si  Si12  1  0.643542  0.826912  0.425698  1
  Si  Si13  1  0.424419  0.651814  0.832569  1
  Si  Si14  1  0.833942  0.427884  0.651085  1
  Si  Si15  1  0.164214  0.573038  0.353511  1
  Si  Si16  1  0.567449  0.359468  0.156503  1
  Si  Si17  1  0.337474  0.168225  0.578289  1
  Si  Si18  1  0.932648  0.344113  0.138062  1
  Si  Si19  1  0.333427  0.151062  0.926793  1
  Si  Si20  1  0.161659  0.921186  0.332621  1
  Ir  Ir21  1  0.749723  0.073435  0.426848  1
