# generated using pymatgen
data_Na20Nb2AlGaAs12
_symmetry_space_group_name_H-M   'P 1'
_cell_length_a   7.55038362
_cell_length_b   8.40187675
_cell_length_c   15.92532323
_cell_angle_alpha   59.04476036
_cell_angle_beta   89.96077284
_cell_angle_gamma   90.00144127
_symmetry_Int_Tables_number   1
_chemical_formula_structural   Na20Nb2AlGaAs12
_chemical_formula_sum   'Na20 Nb2 Al1 Ga1 As12'
_cell_volume   866.36861283
_cell_formula_units_Z   1
loop_
 _symmetry_equiv_pos_site_id
 _symmetry_equiv_pos_as_xyz
  1  'x, y, z'
loop_
 _atom_site_type_symbol
 _atom_site_label
 _atom_site_symmetry_multiplicity
 _atom_site_fract_x
 _atom_site_fract_y
 _atom_site_fract_z
 _atom_site_occupancy
  Na  Na0  1  0.737682  0.941846  0.245590  1
  Na  Na1  1  0.262086  0.941801  0.746240  1
  Na  Na2  1  0.771521  0.055446  0.759403  1
  Na  Na3  1  0.228471  0.055449  0.259351  1
  Na  Na4  1  0.268190  0.246452  0.418771  1
  Na  Na5  1  0.732396  0.246318  0.918951  1
  Na  Na6  1  0.220359  0.752517  0.579023  1
  Na  Na7  1  0.780241  0.752740  0.078998  1
  Na  Na8  1  0.088857  0.346676  0.582508  1
  Na  Na9  1  0.911106  0.346168  0.083325  1
  Na  Na10  1  0.405482  0.655772  0.418627  1
  Na  Na11  1  0.594021  0.655430  0.918791  1
  Na  Na12  1  0.597139  0.335390  0.242729  1
  Na  Na13  1  0.403063  0.334914  0.742985  1
  Na  Na14  1  0.908038  0.664580  0.759795  1
  Na  Na15  1  0.091709  0.663433  0.260187  1
  Na  Na16  1  0.770058  0.420974  0.408443  1
  Na  Na17  1  0.230067  0.420454  0.908582  1
  Na  Na18  1  0.739332  0.581224  0.588814  1
  Na  Na19  1  0.259851  0.581332  0.088906  1
  Nb  Nb20  1  0.615974  0.988856  0.578631  1
  Nb  Nb21  1  0.383987  0.988787  0.078484  1
  Al  Al22  1  0.889292  0.012484  0.416639  1
  Ga  Ga23  1  0.109207  0.012670  0.915966  1
  As  As24  1  0.982863  0.316302  0.272575  1
  As  As25  1  0.016998  0.319403  0.771180  1
  As  As26  1  0.518840  0.690252  0.726019  1
  As  As27  1  0.481000  0.690296  0.225965  1
  As  As28  1  0.948689  0.019928  0.573506  1
  As  As29  1  0.051238  0.020129  0.074468  1
  As  As30  1  0.544570  0.978944  0.427229  1
  As  As31  1  0.458447  0.978771  0.927288  1
  As  As32  1  0.003908  0.726625  0.421836  1
  As  As33  1  0.995357  0.723955  0.921882  1
  As  As34  1  0.491502  0.266965  0.579170  1
  As  As35  1  0.508461  0.266712  0.079145  1
