# generated using pymatgen
data_Ce4PdRu2Pb2Au
_symmetry_space_group_name_H-M   'P 1'
_cell_length_a   7.95662318
_cell_length_b   7.95662252
_cell_length_c   3.70166300
_cell_angle_alpha   90.00000000
_cell_angle_beta   90.00000000
_cell_angle_gamma   88.57649733
_symmetry_Int_Tables_number   1
_chemical_formula_structural   Ce4PdRu2Pb2Au
_chemical_formula_sum   'Ce4 Pd1 Ru2 Pb2 Au1'
_cell_volume   234.27199304
_cell_formula_units_Z   1
loop_
 _symmetry_equiv_pos_site_id
 _symmetry_equiv_pos_as_xyz
  1  'x, y, z'
loop_
 _atom_site_type_symbol
 _atom_site_label
 _atom_site_symmetry_multiplicity
 _atom_site_fract_x
 _atom_site_fract_y
 _atom_site_fract_z
 _atom_site_occupancy
  Ce  Ce0  1  0.662602  0.162602  0.500000  1
  Ce  Ce1  1  0.185547  0.310171  0.500000  1
  Ce  Ce2  1  0.810171  0.685547  0.500000  1
  Ce  Ce3  1  0.342985  0.842985  0.500000  1
  Pd  Pd4  1  0.872673  0.372673  0.000000  1
  Ru  Ru5  1  0.361941  0.137234  0.000000  1
  Ru  Ru6  1  0.637234  0.861941  0.000000  1
  Pb  Pb7  1  0.997311  0.006407  0.000000  1
  Pb  Pb8  1  0.506407  0.497311  0.000000  1
  Au  Au9  1  0.123129  0.623129  0.000000  1
