# generated using pymatgen
data_Tb11HoIn20
_symmetry_space_group_name_H-M   'P 1'
_cell_length_a   6.53066305
_cell_length_b   10.45723100
_cell_length_c   12.32111504
_cell_angle_alpha   90.00000000
_cell_angle_beta   90.00242600
_cell_angle_gamma   90.00000000
_symmetry_Int_Tables_number   1
_chemical_formula_structural   Tb11HoIn20
_chemical_formula_sum   'Tb11 Ho1 In20'
_cell_volume   841.44162282
_cell_formula_units_Z   1
loop_
 _symmetry_equiv_pos_site_id
 _symmetry_equiv_pos_as_xyz
  1  'x, y, z'
loop_
 _atom_site_type_symbol
 _atom_site_label
 _atom_site_symmetry_multiplicity
 _atom_site_fract_x
 _atom_site_fract_y
 _atom_site_fract_z
 _atom_site_occupancy
  Tb  Tb0  1  0.349955  0.750000  0.056566  1
  Tb  Tb1  1  0.150205  0.750000  0.556663  1
  Tb  Tb2  1  0.650166  0.250000  0.943182  1
  Tb  Tb3  1  0.890314  0.493492  0.142259  1
  Tb  Tb4  1  0.609823  0.006796  0.642085  1
  Tb  Tb5  1  0.109445  0.993768  0.857749  1
  Tb  Tb6  1  0.390487  0.506355  0.357757  1
  Tb  Tb7  1  0.109445  0.506232  0.857749  1
  Tb  Tb8  1  0.390487  0.993645  0.357757  1
  Tb  Tb9  1  0.890314  0.006508  0.142259  1
  Tb  Tb10  1  0.609823  0.493204  0.642085  1
  Ho  Ho11  1  0.849627  0.250000  0.443271  1
  In  In12  1  0.618002  0.750000  0.505297  1
  In  In13  1  0.881958  0.750000  0.005217  1
  In  In14  1  0.383184  0.250000  0.494900  1
  In  In15  1  0.117975  0.250000  0.994994  1
  In  In16  1  0.651682  0.750000  0.246198  1
  In  In17  1  0.848273  0.750000  0.746154  1
  In  In18  1  0.348425  0.250000  0.753629  1
  In  In19  1  0.150997  0.250000  0.253987  1
  In  In20  1  0.124743  0.750000  0.285213  1
  In  In21  1  0.375107  0.750000  0.785310  1
  In  In22  1  0.875183  0.250000  0.714531  1
  In  In23  1  0.624826  0.250000  0.215045  1
  In  In24  1  0.875365  0.543974  0.401473  1
  In  In25  1  0.624606  0.955664  0.901403  1
  In  In26  1  0.124597  0.044421  0.598551  1
  In  In27  1  0.375211  0.455706  0.098646  1
  In  In28  1  0.124597  0.455579  0.598551  1
  In  In29  1  0.375211  0.044294  0.098646  1
  In  In30  1  0.875365  0.956026  0.401473  1
  In  In31  1  0.624606  0.544336  0.901403  1
