# generated using pymatgen
data_BaAc2MnSe5
_symmetry_space_group_name_H-M   'P 1'
_cell_length_a   8.56574056
_cell_length_b   8.56581620
_cell_length_c   9.47961515
_cell_angle_alpha   116.85935632
_cell_angle_beta   116.86135314
_cell_angle_gamma   89.99999694
_symmetry_Int_Tables_number   1
_chemical_formula_structural   BaAc2MnSe5
_chemical_formula_sum   'Ba2 Ac4 Mn2 Se10'
_cell_volume   535.03621750
_cell_formula_units_Z   2
loop_
 _symmetry_equiv_pos_site_id
 _symmetry_equiv_pos_as_xyz
  1  'x, y, z'
loop_
 _atom_site_type_symbol
 _atom_site_label
 _atom_site_symmetry_multiplicity
 _atom_site_fract_x
 _atom_site_fract_y
 _atom_site_fract_z
 _atom_site_occupancy
  Ba  Ba0  1  0.250000  0.249994  0.500000  1
  Ba  Ba1  1  0.750000  0.750006  0.500000  1
  Ac  Ac2  1  0.660370  0.160368  0.000057  1
  Ac  Ac3  1  0.160370  0.339690  0.000057  1
  Ac  Ac4  1  0.839630  0.660310  0.999943  1
  Ac  Ac5  1  0.339630  0.839632  0.999943  1
  Mn  Mn6  1  0.750000  0.249885  0.500000  1
  Mn  Mn7  1  0.250000  0.750115  0.500000  1
  Se  Se8  1  0.000000  0.000000  0.000000  1
  Se  Se9  1  0.500000  0.500000  0.000000  1
  Se  Se10  1  0.485710  0.289571  0.275368  1
  Se  Se11  1  0.985712  0.485797  0.275368  1
  Se  Se12  1  0.289672  0.789752  0.275469  1
  Se  Se13  1  0.789672  0.985719  0.275469  1
  Se  Se14  1  0.210328  0.014283  0.724531  1
  Se  Se15  1  0.710328  0.210248  0.724531  1
  Se  Se16  1  0.014290  0.514203  0.724632  1
  Se  Se17  1  0.514290  0.710429  0.724632  1
