# generated using pymatgen
data_Tm3(Fe2Os)2
_symmetry_space_group_name_H-M   'P 1'
_cell_length_a   5.21614014
_cell_length_b   5.19690598
_cell_length_c   12.66109200
_cell_angle_alpha   89.50417537
_cell_angle_beta   90.78301643
_cell_angle_gamma   120.38400887
_symmetry_Int_Tables_number   1
_chemical_formula_structural   Tm3(Fe2Os)2
_chemical_formula_sum   'Tm6 Fe8 Os4'
_cell_volume   296.04716816
_cell_formula_units_Z   2
loop_
 _symmetry_equiv_pos_site_id
 _symmetry_equiv_pos_as_xyz
  1  'x, y, z'
loop_
 _atom_site_type_symbol
 _atom_site_label
 _atom_site_symmetry_multiplicity
 _atom_site_fract_x
 _atom_site_fract_y
 _atom_site_fract_z
 _atom_site_occupancy
  Tm  Tm0  1  0.332843  0.665688  0.914656  1
  Tm  Tm1  1  0.002145  0.002418  0.250943  1
  Tm  Tm2  1  0.667059  0.333032  0.583848  1
  Tm  Tm3  1  0.332941  0.666968  0.666152  1
  Tm  Tm4  1  0.997855  0.997582  0.999057  1
  Tm  Tm5  1  0.667157  0.334312  0.335344  1
  Fe  Fe6  1  0.166758  0.333514  0.459268  1
  Fe  Fe7  1  0.833242  0.666486  0.790732  1
  Fe  Fe8  1  0.333270  0.665639  0.296321  1
  Fe  Fe9  1  0.000000  0.000000  0.625000  1
  Fe  Fe10  1  0.666730  0.334361  0.953679  1
  Fe  Fe11  1  0.000000  0.500000  0.125000  1
  Fe  Fe12  1  0.667644  0.833733  0.459791  1
  Fe  Fe13  1  0.332356  0.166267  0.790209  1
  Os  Os14  1  0.500000  0.500000  0.125000  1
  Os  Os15  1  0.166593  0.833979  0.459782  1
  Os  Os16  1  0.833407  0.166021  0.790218  1
  Os  Os17  1  0.500000  0.000000  0.125000  1
