# generated using pymatgen
data_Dy2Tc2B4Ru3
_symmetry_space_group_name_H-M   'P 1'
_cell_length_a   3.09564800
_cell_length_b   8.79608901
_cell_length_c   10.19415400
_cell_angle_alpha   89.99789798
_cell_angle_beta   90.00000000
_cell_angle_gamma   90.00000000
_symmetry_Int_Tables_number   1
_chemical_formula_structural   Dy2Tc2B4Ru3
_chemical_formula_sum   'Dy4 Tc4 B8 Ru6'
_cell_volume   277.58268809
_cell_formula_units_Z   2
loop_
 _symmetry_equiv_pos_site_id
 _symmetry_equiv_pos_as_xyz
  1  'x, y, z'
loop_
 _atom_site_type_symbol
 _atom_site_label
 _atom_site_symmetry_multiplicity
 _atom_site_fract_x
 _atom_site_fract_y
 _atom_site_fract_z
 _atom_site_occupancy
  Dy  Dy0  1  0.500000  0.838453  0.182496  1
  Dy  Dy1  1  0.500000  0.161547  0.817504  1
  Dy  Dy2  1  0.500000  0.661609  0.682397  1
  Dy  Dy3  1  0.500000  0.338391  0.317603  1
  Tc  Tc4  1  0.000000  0.658736  0.954176  1
  Tc  Tc5  1  0.000000  0.341264  0.045824  1
  Tc  Tc6  1  0.000000  0.841273  0.454212  1
  Tc  Tc7  1  0.000000  0.158727  0.545788  1
  B  B8  1  0.500000  0.967643  0.586542  1
  B  B9  1  0.500000  0.032357  0.413458  1
  B  B10  1  0.500000  0.849264  0.902598  1
  B  B11  1  0.500000  0.150736  0.097402  1
  B  B12  1  0.500000  0.650779  0.402622  1
  B  B13  1  0.500000  0.349221  0.597378  1
  B  B14  1  0.500000  0.467588  0.913443  1
  B  B15  1  0.500000  0.532412  0.086557  1
  Ru  Ru16  1  0.000000  0.000000  0.000000  1
  Ru  Ru17  1  0.000000  0.408806  0.760238  1
  Ru  Ru18  1  0.000000  0.591194  0.239762  1
  Ru  Ru19  1  0.000000  0.500000  0.500000  1
  Ru  Ru20  1  0.000000  0.908816  0.739713  1
  Ru  Ru21  1  0.000000  0.091184  0.260287  1
