# generated using pymatgen
data_Tb6Lu4In8Pt3Au
_symmetry_space_group_name_H-M   'P 1'
_cell_length_a   3.64175300
_cell_length_b   8.17192820
_cell_length_c   18.13970876
_cell_angle_alpha   90.23688169
_cell_angle_beta   90.00000000
_cell_angle_gamma   90.00000000
_symmetry_Int_Tables_number   1
_chemical_formula_structural   Tb6Lu4In8Pt3Au
_chemical_formula_sum   'Tb6 Lu4 In8 Pt3 Au1'
_cell_volume   539.83573135
_cell_formula_units_Z   1
loop_
 _symmetry_equiv_pos_site_id
 _symmetry_equiv_pos_as_xyz
  1  'x, y, z'
loop_
 _atom_site_type_symbol
 _atom_site_label
 _atom_site_symmetry_multiplicity
 _atom_site_fract_x
 _atom_site_fract_y
 _atom_site_fract_z
 _atom_site_occupancy
  Tb  Tb0  1  0.000000  0.246937  0.212815  1
  Tb  Tb1  1  0.000000  0.760602  0.782973  1
  Tb  Tb2  1  0.000000  0.260323  0.718274  1
  Tb  Tb3  1  0.000000  0.727266  0.282186  1
  Tb  Tb4  1  0.000000  0.999815  0.999200  1
  Tb  Tb5  1  0.000000  0.498526  0.500615  1
  Lu  Lu6  1  0.000000  0.119185  0.419217  1
  Lu  Lu7  1  0.000000  0.884063  0.587550  1
  Lu  Lu8  1  0.000000  0.385615  0.913173  1
  Lu  Lu9  1  0.000000  0.616244  0.084408  1
  In  In10  1  0.500000  0.412839  0.351012  1
  In  In11  1  0.500000  0.582578  0.650026  1
  In  In12  1  0.500000  0.084324  0.850540  1
  In  In13  1  0.500000  0.914364  0.148653  1
  In  In14  1  0.500000  0.299455  0.060703  1
  In  In15  1  0.500000  0.702462  0.936512  1
  In  In16  1  0.500000  0.202746  0.565141  1
  In  In17  1  0.500000  0.796896  0.437935  1
  Pt  Pt18  1  0.500000  0.974737  0.695302  1
  Pt  Pt19  1  0.500000  0.475730  0.805573  1
  Pt  Pt20  1  0.500000  0.526920  0.193701  1
  Au  Au21  1  0.500000  0.028374  0.304495  1
