# generated using pymatgen
data_Ca2Mn3Ni6As7Ru3
_symmetry_space_group_name_H-M   'P 1'
_cell_length_a   9.63884400
_cell_length_b   9.63884470
_cell_length_c   3.85723200
_cell_angle_alpha   90.00000000
_cell_angle_beta   90.00000000
_cell_angle_gamma   120.00000446
_symmetry_Int_Tables_number   1
_chemical_formula_structural   Ca2Mn3Ni6As7Ru3
_chemical_formula_sum   'Ca2 Mn3 Ni6 As7 Ru3'
_cell_volume   310.35325728
_cell_formula_units_Z   1
loop_
 _symmetry_equiv_pos_site_id
 _symmetry_equiv_pos_as_xyz
  1  'x, y, z'
loop_
 _atom_site_type_symbol
 _atom_site_label
 _atom_site_symmetry_multiplicity
 _atom_site_fract_x
 _atom_site_fract_y
 _atom_site_fract_z
 _atom_site_occupancy
  Ca  Ca0  1  0.000000  0.000000  0.000000  1
  Ca  Ca1  1  0.666667  0.333333  0.500000  1
  Mn  Mn2  1  0.424240  0.546410  0.500000  1
  Mn  Mn3  1  0.122170  0.575760  0.500000  1
  Mn  Mn4  1  0.453590  0.877830  0.500000  1
  Ni  Ni5  1  0.388821  0.292119  0.000000  1
  Ni  Ni6  1  0.903296  0.611179  0.000000  1
  Ni  Ni7  1  0.707881  0.096704  0.000000  1
  Ni  Ni8  1  0.608257  0.787905  0.000000  1
  Ni  Ni9  1  0.179648  0.391743  0.000000  1
  Ni  Ni10  1  0.212095  0.820352  0.000000  1
  As  As11  1  0.623640  0.544881  0.000000  1
  As  As12  1  0.921241  0.376360  0.000000  1
  As  As13  1  0.455119  0.078759  0.000000  1
  As  As14  1  0.744050  0.959760  0.500000  1
  As  As15  1  0.215710  0.255950  0.500000  1
  As  As16  1  0.040240  0.784290  0.500000  1
  As  As17  1  0.333333  0.666667  0.000000  1
  Ru  Ru18  1  0.757683  0.708539  0.500000  1
  Ru  Ru19  1  0.950857  0.242317  0.500000  1
  Ru  Ru20  1  0.291461  0.049143  0.500000  1
