# generated using pymatgen
data_La2Nd6GePd24
_symmetry_space_group_name_H-M   'P 1'
_cell_length_a   8.50829535
_cell_length_b   8.50829535
_cell_length_c   8.50829535
_cell_angle_alpha   89.97664373
_cell_angle_beta   89.97664373
_cell_angle_gamma   89.97664373
_symmetry_Int_Tables_number   1
_chemical_formula_structural   La2Nd6GePd24
_chemical_formula_sum   'La2 Nd6 Ge1 Pd24'
_cell_volume   615.92461966
_cell_formula_units_Z   1
loop_
 _symmetry_equiv_pos_site_id
 _symmetry_equiv_pos_as_xyz
  1  'x, y, z'
loop_
 _atom_site_type_symbol
 _atom_site_label
 _atom_site_symmetry_multiplicity
 _atom_site_fract_x
 _atom_site_fract_y
 _atom_site_fract_z
 _atom_site_occupancy
  La  La0  1  0.253340  0.253340  0.253340  1
  La  La1  1  0.746660  0.746660  0.746660  1
  Nd  Nd2  1  0.746958  0.746958  0.252904  1
  Nd  Nd3  1  0.746958  0.252904  0.746958  1
  Nd  Nd4  1  0.253042  0.253042  0.747096  1
  Nd  Nd5  1  0.253042  0.747096  0.253042  1
  Nd  Nd6  1  0.252904  0.746958  0.746958  1
  Nd  Nd7  1  0.747096  0.253042  0.253042  1
  Ge  Ge8  1  0.000000  0.000000  0.000000  1
  Pd  Pd9  1  0.260009  0.500227  0.999828  1
  Pd  Pd10  1  0.739991  0.499773  0.000172  1
  Pd  Pd11  1  0.999828  0.260009  0.500227  1
  Pd  Pd12  1  0.500227  0.260009  0.999828  1
  Pd  Pd13  1  0.000172  0.739991  0.499773  1
  Pd  Pd14  1  0.499773  0.739991  0.000172  1
  Pd  Pd15  1  0.500227  0.999828  0.260009  1
  Pd  Pd16  1  0.260009  0.999828  0.500227  1
  Pd  Pd17  1  0.499773  0.000172  0.739991  1
  Pd  Pd18  1  0.739991  0.000172  0.499773  1
  Pd  Pd19  1  0.999828  0.500227  0.260009  1
  Pd  Pd20  1  0.000172  0.499773  0.739991  1
  Pd  Pd21  1  0.253029  0.500207  0.500207  1
  Pd  Pd22  1  0.746971  0.499793  0.499793  1
  Pd  Pd23  1  0.500207  0.253029  0.500207  1
  Pd  Pd24  1  0.499793  0.746971  0.499793  1
  Pd  Pd25  1  0.500207  0.500207  0.253029  1
  Pd  Pd26  1  0.499793  0.499793  0.746971  1
  Pd  Pd27  1  0.290779  0.999627  0.999627  1
  Pd  Pd28  1  0.709221  0.000373  0.000373  1
  Pd  Pd29  1  0.999627  0.290779  0.999627  1
  Pd  Pd30  1  0.000373  0.709221  0.000373  1
  Pd  Pd31  1  0.999627  0.999627  0.290779  1
  Pd  Pd32  1  0.000373  0.000373  0.709221  1
