# generated using pymatgen
data_Li2ZrPaIr4
_symmetry_space_group_name_H-M   'P 1'
_cell_length_a   5.90065700
_cell_length_b   5.90047600
_cell_length_c   7.38366100
_cell_angle_alpha   89.99966421
_cell_angle_beta   90.00021544
_cell_angle_gamma   89.99958249
_symmetry_Int_Tables_number   1
_chemical_formula_structural   Li2ZrPaIr4
_chemical_formula_sum   'Li4 Zr2 Pa2 Ir8'
_cell_volume   257.07459933
_cell_formula_units_Z   2
loop_
 _symmetry_equiv_pos_site_id
 _symmetry_equiv_pos_as_xyz
  1  'x, y, z'
loop_
 _atom_site_type_symbol
 _atom_site_label
 _atom_site_symmetry_multiplicity
 _atom_site_fract_x
 _atom_site_fract_y
 _atom_site_fract_z
 _atom_site_occupancy
  Li  Li0  1  0.749815  0.250001  0.000000  1
  Li  Li1  1  0.250185  0.749999  0.000000  1
  Li  Li2  1  0.750157  0.250001  0.499999  1
  Li  Li3  1  0.249843  0.749999  0.500002  1
  Zr  Zr4  1  0.749604  0.750001  0.499996  1
  Zr  Zr5  1  0.250398  0.250000  0.500005  1
  Pa  Pa6  1  0.249657  0.249999  0.999998  1
  Pa  Pa7  1  0.750342  0.750002  0.000002  1
  Ir  Ir8  1  0.499997  0.000006  0.252252  1
  Ir  Ir9  1  0.499996  0.500003  0.252251  1
  Ir  Ir10  1  0.000000  0.999999  0.252565  1
  Ir  Ir11  1  0.000002  0.499992  0.252566  1
  Ir  Ir12  1  0.000000  0.000001  0.747435  1
  Ir  Ir13  1  0.999998  0.500008  0.747434  1
  Ir  Ir14  1  0.500002  0.999994  0.747749  1
  Ir  Ir15  1  0.500003  0.499996  0.747750  1
