# generated using pymatgen
data_Cs4K8Li4Si15Sn
_symmetry_space_group_name_H-M   'P 1'
_cell_length_a   7.95207108
_cell_length_b   9.86055100
_cell_length_c   12.78844431
_cell_angle_alpha   90.00000000
_cell_angle_beta   89.23263151
_cell_angle_gamma   90.00000000
_symmetry_Int_Tables_number   1
_chemical_formula_structural   Cs4K8Li4Si15Sn
_chemical_formula_sum   'Cs4 K8 Li4 Si15 Sn1'
_cell_volume   1002.67503394
_cell_formula_units_Z   1
loop_
 _symmetry_equiv_pos_site_id
 _symmetry_equiv_pos_as_xyz
  1  'x, y, z'
loop_
 _atom_site_type_symbol
 _atom_site_label
 _atom_site_symmetry_multiplicity
 _atom_site_fract_x
 _atom_site_fract_y
 _atom_site_fract_z
 _atom_site_occupancy
  Cs  Cs0  1  0.646686  0.250000  0.396888  1
  Cs  Cs1  1  0.143928  0.250000  0.106372  1
  Cs  Cs2  1  0.349399  0.750000  0.593271  1
  Cs  Cs3  1  0.865287  0.750000  0.894597  1
  K  K4  1  0.656667  0.446068  0.691199  1
  K  K5  1  0.159401  0.065670  0.810485  1
  K  K6  1  0.338037  0.944928  0.313049  1
  K  K7  1  0.837144  0.558727  0.188314  1
  K  K8  1  0.338037  0.555072  0.313049  1
  K  K9  1  0.837144  0.941273  0.188314  1
  K  K10  1  0.656667  0.053932  0.691199  1
  K  K11  1  0.159401  0.434330  0.810485  1
  Li  Li12  1  0.502476  0.495090  0.005075  1
  Li  Li13  1  0.997436  0.999839  0.500193  1
  Li  Li14  1  0.502476  0.004910  0.005075  1
  Li  Li15  1  0.997436  0.500161  0.500193  1
  Si  Si16  1  0.860176  0.750000  0.583834  1
  Si  Si17  1  0.636412  0.250000  0.087244  1
  Si  Si18  1  0.137090  0.250000  0.414470  1
  Si  Si19  1  0.723685  0.629026  0.441464  1
  Si  Si20  1  0.225151  0.870935  0.062389  1
  Si  Si21  1  0.273446  0.129071  0.556910  1
  Si  Si22  1  0.779038  0.370905  0.944481  1
  Si  Si23  1  0.008859  0.250000  0.589845  1
  Si  Si24  1  0.516862  0.250000  0.911136  1
  Si  Si25  1  0.987324  0.750000  0.407766  1
  Si  Si26  1  0.488574  0.750000  0.093826  1
  Si  Si27  1  0.225151  0.629065  0.062389  1
  Si  Si28  1  0.723685  0.870974  0.441464  1
  Si  Si29  1  0.779038  0.129095  0.944481  1
  Si  Si30  1  0.273446  0.370929  0.556910  1
  Sn  Sn31  1  0.374438  0.750000  0.893634  1
