# generated using pymatgen
data_Sm6Co16Si7Tc2P5
_symmetry_space_group_name_H-M   'P 1'
_cell_length_a   3.80590400
_cell_length_b   10.78150528
_cell_length_c   12.49858034
_cell_angle_alpha   90.02652706
_cell_angle_beta   90.00000000
_cell_angle_gamma   90.00000000
_symmetry_Int_Tables_number   1
_chemical_formula_structural   Sm6Co16Si7Tc2P5
_chemical_formula_sum   'Sm6 Co16 Si7 Tc2 P5'
_cell_volume   512.85886770
_cell_formula_units_Z   1
loop_
 _symmetry_equiv_pos_site_id
 _symmetry_equiv_pos_as_xyz
  1  'x, y, z'
loop_
 _atom_site_type_symbol
 _atom_site_label
 _atom_site_symmetry_multiplicity
 _atom_site_fract_x
 _atom_site_fract_y
 _atom_site_fract_z
 _atom_site_occupancy
  Sm  Sm0  1  0.000000  0.499487  0.523237  1
  Sm  Sm1  1  0.500000  0.000382  0.475587  1
  Sm  Sm2  1  0.500000  0.819882  0.203631  1
  Sm  Sm3  1  0.500000  0.182664  0.202295  1
  Sm  Sm4  1  0.000000  0.679799  0.797256  1
  Sm  Sm5  1  0.000000  0.320004  0.795805  1
  Co  Co6  1  0.500000  0.499931  0.703641  1
  Co  Co7  1  0.000000  0.000058  0.297405  1
  Co  Co8  1  0.000000  0.496398  0.985030  1
  Co  Co9  1  0.500000  0.001342  0.018693  1
  Co  Co10  1  0.500000  0.333167  0.993646  1
  Co  Co11  1  0.500000  0.665309  0.992340  1
  Co  Co12  1  0.000000  0.169475  0.010102  1
  Co  Co13  1  0.000000  0.833802  0.008268  1
  Co  Co14  1  0.500000  0.304335  0.427258  1
  Co  Co15  1  0.500000  0.696063  0.428694  1
  Co  Co16  1  0.000000  0.196547  0.570776  1
  Co  Co17  1  0.000000  0.803687  0.571482  1
  Co  Co18  1  0.500000  0.884095  0.706432  1
  Co  Co19  1  0.500000  0.116550  0.706119  1
  Co  Co20  1  0.000000  0.615122  0.293247  1
  Co  Co21  1  0.000000  0.382517  0.288500  1
  Si  Si22  1  0.500000  0.303124  0.612344  1
  Si  Si23  1  0.500000  0.697009  0.613275  1
  Si  Si24  1  0.000000  0.197424  0.386001  1
  Si  Si25  1  0.000000  0.802417  0.386803  1
  Si  Si26  1  0.500000  0.850296  0.895253  1
  Si  Si27  1  0.500000  0.150368  0.894461  1
  Si  Si28  1  0.000000  0.650551  0.105643  1
  Tc  Tc29  1  0.500000  0.498459  0.153632  1
  Tc  Tc30  1  0.000000  0.001144  0.846962  1
  P  P31  1  0.500000  0.499392  0.886401  1
  P  P32  1  0.000000  0.000256  0.114628  1
  P  P33  1  0.500000  0.500261  0.341422  1
  P  P34  1  0.000000  0.000033  0.658946  1
  P  P35  1  0.000000  0.348650  0.104785  1
