# generated using pymatgen
data_Tb4Nd7Dy(Si2Ni)4
_symmetry_space_group_name_H-M   'P 1'
_cell_length_a   4.17972100
_cell_length_b   11.55922665
_cell_length_c   11.60118714
_cell_angle_alpha   89.78254573
_cell_angle_beta   90.00000000
_cell_angle_gamma   90.00000000
_symmetry_Int_Tables_number   1
_chemical_formula_structural   Tb4Nd7Dy(Si2Ni)4
_chemical_formula_sum   'Tb4 Nd7 Dy1 Si8 Ni4'
_cell_volume   560.49969054
_cell_formula_units_Z   1
loop_
 _symmetry_equiv_pos_site_id
 _symmetry_equiv_pos_as_xyz
  1  'x, y, z'
loop_
 _atom_site_type_symbol
 _atom_site_label
 _atom_site_symmetry_multiplicity
 _atom_site_fract_x
 _atom_site_fract_y
 _atom_site_fract_z
 _atom_site_occupancy
  Tb  Tb0  1  0.250000  0.060209  0.881597  1
  Tb  Tb1  1  0.250000  0.441703  0.387320  1
  Tb  Tb2  1  0.750000  0.944142  0.113811  1
  Tb  Tb3  1  0.750000  0.557053  0.617694  1
  Nd  Nd4  1  0.250000  0.126184  0.558867  1
  Nd  Nd5  1  0.250000  0.373938  0.056423  1
  Nd  Nd6  1  0.750000  0.872961  0.440076  1
  Nd  Nd7  1  0.750000  0.626372  0.941205  1
  Nd  Nd8  1  0.250000  0.805062  0.714418  1
  Nd  Nd9  1  0.250000  0.694902  0.215023  1
  Nd  Nd10  1  0.750000  0.197726  0.283817  1
  Dy  Dy11  1  0.750000  0.306269  0.784002  1
  Si  Si12  1  0.250000  0.819299  0.973860  1
  Si  Si13  1  0.250000  0.681319  0.474872  1
  Si  Si14  1  0.750000  0.184014  0.021388  1
  Si  Si15  1  0.750000  0.317843  0.529977  1
  Si  Si16  1  0.250000  0.492359  0.799131  1
  Si  Si17  1  0.250000  0.004132  0.294985  1
  Si  Si18  1  0.750000  0.500620  0.204771  1
  Si  Si19  1  0.750000  0.997738  0.702990  1
  Ni  Ni20  1  0.250000  0.367566  0.631177  1
  Ni  Ni21  1  0.250000  0.129562  0.121133  1
  Ni  Ni22  1  0.750000  0.625653  0.376933  1
  Ni  Ni23  1  0.750000  0.873375  0.874527  1
