# generated using pymatgen
data_TbPa3CuTe12
_symmetry_space_group_name_H-M   'P 1'
_cell_length_a   7.46670639
_cell_length_b   7.46700563
_cell_length_c   11.19650963
_cell_angle_alpha   70.84546970
_cell_angle_beta   70.84046712
_cell_angle_gamma   69.31105997
_symmetry_Int_Tables_number   1
_chemical_formula_structural   TbPa3CuTe12
_chemical_formula_sum   'Tb1 Pa3 Cu1 Te12'
_cell_volume   535.50945406
_cell_formula_units_Z   1
loop_
 _symmetry_equiv_pos_site_id
 _symmetry_equiv_pos_as_xyz
  1  'x, y, z'
loop_
 _atom_site_type_symbol
 _atom_site_label
 _atom_site_symmetry_multiplicity
 _atom_site_fract_x
 _atom_site_fract_y
 _atom_site_fract_z
 _atom_site_occupancy
  Tb  Tb0  1  0.192173  0.687283  0.166998  1
  Pa  Pa1  1  0.811186  0.811454  0.831855  1
  Pa  Pa2  1  0.312900  0.312820  0.832804  1
  Pa  Pa3  1  0.689262  0.193675  0.161945  1
  Cu  Cu4  1  0.811671  0.814699  0.535252  1
  Te  Te5  1  0.006453  0.014093  0.326944  1
  Te  Te6  1  0.505858  0.494741  0.334147  1
  Te  Te7  1  0.485323  0.990900  0.674977  1
  Te  Te8  1  0.992792  0.487036  0.671277  1
  Te  Te9  1  0.262419  0.252357  0.336673  1
  Te  Te10  1  0.749417  0.758179  0.331926  1
  Te  Te11  1  0.243181  0.742082  0.673402  1
  Te  Te12  1  0.742560  0.244064  0.670157  1
  Te  Te13  1  0.018817  0.026302  0.940370  1
  Te  Te14  1  0.524861  0.519016  0.940063  1
  Te  Te15  1  0.483753  0.983737  0.052876  1
  Te  Te16  1  0.978669  0.478861  0.052730  1
