# generated using pymatgen
data_Mn3Si3Tc5Os
_symmetry_space_group_name_H-M   'P 1'
_cell_length_a   4.18955001
_cell_length_b   5.98693700
_cell_length_c   12.59347503
_cell_angle_alpha   90.00000000
_cell_angle_beta   89.99259498
_cell_angle_gamma   90.00000000
_symmetry_Int_Tables_number   1
_chemical_formula_structural   Mn3Si3Tc5Os
_chemical_formula_sum   'Mn6 Si6 Tc10 Os2'
_cell_volume   315.87674094
_cell_formula_units_Z   2
loop_
 _symmetry_equiv_pos_site_id
 _symmetry_equiv_pos_as_xyz
  1  'x, y, z'
loop_
 _atom_site_type_symbol
 _atom_site_label
 _atom_site_symmetry_multiplicity
 _atom_site_fract_x
 _atom_site_fract_y
 _atom_site_fract_z
 _atom_site_occupancy
  Mn  Mn0  1  0.000000  0.500000  0.000000  1
  Mn  Mn1  1  0.499805  0.000000  0.168894  1
  Mn  Mn2  1  0.999784  0.500000  0.333444  1
  Mn  Mn3  1  0.500000  0.000000  0.500000  1
  Mn  Mn4  1  0.000216  0.500000  0.666556  1
  Mn  Mn5  1  0.500194  0.000000  0.831106  1
  Si  Si6  1  0.000000  0.000000  0.000000  1
  Si  Si7  1  0.499782  0.500000  0.165905  1
  Si  Si8  1  0.999758  0.000000  0.332562  1
  Si  Si9  1  0.500000  0.500000  0.500000  1
  Si  Si10  1  0.000242  0.000000  0.667438  1
  Si  Si11  1  0.500217  0.500000  0.834095  1
  Tc  Tc12  1  0.999805  0.249703  0.165495  1
  Tc  Tc13  1  0.999805  0.750297  0.165495  1
  Tc  Tc14  1  0.499777  0.250291  0.332735  1
  Tc  Tc15  1  0.499777  0.749709  0.332735  1
  Tc  Tc16  1  0.000000  0.249422  0.500000  1
  Tc  Tc17  1  0.000000  0.750578  0.500000  1
  Tc  Tc18  1  0.500222  0.250291  0.667265  1
  Tc  Tc19  1  0.500222  0.749709  0.667265  1
  Tc  Tc20  1  0.000197  0.249703  0.834505  1
  Tc  Tc21  1  0.000197  0.750297  0.834505  1
  Os  Os22  1  0.500000  0.249940  0.000000  1
  Os  Os23  1  0.500000  0.750060  0.000000  1
