# generated using pymatgen
data_HoEr7Ga12(CoCu)2
_symmetry_space_group_name_H-M   'P 1'
_cell_length_a   6.95390900
_cell_length_b   8.74232292
_cell_length_c   8.74232300
_cell_angle_alpha   119.99999653
_cell_angle_beta   90.00000000
_cell_angle_gamma   90.00000000
_symmetry_Int_Tables_number   1
_chemical_formula_structural   HoEr7Ga12(CoCu)2
_chemical_formula_sum   'Ho1 Er7 Ga12 Co2 Cu2'
_cell_volume   460.27071376
_cell_formula_units_Z   1
loop_
 _symmetry_equiv_pos_site_id
 _symmetry_equiv_pos_as_xyz
  1  'x, y, z'
loop_
 _atom_site_type_symbol
 _atom_site_label
 _atom_site_symmetry_multiplicity
 _atom_site_fract_x
 _atom_site_fract_y
 _atom_site_fract_z
 _atom_site_occupancy
  Ho  Ho0  1  0.745540  0.000000  0.000000  1
  Er  Er1  1  0.254478  0.000000  0.000000  1
  Er  Er2  1  0.742198  0.476843  0.523157  1
  Er  Er3  1  0.257811  0.523176  0.476824  1
  Er  Er4  1  0.742198  0.046315  0.523157  1
  Er  Er5  1  0.257811  0.953648  0.476824  1
  Er  Er6  1  0.742198  0.476843  0.953685  1
  Er  Er7  1  0.257811  0.523176  0.046352  1
  Ga  Ga8  1  0.954743  0.830646  0.169354  1
  Ga  Ga9  1  0.045452  0.169244  0.830756  1
  Ga  Ga10  1  0.954743  0.338708  0.169354  1
  Ga  Ga11  1  0.454621  0.172755  0.827245  1
  Ga  Ga12  1  0.045452  0.661511  0.830756  1
  Ga  Ga13  1  0.545189  0.827131  0.172869  1
  Ga  Ga14  1  0.954743  0.830646  0.661292  1
  Ga  Ga15  1  0.454621  0.654491  0.827245  1
  Ga  Ga16  1  0.045452  0.169244  0.338489  1
  Ga  Ga17  1  0.545189  0.345737  0.172869  1
  Ga  Ga18  1  0.454621  0.172755  0.345509  1
  Ga  Ga19  1  0.545189  0.827131  0.654263  1
  Co  Co20  1  0.486489  0.333333  0.666667  1
  Co  Co21  1  0.513447  0.666667  0.333333  1
  Cu  Cu22  1  0.948430  0.666667  0.333333  1
  Cu  Cu23  1  0.051575  0.333333  0.666667  1
