# generated using pymatgen
data_Nd4Zr3O12
_symmetry_space_group_name_H-M   'P 1'
_cell_length_a   6.50383830
_cell_length_b   6.59712368
_cell_length_c   6.81988776
_cell_angle_alpha   99.91327277
_cell_angle_beta   97.63017710
_cell_angle_gamma   100.18281389
_symmetry_Int_Tables_number   1
_chemical_formula_structural   Nd4Zr3O12
_chemical_formula_sum   'Nd4 Zr3 O12'
_cell_volume   279.66032870
_cell_formula_units_Z   1
loop_
 _symmetry_equiv_pos_site_id
 _symmetry_equiv_pos_as_xyz
  1  'x, y, z'
loop_
 _atom_site_type_symbol
 _atom_site_label
 _atom_site_symmetry_multiplicity
 _atom_site_fract_x
 _atom_site_fract_y
 _atom_site_fract_z
 _atom_site_occupancy
  Nd  Nd0  1  0.701594  0.864955  0.391271  1
  Nd  Nd1  1  0.380739  0.699649  0.867395  1
  Nd  Nd2  1  0.298406  0.135045  0.608729  1
  Nd  Nd3  1  0.619261  0.300351  0.132605  1
  Zr  Zr4  1  0.000000  0.000000  0.000000  1
  Zr  Zr5  1  0.846311  0.400384  0.664809  1
  Zr  Zr6  1  0.153689  0.599616  0.335191  1
  O  O7  1  0.588034  0.415755  0.816219  1
  O  O8  1  0.834382  0.566601  0.425478  1
  O  O9  1  0.402183  0.806950  0.559091  1
  O  O10  1  0.411966  0.584245  0.183781  1
  O  O11  1  0.165618  0.433399  0.574522  1
  O  O12  1  0.597817  0.193050  0.440909  1
  O  O13  1  0.006532  0.683611  0.868949  1
  O  O14  1  0.921933  0.100494  0.707747  1
  O  O15  1  0.689746  0.938818  0.059930  1
  O  O16  1  0.993468  0.316389  0.131051  1
  O  O17  1  0.078067  0.899506  0.292253  1
  O  O18  1  0.310254  0.061182  0.940070  1
