# generated using pymatgen
data_Hf7Co12Si16W
_symmetry_space_group_name_H-M   'P 1'
_cell_length_a   5.19436383
_cell_length_b   6.70480833
_cell_length_c   13.64485708
_cell_angle_alpha   90.37888054
_cell_angle_beta   90.33833847
_cell_angle_gamma   89.89205119
_symmetry_Int_Tables_number   1
_chemical_formula_structural   Hf7Co12Si16W
_chemical_formula_sum   'Hf7 Co12 Si16 W1'
_cell_volume   475.19287147
_cell_formula_units_Z   1
loop_
 _symmetry_equiv_pos_site_id
 _symmetry_equiv_pos_as_xyz
  1  'x, y, z'
loop_
 _atom_site_type_symbol
 _atom_site_label
 _atom_site_symmetry_multiplicity
 _atom_site_fract_x
 _atom_site_fract_y
 _atom_site_fract_z
 _atom_site_occupancy
  Hf  Hf0  1  0.727121  0.100170  0.145145  1
  Hf  Hf1  1  0.270046  0.101864  0.646005  1
  Hf  Hf2  1  0.770452  0.398153  0.646681  1
  Hf  Hf3  1  0.230739  0.595044  0.354185  1
  Hf  Hf4  1  0.729247  0.894095  0.352281  1
  Hf  Hf5  1  0.274896  0.899842  0.852609  1
  Hf  Hf6  1  0.772717  0.606450  0.854963  1
  Co  Co7  1  0.994967  0.288603  0.986061  1
  Co  Co8  1  0.504369  0.224666  0.479352  1
  Co  Co9  1  0.777898  0.003783  0.750107  1
  Co  Co10  1  0.491034  0.230152  0.982355  1
  Co  Co11  1  0.719275  0.496679  0.247102  1
  Co  Co12  1  0.494257  0.774656  0.517390  1
  Co  Co13  1  0.006020  0.276280  0.479147  1
  Co  Co14  1  0.013002  0.723153  0.021038  1
  Co  Co15  1  0.220254  0.987456  0.249531  1
  Co  Co16  1  0.277621  0.501567  0.750189  1
  Co  Co17  1  0.516470  0.793322  0.017288  1
  Co  Co18  1  0.993780  0.723387  0.517813  1
  Si  Si19  1  0.216808  0.026436  0.068651  1
  Si  Si20  1  0.717300  0.517458  0.430551  1
  Si  Si21  1  0.783023  0.019984  0.567192  1
  Si  Si22  1  0.467913  0.741120  0.182281  1
  Si  Si23  1  0.024008  0.256933  0.815145  1
  Si  Si24  1  0.521684  0.249423  0.813670  1
  Si  Si25  1  0.215706  0.978881  0.431616  1
  Si  Si26  1  0.288910  0.525464  0.934046  1
  Si  Si27  1  0.979312  0.732319  0.186140  1
  Si  Si28  1  0.701990  0.486697  0.068608  1
  Si  Si29  1  0.283248  0.480553  0.569001  1
  Si  Si30  1  0.480539  0.239839  0.310183  1
  Si  Si31  1  0.020363  0.747557  0.687199  1
  Si  Si32  1  0.791408  0.990001  0.932208  1
  Si  Si33  1  0.522340  0.754426  0.686763  1
  Si  Si34  1  0.977539  0.249050  0.309887  1
  W  W35  1  0.223745  0.384538  0.157621  1
