# generated using pymatgen
data_Ho8Hg2IrPt
_symmetry_space_group_name_H-M   'P 1'
_cell_length_a   9.57069149
_cell_length_b   9.57069169
_cell_length_c   9.54255000
_cell_angle_alpha   60.09722016
_cell_angle_beta   60.09721947
_cell_angle_gamma   60.28831261
_symmetry_Int_Tables_number   1
_chemical_formula_structural   Ho8Hg2IrPt
_chemical_formula_sum   'Ho16 Hg4 Ir2 Pt2'
_cell_volume   620.31583469
_cell_formula_units_Z   2
loop_
 _symmetry_equiv_pos_site_id
 _symmetry_equiv_pos_as_xyz
  1  'x, y, z'
loop_
 _atom_site_type_symbol
 _atom_site_label
 _atom_site_symmetry_multiplicity
 _atom_site_fract_x
 _atom_site_fract_y
 _atom_site_fract_z
 _atom_site_occupancy
  Ho  Ho0  1  0.602361  0.602361  0.597921  1
  Ho  Ho1  1  0.602361  0.602361  0.197358  1
  Ho  Ho2  1  0.608386  0.187570  0.602022  1
  Ho  Ho3  1  0.187570  0.608386  0.602022  1
  Ho  Ho4  1  0.056343  0.440837  0.440818  1
  Ho  Ho5  1  0.440837  0.056343  0.062003  1
  Ho  Ho6  1  0.440837  0.056343  0.440818  1
  Ho  Ho7  1  0.056343  0.440837  0.062003  1
  Ho  Ho8  1  0.441790  0.441790  0.058210  1
  Ho  Ho9  1  0.060947  0.060947  0.439053  1
  Ho  Ho10  1  0.188460  0.814005  0.811120  1
  Ho  Ho11  1  0.814005  0.188460  0.186415  1
  Ho  Ho12  1  0.814005  0.188460  0.811120  1
  Ho  Ho13  1  0.188460  0.814005  0.186415  1
  Ho  Ho14  1  0.812969  0.812969  0.187031  1
  Ho  Ho15  1  0.187708  0.187708  0.812292  1
  Hg  Hg16  1  0.835185  0.835185  0.836218  1
  Hg  Hg17  1  0.835185  0.835185  0.493411  1
  Hg  Hg18  1  0.834763  0.493245  0.835996  1
  Hg  Hg19  1  0.493245  0.834763  0.835996  1
  Ir  Ir20  1  0.391092  0.822270  0.393320  1
  Ir  Ir21  1  0.822270  0.391092  0.393320  1
  Pt  Pt22  1  0.392440  0.392440  0.395774  1
  Pt  Pt23  1  0.392440  0.392440  0.819346  1
