# generated using pymatgen
data_Ca2Nd2CdIr
_symmetry_space_group_name_H-M   'P 1'
_cell_length_a   10.02142848
_cell_length_b   10.02142811
_cell_length_c   10.03842900
_cell_angle_alpha   59.94386918
_cell_angle_beta   59.94387039
_cell_angle_gamma   60.11227177
_symmetry_Int_Tables_number   1
_chemical_formula_structural   Ca2Nd2CdIr
_chemical_formula_sum   'Ca8 Nd8 Cd4 Ir4'
_cell_volume   712.86539615
_cell_formula_units_Z   4
loop_
 _symmetry_equiv_pos_site_id
 _symmetry_equiv_pos_as_xyz
  1  'x, y, z'
loop_
 _atom_site_type_symbol
 _atom_site_label
 _atom_site_symmetry_multiplicity
 _atom_site_fract_x
 _atom_site_fract_y
 _atom_site_fract_z
 _atom_site_occupancy
  Ca  Ca0  1  0.194103  0.194103  0.805897  1
  Ca  Ca1  1  0.805897  0.805897  0.194103  1
  Ca  Ca2  1  0.943228  0.556772  0.556772  1
  Ca  Ca3  1  0.556772  0.943228  0.943228  1
  Ca  Ca4  1  0.556772  0.943228  0.556772  1
  Ca  Ca5  1  0.943228  0.556772  0.943228  1
  Ca  Ca6  1  0.555802  0.555802  0.944198  1
  Ca  Ca7  1  0.944198  0.944198  0.555802  1
  Nd  Nd8  1  0.345126  0.345126  0.346793  1
  Nd  Nd9  1  0.345126  0.345126  0.962954  1
  Nd  Nd10  1  0.346793  0.962954  0.345126  1
  Nd  Nd11  1  0.962954  0.346793  0.345126  1
  Nd  Nd12  1  0.806853  0.193147  0.193147  1
  Nd  Nd13  1  0.193147  0.806853  0.806853  1
  Nd  Nd14  1  0.193147  0.806853  0.193147  1
  Nd  Nd15  1  0.806853  0.193147  0.806853  1
  Cd  Cd16  1  0.577992  0.577992  0.579594  1
  Cd  Cd17  1  0.577992  0.577992  0.264420  1
  Cd  Cd18  1  0.579594  0.264420  0.577992  1
  Cd  Cd19  1  0.264420  0.579594  0.577992  1
  Ir  Ir20  1  0.136406  0.136406  0.148223  1
  Ir  Ir21  1  0.136406  0.136406  0.578965  1
  Ir  Ir22  1  0.148223  0.578965  0.136406  1
  Ir  Ir23  1  0.578965  0.148223  0.136406  1
