# generated using pymatgen
data_La4PaOs2
_symmetry_space_group_name_H-M   'P 1'
_cell_length_a   6.64664054
_cell_length_b   7.18544281
_cell_length_c   9.23124617
_cell_angle_alpha   97.82727267
_cell_angle_beta   111.10068028
_cell_angle_gamma   90.00000617
_symmetry_Int_Tables_number   1
_chemical_formula_structural   La4PaOs2
_chemical_formula_sum   'La8 Pa2 Os4'
_cell_volume   406.90868126
_cell_formula_units_Z   2
loop_
 _symmetry_equiv_pos_site_id
 _symmetry_equiv_pos_as_xyz
  1  'x, y, z'
loop_
 _atom_site_type_symbol
 _atom_site_label
 _atom_site_symmetry_multiplicity
 _atom_site_fract_x
 _atom_site_fract_y
 _atom_site_fract_z
 _atom_site_occupancy
  La  La0  1  0.794943  0.079886  0.820600  1
  La  La1  1  0.974343  0.420114  0.179400  1
  La  La2  1  0.205057  0.920114  0.179400  1
  La  La3  1  0.025657  0.579886  0.820600  1
  La  La4  1  0.214655  0.182234  0.571731  1
  La  La5  1  0.642925  0.317766  0.428269  1
  La  La6  1  0.785345  0.817766  0.428269  1
  La  La7  1  0.357075  0.682234  0.571731  1
  Pa  Pa8  1  0.423888  0.250000  0.000000  1
  Pa  Pa9  1  0.576112  0.750000  0.000000  1
  Os  Os10  1  0.579460  0.439563  0.811865  1
  Os  Os11  1  0.767593  0.060437  0.188135  1
  Os  Os12  1  0.420540  0.560437  0.188135  1
  Os  Os13  1  0.232407  0.939563  0.811865  1
