# generated using pymatgen
data_La4TaV3F28
_symmetry_space_group_name_H-M   'P 1'
_cell_length_a   5.73847411
_cell_length_b   9.27798464
_cell_length_c   12.34771300
_cell_angle_alpha   62.69304696
_cell_angle_beta   90.04908379
_cell_angle_gamma   90.00346628
_symmetry_Int_Tables_number   1
_chemical_formula_structural   La4TaV3F28
_chemical_formula_sum   'La4 Ta1 V3 F28'
_cell_volume   584.14940323
_cell_formula_units_Z   1
loop_
 _symmetry_equiv_pos_site_id
 _symmetry_equiv_pos_as_xyz
  1  'x, y, z'
loop_
 _atom_site_type_symbol
 _atom_site_label
 _atom_site_symmetry_multiplicity
 _atom_site_fract_x
 _atom_site_fract_y
 _atom_site_fract_z
 _atom_site_occupancy
  La  La0  1  0.758015  0.815122  0.248860  1
  La  La1  1  0.261482  0.209213  0.224914  1
  La  La2  1  0.246316  0.176586  0.741551  1
  La  La3  1  0.742848  0.806411  0.783474  1
  Ta  Ta4  1  0.246088  0.723598  0.544404  1
  V  V5  1  0.748474  0.280097  0.950307  1
  V  V6  1  0.758136  0.272270  0.460026  1
  V  V7  1  0.253949  0.726709  0.042072  1
  F  F8  1  0.966664  0.711214  0.461561  1
  F  F9  1  0.479118  0.287231  0.037897  1
  F  F10  1  0.024879  0.283619  0.549373  1
  F  F11  1  0.543112  0.708973  0.961390  1
  F  F12  1  0.062734  0.709901  0.915157  1
  F  F13  1  0.554800  0.285941  0.576527  1
  F  F14  1  0.942754  0.292930  0.069223  1
  F  F15  1  0.438366  0.702121  0.425936  1
  F  F16  1  0.736707  0.503209  0.858875  1
  F  F17  1  0.237485  0.491538  0.639340  1
  F  F18  1  0.262677  0.491085  0.139924  1
  F  F19  1  0.764919  0.496004  0.372212  1
  F  F20  1  0.746592  0.057314  0.037925  1
  F  F21  1  0.244241  0.954462  0.458429  1
  F  F22  1  0.270343  0.963235  0.944506  1
  F  F23  1  0.766300  0.049402  0.549308  1
  F  F24  1  0.051956  0.736967  0.667242  1
  F  F25  1  0.552581  0.265413  0.830669  1
  F  F26  1  0.956688  0.253508  0.342457  1
  F  F27  1  0.439196  0.749638  0.169270  1
  F  F28  1  0.013418  0.277604  0.859913  1
  F  F29  1  0.522473  0.727264  0.632300  1
  F  F30  1  0.970423  0.737570  0.127964  1
  F  F31  1  0.497468  0.262656  0.368605  1
  F  F32  1  0.078584  0.974343  0.239354  1
  F  F33  1  0.572557  0.023058  0.269206  1
  F  F34  1  0.891199  0.036672  0.776307  1
  F  F35  1  0.396453  0.957121  0.723523  1
