# generated using pymatgen
data_ErZr3(ScPt)4
_symmetry_space_group_name_H-M   'P 1'
_cell_length_a   4.63519700
_cell_length_b   6.76539886
_cell_length_c   8.18776741
_cell_angle_alpha   91.15294949
_cell_angle_beta   90.00000000
_cell_angle_gamma   90.00000000
_symmetry_Int_Tables_number   1
_chemical_formula_structural   ErZr3(ScPt)4
_chemical_formula_sum   'Er1 Zr3 Sc4 Pt4'
_cell_volume   256.70785952
_cell_formula_units_Z   1
loop_
 _symmetry_equiv_pos_site_id
 _symmetry_equiv_pos_as_xyz
  1  'x, y, z'
loop_
 _atom_site_type_symbol
 _atom_site_label
 _atom_site_symmetry_multiplicity
 _atom_site_fract_x
 _atom_site_fract_y
 _atom_site_fract_z
 _atom_site_occupancy
  Er  Er0  1  0.750000  0.013403  0.682784  1
  Zr  Zr1  1  0.750000  0.650656  0.415894  1
  Zr  Zr2  1  0.250000  0.353530  0.582010  1
  Zr  Zr3  1  0.750000  0.150012  0.080406  1
  Sc  Sc4  1  0.250000  0.842092  0.924783  1
  Sc  Sc5  1  0.750000  0.515450  0.825854  1
  Sc  Sc6  1  0.250000  0.484784  0.175512  1
  Sc  Sc7  1  0.250000  0.986790  0.318005  1
  Pt  Pt8  1  0.750000  0.259054  0.406193  1
  Pt  Pt9  1  0.250000  0.746851  0.587600  1
  Pt  Pt10  1  0.750000  0.751763  0.093566  1
  Pt  Pt11  1  0.250000  0.245616  0.907391  1
