# generated using pymatgen
data_LaPr3Sn16(IrRh)4
_symmetry_space_group_name_H-M   'P 1'
_cell_length_a   4.55600300
_cell_length_b   7.25744605
_cell_length_c   18.71662013
_cell_angle_alpha   89.98643167
_cell_angle_beta   90.00000000
_cell_angle_gamma   90.00000000
_symmetry_Int_Tables_number   1
_chemical_formula_structural   LaPr3Sn16(IrRh)4
_chemical_formula_sum   'La1 Pr3 Sn16 Ir4 Rh4'
_cell_volume   618.86401622
_cell_formula_units_Z   1
loop_
 _symmetry_equiv_pos_site_id
 _symmetry_equiv_pos_as_xyz
  1  'x, y, z'
loop_
 _atom_site_type_symbol
 _atom_site_label
 _atom_site_symmetry_multiplicity
 _atom_site_fract_x
 _atom_site_fract_y
 _atom_site_fract_z
 _atom_site_occupancy
  La  La0  1  0.250000  0.998617  0.858380  1
  Pr  Pr1  1  0.250000  0.501162  0.358421  1
  Pr  Pr2  1  0.750000  0.001184  0.141628  1
  Pr  Pr3  1  0.750000  0.498863  0.641619  1
  Sn  Sn4  1  0.250000  0.302572  0.182161  1
  Sn  Sn5  1  0.250000  0.197441  0.682126  1
  Sn  Sn6  1  0.750000  0.696673  0.817655  1
  Sn  Sn7  1  0.750000  0.802597  0.317891  1
  Sn  Sn8  1  0.250000  0.722006  0.194761  1
  Sn  Sn9  1  0.250000  0.777767  0.694634  1
  Sn  Sn10  1  0.750000  0.278776  0.805148  1
  Sn  Sn11  1  0.750000  0.222020  0.305249  1
  Sn  Sn12  1  0.250000  0.864886  0.032060  1
  Sn  Sn13  1  0.250000  0.635077  0.531918  1
  Sn  Sn14  1  0.750000  0.135489  0.968338  1
  Sn  Sn15  1  0.750000  0.364992  0.468108  1
  Sn  Sn16  1  0.250000  0.518970  0.931677  1
  Sn  Sn17  1  0.250000  0.980873  0.431764  1
  Sn  Sn18  1  0.750000  0.480846  0.068248  1
  Sn  Sn19  1  0.750000  0.019137  0.568233  1
  Ir  Ir20  1  0.250000  0.250749  0.034867  1
  Ir  Ir21  1  0.250000  0.249349  0.534845  1
  Ir  Ir22  1  0.750000  0.749293  0.965323  1
  Ir  Ir23  1  0.750000  0.750612  0.465185  1
  Rh  Rh24  1  0.250000  0.017462  0.286835  1
  Rh  Rh25  1  0.250000  0.482617  0.786812  1
  Rh  Rh26  1  0.750000  0.982447  0.713012  1
  Rh  Rh27  1  0.750000  0.517524  0.213101  1
