# generated using pymatgen
data_Nb2SiSe4
_symmetry_space_group_name_H-M   'P 1'
_cell_length_a   7.77246679
_cell_length_b   6.04605398
_cell_length_c   7.29576479
_cell_angle_alpha   97.26164329
_cell_angle_beta   105.23894159
_cell_angle_gamma   89.99885206
_symmetry_Int_Tables_number   1
_chemical_formula_structural   Nb2SiSe4
_chemical_formula_sum   'Nb4 Si2 Se8'
_cell_volume   327.94215945
_cell_formula_units_Z   2
loop_
 _symmetry_equiv_pos_site_id
 _symmetry_equiv_pos_as_xyz
  1  'x, y, z'
loop_
 _atom_site_type_symbol
 _atom_site_label
 _atom_site_symmetry_multiplicity
 _atom_site_fract_x
 _atom_site_fract_y
 _atom_site_fract_z
 _atom_site_occupancy
  Nb  Nb0  1  0.087314  0.103920  0.999989  1
  Nb  Nb1  1  0.412686  0.896080  0.000011  1
  Nb  Nb2  1  0.587278  0.395997  0.999977  1
  Nb  Nb3  1  0.912722  0.604003  0.000023  1
  Si  Si4  1  0.250000  0.500000  0.000000  1
  Si  Si5  1  0.750000  0.000000  0.000000  1
  Se  Se6  1  0.084786  0.739900  0.754250  1
  Se  Se7  1  0.205969  0.814988  0.245708  1
  Se  Se8  1  0.294031  0.185012  0.754292  1
  Se  Se9  1  0.415214  0.260100  0.245750  1
  Se  Se10  1  0.584620  0.685041  0.754287  1
  Se  Se11  1  0.705913  0.759961  0.245695  1
  Se  Se12  1  0.794087  0.240039  0.754305  1
  Se  Se13  1  0.915380  0.314959  0.245713  1
