# generated using pymatgen
data_La6In8GeI
_symmetry_space_group_name_H-M   'P 1'
_cell_length_a   8.72775244
_cell_length_b   8.72775102
_cell_length_c   8.72775307
_cell_angle_alpha   119.42824816
_cell_angle_beta   119.42823921
_cell_angle_gamma   90.99319565
_symmetry_Int_Tables_number   1
_chemical_formula_structural   La6In8GeI
_chemical_formula_sum   'La6 In8 Ge1 I1'
_cell_volume   474.08769795
_cell_formula_units_Z   1
loop_
 _symmetry_equiv_pos_site_id
 _symmetry_equiv_pos_as_xyz
  1  'x, y, z'
loop_
 _atom_site_type_symbol
 _atom_site_label
 _atom_site_symmetry_multiplicity
 _atom_site_fract_x
 _atom_site_fract_y
 _atom_site_fract_z
 _atom_site_occupancy
  La  La0  1  0.757567  0.757567  0.000000  1
  La  La1  1  0.242433  0.242433  0.000000  1
  La  La2  1  0.324003  0.851914  0.175915  1
  La  La3  1  0.675997  0.148086  0.824085  1
  La  La4  1  0.851914  0.675997  0.527911  1
  La  La5  1  0.148086  0.324003  0.472089  1
  In  In6  1  0.958979  0.455377  0.789077  1
  In  In7  1  0.666300  0.169902  0.210923  1
  In  In8  1  0.455377  0.666300  0.496399  1
  In  In9  1  0.169902  0.958979  0.503601  1
  In  In10  1  0.041021  0.544623  0.210923  1
  In  In11  1  0.333700  0.830098  0.789077  1
  In  In12  1  0.544623  0.333700  0.503601  1
  In  In13  1  0.830098  0.041021  0.496399  1
  Ge  Ge14  1  0.000000  0.000000  0.000000  1
  I  I15  1  0.500000  0.500000  0.000000  1
