# generated using pymatgen
data_Ca6USbO12
_symmetry_space_group_name_H-M   'P 1'
_cell_length_a   6.73481579
_cell_length_b   6.73481548
_cell_length_c   6.73481654
_cell_angle_alpha   92.25824205
_cell_angle_beta   92.25823738
_cell_angle_gamma   92.25824252
_symmetry_Int_Tables_number   1
_chemical_formula_structural   Ca6USbO12
_chemical_formula_sum   'Ca6 U1 Sb1 O12'
_cell_volume   304.74506440
_cell_formula_units_Z   1
loop_
 _symmetry_equiv_pos_site_id
 _symmetry_equiv_pos_as_xyz
  1  'x, y, z'
loop_
 _atom_site_type_symbol
 _atom_site_label
 _atom_site_symmetry_multiplicity
 _atom_site_fract_x
 _atom_site_fract_y
 _atom_site_fract_z
 _atom_site_occupancy
  Ca  Ca0  1  0.934437  0.438557  0.741560  1
  Ca  Ca1  1  0.741560  0.934437  0.438557  1
  Ca  Ca2  1  0.561443  0.258440  0.065563  1
  Ca  Ca3  1  0.438557  0.741560  0.934437  1
  Ca  Ca4  1  0.258440  0.065563  0.561443  1
  Ca  Ca5  1  0.065563  0.561443  0.258440  1
  U  U6  1  0.000000  0.000000  0.000000  1
  Sb  Sb7  1  0.500000  0.500000  0.500000  1
  O  O8  1  0.928301  0.294853  0.063007  1
  O  O9  1  0.936993  0.071699  0.705147  1
  O  O10  1  0.785883  0.583208  0.457328  1
  O  O11  1  0.705147  0.936993  0.071699  1
  O  O12  1  0.583208  0.457328  0.785883  1
  O  O13  1  0.542672  0.214117  0.416792  1
  O  O14  1  0.457328  0.785883  0.583208  1
  O  O15  1  0.416792  0.542672  0.214117  1
  O  O16  1  0.294853  0.063007  0.928301  1
  O  O17  1  0.214117  0.416792  0.542672  1
  O  O18  1  0.063007  0.928301  0.294853  1
  O  O19  1  0.071699  0.705147  0.936993  1
