# generated using pymatgen
data_ErTm7B24RuW3
_symmetry_space_group_name_H-M   'P 1'
_cell_length_a   3.57925000
_cell_length_b   9.21798517
_cell_length_c   11.60437702
_cell_angle_alpha   89.89262661
_cell_angle_beta   90.00000000
_cell_angle_gamma   90.00000000
_symmetry_Int_Tables_number   1
_chemical_formula_structural   ErTm7B24RuW3
_chemical_formula_sum   'Er1 Tm7 B24 Ru1 W3'
_cell_volume   382.86803234
_cell_formula_units_Z   1
loop_
 _symmetry_equiv_pos_site_id
 _symmetry_equiv_pos_as_xyz
  1  'x, y, z'
loop_
 _atom_site_type_symbol
 _atom_site_label
 _atom_site_symmetry_multiplicity
 _atom_site_fract_x
 _atom_site_fract_y
 _atom_site_fract_z
 _atom_site_occupancy
  Er  Er0  1  0.000000  0.320700  0.413309  1
  Tm  Tm1  1  0.000000  0.678405  0.585693  1
  Tm  Tm2  1  0.000000  0.820949  0.085390  1
  Tm  Tm3  1  0.000000  0.178308  0.913401  1
  Tm  Tm4  1  0.000000  0.944038  0.373179  1
  Tm  Tm5  1  0.000000  0.054329  0.630300  1
  Tm  Tm6  1  0.000000  0.445447  0.126443  1
  Tm  Tm7  1  0.000000  0.559424  0.871003  1
  B  B8  1  0.500000  0.550928  0.435170  1
  B  B9  1  0.500000  0.448221  0.565433  1
  B  B10  1  0.500000  0.049991  0.063021  1
  B  B11  1  0.500000  0.945072  0.932086  1
  B  B12  1  0.500000  0.751437  0.422830  1
  B  B13  1  0.500000  0.247607  0.578861  1
  B  B14  1  0.500000  0.252784  0.076933  1
  B  B15  1  0.500000  0.751812  0.918552  1
  B  B16  1  0.500000  0.795392  0.264433  1
  B  B17  1  0.500000  0.203903  0.737920  1
  B  B18  1  0.500000  0.294806  0.235620  1
  B  B19  1  0.500000  0.709404  0.765273  1
  B  B20  1  0.500000  0.632190  0.182418  1
  B  B21  1  0.500000  0.369424  0.818234  1
  B  B22  1  0.500000  0.130636  0.316723  1
  B  B23  1  0.500000  0.868593  0.686048  1
  B  B24  1  0.500000  0.977798  0.212403  1
  B  B25  1  0.500000  0.016070  0.788470  1
  B  B26  1  0.500000  0.478246  0.286797  1
  B  B27  1  0.500000  0.523143  0.712556  1
  B  B28  1  0.500000  0.604046  0.027141  1
  B  B29  1  0.500000  0.400348  0.971222  1
  B  B30  1  0.500000  0.101008  0.472773  1
  B  B31  1  0.500000  0.896922  0.530370  1
  Ru  Ru32  1  0.000000  0.861045  0.820683  1
  W  W33  1  0.000000  0.638938  0.320355  1
  W  W34  1  0.000000  0.360318  0.681023  1
  W  W35  1  0.000000  0.138317  0.177935  1
