# generated using pymatgen
data_Er5Zn2Bi
_symmetry_space_group_name_H-M   'P 1'
_cell_length_a   8.57417351
_cell_length_b   8.57417391
_cell_length_c   8.57417336
_cell_angle_alpha   123.55041123
_cell_angle_beta   123.55041274
_cell_angle_gamma   83.95318845
_symmetry_Int_Tables_number   1
_chemical_formula_structural   Er5Zn2Bi
_chemical_formula_sum   'Er10 Zn4 Bi2'
_cell_volume   419.24463710
_cell_formula_units_Z   2
loop_
 _symmetry_equiv_pos_site_id
 _symmetry_equiv_pos_as_xyz
  1  'x, y, z'
loop_
 _atom_site_type_symbol
 _atom_site_label
 _atom_site_symmetry_multiplicity
 _atom_site_fract_x
 _atom_site_fract_y
 _atom_site_fract_z
 _atom_site_occupancy
  Er  Er0  1  0.500000  0.500000  0.000000  1
  Er  Er1  1  0.000000  0.000000  0.000000  1
  Er  Er2  1  0.510349  0.010349  0.804620  1
  Er  Er3  1  0.205728  0.705728  0.195380  1
  Er  Er4  1  0.010349  0.205728  0.500000  1
  Er  Er5  1  0.705728  0.510349  0.500000  1
  Er  Er6  1  0.489651  0.989651  0.195380  1
  Er  Er7  1  0.794272  0.294272  0.804620  1
  Er  Er8  1  0.989651  0.794272  0.500000  1
  Er  Er9  1  0.294272  0.489651  0.500000  1
  Zn  Zn10  1  0.138833  0.638833  0.777667  1
  Zn  Zn11  1  0.861167  0.361167  0.222333  1
  Zn  Zn12  1  0.638833  0.861167  0.500000  1
  Zn  Zn13  1  0.361167  0.138833  0.500000  1
  Bi  Bi14  1  0.250000  0.250000  0.000000  1
  Bi  Bi15  1  0.750000  0.750000  0.000000  1
