# generated using pymatgen
data_Tb6MgCd22Sb
_symmetry_space_group_name_H-M   'P 1'
_cell_length_a   10.00135208
_cell_length_b   10.00135205
_cell_length_c   10.00135200
_cell_angle_alpha   60.00000017
_cell_angle_beta   60.00000027
_cell_angle_gamma   60.00000390
_symmetry_Int_Tables_number   1
_chemical_formula_structural   Tb6MgCd22Sb
_chemical_formula_sum   'Tb6 Mg1 Cd22 Sb1'
_cell_volume   707.39365519
_cell_formula_units_Z   1
loop_
 _symmetry_equiv_pos_site_id
 _symmetry_equiv_pos_as_xyz
  1  'x, y, z'
loop_
 _atom_site_type_symbol
 _atom_site_label
 _atom_site_symmetry_multiplicity
 _atom_site_fract_x
 _atom_site_fract_y
 _atom_site_fract_z
 _atom_site_occupancy
  Tb  Tb0  1  0.784482  0.784482  0.215518  1
  Tb  Tb1  1  0.215518  0.784482  0.215518  1
  Tb  Tb2  1  0.784482  0.215518  0.215518  1
  Tb  Tb3  1  0.215518  0.215518  0.784482  1
  Tb  Tb4  1  0.784482  0.215518  0.784482  1
  Tb  Tb5  1  0.215518  0.784482  0.784482  1
  Mg  Mg6  1  0.500000  0.500000  0.500000  1
  Cd  Cd7  1  0.836285  0.836285  0.491145  1
  Cd  Cd8  1  0.836285  0.491145  0.836285  1
  Cd  Cd9  1  0.491145  0.836285  0.836285  1
  Cd  Cd10  1  0.836285  0.836285  0.836285  1
  Cd  Cd11  1  0.163715  0.163715  0.508855  1
  Cd  Cd12  1  0.163715  0.508855  0.163715  1
  Cd  Cd13  1  0.508855  0.163715  0.163715  1
  Cd  Cd14  1  0.163715  0.163715  0.163715  1
  Cd  Cd15  1  0.621617  0.621617  0.135151  1
  Cd  Cd16  1  0.621617  0.135151  0.621617  1
  Cd  Cd17  1  0.135151  0.621617  0.621617  1
  Cd  Cd18  1  0.621617  0.621617  0.621617  1
  Cd  Cd19  1  0.378383  0.378383  0.864849  1
  Cd  Cd20  1  0.378383  0.864849  0.378383  1
  Cd  Cd21  1  0.864849  0.378383  0.378383  1
  Cd  Cd22  1  0.378383  0.378383  0.378383  1
  Cd  Cd23  1  0.000000  0.000000  0.500000  1
  Cd  Cd24  1  0.500000  0.000000  0.500000  1
  Cd  Cd25  1  0.000000  0.500000  0.500000  1
  Cd  Cd26  1  0.500000  0.500000  0.000000  1
  Cd  Cd27  1  0.000000  0.500000  0.000000  1
  Cd  Cd28  1  0.500000  0.000000  0.000000  1
  Sb  Sb29  1  0.000000  0.000000  0.000000  1
