# generated using pymatgen
data_Tm3Al3ZnCuSi
_symmetry_space_group_name_H-M   'P 1'
_cell_length_a   6.89011600
_cell_length_b   6.89011421
_cell_length_c   4.15331500
_cell_angle_alpha   90.00000000
_cell_angle_beta   90.00000000
_cell_angle_gamma   119.99999900
_symmetry_Int_Tables_number   1
_chemical_formula_structural   Tm3Al3ZnCuSi
_chemical_formula_sum   'Tm3 Al3 Zn1 Cu1 Si1'
_cell_volume   170.75697831
_cell_formula_units_Z   1
loop_
 _symmetry_equiv_pos_site_id
 _symmetry_equiv_pos_as_xyz
  1  'x, y, z'
loop_
 _atom_site_type_symbol
 _atom_site_label
 _atom_site_symmetry_multiplicity
 _atom_site_fract_x
 _atom_site_fract_y
 _atom_site_fract_z
 _atom_site_occupancy
  Tm  Tm0  1  0.410295  0.998455  0.000000  1
  Tm  Tm1  1  0.001545  0.411840  0.000000  1
  Tm  Tm2  1  0.588160  0.589705  0.000000  1
  Al  Al3  1  0.763039  0.001552  0.500000  1
  Al  Al4  1  0.238513  0.236962  0.500000  1
  Al  Al5  1  0.998448  0.761487  0.500000  1
  Zn  Zn6  1  0.666666  0.333333  0.500000  1
  Cu  Cu7  1  0.000000  0.000000  0.000000  1
  Si  Si8  1  0.333333  0.666667  0.500000  1
