# generated using pymatgen
data_Tb3DyHo(CoB3)2
_symmetry_space_group_name_H-M   'P 1'
_cell_length_a   5.39998549
_cell_length_b   5.39998667
_cell_length_c   8.38934187
_cell_angle_alpha   71.22600721
_cell_angle_beta   71.22600038
_cell_angle_gamma   59.99999894
_symmetry_Int_Tables_number   1
_chemical_formula_structural   Tb3DyHo(CoB3)2
_chemical_formula_sum   'Tb3 Dy1 Ho1 Co2 B6'
_cell_volume   196.68493191
_cell_formula_units_Z   1
loop_
 _symmetry_equiv_pos_site_id
 _symmetry_equiv_pos_as_xyz
  1  'x, y, z'
loop_
 _atom_site_type_symbol
 _atom_site_label
 _atom_site_symmetry_multiplicity
 _atom_site_fract_x
 _atom_site_fract_y
 _atom_site_fract_z
 _atom_site_occupancy
  Tb  Tb0  1  0.000158  0.000158  0.999525  1
  Tb  Tb1  1  0.251621  0.251621  0.245138  1
  Tb  Tb2  1  0.748346  0.748346  0.754960  1
  Dy  Dy3  1  0.583001  0.583001  0.250996  1
  Ho  Ho4  1  0.417396  0.417396  0.747813  1
  Co  Co5  1  0.119640  0.119640  0.641080  1
  Co  Co6  1  0.880283  0.880283  0.359151  1
  B  B7  1  0.168208  0.831567  0.500223  1
  B  B8  1  0.831567  0.500003  0.500223  1
  B  B9  1  0.500003  0.168208  0.500223  1
  B  B10  1  0.168208  0.500003  0.500223  1
  B  B11  1  0.500003  0.831567  0.500223  1
  B  B12  1  0.831567  0.168208  0.500223  1
