# generated using pymatgen
data_Dy2Hf3Zr(SnRh)6
_symmetry_space_group_name_H-M   'P 1'
_cell_length_a   7.47426814
_cell_length_b   7.48044579
_cell_length_c   7.39010300
_cell_angle_alpha   90.00000000
_cell_angle_beta   90.00000000
_cell_angle_gamma   119.90797865
_symmetry_Int_Tables_number   1
_chemical_formula_structural   Dy2Hf3Zr(SnRh)6
_chemical_formula_sum   'Dy2 Hf3 Zr1 Sn6 Rh6'
_cell_volume   358.16177884
_cell_formula_units_Z   1
loop_
 _symmetry_equiv_pos_site_id
 _symmetry_equiv_pos_as_xyz
  1  'x, y, z'
loop_
 _atom_site_type_symbol
 _atom_site_label
 _atom_site_symmetry_multiplicity
 _atom_site_fract_x
 _atom_site_fract_y
 _atom_site_fract_z
 _atom_site_occupancy
  Dy  Dy0  1  0.001051  0.404876  0.250000  1
  Dy  Dy1  1  0.596814  0.594697  0.250000  1
  Hf  Hf2  1  0.995174  0.388470  0.750000  1
  Hf  Hf3  1  0.606579  0.611607  0.750000  1
  Hf  Hf4  1  0.395361  0.999943  0.750000  1
  Zr  Zr5  1  0.400396  0.998240  0.250000  1
  Sn  Sn6  1  0.268432  0.267061  0.507951  1
  Sn  Sn7  1  0.001027  0.732938  0.508328  1
  Sn  Sn8  1  0.001027  0.732938  0.991672  1
  Sn  Sn9  1  0.730378  0.000094  0.496170  1
  Sn  Sn10  1  0.730378  0.000094  0.003830  1
  Sn  Sn11  1  0.268432  0.267061  0.992049  1
  Rh  Rh12  1  0.334577  0.670450  0.534659  1
  Rh  Rh13  1  0.664565  0.330356  0.535547  1
  Rh  Rh14  1  0.334577  0.670450  0.965341  1
  Rh  Rh15  1  0.994915  0.000398  0.750000  1
  Rh  Rh16  1  0.011756  0.999968  0.250000  1
  Rh  Rh17  1  0.664565  0.330356  0.964453  1
