# generated using pymatgen
data_La4Y12Cd4Pd3Ru
_symmetry_space_group_name_H-M   'P 1'
_cell_length_a   9.86622612
_cell_length_b   9.86622664
_cell_length_c   9.86622625
_cell_angle_alpha   59.60246840
_cell_angle_beta   59.60247391
_cell_angle_gamma   59.60246853
_symmetry_Int_Tables_number   1
_chemical_formula_structural   La4Y12Cd4Pd3Ru
_chemical_formula_sum   'La4 Y12 Cd4 Pd3 Ru1'
_cell_volume   672.97112506
_cell_formula_units_Z   1
loop_
 _symmetry_equiv_pos_site_id
 _symmetry_equiv_pos_as_xyz
  1  'x, y, z'
loop_
 _atom_site_type_symbol
 _atom_site_label
 _atom_site_symmetry_multiplicity
 _atom_site_fract_x
 _atom_site_fract_y
 _atom_site_fract_z
 _atom_site_occupancy
  La  La0  1  0.355007  0.355007  0.355007  1
  La  La1  1  0.348835  0.348835  0.944931  1
  La  La2  1  0.348835  0.944931  0.348835  1
  La  La3  1  0.944931  0.348835  0.348835  1
  Y  Y4  1  0.819035  0.185994  0.185994  1
  Y  Y5  1  0.185886  0.812147  0.812147  1
  Y  Y6  1  0.185994  0.819035  0.185994  1
  Y  Y7  1  0.812147  0.185886  0.812147  1
  Y  Y8  1  0.185994  0.185994  0.819035  1
  Y  Y9  1  0.812147  0.812147  0.185886  1
  Y  Y10  1  0.933119  0.567239  0.567239  1
  Y  Y11  1  0.563784  0.933073  0.933073  1
  Y  Y12  1  0.567239  0.933119  0.567239  1
  Y  Y13  1  0.933073  0.563784  0.933073  1
  Y  Y14  1  0.567239  0.567239  0.933119  1
  Y  Y15  1  0.933073  0.933073  0.563784  1
  Cd  Cd16  1  0.581696  0.581696  0.581696  1
  Cd  Cd17  1  0.583064  0.583064  0.248806  1
  Cd  Cd18  1  0.583064  0.248806  0.583064  1
  Cd  Cd19  1  0.248806  0.583064  0.583064  1
  Pd  Pd20  1  0.143511  0.143511  0.576009  1
  Pd  Pd21  1  0.143511  0.576009  0.143511  1
  Pd  Pd22  1  0.576009  0.143511  0.143511  1
  Ru  Ru23  1  0.144000  0.144000  0.144000  1
