# generated using pymatgen
data_Tm3LuTc3Os5
_symmetry_space_group_name_H-M   'P 1'
_cell_length_a   5.28824081
_cell_length_b   5.28904082
_cell_length_c   8.87366103
_cell_angle_alpha   90.00000004
_cell_angle_beta   89.99214754
_cell_angle_gamma   120.00498949
_symmetry_Int_Tables_number   1
_chemical_formula_structural   Tm3LuTc3Os5
_chemical_formula_sum   'Tm3 Lu1 Tc3 Os5'
_cell_volume   214.93134956
_cell_formula_units_Z   1
loop_
 _symmetry_equiv_pos_site_id
 _symmetry_equiv_pos_as_xyz
  1  'x, y, z'
loop_
 _atom_site_type_symbol
 _atom_site_label
 _atom_site_symmetry_multiplicity
 _atom_site_fract_x
 _atom_site_fract_y
 _atom_site_fract_z
 _atom_site_occupancy
  Tm  Tm0  1  0.335807  0.667904  0.435279  1
  Tm  Tm1  1  0.668568  0.334283  0.563153  1
  Tm  Tm2  1  0.668554  0.334277  0.937085  1
  Lu  Lu3  1  0.335696  0.667849  0.064655  1
  Tc  Tc4  1  0.168129  0.340083  0.750376  1
  Tc  Tc5  1  0.168129  0.828047  0.750376  1
  Tc  Tc6  1  0.334107  0.167053  0.249552  1
  Os  Os7  1  0.822566  0.651452  0.249498  1
  Os  Os8  1  0.649272  0.824637  0.750436  1
  Os  Os9  1  0.013400  0.006700  0.000300  1
  Os  Os10  1  0.822566  0.171113  0.249498  1
  Os  Os11  1  0.013208  0.006604  0.499792  1
