# generated using pymatgen
data_NdDyB4Os3Rh
_symmetry_space_group_name_H-M   'P 1'
_cell_length_a   6.79544262
_cell_length_b   6.01183416
_cell_length_c   5.60220588
_cell_angle_alpha   71.52199877
_cell_angle_beta   57.04272632
_cell_angle_gamma   51.33238621
_symmetry_Int_Tables_number   1
_chemical_formula_structural   NdDyB4Os3Rh
_chemical_formula_sum   'Nd1 Dy1 B4 Os3 Rh1'
_cell_volume   149.84740428
_cell_formula_units_Z   1
loop_
 _symmetry_equiv_pos_site_id
 _symmetry_equiv_pos_as_xyz
  1  'x, y, z'
loop_
 _atom_site_type_symbol
 _atom_site_label
 _atom_site_symmetry_multiplicity
 _atom_site_fract_x
 _atom_site_fract_y
 _atom_site_fract_z
 _atom_site_occupancy
  Nd  Nd0  1  0.248078  0.248078  0.251922  1
  Dy  Dy1  1  0.003309  0.003309  0.996691  1
  B  B2  1  0.310307  0.681273  0.306936  1
  B  B3  1  0.681273  0.310307  0.701483  1
  B  B4  1  0.570146  0.933345  0.569163  1
  B  B5  1  0.933345  0.570146  0.927347  1
  Os  Os6  1  0.365794  0.365794  0.634206  1
  Os  Os7  1  0.613567  0.613567  0.886433  1
  Os  Os8  1  0.887838  0.887838  0.612162  1
  Rh  Rh9  1  0.636343  0.636343  0.363657  1
