# generated using pymatgen
data_Tb3CeTm2(Al3Os)8
_symmetry_space_group_name_H-M   'P 1'
_cell_length_a   8.81721100
_cell_length_b   8.82063338
_cell_length_c   9.57802700
_cell_angle_alpha   90.00000000
_cell_angle_beta   90.00000000
_cell_angle_gamma   119.98716973
_symmetry_Int_Tables_number   1
_chemical_formula_structural   Tb3CeTm2(Al3Os)8
_chemical_formula_sum   'Tb3 Ce1 Tm2 Al24 Os8'
_cell_volume   645.19921140
_cell_formula_units_Z   1
loop_
 _symmetry_equiv_pos_site_id
 _symmetry_equiv_pos_as_xyz
  1  'x, y, z'
loop_
 _atom_site_type_symbol
 _atom_site_label
 _atom_site_symmetry_multiplicity
 _atom_site_fract_x
 _atom_site_fract_y
 _atom_site_fract_z
 _atom_site_occupancy
  Tb  Tb0  1  0.808415  0.616832  0.750000  1
  Tb  Tb1  1  0.613448  0.805592  0.250000  1
  Tb  Tb2  1  0.192144  0.805592  0.250000  1
  Ce  Ce3  1  0.193732  0.387463  0.250000  1
  Tm  Tm4  1  0.390288  0.194549  0.750000  1
  Tm  Tm5  1  0.804261  0.194549  0.750000  1
  Al  Al6  1  0.334489  0.668978  0.014953  1
  Al  Al7  1  0.666836  0.333671  0.979909  1
  Al  Al8  1  0.666836  0.333671  0.520091  1
  Al  Al9  1  0.334489  0.668978  0.485047  1
  Al  Al10  1  0.163053  0.326105  0.577728  1
  Al  Al11  1  0.836181  0.672361  0.425757  1
  Al  Al12  1  0.672908  0.836500  0.575872  1
  Al  Al13  1  0.836181  0.672361  0.074243  1
  Al  Al14  1  0.327182  0.162650  0.426114  1
  Al  Al15  1  0.163053  0.326105  0.922272  1
  Al  Al16  1  0.163593  0.836500  0.575872  1
  Al  Al17  1  0.327182  0.162650  0.073886  1
  Al  Al18  1  0.835468  0.162650  0.426114  1
  Al  Al19  1  0.672908  0.836500  0.924128  1
  Al  Al20  1  0.835468  0.162650  0.073886  1
  Al  Al21  1  0.163593  0.836500  0.924128  1
  Al  Al22  1  0.560916  0.121832  0.250000  1
  Al  Al23  1  0.438887  0.877775  0.750000  1
  Al  Al24  1  0.874161  0.437163  0.250000  1
  Al  Al25  1  0.120971  0.559857  0.750000  1
  Al  Al26  1  0.563001  0.437163  0.250000  1
  Al  Al27  1  0.438886  0.559857  0.750000  1
  Al  Al28  1  0.999981  0.999961  0.250000  1
  Al  Al29  1  0.002297  0.004594  0.750000  1
  Os  Os30  1  0.500945  0.001889  0.997921  1
  Os  Os31  1  0.000208  0.499215  0.000917  1
  Os  Os32  1  0.500945  0.001889  0.502079  1
  Os  Os33  1  0.499006  0.499215  0.000917  1
  Os  Os34  1  0.000208  0.499215  0.499083  1
  Os  Os35  1  0.499006  0.499215  0.499083  1
  Os  Os36  1  0.999437  0.998875  0.999242  1
  Os  Os37  1  0.999437  0.998875  0.500758  1
