# generated using pymatgen
data_Lu2Ti3Ge4
_symmetry_space_group_name_H-M   'P 1'
_cell_length_a   7.07153700
_cell_length_b   7.07153700
_cell_length_c   13.00082600
_cell_angle_alpha   90.00000000
_cell_angle_beta   90.00000000
_cell_angle_gamma   90.00000000
_symmetry_Int_Tables_number   1
_chemical_formula_structural   Lu2Ti3Ge4
_chemical_formula_sum   'Lu8 Ti12 Ge16'
_cell_volume   650.12756753
_cell_formula_units_Z   4
loop_
 _symmetry_equiv_pos_site_id
 _symmetry_equiv_pos_as_xyz
  1  'x, y, z'
loop_
 _atom_site_type_symbol
 _atom_site_label
 _atom_site_symmetry_multiplicity
 _atom_site_fract_x
 _atom_site_fract_y
 _atom_site_fract_z
 _atom_site_occupancy
  Lu  Lu0  1  0.998467  0.660073  0.531968  1
  Lu  Lu1  1  0.160073  0.501533  0.281968  1
  Lu  Lu2  1  0.839927  0.498467  0.781968  1
  Lu  Lu3  1  0.501533  0.160073  0.718032  1
  Lu  Lu4  1  0.498467  0.839927  0.218032  1
  Lu  Lu5  1  0.001533  0.339927  0.031968  1
  Lu  Lu6  1  0.660073  0.998467  0.468032  1
  Lu  Lu7  1  0.339927  0.001533  0.968032  1
  Ti  Ti8  1  0.672273  0.672273  0.000000  1
  Ti  Ti9  1  0.172274  0.827726  0.750000  1
  Ti  Ti10  1  0.827726  0.172274  0.250000  1
  Ti  Ti11  1  0.327726  0.327726  0.500000  1
  Ti  Ti12  1  0.993506  0.845748  0.124056  1
  Ti  Ti13  1  0.345748  0.506494  0.874056  1
  Ti  Ti14  1  0.654252  0.493506  0.374056  1
  Ti  Ti15  1  0.506494  0.345748  0.125944  1
  Ti  Ti16  1  0.493506  0.654252  0.625944  1
  Ti  Ti17  1  0.006494  0.154252  0.624056  1
  Ti  Ti18  1  0.845748  0.993506  0.875944  1
  Ti  Ti19  1  0.154252  0.006494  0.375944  1
  Ge  Ge20  1  0.869897  0.801599  0.320580  1
  Ge  Ge21  1  0.301599  0.630103  0.070580  1
  Ge  Ge22  1  0.698401  0.369897  0.570580  1
  Ge  Ge23  1  0.630103  0.301599  0.929420  1
  Ge  Ge24  1  0.369897  0.698401  0.429420  1
  Ge  Ge25  1  0.130103  0.198401  0.820580  1
  Ge  Ge26  1  0.801599  0.869897  0.679420  1
  Ge  Ge27  1  0.198401  0.130103  0.179420  1
  Ge  Ge28  1  0.039968  0.706570  0.932028  1
  Ge  Ge29  1  0.206570  0.460032  0.682028  1
  Ge  Ge30  1  0.793430  0.539968  0.182028  1
  Ge  Ge31  1  0.460032  0.206570  0.317972  1
  Ge  Ge32  1  0.539968  0.793430  0.817972  1
  Ge  Ge33  1  0.960032  0.293430  0.432028  1
  Ge  Ge34  1  0.706570  0.039968  0.067972  1
  Ge  Ge35  1  0.293430  0.960032  0.567972  1
