# generated using pymatgen
data_Dy4Er2TiAl23Os8
_symmetry_space_group_name_H-M   'P 1'
_cell_length_a   8.85418163
_cell_length_b   8.85418103
_cell_length_c   9.56100700
_cell_angle_alpha   90.00227933
_cell_angle_beta   89.99772224
_cell_angle_gamma   120.04322862
_symmetry_Int_Tables_number   1
_chemical_formula_structural   Dy4Er2TiAl23Os8
_chemical_formula_sum   'Dy4 Er2 Ti1 Al23 Os8'
_cell_volume   648.84617379
_cell_formula_units_Z   1
loop_
 _symmetry_equiv_pos_site_id
 _symmetry_equiv_pos_as_xyz
  1  'x, y, z'
loop_
 _atom_site_type_symbol
 _atom_site_label
 _atom_site_symmetry_multiplicity
 _atom_site_fract_x
 _atom_site_fract_y
 _atom_site_fract_z
 _atom_site_occupancy
  Dy  Dy0  1  0.194189  0.388451  0.250228  1
  Dy  Dy1  1  0.806857  0.613616  0.748073  1
  Dy  Dy2  1  0.611549  0.805811  0.250228  1
  Dy  Dy3  1  0.386384  0.193143  0.748073  1
  Er  Er4  1  0.194556  0.805444  0.250171  1
  Er  Er5  1  0.806544  0.193456  0.747980  1
  Ti  Ti6  1  0.333250  0.666750  0.992707  1
  Al  Al7  1  0.666747  0.333253  0.980911  1
  Al  Al8  1  0.666735  0.333265  0.516848  1
  Al  Al9  1  0.333251  0.666749  0.481532  1
  Al  Al10  1  0.162281  0.324813  0.575515  1
  Al  Al11  1  0.837397  0.674568  0.424015  1
  Al  Al12  1  0.675187  0.837719  0.575515  1
  Al  Al13  1  0.837015  0.673830  0.077039  1
  Al  Al14  1  0.325432  0.162603  0.424015  1
  Al  Al15  1  0.159517  0.319240  0.925570  1
  Al  Al16  1  0.162408  0.837592  0.575350  1
  Al  Al17  1  0.326170  0.162985  0.077039  1
  Al  Al18  1  0.837274  0.162726  0.424206  1
  Al  Al19  1  0.680760  0.840483  0.925570  1
  Al  Al20  1  0.836889  0.163111  0.076886  1
  Al  Al21  1  0.159636  0.840364  0.925769  1
  Al  Al22  1  0.561433  0.123164  0.253096  1
  Al  Al23  1  0.441249  0.882187  0.750312  1
  Al  Al24  1  0.876836  0.438567  0.253096  1
  Al  Al25  1  0.117813  0.558751  0.750312  1
  Al  Al26  1  0.561703  0.438297  0.253093  1
  Al  Al27  1  0.440962  0.559038  0.750310  1
  Al  Al28  1  0.000137  0.999863  0.250128  1
  Al  Al29  1  0.999861  0.000139  0.749536  1
  Os  Os30  1  0.499124  0.998285  0.002736  1
  Os  Os31  1  0.001715  0.500876  0.002736  1
  Os  Os32  1  0.499661  0.999262  0.502874  1
  Os  Os33  1  0.499133  0.500867  0.002756  1
  Os  Os34  1  0.000738  0.500339  0.502874  1
  Os  Os35  1  0.499601  0.500399  0.502829  1
  Os  Os36  1  0.999996  0.000004  0.000370  1
  Os  Os37  1  0.000008  0.999992  0.499698  1
