# generated using pymatgen
data_HfZrU5PaSb10
_symmetry_space_group_name_H-M   'P 1'
_cell_length_a   9.26674827
_cell_length_b   9.26199419
_cell_length_c   6.17525400
_cell_angle_alpha   89.99923816
_cell_angle_beta   90.00306749
_cell_angle_gamma   119.98924637
_symmetry_Int_Tables_number   1
_chemical_formula_structural   HfZrU5PaSb10
_chemical_formula_sum   'Hf1 Zr1 U5 Pa1 Sb10'
_cell_volume   459.05463569
_cell_formula_units_Z   1
loop_
 _symmetry_equiv_pos_site_id
 _symmetry_equiv_pos_as_xyz
  1  'x, y, z'
loop_
 _atom_site_type_symbol
 _atom_site_label
 _atom_site_symmetry_multiplicity
 _atom_site_fract_x
 _atom_site_fract_y
 _atom_site_fract_z
 _atom_site_occupancy
  Hf  Hf0  1  0.998715  0.000010  0.000570  1
  Zr  Zr1  1  0.998766  0.000011  0.499493  1
  U  U2  1  0.386478  0.386436  0.249931  1
  U  U3  1  0.000047  0.613555  0.249927  1
  U  U4  1  0.000590  0.386352  0.750033  1
  U  U5  1  0.614215  0.613627  0.750041  1
  U  U6  1  0.613693  0.000010  0.250049  1
  Pa  Pa7  1  0.387528  0.000003  0.750023  1
  Sb  Sb8  1  0.333647  0.666465  0.500062  1
  Sb  Sb9  1  0.667227  0.333490  0.999930  1
  Sb  Sb10  1  0.667236  0.333496  0.500064  1
  Sb  Sb11  1  0.333644  0.666472  0.999932  1
  Sb  Sb12  1  0.728510  0.000083  0.751022  1
  Sb  Sb13  1  0.728244  0.728681  0.248946  1
  Sb  Sb14  1  0.999561  0.271361  0.248950  1
  Sb  Sb15  1  0.999969  0.729271  0.751023  1
  Sb  Sb16  1  0.271376  0.999995  0.248973  1
  Sb  Sb17  1  0.270555  0.270681  0.751030  1
