# generated using pymatgen
data_Li11RhAu
_symmetry_space_group_name_H-M   'P 1'
_cell_length_a   8.30860227
_cell_length_b   8.30860098
_cell_length_c   8.24191810
_cell_angle_alpha   109.41042697
_cell_angle_beta   109.41041852
_cell_angle_gamma   109.91764832
_symmetry_Int_Tables_number   1
_chemical_formula_structural   Li11RhAu
_chemical_formula_sum   'Li22 Rh2 Au2'
_cell_volume   436.21485064
_cell_formula_units_Z   2
loop_
 _symmetry_equiv_pos_site_id
 _symmetry_equiv_pos_as_xyz
  1  'x, y, z'
loop_
 _atom_site_type_symbol
 _atom_site_label
 _atom_site_symmetry_multiplicity
 _atom_site_fract_x
 _atom_site_fract_y
 _atom_site_fract_z
 _atom_site_occupancy
  Li  Li0  1  0.800144  0.005482  0.000000  1
  Li  Li1  1  0.646443  0.250769  0.000000  1
  Li  Li2  1  0.342471  0.342471  0.000000  1
  Li  Li3  1  0.650830  0.650830  0.000000  1
  Li  Li4  1  0.250769  0.646443  0.000000  1
  Li  Li5  1  0.005482  0.800144  0.000000  1
  Li  Li6  1  0.204050  0.204050  0.199174  1
  Li  Li7  1  0.640039  0.995864  0.243710  1
  Li  Li8  1  0.995864  0.640039  0.243710  1
  Li  Li9  1  0.342875  0.606519  0.344319  1
  Li  Li10  1  0.606519  0.342875  0.344319  1
  Li  Li11  1  0.349613  0.000339  0.340721  1
  Li  Li12  1  0.000339  0.349613  0.340721  1
  Li  Li13  1  0.740287  0.740287  0.391930  1
  Li  Li14  1  0.348357  0.348357  0.608070  1
  Li  Li15  1  0.659618  0.008892  0.659279  1
  Li  Li16  1  0.008892  0.659618  0.659279  1
  Li  Li17  1  0.262199  0.998556  0.655680  1
  Li  Li18  1  0.998556  0.262199  0.655680  1
  Li  Li19  1  0.752153  0.396329  0.756289  1
  Li  Li20  1  0.396329  0.752153  0.756289  1
  Li  Li21  1  0.004877  0.004877  0.800825  1
  Rh  Rh22  1  0.337778  0.998838  0.000000  1
  Rh  Rh23  1  0.998838  0.337778  0.000000  1
  Au  Au24  1  0.998177  0.998177  0.339682  1
  Au  Au25  1  0.658494  0.658494  0.660317  1
