# generated using pymatgen
data_Pr2Ho4FeI10
_symmetry_space_group_name_H-M   'P 1'
_cell_length_a   7.78309760
_cell_length_b   9.80630181
_cell_length_c   9.68162168
_cell_angle_alpha   106.53021249
_cell_angle_beta   95.56653984
_cell_angle_gamma   105.40618725
_symmetry_Int_Tables_number   1
_chemical_formula_structural   Pr2Ho4FeI10
_chemical_formula_sum   'Pr2 Ho4 Fe1 I10'
_cell_volume   670.92602252
_cell_formula_units_Z   1
loop_
 _symmetry_equiv_pos_site_id
 _symmetry_equiv_pos_as_xyz
  1  'x, y, z'
loop_
 _atom_site_type_symbol
 _atom_site_label
 _atom_site_symmetry_multiplicity
 _atom_site_fract_x
 _atom_site_fract_y
 _atom_site_fract_z
 _atom_site_occupancy
  Pr  Pr0  1  0.889723  0.958899  0.222170  1
  Pr  Pr1  1  0.110277  0.041101  0.777830  1
  Ho  Ho2  1  0.029591  0.716269  0.914561  1
  Ho  Ho3  1  0.970409  0.283731  0.085439  1
  Ho  Ho4  1  0.654948  0.876494  0.837138  1
  Ho  Ho5  1  0.345052  0.123506  0.162862  1
  Fe  Fe6  1  0.000000  0.000000  0.000000  1
  I  I7  1  0.653628  0.554863  0.732206  1
  I  I8  1  0.346372  0.445137  0.267794  1
  I  I9  1  0.735202  0.911839  0.545463  1
  I  I10  1  0.264798  0.088161  0.454537  1
  I  I11  1  0.083283  0.376775  0.822856  1
  I  I12  1  0.916717  0.623225  0.177144  1
  I  I13  1  0.449023  0.817535  0.090999  1
  I  I14  1  0.550977  0.182465  0.909001  1
  I  I15  1  0.227486  0.739907  0.659086  1
  I  I16  1  0.772514  0.260093  0.340914  1
