# generated using pymatgen
data_Pr4InGa3Ru4
_symmetry_space_group_name_H-M   'P 1'
_cell_length_a   4.70251300
_cell_length_b   7.18340826
_cell_length_c   7.61610141
_cell_angle_alpha   89.36798814
_cell_angle_beta   90.00000000
_cell_angle_gamma   90.00000000
_symmetry_Int_Tables_number   1
_chemical_formula_structural   Pr4InGa3Ru4
_chemical_formula_sum   'Pr4 In1 Ga3 Ru4'
_cell_volume   257.25679220
_cell_formula_units_Z   1
loop_
 _symmetry_equiv_pos_site_id
 _symmetry_equiv_pos_as_xyz
  1  'x, y, z'
loop_
 _atom_site_type_symbol
 _atom_site_label
 _atom_site_symmetry_multiplicity
 _atom_site_fract_x
 _atom_site_fract_y
 _atom_site_fract_z
 _atom_site_occupancy
  Pr  Pr0  1  0.250000  0.811562  0.471072  1
  Pr  Pr1  1  0.750000  0.192413  0.538171  1
  Pr  Pr2  1  0.750000  0.303780  0.019516  1
  Pr  Pr3  1  0.250000  0.695212  0.966825  1
  In  In4  1  0.250000  0.385346  0.306824  1
  Ga  Ga5  1  0.750000  0.612396  0.689796  1
  Ga  Ga6  1  0.750000  0.891789  0.189679  1
  Ga  Ga7  1  0.250000  0.108226  0.808017  1
  Ru  Ru8  1  0.750000  0.573618  0.354472  1
  Ru  Ru9  1  0.750000  0.938600  0.847479  1
  Ru  Ru10  1  0.250000  0.047190  0.141658  1
  Ru  Ru11  1  0.250000  0.439866  0.666491  1
