# generated using pymatgen
data_Ho5Tm5(Si3O)2
_symmetry_space_group_name_H-M   'P 1'
_cell_length_a   8.31778301
_cell_length_b   8.31778094
_cell_length_c   6.13528400
_cell_angle_alpha   90.00000000
_cell_angle_beta   90.00000000
_cell_angle_gamma   120.00612496
_symmetry_Int_Tables_number   1
_chemical_formula_structural   Ho5Tm5(Si3O)2
_chemical_formula_sum   'Ho5 Tm5 Si6 O2'
_cell_volume   367.58142760
_cell_formula_units_Z   1
loop_
 _symmetry_equiv_pos_site_id
 _symmetry_equiv_pos_as_xyz
  1  'x, y, z'
loop_
 _atom_site_type_symbol
 _atom_site_label
 _atom_site_symmetry_multiplicity
 _atom_site_fract_x
 _atom_site_fract_y
 _atom_site_fract_z
 _atom_site_occupancy
  Ho  Ho0  1  0.233141  0.000397  0.250000  1
  Ho  Ho1  1  0.767005  0.999967  0.750000  1
  Ho  Ho2  1  0.000397  0.233141  0.250000  1
  Ho  Ho3  1  0.999967  0.767005  0.750000  1
  Ho  Ho4  1  0.766990  0.766990  0.250000  1
  Tm  Tm5  1  0.231131  0.231131  0.750000  1
  Tm  Tm6  1  0.333217  0.666240  0.999913  1
  Tm  Tm7  1  0.666240  0.333217  0.999913  1
  Tm  Tm8  1  0.666240  0.333217  0.500087  1
  Tm  Tm9  1  0.333217  0.666240  0.500087  1
  Si  Si10  1  0.600877  0.999977  0.250000  1
  Si  Si11  1  0.398549  0.000741  0.750000  1
  Si  Si12  1  0.999977  0.600877  0.250000  1
  Si  Si13  1  0.000741  0.398549  0.750000  1
  Si  Si14  1  0.399100  0.399100  0.250000  1
  Si  Si15  1  0.600186  0.600186  0.750000  1
  O  O16  1  0.001514  0.001514  0.998266  1
  O  O17  1  0.001514  0.001514  0.501734  1
