# generated using pymatgen
data_DyHo7(InNi)2
_symmetry_space_group_name_H-M   'P 1'
_cell_length_a   9.54574424
_cell_length_b   9.54583055
_cell_length_c   9.55721726
_cell_angle_alpha   59.99283889
_cell_angle_beta   59.99253699
_cell_angle_gamma   59.95581277
_symmetry_Int_Tables_number   1
_chemical_formula_structural   DyHo7(InNi)2
_chemical_formula_sum   'Dy2 Ho14 In4 Ni4'
_cell_volume   615.52650650
_cell_formula_units_Z   2
loop_
 _symmetry_equiv_pos_site_id
 _symmetry_equiv_pos_as_xyz
  1  'x, y, z'
loop_
 _atom_site_type_symbol
 _atom_site_label
 _atom_site_symmetry_multiplicity
 _atom_site_fract_x
 _atom_site_fract_y
 _atom_site_fract_z
 _atom_site_occupancy
  Dy  Dy0  1  0.346521  0.346626  0.348107  1
  Dy  Dy1  1  0.347014  0.347068  0.956631  1
  Ho  Ho2  1  0.346947  0.955401  0.348524  1
  Ho  Ho3  1  0.955559  0.346923  0.348452  1
  Ho  Ho4  1  0.812681  0.188509  0.187757  1
  Ho  Ho5  1  0.188822  0.812985  0.811656  1
  Ho  Ho6  1  0.188444  0.812638  0.187781  1
  Ho  Ho7  1  0.812915  0.188873  0.811578  1
  Ho  Ho8  1  0.187946  0.188055  0.812119  1
  Ho  Ho9  1  0.812038  0.812034  0.188672  1
  Ho  Ho10  1  0.937133  0.563058  0.562715  1
  Ho  Ho11  1  0.563612  0.937364  0.937506  1
  Ho  Ho12  1  0.562988  0.937227  0.562649  1
  Ho  Ho13  1  0.937447  0.563642  0.937532  1
  Ho  Ho14  1  0.563140  0.563135  0.936992  1
  Ho  Ho15  1  0.937956  0.937898  0.563028  1
  In  In16  1  0.582846  0.582831  0.582479  1
  In  In17  1  0.582479  0.582454  0.252243  1
  In  In18  1  0.582271  0.253213  0.581968  1
  In  In19  1  0.253287  0.582190  0.581895  1
  Ni  Ni20  1  0.142190  0.142103  0.143137  1
  Ni  Ni21  1  0.141525  0.141452  0.572692  1
  Ni  Ni22  1  0.140927  0.573393  0.141903  1
  Ni  Ni23  1  0.573314  0.140928  0.141985  1
