# generated using pymatgen
data_Y3P6RuRh8
_symmetry_space_group_name_H-M   'P 1'
_cell_length_a   3.94750000
_cell_length_b   11.27437900
_cell_length_c   12.67358900
_cell_angle_alpha   90.00000000
_cell_angle_beta   90.00000000
_cell_angle_gamma   90.00000000
_symmetry_Int_Tables_number   1
_chemical_formula_structural   Y3P6RuRh8
_chemical_formula_sum   'Y6 P12 Ru2 Rh16'
_cell_volume   564.04582331
_cell_formula_units_Z   2
loop_
 _symmetry_equiv_pos_site_id
 _symmetry_equiv_pos_as_xyz
  1  'x, y, z'
loop_
 _atom_site_type_symbol
 _atom_site_label
 _atom_site_symmetry_multiplicity
 _atom_site_fract_x
 _atom_site_fract_y
 _atom_site_fract_z
 _atom_site_occupancy
  Y  Y0  1  0.000000  0.500000  0.519502  1
  Y  Y1  1  0.500000  0.000000  0.480498  1
  Y  Y2  1  0.500000  0.819980  0.205554  1
  Y  Y3  1  0.500000  0.180020  0.205554  1
  Y  Y4  1  0.000000  0.680020  0.794446  1
  Y  Y5  1  0.000000  0.319980  0.794446  1
  P  P6  1  0.500000  0.500000  0.883664  1
  P  P7  1  0.000000  0.000000  0.116336  1
  P  P8  1  0.500000  0.500000  0.348726  1
  P  P9  1  0.000000  0.000000  0.651274  1
  P  P10  1  0.500000  0.313990  0.619557  1
  P  P11  1  0.500000  0.686010  0.619557  1
  P  P12  1  0.000000  0.186010  0.380443  1
  P  P13  1  0.000000  0.813990  0.380443  1
  P  P14  1  0.500000  0.845016  0.892538  1
  P  P15  1  0.500000  0.154984  0.892538  1
  P  P16  1  0.000000  0.654984  0.107462  1
  P  P17  1  0.000000  0.345016  0.107462  1
  Ru  Ru18  1  0.000000  0.500000  0.989574  1
  Ru  Ru19  1  0.500000  0.000000  0.010426  1
  Rh  Rh20  1  0.500000  0.500000  0.163131  1
  Rh  Rh21  1  0.000000  0.000000  0.836869  1
  Rh  Rh22  1  0.500000  0.500000  0.701587  1
  Rh  Rh23  1  0.000000  0.000000  0.298413  1
  Rh  Rh24  1  0.500000  0.331735  0.992455  1
  Rh  Rh25  1  0.500000  0.668265  0.992455  1
  Rh  Rh26  1  0.000000  0.168265  0.007545  1
  Rh  Rh27  1  0.000000  0.831735  0.007545  1
  Rh  Rh28  1  0.500000  0.296039  0.431494  1
  Rh  Rh29  1  0.500000  0.703961  0.431494  1
  Rh  Rh30  1  0.000000  0.203961  0.568506  1
  Rh  Rh31  1  0.000000  0.796039  0.568506  1
  Rh  Rh32  1  0.500000  0.872286  0.711485  1
  Rh  Rh33  1  0.500000  0.127714  0.711485  1
  Rh  Rh34  1  0.000000  0.627714  0.288515  1
  Rh  Rh35  1  0.000000  0.372286  0.288515  1
