# generated using pymatgen
data_ThMg2(Si3Pd10)2
_symmetry_space_group_name_H-M   'P 1'
_cell_length_a   8.67746904
_cell_length_b   8.67799442
_cell_length_c   8.67614313
_cell_angle_alpha   59.98698654
_cell_angle_beta   59.99942363
_cell_angle_gamma   59.98925085
_symmetry_Int_Tables_number   1
_chemical_formula_structural   ThMg2(Si3Pd10)2
_chemical_formula_sum   'Th1 Mg2 Si6 Pd20'
_cell_volume   461.89604307
_cell_formula_units_Z   1
loop_
 _symmetry_equiv_pos_site_id
 _symmetry_equiv_pos_as_xyz
  1  'x, y, z'
loop_
 _atom_site_type_symbol
 _atom_site_label
 _atom_site_symmetry_multiplicity
 _atom_site_fract_x
 _atom_site_fract_y
 _atom_site_fract_z
 _atom_site_occupancy
  Th  Th0  1  0.250002  0.249994  0.249985  1
  Mg  Mg1  1  0.750001  0.750001  0.750007  1
  Mg  Mg2  1  0.000000  0.000000  0.000008  1
  Si  Si3  1  0.732171  0.267812  0.267793  1
  Si  Si4  1  0.267822  0.732189  0.732208  1
  Si  Si5  1  0.267816  0.732148  0.267814  1
  Si  Si6  1  0.732183  0.267847  0.732180  1
  Si  Si7  1  0.267765  0.267783  0.732197  1
  Si  Si8  1  0.732246  0.732225  0.267783  1
  Pd  Pd9  1  0.385406  0.385389  0.385347  1
  Pd  Pd10  1  0.620719  0.620788  0.620715  1
  Pd  Pd11  1  0.385402  0.385401  0.843802  1
  Pd  Pd12  1  0.385362  0.843816  0.385395  1
  Pd  Pd13  1  0.620738  0.620711  0.137944  1
  Pd  Pd14  1  0.620656  0.137877  0.620750  1
  Pd  Pd15  1  0.843821  0.385354  0.385388  1
  Pd  Pd16  1  0.137859  0.620678  0.620798  1
  Pd  Pd17  1  0.341622  0.001792  0.001890  1
  Pd  Pd18  1  0.654801  0.001777  0.001660  1
  Pd  Pd19  1  0.001744  0.341716  0.654692  1
  Pd  Pd20  1  0.001843  0.654696  0.341724  1
  Pd  Pd21  1  0.001857  0.341580  0.001898  1
  Pd  Pd22  1  0.654687  0.001847  0.341671  1
  Pd  Pd23  1  0.001740  0.654817  0.001674  1
  Pd  Pd24  1  0.341712  0.001753  0.654726  1
  Pd  Pd25  1  0.001907  0.001848  0.341575  1
  Pd  Pd26  1  0.001690  0.001740  0.654818  1
  Pd  Pd27  1  0.654680  0.341698  0.001776  1
  Pd  Pd28  1  0.341750  0.654723  0.001785  1
