# generated using pymatgen
data_Hf8Ni2RhW
_symmetry_space_group_name_H-M   'P 1'
_cell_length_a   8.66138368
_cell_length_b   8.66138331
_cell_length_c   8.61681900
_cell_angle_alpha   60.17005931
_cell_angle_beta   60.17006069
_cell_angle_gamma   60.19117371
_symmetry_Int_Tables_number   1
_chemical_formula_structural   Hf8Ni2RhW
_chemical_formula_sum   'Hf16 Ni4 Rh2 W2'
_cell_volume   458.92829074
_cell_formula_units_Z   2
loop_
 _symmetry_equiv_pos_site_id
 _symmetry_equiv_pos_as_xyz
  1  'x, y, z'
loop_
 _atom_site_type_symbol
 _atom_site_label
 _atom_site_symmetry_multiplicity
 _atom_site_fract_x
 _atom_site_fract_y
 _atom_site_fract_z
 _atom_site_occupancy
  Hf  Hf0  1  0.680332  0.108002  0.105832  1
  Hf  Hf1  1  0.108002  0.680332  0.105832  1
  Hf  Hf2  1  0.103270  0.103270  0.689033  1
  Hf  Hf3  1  0.103270  0.103270  0.104427  1
  Hf  Hf4  1  0.315999  0.315999  0.684001  1
  Hf  Hf5  1  0.685956  0.685956  0.314044  1
  Hf  Hf6  1  0.316385  0.689666  0.315128  1
  Hf  Hf7  1  0.689666  0.316385  0.678819  1
  Hf  Hf8  1  0.689666  0.316385  0.315128  1
  Hf  Hf9  1  0.316385  0.689666  0.678819  1
  Hf  Hf10  1  0.953874  0.953874  0.546126  1
  Hf  Hf11  1  0.550845  0.550845  0.949155  1
  Hf  Hf12  1  0.946449  0.551123  0.950727  1
  Hf  Hf13  1  0.551123  0.946449  0.551702  1
  Hf  Hf14  1  0.551123  0.946449  0.950727  1
  Hf  Hf15  1  0.946449  0.551123  0.551702  1
  Ni  Ni16  1  0.322453  0.888385  0.894580  1
  Ni  Ni17  1  0.888385  0.322453  0.894580  1
  Ni  Ni18  1  0.891888  0.891888  0.318788  1
  Ni  Ni19  1  0.891888  0.891888  0.897435  1
  Rh  Rh20  1  0.332383  0.332383  0.996923  1
  Rh  Rh21  1  0.332383  0.332383  0.338310  1
  W  W22  1  0.999521  0.332301  0.334088  1
  W  W23  1  0.332301  0.999521  0.334088  1
