# generated using pymatgen
data_DyU2Ni9
_symmetry_space_group_name_H-M   'P 1'
_cell_length_a   4.89302503
_cell_length_b   4.89302492
_cell_length_c   8.65930221
_cell_angle_alpha   73.58873477
_cell_angle_beta   73.58873838
_cell_angle_gamma   60.00001698
_symmetry_Int_Tables_number   1
_chemical_formula_structural   DyU2Ni9
_chemical_formula_sum   'Dy1 U2 Ni9'
_cell_volume   169.71980298
_cell_formula_units_Z   1
loop_
 _symmetry_equiv_pos_site_id
 _symmetry_equiv_pos_as_xyz
  1  'x, y, z'
loop_
 _atom_site_type_symbol
 _atom_site_label
 _atom_site_symmetry_multiplicity
 _atom_site_fract_x
 _atom_site_fract_y
 _atom_site_fract_z
 _atom_site_occupancy
  Dy  Dy0  1  0.000000  0.000000  0.000000  1
  U  U1  1  0.141856  0.141856  0.574433  1
  U  U2  1  0.858144  0.858144  0.425567  1
  Ni  Ni3  1  0.083005  0.583324  0.750348  1
  Ni  Ni4  1  0.583324  0.583324  0.750348  1
  Ni  Ni5  1  0.583324  0.083005  0.750348  1
  Ni  Ni6  1  0.916995  0.416676  0.249652  1
  Ni  Ni7  1  0.416676  0.416676  0.249652  1
  Ni  Ni8  1  0.416676  0.916995  0.249652  1
  Ni  Ni9  1  0.332937  0.332937  0.001187  1
  Ni  Ni10  1  0.667063  0.667063  0.998813  1
  Ni  Ni11  1  0.500000  0.500000  0.500000  1
