# generated using pymatgen
data_Ce2As4Ir3Ru
_symmetry_space_group_name_H-M   'P 1'
_cell_length_a   4.31261200
_cell_length_b   4.31261200
_cell_length_c   9.93813800
_cell_angle_alpha   90.00000000
_cell_angle_beta   90.00000000
_cell_angle_gamma   90.00000000
_symmetry_Int_Tables_number   1
_chemical_formula_structural   Ce2As4Ir3Ru
_chemical_formula_sum   'Ce2 As4 Ir3 Ru1'
_cell_volume   184.83567466
_cell_formula_units_Z   1
loop_
 _symmetry_equiv_pos_site_id
 _symmetry_equiv_pos_as_xyz
  1  'x, y, z'
loop_
 _atom_site_type_symbol
 _atom_site_label
 _atom_site_symmetry_multiplicity
 _atom_site_fract_x
 _atom_site_fract_y
 _atom_site_fract_z
 _atom_site_occupancy
  Ce  Ce0  1  0.000000  0.500000  0.752737  1
  Ce  Ce1  1  0.500000  0.000000  0.247263  1
  As  As2  1  0.000000  0.500000  0.365889  1
  As  As3  1  0.000000  0.000000  0.000000  1
  As  As4  1  0.500000  0.000000  0.634111  1
  As  As5  1  0.500000  0.500000  0.000000  1
  Ir  Ir6  1  0.500000  0.000000  0.880109  1
  Ir  Ir7  1  0.500000  0.500000  0.500000  1
  Ir  Ir8  1  0.000000  0.500000  0.119891  1
  Ru  Ru9  1  0.000000  0.000000  0.500000  1
