# generated using pymatgen
data_KRb2VO4
_symmetry_space_group_name_H-M   'P 1'
_cell_length_a   6.30043264
_cell_length_b   6.30043245
_cell_length_c   8.40086041
_cell_angle_alpha   86.17532299
_cell_angle_beta   86.17532806
_cell_angle_gamma   99.36273835
_symmetry_Int_Tables_number   1
_chemical_formula_structural   KRb2VO4
_chemical_formula_sum   'K2 Rb4 V2 O8'
_cell_volume   327.28032240
_cell_formula_units_Z   2
loop_
 _symmetry_equiv_pos_site_id
 _symmetry_equiv_pos_as_xyz
  1  'x, y, z'
loop_
 _atom_site_type_symbol
 _atom_site_label
 _atom_site_symmetry_multiplicity
 _atom_site_fract_x
 _atom_site_fract_y
 _atom_site_fract_z
 _atom_site_occupancy
  K  K0  1  0.197496  0.802504  0.000000  1
  K  K1  1  0.802504  0.197496  0.000000  1
  Rb  Rb2  1  0.316985  0.316985  0.195143  1
  Rb  Rb3  1  0.225024  0.774976  0.500000  1
  Rb  Rb4  1  0.683015  0.683015  0.804857  1
  Rb  Rb5  1  0.774976  0.225024  0.500000  1
  V  V6  1  0.247065  0.247065  0.728255  1
  V  V7  1  0.752935  0.752935  0.271745  1
  O  O8  1  0.817536  0.519068  0.191128  1
  O  O9  1  0.966936  0.966936  0.221563  1
  O  O10  1  0.519068  0.817536  0.191128  1
  O  O11  1  0.033064  0.033064  0.778437  1
  O  O12  1  0.716532  0.716532  0.479572  1
  O  O13  1  0.480932  0.182464  0.808872  1
  O  O14  1  0.182464  0.480932  0.808872  1
  O  O15  1  0.283468  0.283468  0.520428  1
