# generated using pymatgen
data_Yb7Pr9(MgRu)4
_symmetry_space_group_name_H-M   'P 1'
_cell_length_a   10.02488451
_cell_length_b   9.99278334
_cell_length_c   10.02757784
_cell_angle_alpha   60.35915143
_cell_angle_beta   61.15613902
_cell_angle_gamma   60.35954301
_symmetry_Int_Tables_number   1
_chemical_formula_structural   Yb7Pr9(MgRu)4
_chemical_formula_sum   'Yb7 Pr9 Mg4 Ru4'
_cell_volume   720.24062076
_cell_formula_units_Z   1
loop_
 _symmetry_equiv_pos_site_id
 _symmetry_equiv_pos_as_xyz
  1  'x, y, z'
loop_
 _atom_site_type_symbol
 _atom_site_label
 _atom_site_symmetry_multiplicity
 _atom_site_fract_x
 _atom_site_fract_y
 _atom_site_fract_z
 _atom_site_occupancy
  Yb  Yb0  1  0.053672  0.442920  0.447928  1
  Yb  Yb1  1  0.189077  0.810799  0.189181  1
  Yb  Yb2  1  0.657923  0.656788  0.657854  1
  Yb  Yb3  1  0.447957  0.442946  0.053730  1
  Yb  Yb4  1  0.052645  0.448666  0.052675  1
  Yb  Yb5  1  0.450256  0.053992  0.055747  1
  Yb  Yb6  1  0.055797  0.053984  0.450253  1
  Pr  Pr7  1  0.657823  0.656879  0.028743  1
  Pr  Pr8  1  0.657937  0.025785  0.657939  1
  Pr  Pr9  1  0.195605  0.810020  0.805583  1
  Pr  Pr10  1  0.446630  0.053776  0.446628  1
  Pr  Pr11  1  0.190943  0.189047  0.807958  1
  Pr  Pr12  1  0.028824  0.656885  0.657775  1
  Pr  Pr13  1  0.805518  0.810060  0.195571  1
  Pr  Pr14  1  0.808012  0.189089  0.190961  1
  Pr  Pr15  1  0.808678  0.190140  0.808695  1
  Mg  Mg16  1  0.422596  0.420316  0.422573  1
  Mg  Mg17  1  0.423513  0.735042  0.423461  1
  Mg  Mg18  1  0.731742  0.422954  0.420926  1
  Mg  Mg19  1  0.420906  0.422924  0.731787  1
  Ru  Ru20  1  0.863986  0.860783  0.863855  1
  Ru  Ru21  1  0.405868  0.870043  0.857727  1
  Ru  Ru22  1  0.866539  0.405949  0.866465  1
  Ru  Ru23  1  0.857554  0.870217  0.405988  1
