# generated using pymatgen
data_Ac4HgPb11
_symmetry_space_group_name_H-M   'P 1'
_cell_length_a   10.21484400
_cell_length_b   7.11213464
_cell_length_c   7.12114076
_cell_angle_alpha   89.65796087
_cell_angle_beta   90.00000000
_cell_angle_gamma   90.00000000
_symmetry_Int_Tables_number   1
_chemical_formula_structural   Ac4HgPb11
_chemical_formula_sum   'Ac4 Hg1 Pb11'
_cell_volume   517.33699960
_cell_formula_units_Z   1
loop_
 _symmetry_equiv_pos_site_id
 _symmetry_equiv_pos_as_xyz
  1  'x, y, z'
loop_
 _atom_site_type_symbol
 _atom_site_label
 _atom_site_symmetry_multiplicity
 _atom_site_fract_x
 _atom_site_fract_y
 _atom_site_fract_z
 _atom_site_occupancy
  Ac  Ac0  1  0.250000  0.004999  0.001387  1
  Ac  Ac1  1  0.250000  0.499074  0.502707  1
  Ac  Ac2  1  0.750000  0.999157  0.999498  1
  Ac  Ac3  1  0.750000  0.502954  0.500329  1
  Hg  Hg4  1  0.750000  0.494933  0.997384  1
  Pb  Pb5  1  0.998106  0.244625  0.744537  1
  Pb  Pb6  1  0.502407  0.252724  0.248701  1
  Pb  Pb7  1  0.501611  0.751190  0.250900  1
  Pb  Pb8  1  0.998229  0.747894  0.753633  1
  Pb  Pb9  1  0.998389  0.751190  0.250900  1
  Pb  Pb10  1  0.501771  0.747894  0.753633  1
  Pb  Pb11  1  0.501894  0.244625  0.744537  1
  Pb  Pb12  1  0.997593  0.252724  0.248701  1
  Pb  Pb13  1  0.250000  0.998828  0.500873  1
  Pb  Pb14  1  0.250000  0.505004  0.002907  1
  Pb  Pb15  1  0.750000  0.002185  0.499372  1
