# generated using pymatgen
data_Y2Tm3Lu(Co3P2)6
_symmetry_space_group_name_H-M   'P 1'
_cell_length_a   3.68495000
_cell_length_b   10.50346800
_cell_length_c   12.15783200
_cell_angle_alpha   90.00121343
_cell_angle_beta   90.00000000
_cell_angle_gamma   90.00000000
_symmetry_Int_Tables_number   1
_chemical_formula_structural   Y2Tm3Lu(Co3P2)6
_chemical_formula_sum   'Y2 Tm3 Lu1 Co18 P12'
_cell_volume   470.56590162
_cell_formula_units_Z   1
loop_
 _symmetry_equiv_pos_site_id
 _symmetry_equiv_pos_as_xyz
  1  'x, y, z'
loop_
 _atom_site_type_symbol
 _atom_site_label
 _atom_site_symmetry_multiplicity
 _atom_site_fract_x
 _atom_site_fract_y
 _atom_site_fract_z
 _atom_site_occupancy
  Y  Y0  1  0.000000  0.499994  0.522295  1
  Y  Y1  1  0.500000  0.999935  0.477646  1
  Tm  Tm2  1  0.500000  0.181918  0.205737  1
  Tm  Tm3  1  0.000000  0.682022  0.794261  1
  Tm  Tm4  1  0.000000  0.318038  0.794351  1
  Lu  Lu5  1  0.500000  0.818013  0.205755  1
  Co  Co6  1  0.500000  0.500016  0.158690  1
  Co  Co7  1  0.000000  0.999969  0.841327  1
  Co  Co8  1  0.500000  0.500033  0.704783  1
  Co  Co9  1  0.000000  0.999575  0.295028  1
  Co  Co10  1  0.000000  0.500084  0.986388  1
  Co  Co11  1  0.500000  0.999852  0.013782  1
  Co  Co12  1  0.500000  0.333143  0.994639  1
  Co  Co13  1  0.500000  0.666986  0.994782  1
  Co  Co14  1  0.000000  0.166848  0.005400  1
  Co  Co15  1  0.000000  0.833062  0.005629  1
  Co  Co16  1  0.500000  0.297150  0.430234  1
  Co  Co17  1  0.500000  0.702913  0.430072  1
  Co  Co18  1  0.000000  0.202854  0.569737  1
  Co  Co19  1  0.000000  0.797139  0.569697  1
  Co  Co20  1  0.500000  0.878627  0.710375  1
  Co  Co21  1  0.500000  0.121325  0.710415  1
  Co  Co22  1  0.000000  0.621713  0.289400  1
  Co  Co23  1  0.000000  0.378672  0.289600  1
  P  P24  1  0.500000  0.500002  0.882629  1
  P  P25  1  0.000000  0.999698  0.117642  1
  P  P26  1  0.500000  0.499959  0.343592  1
  P  P27  1  0.000000  0.999985  0.656386  1
  P  P28  1  0.500000  0.310938  0.617184  1
  P  P29  1  0.500000  0.689122  0.617166  1
  P  P30  1  0.000000  0.189050  0.382774  1
  P  P31  1  0.000000  0.811016  0.382394  1
  P  P32  1  0.500000  0.846694  0.892517  1
  P  P33  1  0.500000  0.153296  0.892579  1
  P  P34  1  0.000000  0.653650  0.107690  1
  P  P35  1  0.000000  0.346712  0.107421  1
