# generated using pymatgen
data_LaYb10ErRu4
_symmetry_space_group_name_H-M   'P 1'
_cell_length_a   6.21624362
_cell_length_b   7.64517686
_cell_length_c   9.27901480
_cell_angle_alpha   90.01219635
_cell_angle_beta   89.56714730
_cell_angle_gamma   88.64399641
_symmetry_Int_Tables_number   1
_chemical_formula_structural   LaYb10ErRu4
_chemical_formula_sum   'La1 Yb10 Er1 Ru4'
_cell_volume   440.84240717
_cell_formula_units_Z   1
loop_
 _symmetry_equiv_pos_site_id
 _symmetry_equiv_pos_as_xyz
  1  'x, y, z'
loop_
 _atom_site_type_symbol
 _atom_site_label
 _atom_site_symmetry_multiplicity
 _atom_site_fract_x
 _atom_site_fract_y
 _atom_site_fract_z
 _atom_site_occupancy
  La  La0  1  0.356229  0.952456  0.752498  1
  Yb  Yb1  1  0.156365  0.168524  0.429485  1
  Yb  Yb2  1  0.652667  0.333382  0.565856  1
  Yb  Yb3  1  0.847096  0.831643  0.938056  1
  Yb  Yb4  1  0.655144  0.330369  0.937648  1
  Yb  Yb5  1  0.842760  0.833340  0.564308  1
  Yb  Yb6  1  0.341897  0.666646  0.430512  1
  Yb  Yb7  1  0.157696  0.170390  0.068517  1
  Yb  Yb8  1  0.872494  0.539276  0.247798  1
  Yb  Yb9  1  0.629814  0.034220  0.248185  1
  Yb  Yb10  1  0.128076  0.459999  0.752773  1
  Er  Er11  1  0.344986  0.664260  0.072113  1
  Ru  Ru12  1  0.060269  0.871545  0.242227  1
  Ru  Ru13  1  0.455070  0.382950  0.241961  1
  Ru  Ru14  1  0.984613  0.118181  0.745272  1
  Ru  Ru15  1  0.514825  0.642819  0.762792  1
