# generated using pymatgen
data_Dy3HoGa12Au
_symmetry_space_group_name_H-M   'P 1'
_cell_length_a   7.53072400
_cell_length_b   7.53072508
_cell_length_c   7.53072412
_cell_angle_alpha   109.44182729
_cell_angle_beta   109.44181934
_cell_angle_gamma   109.44181244
_symmetry_Int_Tables_number   1
_chemical_formula_structural   Dy3HoGa12Au
_chemical_formula_sum   'Dy3 Ho1 Ga12 Au1'
_cell_volume   329.12450603
_cell_formula_units_Z   1
loop_
 _symmetry_equiv_pos_site_id
 _symmetry_equiv_pos_as_xyz
  1  'x, y, z'
loop_
 _atom_site_type_symbol
 _atom_site_label
 _atom_site_symmetry_multiplicity
 _atom_site_fract_x
 _atom_site_fract_y
 _atom_site_fract_z
 _atom_site_occupancy
  Dy  Dy0  1  0.000000  0.000000  0.500000  1
  Dy  Dy1  1  0.000000  0.500000  0.000000  1
  Dy  Dy2  1  0.500000  0.000000  0.000000  1
  Ho  Ho3  1  0.500000  0.500000  0.500000  1
  Ga  Ga4  1  0.749847  0.250153  0.500000  1
  Ga  Ga5  1  0.749847  0.500000  0.250153  1
  Ga  Ga6  1  0.500000  0.250153  0.749847  1
  Ga  Ga7  1  0.250153  0.500000  0.749847  1
  Ga  Ga8  1  0.250153  0.749847  0.500000  1
  Ga  Ga9  1  0.500000  0.749847  0.250153  1
  Ga  Ga10  1  0.695901  0.695901  0.999823  1
  Ga  Ga11  1  0.304099  0.000177  0.304099  1
  Ga  Ga12  1  0.000177  0.304099  0.304099  1
  Ga  Ga13  1  0.304099  0.304099  0.000177  1
  Ga  Ga14  1  0.695901  0.999823  0.695901  1
  Ga  Ga15  1  0.999823  0.695901  0.695901  1
  Au  Au16  1  0.000000  0.000000  0.000000  1
