# generated using pymatgen
data_Ba2Np2O7
_symmetry_space_group_name_H-M   'P 1'
_cell_length_a   8.12313260
_cell_length_b   8.12313289
_cell_length_c   8.12313331
_cell_angle_alpha   119.22778147
_cell_angle_beta   119.24857952
_cell_angle_gamma   91.32465605
_symmetry_Int_Tables_number   1
_chemical_formula_structural   Ba2Np2O7
_chemical_formula_sum   'Ba4 Np4 O14'
_cell_volume   383.26780627
_cell_formula_units_Z   2
loop_
 _symmetry_equiv_pos_site_id
 _symmetry_equiv_pos_as_xyz
  1  'x, y, z'
loop_
 _atom_site_type_symbol
 _atom_site_label
 _atom_site_symmetry_multiplicity
 _atom_site_fract_x
 _atom_site_fract_y
 _atom_site_fract_z
 _atom_site_occupancy
  Ba  Ba0  1  0.000000  0.000000  0.000000  1
  Ba  Ba1  1  0.500000  0.500000  0.000000  1
  Ba  Ba2  1  0.500000  0.000000  0.000000  1
  Ba  Ba3  1  0.500000  0.500000  0.500000  1
  Np  Np4  1  0.000000  0.000000  0.500000  1
  Np  Np5  1  0.000000  0.500000  0.500000  1
  Np  Np6  1  0.000000  0.500000  0.000000  1
  Np  Np7  1  0.500000  0.000000  0.500000  1
  O  O8  1  0.911748  0.750000  0.161748  1
  O  O9  1  0.687546  0.914347  0.364174  1
  O  O10  1  0.619040  0.906860  0.712180  1
  O  O11  1  0.687546  0.323373  0.773199  1
  O  O12  1  0.312454  0.676627  0.226801  1
  O  O13  1  0.312454  0.085653  0.635826  1
  O  O14  1  0.694681  0.406860  0.287820  1
  O  O15  1  0.050173  0.823373  0.635826  1
  O  O16  1  0.050173  0.414347  0.226801  1
  O  O17  1  0.088252  0.250000  0.838252  1
  O  O18  1  0.380960  0.093140  0.287820  1
  O  O19  1  0.949827  0.176627  0.364174  1
  O  O20  1  0.949827  0.585653  0.773199  1
  O  O21  1  0.305319  0.593140  0.712180  1
