# generated using pymatgen
data_Tb2Dy7YCd3Ru
_symmetry_space_group_name_H-M   'P 1'
_cell_length_a   9.61985300
_cell_length_b   9.61985318
_cell_length_c   9.85681100
_cell_angle_alpha   90.00000000
_cell_angle_beta   90.00000000
_cell_angle_gamma   120.00000281
_symmetry_Int_Tables_number   1
_chemical_formula_structural   Tb2Dy7YCd3Ru
_chemical_formula_sum   'Tb4 Dy14 Y2 Cd6 Ru2'
_cell_volume   789.95786645
_cell_formula_units_Z   2
loop_
 _symmetry_equiv_pos_site_id
 _symmetry_equiv_pos_as_xyz
  1  'x, y, z'
loop_
 _atom_site_type_symbol
 _atom_site_label
 _atom_site_symmetry_multiplicity
 _atom_site_fract_x
 _atom_site_fract_y
 _atom_site_fract_z
 _atom_site_occupancy
  Tb  Tb0  1  0.541279  0.458721  0.250000  1
  Tb  Tb1  1  0.541279  0.082559  0.250000  1
  Tb  Tb2  1  0.917441  0.458721  0.250000  1
  Tb  Tb3  1  0.458721  0.541279  0.750000  1
  Dy  Dy4  1  0.000000  0.000000  0.500000  1
  Dy  Dy5  1  0.000000  0.000000  0.000000  1
  Dy  Dy6  1  0.209869  0.790131  0.439806  1
  Dy  Dy7  1  0.209869  0.419739  0.439806  1
  Dy  Dy8  1  0.580261  0.790131  0.439806  1
  Dy  Dy9  1  0.790131  0.209869  0.560194  1
  Dy  Dy10  1  0.790131  0.580261  0.560194  1
  Dy  Dy11  1  0.419739  0.209869  0.560194  1
  Dy  Dy12  1  0.790131  0.209869  0.939806  1
  Dy  Dy13  1  0.790131  0.580261  0.939806  1
  Dy  Dy14  1  0.419739  0.209869  0.939806  1
  Dy  Dy15  1  0.209869  0.790131  0.060194  1
  Dy  Dy16  1  0.209869  0.419739  0.060194  1
  Dy  Dy17  1  0.580261  0.790131  0.060194  1
  Y  Y18  1  0.458721  0.917441  0.750000  1
  Y  Y19  1  0.082559  0.541279  0.750000  1
  Cd  Cd20  1  0.885403  0.114597  0.250000  1
  Cd  Cd21  1  0.885403  0.770807  0.250000  1
  Cd  Cd22  1  0.229193  0.114597  0.250000  1
  Cd  Cd23  1  0.114597  0.885403  0.750000  1
  Cd  Cd24  1  0.114597  0.229193  0.750000  1
  Cd  Cd25  1  0.770807  0.885403  0.750000  1
  Ru  Ru26  1  0.333333  0.666667  0.250000  1
  Ru  Ru27  1  0.666667  0.333333  0.750000  1
