# generated using pymatgen
data_Ho3ErMnV3B16
_symmetry_space_group_name_H-M   'P 1'
_cell_length_a   3.43379500
_cell_length_b   5.95837429
_cell_length_c   11.52869704
_cell_angle_alpha   89.91178067
_cell_angle_beta   90.00000000
_cell_angle_gamma   90.00000000
_symmetry_Int_Tables_number   1
_chemical_formula_structural   Ho3ErMnV3B16
_chemical_formula_sum   'Ho3 Er1 Mn1 V3 B16'
_cell_volume   235.87496959
_cell_formula_units_Z   1
loop_
 _symmetry_equiv_pos_site_id
 _symmetry_equiv_pos_as_xyz
  1  'x, y, z'
loop_
 _atom_site_type_symbol
 _atom_site_label
 _atom_site_symmetry_multiplicity
 _atom_site_fract_x
 _atom_site_fract_y
 _atom_site_fract_z
 _atom_site_occupancy
  Ho  Ho0  1  0.000000  0.625189  0.350844  1
  Ho  Ho1  1  0.000000  0.375592  0.650422  1
  Ho  Ho2  1  0.000000  0.124545  0.152053  1
  Er  Er3  1  0.000000  0.875921  0.846850  1
  Mn  Mn4  1  0.000000  0.875341  0.580997  1
  V  V5  1  0.000000  0.627297  0.082572  1
  V  V6  1  0.000000  0.372770  0.914873  1
  V  V7  1  0.000000  0.125060  0.420406  1
  B  B8  1  0.500000  0.785904  0.186741  1
  B  B9  1  0.500000  0.212890  0.812469  1
  B  B10  1  0.500000  0.284390  0.315878  1
  B  B11  1  0.500000  0.720147  0.681921  1
  B  B12  1  0.500000  0.865066  0.032423  1
  B  B13  1  0.500000  0.134690  0.966755  1
  B  B14  1  0.500000  0.364690  0.469214  1
  B  B15  1  0.500000  0.638688  0.533381  1
  B  B16  1  0.500000  0.884105  0.455547  1
  B  B17  1  0.500000  0.109700  0.548970  1
  B  B18  1  0.500000  0.384545  0.047271  1
  B  B19  1  0.500000  0.615468  0.951714  1
  B  B20  1  0.500000  0.975957  0.309161  1
  B  B21  1  0.500000  0.020355  0.690537  1
  B  B22  1  0.500000  0.475582  0.193227  1
  B  B23  1  0.500000  0.526104  0.805772  1
