# generated using pymatgen
data_La2HgPtRh
_symmetry_space_group_name_H-M   'P 1'
_cell_length_a   7.87428800
_cell_length_b   7.89758200
_cell_length_c   3.91967700
_cell_angle_alpha   90.00000000
_cell_angle_beta   90.00000000
_cell_angle_gamma   90.00000000
_symmetry_Int_Tables_number   1
_chemical_formula_structural   La2HgPtRh
_chemical_formula_sum   'La4 Hg2 Pt2 Rh2'
_cell_volume   243.75622720
_cell_formula_units_Z   2
loop_
 _symmetry_equiv_pos_site_id
 _symmetry_equiv_pos_as_xyz
  1  'x, y, z'
loop_
 _atom_site_type_symbol
 _atom_site_label
 _atom_site_symmetry_multiplicity
 _atom_site_fract_x
 _atom_site_fract_y
 _atom_site_fract_z
 _atom_site_occupancy
  La  La0  1  0.826093  0.677352  0.500000  1
  La  La1  1  0.326093  0.822648  0.500000  1
  La  La2  1  0.669704  0.163961  0.500000  1
  La  La3  1  0.169704  0.336039  0.500000  1
  Hg  Hg4  1  0.997862  0.994784  0.000000  1
  Hg  Hg5  1  0.497862  0.505216  0.000000  1
  Pt  Pt6  1  0.870039  0.372137  0.000000  1
  Pt  Pt7  1  0.370039  0.127863  0.000000  1
  Rh  Rh8  1  0.636302  0.865080  0.000000  1
  Rh  Rh9  1  0.136302  0.634920  0.000000  1
