# generated using pymatgen
data_Yb10Cd2CuPd3
_symmetry_space_group_name_H-M   'P 1'
_cell_length_a   9.04765649
_cell_length_b   9.04765688
_cell_length_c   9.07561993
_cell_angle_alpha   128.86239525
_cell_angle_beta   128.86240006
_cell_angle_gamma   75.00213954
_symmetry_Int_Tables_number   1
_chemical_formula_structural   Yb10Cd2CuPd3
_chemical_formula_sum   'Yb10 Cd2 Cu1 Pd3'
_cell_volume   439.14873774
_cell_formula_units_Z   1
loop_
 _symmetry_equiv_pos_site_id
 _symmetry_equiv_pos_as_xyz
  1  'x, y, z'
loop_
 _atom_site_type_symbol
 _atom_site_label
 _atom_site_symmetry_multiplicity
 _atom_site_fract_x
 _atom_site_fract_y
 _atom_site_fract_z
 _atom_site_occupancy
  Yb  Yb0  1  0.500293  0.501715  0.002009  1
  Yb  Yb1  1  0.998285  0.999707  0.997991  1
  Yb  Yb2  1  0.534709  0.032668  0.834239  1
  Yb  Yb3  1  0.200471  0.698430  0.165761  1
  Yb  Yb4  1  0.032442  0.203338  0.500000  1
  Yb  Yb5  1  0.700723  0.534572  0.500000  1
  Yb  Yb6  1  0.467332  0.965291  0.165761  1
  Yb  Yb7  1  0.801570  0.299529  0.834239  1
  Yb  Yb8  1  0.965428  0.799277  0.500000  1
  Yb  Yb9  1  0.296662  0.467558  0.500000  1
  Cd  Cd10  1  0.250181  0.249819  0.000000  1
  Cd  Cd11  1  0.750181  0.749819  0.000000  1
  Cu  Cu12  1  0.378564  0.121436  0.500000  1
  Pd  Pd13  1  0.131272  0.631503  0.762775  1
  Pd  Pd14  1  0.868497  0.368728  0.237225  1
  Pd  Pd15  1  0.623392  0.876608  0.500000  1
