# generated using pymatgen
data_Tb8In3Pt
_symmetry_space_group_name_H-M   'P 1'
_cell_length_a   10.54535700
_cell_length_b   10.54535670
_cell_length_c   7.03365700
_cell_angle_alpha   90.00000000
_cell_angle_beta   90.00000000
_cell_angle_gamma   119.99999779
_symmetry_Int_Tables_number   1
_chemical_formula_structural   Tb8In3Pt
_chemical_formula_sum   'Tb16 In6 Pt2'
_cell_volume   677.38314902
_cell_formula_units_Z   2
loop_
 _symmetry_equiv_pos_site_id
 _symmetry_equiv_pos_as_xyz
  1  'x, y, z'
loop_
 _atom_site_type_symbol
 _atom_site_label
 _atom_site_symmetry_multiplicity
 _atom_site_fract_x
 _atom_site_fract_y
 _atom_site_fract_z
 _atom_site_occupancy
  Tb  Tb0  1  0.530977  0.061954  0.508463  1
  Tb  Tb1  1  0.938046  0.469023  0.508463  1
  Tb  Tb2  1  0.530977  0.469023  0.508463  1
  Tb  Tb3  1  0.469023  0.938046  0.008463  1
  Tb  Tb4  1  0.061954  0.530977  0.008463  1
  Tb  Tb5  1  0.469023  0.530977  0.008463  1
  Tb  Tb6  1  0.175096  0.350192  0.716047  1
  Tb  Tb7  1  0.649808  0.824904  0.716047  1
  Tb  Tb8  1  0.175096  0.824904  0.716047  1
  Tb  Tb9  1  0.824904  0.649808  0.216047  1
  Tb  Tb10  1  0.350192  0.175096  0.216047  1
  Tb  Tb11  1  0.824904  0.175096  0.216047  1
  Tb  Tb12  1  0.666667  0.333333  0.882131  1
  Tb  Tb13  1  0.333333  0.666667  0.382131  1
  Tb  Tb14  1  0.000000  0.000000  0.489953  1
  Tb  Tb15  1  0.000000  0.000000  0.989953  1
  In  In16  1  0.837120  0.674239  0.750397  1
  In  In17  1  0.325761  0.162880  0.750397  1
  In  In18  1  0.837120  0.162880  0.750397  1
  In  In19  1  0.162880  0.325761  0.250397  1
  In  In20  1  0.674239  0.837120  0.250397  1
  In  In21  1  0.162880  0.837120  0.250397  1
  Pt  Pt22  1  0.666667  0.333333  0.282220  1
  Pt  Pt23  1  0.333333  0.666667  0.782220  1
