# generated using pymatgen
data_Sc22Ir5OsRu2
_symmetry_space_group_name_H-M   'P 1'
_cell_length_a   9.49368357
_cell_length_b   9.49342355
_cell_length_c   9.49366897
_cell_angle_alpha   59.74266292
_cell_angle_beta   59.79777175
_cell_angle_gamma   59.74275363
_symmetry_Int_Tables_number   1
_chemical_formula_structural   Sc22Ir5OsRu2
_chemical_formula_sum   'Sc22 Ir5 Os1 Ru2'
_cell_volume   601.74680841
_cell_formula_units_Z   1
loop_
 _symmetry_equiv_pos_site_id
 _symmetry_equiv_pos_as_xyz
  1  'x, y, z'
loop_
 _atom_site_type_symbol
 _atom_site_label
 _atom_site_symmetry_multiplicity
 _atom_site_fract_x
 _atom_site_fract_y
 _atom_site_fract_z
 _atom_site_occupancy
  Sc  Sc0  1  0.804871  0.803005  0.195034  1
  Sc  Sc1  1  0.196763  0.803814  0.196764  1
  Sc  Sc2  1  0.804964  0.196995  0.195130  1
  Sc  Sc3  1  0.195129  0.196995  0.804966  1
  Sc  Sc4  1  0.803237  0.196186  0.803236  1
  Sc  Sc5  1  0.195036  0.803005  0.804870  1
  Sc  Sc6  1  0.615425  0.616982  0.149152  1
  Sc  Sc7  1  0.615930  0.149671  0.615931  1
  Sc  Sc8  1  0.149152  0.616982  0.615426  1
  Sc  Sc9  1  0.616229  0.617234  0.616230  1
  Sc  Sc10  1  0.384575  0.383018  0.850848  1
  Sc  Sc11  1  0.384070  0.850329  0.384069  1
  Sc  Sc12  1  0.850848  0.383018  0.384574  1
  Sc  Sc13  1  0.383771  0.382766  0.383770  1
  Sc  Sc14  1  0.841033  0.843938  0.469969  1
  Sc  Sc15  1  0.841290  0.472271  0.841290  1
  Sc  Sc16  1  0.469968  0.843938  0.841033  1
  Sc  Sc17  1  0.842610  0.842957  0.842609  1
  Sc  Sc18  1  0.158967  0.156062  0.530031  1
  Sc  Sc19  1  0.158710  0.527729  0.158710  1
  Sc  Sc20  1  0.530032  0.156062  0.158967  1
  Sc  Sc21  1  0.157390  0.157043  0.157391  1
  Ir  Ir22  1  0.000000  0.000000  0.500000  1
  Ir  Ir23  1  0.000000  0.500000  0.500000  1
  Ir  Ir24  1  0.500000  0.500000  0.000000  1
  Ir  Ir25  1  0.000000  0.500000  0.000000  1
  Ir  Ir26  1  0.500000  0.000000  0.000000  1
  Os  Os27  1  0.500000  0.500000  0.500000  1
  Ru  Ru28  1  0.000000  0.000000  0.000000  1
  Ru  Ru29  1  0.500000  0.000000  0.500000  1
