# generated using pymatgen
data_TbYTm2(ReC2)2
_symmetry_space_group_name_H-M   'P 1'
_cell_length_a   5.08812400
_cell_length_b   6.58076400
_cell_length_c   9.80369900
_cell_angle_alpha   90.00000000
_cell_angle_beta   90.00000000
_cell_angle_gamma   90.00000000
_symmetry_Int_Tables_number   1
_chemical_formula_structural   TbYTm2(ReC2)2
_chemical_formula_sum   'Tb2 Y2 Tm4 Re4 C8'
_cell_volume   328.26454018
_cell_formula_units_Z   2
loop_
 _symmetry_equiv_pos_site_id
 _symmetry_equiv_pos_as_xyz
  1  'x, y, z'
loop_
 _atom_site_type_symbol
 _atom_site_label
 _atom_site_symmetry_multiplicity
 _atom_site_fract_x
 _atom_site_fract_y
 _atom_site_fract_z
 _atom_site_occupancy
  Tb  Tb0  1  0.750000  0.534640  0.785535  1
  Tb  Tb1  1  0.250000  0.965360  0.285535  1
  Y  Y2  1  0.250000  0.465020  0.214509  1
  Y  Y3  1  0.750000  0.034980  0.714509  1
  Tm  Tm4  1  0.750000  0.674584  0.442364  1
  Tm  Tm5  1  0.250000  0.825416  0.942364  1
  Tm  Tm6  1  0.750000  0.175457  0.057795  1
  Tm  Tm7  1  0.250000  0.324543  0.557795  1
  Re  Re8  1  0.250000  0.279999  0.866788  1
  Re  Re9  1  0.250000  0.779519  0.633112  1
  Re  Re10  1  0.750000  0.220001  0.366788  1
  Re  Re11  1  0.750000  0.720481  0.133112  1
  C  C12  1  0.250000  0.671529  0.450457  1
  C  C13  1  0.250000  0.548364  0.759859  1
  C  C14  1  0.750000  0.451646  0.239962  1
  C  C15  1  0.750000  0.828471  0.950457  1
  C  C16  1  0.250000  0.048354  0.739962  1
  C  C17  1  0.250000  0.172630  0.049620  1
  C  C18  1  0.750000  0.327370  0.549620  1
  C  C19  1  0.750000  0.951636  0.259859  1
