# generated using pymatgen
data_Y12Fe4CuSn
_symmetry_space_group_name_H-M   'P 1'
_cell_length_a   8.39057861
_cell_length_b   8.39057935
_cell_length_c   8.39057900
_cell_angle_alpha   110.74331080
_cell_angle_beta   110.98413992
_cell_angle_gamma   106.72082857
_symmetry_Int_Tables_number   1
_chemical_formula_structural   Y12Fe4CuSn
_chemical_formula_sum   'Y12 Fe4 Cu1 Sn1'
_cell_volume   453.94705136
_cell_formula_units_Z   1
loop_
 _symmetry_equiv_pos_site_id
 _symmetry_equiv_pos_as_xyz
  1  'x, y, z'
loop_
 _atom_site_type_symbol
 _atom_site_label
 _atom_site_symmetry_multiplicity
 _atom_site_fract_x
 _atom_site_fract_y
 _atom_site_fract_z
 _atom_site_occupancy
  Y  Y0  1  0.418347  0.217719  0.200628  1
  Y  Y1  1  0.581653  0.782281  0.799372  1
  Y  Y2  1  0.017093  0.217719  0.799372  1
  Y  Y3  1  0.982907  0.782281  0.200628  1
  Y  Y4  1  0.186562  0.288039  0.474601  1
  Y  Y5  1  0.813438  0.711961  0.525399  1
  Y  Y6  1  0.186562  0.711961  0.898524  1
  Y  Y7  1  0.813438  0.288039  0.101476  1
  Y  Y8  1  0.312237  0.613715  0.301479  1
  Y  Y9  1  0.687763  0.386285  0.698521  1
  Y  Y10  1  0.312237  0.010760  0.698521  1
  Y  Y11  1  0.687763  0.989240  0.301479  1
  Fe  Fe12  1  0.385632  0.000000  0.385632  1
  Fe  Fe13  1  0.614368  0.000000  0.614368  1
  Fe  Fe14  1  0.106667  0.606667  0.500000  1
  Fe  Fe15  1  0.893333  0.393333  0.500000  1
  Cu  Cu16  1  0.000000  0.000000  0.000000  1
  Sn  Sn17  1  0.500000  0.500000  0.000000  1
