# generated using pymatgen
data_Nd8Al(Si4Pd)3
_symmetry_space_group_name_H-M   'P 1'
_cell_length_a   8.26162800
_cell_length_b   8.26162910
_cell_length_c   8.53199100
_cell_angle_alpha   90.00000000
_cell_angle_beta   90.00000000
_cell_angle_gamma   119.99999558
_symmetry_Int_Tables_number   1
_chemical_formula_structural   Nd8Al(Si4Pd)3
_chemical_formula_sum   'Nd8 Al1 Si12 Pd3'
_cell_volume   504.32717433
_cell_formula_units_Z   1
loop_
 _symmetry_equiv_pos_site_id
 _symmetry_equiv_pos_as_xyz
  1  'x, y, z'
loop_
 _atom_site_type_symbol
 _atom_site_label
 _atom_site_symmetry_multiplicity
 _atom_site_fract_x
 _atom_site_fract_y
 _atom_site_fract_z
 _atom_site_occupancy
  Nd  Nd0  1  0.499284  0.500716  0.748950  1
  Nd  Nd1  1  0.500810  0.499190  0.250689  1
  Nd  Nd2  1  0.001432  0.500716  0.748950  1
  Nd  Nd3  1  0.998380  0.499190  0.250689  1
  Nd  Nd4  1  0.499284  0.998568  0.748950  1
  Nd  Nd5  1  0.500810  0.001620  0.250689  1
  Nd  Nd6  1  0.000000  0.000000  0.749063  1
  Nd  Nd7  1  0.000000  0.000000  0.251419  1
  Al  Al8  1  0.666667  0.333333  0.995125  1
  Si  Si9  1  0.837621  0.162379  0.001304  1
  Si  Si10  1  0.168274  0.831726  0.999315  1
  Si  Si11  1  0.324759  0.162379  0.001304  1
  Si  Si12  1  0.165972  0.834028  0.499081  1
  Si  Si13  1  0.663452  0.831726  0.999315  1
  Si  Si14  1  0.834262  0.165738  0.500891  1
  Si  Si15  1  0.837621  0.675241  0.001304  1
  Si  Si16  1  0.668055  0.834028  0.499081  1
  Si  Si17  1  0.168274  0.336548  0.999315  1
  Si  Si18  1  0.331477  0.165738  0.500891  1
  Si  Si19  1  0.165972  0.331945  0.499081  1
  Si  Si20  1  0.834262  0.668523  0.500891  1
  Pd  Pd21  1  0.333333  0.666667  0.002984  1
  Pd  Pd22  1  0.333333  0.666667  0.498445  1
  Pd  Pd23  1  0.666667  0.333333  0.502275  1
