# generated using pymatgen
data_Tb8Nb11Si16Ag
_symmetry_space_group_name_H-M   'P 1'
_cell_length_a   7.08991926
_cell_length_b   7.08991930
_cell_length_c   13.06475980
_cell_angle_alpha   90.21706220
_cell_angle_beta   89.78293720
_cell_angle_gamma   89.73614819
_symmetry_Int_Tables_number   1
_chemical_formula_structural   Tb8Nb11Si16Ag
_chemical_formula_sum   'Tb8 Nb11 Si16 Ag1'
_cell_volume   656.70926616
_cell_formula_units_Z   1
loop_
 _symmetry_equiv_pos_site_id
 _symmetry_equiv_pos_as_xyz
  1  'x, y, z'
loop_
 _atom_site_type_symbol
 _atom_site_label
 _atom_site_symmetry_multiplicity
 _atom_site_fract_x
 _atom_site_fract_y
 _atom_site_fract_z
 _atom_site_occupancy
  Tb  Tb0  1  0.341966  0.002194  0.466933  1
  Tb  Tb1  1  0.496698  0.840956  0.716865  1
  Tb  Tb2  1  0.502712  0.158156  0.215922  1
  Tb  Tb3  1  0.840956  0.496698  0.283135  1
  Tb  Tb4  1  0.158156  0.502712  0.784078  1
  Tb  Tb5  1  0.655099  0.001064  0.967308  1
  Tb  Tb6  1  0.002194  0.341966  0.533067  1
  Tb  Tb7  1  0.001064  0.655099  0.032692  1
  Nb  Nb8  1  0.171094  0.826843  0.250032  1
  Nb  Nb9  1  0.826843  0.171094  0.749968  1
  Nb  Nb10  1  0.671706  0.671706  0.500000  1
  Nb  Nb11  1  0.151199  0.008198  0.876354  1
  Nb  Nb12  1  0.497215  0.652416  0.123096  1
  Nb  Nb13  1  0.505363  0.348954  0.623667  1
  Nb  Nb14  1  0.652416  0.497215  0.876904  1
  Nb  Nb15  1  0.348954  0.505363  0.376333  1
  Nb  Nb16  1  0.846990  0.991552  0.373344  1
  Nb  Nb17  1  0.008198  0.151199  0.123646  1
  Nb  Nb18  1  0.991552  0.846990  0.626656  1
  Si  Si19  1  0.201801  0.134982  0.684111  1
  Si  Si20  1  0.371816  0.717873  0.929680  1
  Si  Si21  1  0.633928  0.294534  0.432533  1
  Si  Si22  1  0.717873  0.371816  0.070320  1
  Si  Si23  1  0.294534  0.633928  0.567467  1
  Si  Si24  1  0.797039  0.866553  0.182013  1
  Si  Si25  1  0.134982  0.201801  0.315889  1
  Si  Si26  1  0.866553  0.797039  0.817987  1
  Si  Si27  1  0.287954  0.940325  0.064981  1
  Si  Si28  1  0.544973  0.792776  0.312408  1
  Si  Si29  1  0.455365  0.206897  0.809821  1
  Si  Si30  1  0.792776  0.544973  0.687592  1
  Si  Si31  1  0.206897  0.455365  0.190179  1
  Si  Si32  1  0.706840  0.046441  0.563364  1
  Si  Si33  1  0.940325  0.287954  0.935019  1
  Si  Si34  1  0.046441  0.706840  0.436636  1
  Ag  Ag35  1  0.329527  0.329527  0.000000  1
