# generated using pymatgen
data_PrTm(Si7Ir3)2
_symmetry_space_group_name_H-M   'P 1'
_cell_length_a   8.05726515
_cell_length_b   8.05726525
_cell_length_c   8.05726600
_cell_angle_alpha   56.50224009
_cell_angle_beta   56.50223964
_cell_angle_gamma   56.50224241
_symmetry_Int_Tables_number   1
_chemical_formula_structural   PrTm(Si7Ir3)2
_chemical_formula_sum   'Pr1 Tm1 Si14 Ir6'
_cell_volume   339.96706937
_cell_formula_units_Z   1
loop_
 _symmetry_equiv_pos_site_id
 _symmetry_equiv_pos_as_xyz
  1  'x, y, z'
loop_
 _atom_site_type_symbol
 _atom_site_label
 _atom_site_symmetry_multiplicity
 _atom_site_fract_x
 _atom_site_fract_y
 _atom_site_fract_z
 _atom_site_occupancy
  Pr  Pr0  1  0.500000  0.500000  0.500000  1
  Tm  Tm1  1  0.000000  0.000000  0.000000  1
  Si  Si2  1  0.749378  0.749378  0.749378  1
  Si  Si3  1  0.250622  0.250622  0.250622  1
  Si  Si4  1  0.852148  0.061874  0.673775  1
  Si  Si5  1  0.673775  0.852148  0.061874  1
  Si  Si6  1  0.061874  0.673775  0.852148  1
  Si  Si7  1  0.651385  0.828365  0.434170  1
  Si  Si8  1  0.434170  0.651385  0.828365  1
  Si  Si9  1  0.828365  0.434170  0.651385  1
  Si  Si10  1  0.171635  0.565830  0.348615  1
  Si  Si11  1  0.565830  0.348615  0.171635  1
  Si  Si12  1  0.348615  0.171635  0.565830  1
  Si  Si13  1  0.938126  0.326225  0.147852  1
  Si  Si14  1  0.326225  0.147852  0.938126  1
  Si  Si15  1  0.147852  0.938126  0.326225  1
  Ir  Ir16  1  0.067307  0.427994  0.753080  1
  Ir  Ir17  1  0.246920  0.932693  0.572006  1
  Ir  Ir18  1  0.572006  0.246920  0.932693  1
  Ir  Ir19  1  0.932693  0.572006  0.246920  1
  Ir  Ir20  1  0.427994  0.753080  0.067307  1
  Ir  Ir21  1  0.753080  0.067307  0.427994  1
