# generated using pymatgen
data_CsCeCl5
_symmetry_space_group_name_H-M   'P 1'
_cell_length_a   7.08094200
_cell_length_b   9.74054300
_cell_length_c   12.81092300
_cell_angle_alpha   90.00000000
_cell_angle_beta   90.00000000
_cell_angle_gamma   90.00000000
_symmetry_Int_Tables_number   1
_chemical_formula_structural   CsCeCl5
_chemical_formula_sum   'Cs4 Ce4 Cl20'
_cell_volume   883.59779996
_cell_formula_units_Z   4
loop_
 _symmetry_equiv_pos_site_id
 _symmetry_equiv_pos_as_xyz
  1  'x, y, z'
loop_
 _atom_site_type_symbol
 _atom_site_label
 _atom_site_symmetry_multiplicity
 _atom_site_fract_x
 _atom_site_fract_y
 _atom_site_fract_z
 _atom_site_occupancy
  Cs  Cs0  1  0.250000  0.621721  0.166472  1
  Cs  Cs1  1  0.750000  0.121720  0.333528  1
  Cs  Cs2  1  0.250000  0.878280  0.666472  1
  Cs  Cs3  1  0.750000  0.378280  0.833527  1
  Ce  Ce4  1  0.750000  0.848352  0.990287  1
  Ce  Ce5  1  0.250000  0.348353  0.509712  1
  Ce  Ce6  1  0.750000  0.651650  0.490287  1
  Ce  Ce7  1  0.250000  0.151647  0.009714  1
  Cl  Cl8  1  0.999800  0.313908  0.089625  1
  Cl  Cl9  1  0.500199  0.313908  0.089625  1
  Cl  Cl10  1  0.016298  0.964117  0.123599  1
  Cl  Cl11  1  0.483702  0.964117  0.123599  1
  Cl  Cl12  1  0.750000  0.677727  0.146748  1
  Cl  Cl13  1  0.250000  0.177726  0.353253  1
  Cl  Cl14  1  0.516298  0.464119  0.376401  1
  Cl  Cl15  1  0.983702  0.464119  0.376401  1
  Cl  Cl16  1  0.499800  0.813908  0.410375  1
  Cl  Cl17  1  0.000201  0.813908  0.410375  1
  Cl  Cl18  1  0.999800  0.186093  0.589624  1
  Cl  Cl19  1  0.500199  0.186093  0.589624  1
  Cl  Cl20  1  0.016298  0.535882  0.623598  1
  Cl  Cl21  1  0.483702  0.535882  0.623598  1
  Cl  Cl22  1  0.750000  0.822272  0.646747  1
  Cl  Cl23  1  0.250000  0.322274  0.853253  1
  Cl  Cl24  1  0.516298  0.035882  0.876400  1
  Cl  Cl25  1  0.983702  0.035882  0.876400  1
  Cl  Cl26  1  0.499800  0.686093  0.910376  1
  Cl  Cl27  1  0.000201  0.686093  0.910376  1
