# generated using pymatgen
data_ErZnCdCu3
_symmetry_space_group_name_H-M   'P 1'
_cell_length_a   5.14619919
_cell_length_b   5.11416715
_cell_length_c   5.14619800
_cell_angle_alpha   59.79258617
_cell_angle_beta   59.99999481
_cell_angle_gamma   59.79258417
_symmetry_Int_Tables_number   1
_chemical_formula_structural   ErZnCdCu3
_chemical_formula_sum   'Er1 Zn1 Cd1 Cu3'
_cell_volume   95.46942433
_cell_formula_units_Z   1
loop_
 _symmetry_equiv_pos_site_id
 _symmetry_equiv_pos_as_xyz
  1  'x, y, z'
loop_
 _atom_site_type_symbol
 _atom_site_label
 _atom_site_symmetry_multiplicity
 _atom_site_fract_x
 _atom_site_fract_y
 _atom_site_fract_z
 _atom_site_occupancy
  Er  Er0  1  0.751528  0.745416  0.751528  1
  Zn  Zn1  1  0.373358  0.879924  0.373358  1
  Cd  Cd2  1  0.000886  0.997341  0.000886  1
  Cu  Cu3  1  0.374189  0.375772  0.374189  1
  Cu  Cu4  1  0.875849  0.375772  0.374189  1
  Cu  Cu5  1  0.374189  0.375772  0.875849  1
