# generated using pymatgen
data_Li2La8Zn6IrRh7
_symmetry_space_group_name_H-M   'P 1'
_cell_length_a   4.08502400
_cell_length_b   7.40753128
_cell_length_c   16.65634485
_cell_angle_alpha   90.05467717
_cell_angle_beta   90.00000000
_cell_angle_gamma   90.00000000
_symmetry_Int_Tables_number   1
_chemical_formula_structural   Li2La8Zn6IrRh7
_chemical_formula_sum   'Li2 La8 Zn6 Ir1 Rh7'
_cell_volume   504.01981717
_cell_formula_units_Z   1
loop_
 _symmetry_equiv_pos_site_id
 _symmetry_equiv_pos_as_xyz
  1  'x, y, z'
loop_
 _atom_site_type_symbol
 _atom_site_label
 _atom_site_symmetry_multiplicity
 _atom_site_fract_x
 _atom_site_fract_y
 _atom_site_fract_z
 _atom_site_occupancy
  Li  Li0  1  0.250000  0.134423  0.149294  1
  Li  Li1  1  0.250000  0.992982  0.440378  1
  La  La2  1  0.750000  0.330299  0.440307  1
  La  La3  1  0.250000  0.044973  0.716633  1
  La  La4  1  0.250000  0.545621  0.782531  1
  La  La5  1  0.250000  0.671707  0.559339  1
  La  La6  1  0.750000  0.829294  0.059240  1
  La  La7  1  0.250000  0.171071  0.939287  1
  La  La8  1  0.750000  0.456458  0.217719  1
  La  La9  1  0.750000  0.954703  0.285195  1
  Zn  Zn10  1  0.750000  0.871177  0.851193  1
  Zn  Zn11  1  0.750000  0.002729  0.557581  1
  Zn  Zn12  1  0.250000  0.495727  0.060598  1
  Zn  Zn13  1  0.750000  0.370795  0.648627  1
  Zn  Zn14  1  0.750000  0.503311  0.939618  1
  Zn  Zn15  1  0.250000  0.630428  0.351326  1
  Ir  Ir16  1  0.250000  0.252475  0.315485  1
  Rh  Rh17  1  0.750000  0.254131  0.813611  1
  Rh  Rh18  1  0.250000  0.740119  0.935084  1
  Rh  Rh19  1  0.250000  0.244184  0.565859  1
  Rh  Rh20  1  0.250000  0.739701  0.187914  1
  Rh  Rh21  1  0.750000  0.751641  0.435776  1
  Rh  Rh22  1  0.750000  0.259001  0.061563  1
  Rh  Rh23  1  0.750000  0.753049  0.685844  1
