# generated using pymatgen
data_Co4Si3Mo5W
_symmetry_space_group_name_H-M   'P 1'
_cell_length_a   9.06172195
_cell_length_b   9.03317776
_cell_length_c   9.04640988
_cell_angle_alpha   30.66622428
_cell_angle_beta   30.08934660
_cell_angle_gamma   30.63650574
_symmetry_Int_Tables_number   1
_chemical_formula_structural   Co4Si3Mo5W
_chemical_formula_sum   'Co4 Si3 Mo5 W1'
_cell_volume   168.68101351
_cell_formula_units_Z   1
loop_
 _symmetry_equiv_pos_site_id
 _symmetry_equiv_pos_as_xyz
  1  'x, y, z'
loop_
 _atom_site_type_symbol
 _atom_site_label
 _atom_site_symmetry_multiplicity
 _atom_site_fract_x
 _atom_site_fract_y
 _atom_site_fract_z
 _atom_site_occupancy
  Co  Co0  1  0.592051  0.096993  0.081852  1
  Co  Co1  1  0.916560  0.903155  0.409264  1
  Co  Co2  1  0.916127  0.402528  0.906490  1
  Co  Co3  1  0.093792  0.598519  0.082745  1
  Si  Si4  1  0.095317  0.104093  0.570222  1
  Si  Si5  1  0.426543  0.897823  0.905976  1
  Si  Si6  1  0.971924  0.999988  0.027924  1
  Mo  Mo7  1  0.636678  0.656440  0.656343  1
  Mo  Mo8  1  0.454259  0.449953  0.453327  1
  Mo  Mo9  1  0.546101  0.549791  0.546294  1
  Mo  Mo10  1  0.167595  0.168233  0.162407  1
  Mo  Mo11  1  0.343854  0.343245  0.363700  1
  W  W12  1  0.839202  0.829239  0.833454  1
