# generated using pymatgen
data_Sc12Mn(ZnI8)2
_symmetry_space_group_name_H-M   'P 1'
_cell_length_a   9.29381367
_cell_length_b   11.96040110
_cell_length_c   12.65153436
_cell_angle_alpha   116.98750547
_cell_angle_beta   101.34765890
_cell_angle_gamma   100.83180940
_symmetry_Int_Tables_number   1
_chemical_formula_structural   Sc12Mn(ZnI8)2
_chemical_formula_sum   'Sc12 Mn1 Zn2 I16'
_cell_volume   1165.18821260
_cell_formula_units_Z   1
loop_
 _symmetry_equiv_pos_site_id
 _symmetry_equiv_pos_as_xyz
  1  'x, y, z'
loop_
 _atom_site_type_symbol
 _atom_site_label
 _atom_site_symmetry_multiplicity
 _atom_site_fract_x
 _atom_site_fract_y
 _atom_site_fract_z
 _atom_site_occupancy
  Sc  Sc0  1  0.089048  0.263830  0.355135  1
  Sc  Sc1  1  0.898929  0.722180  0.636215  1
  Sc  Sc2  1  0.773213  0.535074  0.336168  1
  Sc  Sc3  1  0.222609  0.462650  0.673988  1
  Sc  Sc4  1  0.280682  0.736463  0.643964  1
  Sc  Sc5  1  0.718235  0.277395  0.364351  1
  Sc  Sc6  1  0.147263  0.537326  0.325497  1
  Sc  Sc7  1  0.843960  0.464761  0.664387  1
  Sc  Sc8  1  0.423115  0.364345  0.282566  1
  Sc  Sc9  1  0.604571  0.635767  0.717623  1
  Sc  Sc10  1  0.473686  0.314115  0.520542  1
  Sc  Sc11  1  0.553580  0.686102  0.479670  1
  Mn  Mn12  1  0.659453  0.499888  0.500298  1
  Zn  Zn13  1  0.996791  0.499826  0.500043  1
  Zn  Zn14  1  0.349660  0.500181  0.499769  1
  I  I15  1  0.395457  0.735708  0.876943  1
  I  I16  1  0.607384  0.260546  0.116549  1
  I  I17  1  0.181454  0.958132  0.778190  1
  I  I18  1  0.810974  0.042035  0.221764  1
  I  I19  1  0.327193  0.098358  0.253829  1
  I  I20  1  0.651989  0.901690  0.746034  1
  I  I21  1  0.551847  0.437393  0.797096  1
  I  I22  1  0.427234  0.563005  0.203242  1
  I  I23  1  0.309115  0.823552  0.463775  1
  I  I24  1  0.694802  0.171053  0.537155  1
  I  I25  1  0.171025  0.176517  0.534816  1
  I  I26  1  0.836223  0.828703  0.464356  1
  I  I27  1  0.923580  0.575366  0.164816  1
  I  I28  1  0.068598  0.424119  0.834921  1
  I  I29  1  0.927420  0.738959  0.883964  1
  I  I30  1  0.080914  0.264961  0.122333  1
