# generated using pymatgen
data_Sm8Er3Pa9Rh16
_symmetry_space_group_name_H-M   'P 1'
_cell_length_a   7.43724400
_cell_length_b   7.51751056
_cell_length_c   14.51683000
_cell_angle_alpha   90.00000000
_cell_angle_beta   90.00000000
_cell_angle_gamma   89.65591887
_symmetry_Int_Tables_number   1
_chemical_formula_structural   Sm8Er3Pa9Rh16
_chemical_formula_sum   'Sm8 Er3 Pa9 Rh16'
_cell_volume   811.61494659
_cell_formula_units_Z   1
loop_
 _symmetry_equiv_pos_site_id
 _symmetry_equiv_pos_as_xyz
  1  'x, y, z'
loop_
 _atom_site_type_symbol
 _atom_site_label
 _atom_site_symmetry_multiplicity
 _atom_site_fract_x
 _atom_site_fract_y
 _atom_site_fract_z
 _atom_site_occupancy
  Sm  Sm0  1  0.501436  0.675506  0.593746  1
  Sm  Sm1  1  0.004349  0.825807  0.909157  1
  Sm  Sm2  1  0.495434  0.324324  0.095285  1
  Sm  Sm3  1  0.995518  0.178909  0.404563  1
  Sm  Sm4  1  0.495434  0.324324  0.404715  1
  Sm  Sm5  1  0.995518  0.178909  0.095437  1
  Sm  Sm6  1  0.501436  0.675506  0.906254  1
  Sm  Sm7  1  0.004349  0.825807  0.590843  1
  Er  Er8  1  0.312178  0.972899  0.750000  1
  Er  Er9  1  0.187857  0.479574  0.250000  1
  Er  Er10  1  0.688517  0.022644  0.250000  1
  Pa  Pa11  1  0.654769  0.156522  0.619945  1
  Pa  Pa12  1  0.162937  0.335731  0.879622  1
  Pa  Pa13  1  0.344777  0.842664  0.121110  1
  Pa  Pa14  1  0.841796  0.658210  0.378449  1
  Pa  Pa15  1  0.344777  0.842664  0.378890  1
  Pa  Pa16  1  0.841796  0.658210  0.121551  1
  Pa  Pa17  1  0.654769  0.156522  0.880055  1
  Pa  Pa18  1  0.162937  0.335731  0.620378  1
  Pa  Pa19  1  0.811281  0.529258  0.750000  1
  Rh  Rh20  1  0.681033  0.951135  0.459444  1
  Rh  Rh21  1  0.177983  0.549647  0.041911  1
  Rh  Rh22  1  0.323834  0.050985  0.961231  1
  Rh  Rh23  1  0.826148  0.450422  0.543546  1
  Rh  Rh24  1  0.323834  0.050985  0.538769  1
  Rh  Rh25  1  0.826148  0.450422  0.956454  1
  Rh  Rh26  1  0.681033  0.951135  0.040556  1
  Rh  Rh27  1  0.177983  0.549647  0.458089  1
  Rh  Rh28  1  0.457980  0.357078  0.750000  1
  Rh  Rh29  1  0.942954  0.158111  0.750000  1
  Rh  Rh30  1  0.544587  0.652992  0.250000  1
  Rh  Rh31  1  0.045482  0.848507  0.250000  1
  Rh  Rh32  1  0.698737  0.864940  0.750000  1
  Rh  Rh33  1  0.165179  0.613316  0.750000  1
  Rh  Rh34  1  0.312582  0.112631  0.250000  1
  Rh  Rh35  1  0.812630  0.388331  0.250000  1
