# generated using pymatgen
data_Er3TmAl18(Ir2Pt)2
_symmetry_space_group_name_H-M   'P 1'
_cell_length_a   7.56341654
_cell_length_b   7.56595847
_cell_length_c   9.40789029
_cell_angle_alpha   89.94742655
_cell_angle_beta   89.92396890
_cell_angle_gamma   119.64130389
_symmetry_Int_Tables_number   1
_chemical_formula_structural   Er3TmAl18(Ir2Pt)2
_chemical_formula_sum   'Er3 Tm1 Al18 Ir4 Pt2'
_cell_volume   467.90983458
_cell_formula_units_Z   1
loop_
 _symmetry_equiv_pos_site_id
 _symmetry_equiv_pos_as_xyz
  1  'x, y, z'
loop_
 _atom_site_type_symbol
 _atom_site_label
 _atom_site_symmetry_multiplicity
 _atom_site_fract_x
 _atom_site_fract_y
 _atom_site_fract_z
 _atom_site_occupancy
  Er  Er0  1  0.995364  0.670748  0.251238  1
  Er  Er1  1  0.004772  0.329263  0.748759  1
  Er  Er2  1  0.670645  0.995251  0.251233  1
  Tm  Tm3  1  0.329308  0.004778  0.748629  1
  Al  Al4  1  0.127215  0.127274  0.250573  1
  Al  Al5  1  0.872998  0.872775  0.749405  1
  Al  Al6  1  0.000478  0.331535  0.077971  1
  Al  Al7  1  0.999806  0.668833  0.922104  1
  Al  Al8  1  0.000716  0.665400  0.575083  1
  Al  Al9  1  0.334931  0.999617  0.425055  1
  Al  Al10  1  0.999663  0.335001  0.424863  1
  Al  Al11  1  0.664746  0.000341  0.575121  1
  Al  Al12  1  0.668205  0.999492  0.922081  1
  Al  Al13  1  0.331486  0.000428  0.077818  1
  Al  Al14  1  0.332141  0.331871  0.551635  1
  Al  Al15  1  0.667834  0.667834  0.448209  1
  Al  Al16  1  0.669198  0.669194  0.058995  1
  Al  Al17  1  0.330782  0.330532  0.941130  1
  Al  Al18  1  0.340420  0.547398  0.252942  1
  Al  Al19  1  0.659348  0.452315  0.747019  1
  Al  Al20  1  0.547426  0.340545  0.252935  1
  Al  Al21  1  0.452443  0.659590  0.747026  1
  Ir  Ir22  1  0.327988  0.672140  0.499980  1
  Ir  Ir23  1  0.671979  0.327830  0.499983  1
  Ir  Ir24  1  0.000067  0.999995  0.999998  1
  Ir  Ir25  1  0.000052  0.000012  0.499995  1
  Pt  Pt26  1  0.672357  0.327609  0.000099  1
  Pt  Pt27  1  0.327631  0.672401  0.000117  1
