# generated using pymatgen
data_Pu2O5
_symmetry_space_group_name_H-M   'P 1'
_cell_length_a   5.70781512
_cell_length_b   5.70781571
_cell_length_c   8.10152845
_cell_angle_alpha   69.41711024
_cell_angle_beta   69.41711265
_cell_angle_gamma   70.91041357
_symmetry_Int_Tables_number   1
_chemical_formula_structural   Pu2O5
_chemical_formula_sum   'Pu4 O10'
_cell_volume   224.99975043
_cell_formula_units_Z   2
loop_
 _symmetry_equiv_pos_site_id
 _symmetry_equiv_pos_as_xyz
  1  'x, y, z'
loop_
 _atom_site_type_symbol
 _atom_site_label
 _atom_site_symmetry_multiplicity
 _atom_site_fract_x
 _atom_site_fract_y
 _atom_site_fract_z
 _atom_site_occupancy
  Pu  Pu0  1  0.960612  0.039388  0.250000  1
  Pu  Pu1  1  0.500000  0.500000  0.000000  1
  Pu  Pu2  1  0.500000  0.500000  0.500000  1
  Pu  Pu3  1  0.039388  0.960612  0.750000  1
  O  O4  1  0.402393  0.597607  0.750000  1
  O  O5  1  0.256653  0.190232  0.641382  1
  O  O6  1  0.743347  0.809768  0.358618  1
  O  O7  1  0.190232  0.256653  0.141382  1
  O  O8  1  0.597607  0.402393  0.250000  1
  O  O9  1  0.809768  0.743347  0.858618  1
  O  O10  1  0.212437  0.804878  0.033470  1
  O  O11  1  0.804878  0.212437  0.533470  1
  O  O12  1  0.787563  0.195122  0.966530  1
  O  O13  1  0.195122  0.787563  0.466530  1
