# generated using pymatgen
data_Tb3AlIn2GePt2
_symmetry_space_group_name_H-M   'P 1'
_cell_length_a   7.43114756
_cell_length_b   7.40973903
_cell_length_c   4.13561000
_cell_angle_alpha   90.00000000
_cell_angle_beta   90.00000000
_cell_angle_gamma   120.86530602
_symmetry_Int_Tables_number   1
_chemical_formula_structural   Tb3AlIn2GePt2
_chemical_formula_sum   'Tb3 Al1 In2 Ge1 Pt2'
_cell_volume   195.46805595
_cell_formula_units_Z   1
loop_
 _symmetry_equiv_pos_site_id
 _symmetry_equiv_pos_as_xyz
  1  'x, y, z'
loop_
 _atom_site_type_symbol
 _atom_site_label
 _atom_site_symmetry_multiplicity
 _atom_site_fract_x
 _atom_site_fract_y
 _atom_site_fract_z
 _atom_site_occupancy
  Tb  Tb0  1  0.408299  0.995621  0.000000  1
  Tb  Tb1  1  0.007723  0.412681  0.000000  1
  Tb  Tb2  1  0.580338  0.586874  0.000000  1
  Al  Al3  1  0.235675  0.251015  0.500000  1
  In  In4  1  0.011016  0.755897  0.500000  1
  In  In5  1  0.747099  0.992033  0.500000  1
  Ge  Ge6  1  0.653111  0.330825  0.500000  1
  Pt  Pt7  1  0.027766  0.027515  0.000000  1
  Pt  Pt8  1  0.328971  0.647540  0.500000  1
