# generated using pymatgen
data_Dy2TmZnCd3Ga2
_symmetry_space_group_name_H-M   'P 1'
_cell_length_a   7.30980779
_cell_length_b   7.30980785
_cell_length_c   4.27876800
_cell_angle_alpha   90.00000000
_cell_angle_beta   90.00000000
_cell_angle_gamma   119.91978762
_symmetry_Int_Tables_number   1
_chemical_formula_structural   Dy2TmZnCd3Ga2
_chemical_formula_sum   'Dy2 Tm1 Zn1 Cd3 Ga2'
_cell_volume   198.15806407
_cell_formula_units_Z   1
loop_
 _symmetry_equiv_pos_site_id
 _symmetry_equiv_pos_as_xyz
  1  'x, y, z'
loop_
 _atom_site_type_symbol
 _atom_site_label
 _atom_site_symmetry_multiplicity
 _atom_site_fract_x
 _atom_site_fract_y
 _atom_site_fract_z
 _atom_site_occupancy
  Dy  Dy0  1  0.578059  0.999875  0.500000  1
  Dy  Dy1  1  0.999875  0.578059  0.500000  1
  Tm  Tm2  1  0.421852  0.421852  0.500000  1
  Zn  Zn3  1  0.000367  0.000367  0.500000  1
  Cd  Cd4  1  0.752104  0.752104  0.000000  1
  Cd  Cd5  1  0.247668  0.000279  0.000000  1
  Cd  Cd6  1  0.000279  0.247668  0.000000  1
  Ga  Ga7  1  0.666240  0.333557  0.000000  1
  Ga  Ga8  1  0.333557  0.666240  0.000000  1
