# generated using pymatgen
data_Y4Hf3Zr(NiP)12
_symmetry_space_group_name_H-M   'P 1'
_cell_length_a   3.74413300
_cell_length_b   10.18210013
_cell_length_c   12.33052615
_cell_angle_alpha   89.98162150
_cell_angle_beta   90.00000000
_cell_angle_gamma   90.00000000
_symmetry_Int_Tables_number   1
_chemical_formula_structural   Y4Hf3Zr(NiP)12
_chemical_formula_sum   'Y4 Hf3 Zr1 Ni12 P12'
_cell_volume   470.07831520
_cell_formula_units_Z   1
loop_
 _symmetry_equiv_pos_site_id
 _symmetry_equiv_pos_as_xyz
  1  'x, y, z'
loop_
 _atom_site_type_symbol
 _atom_site_label
 _atom_site_symmetry_multiplicity
 _atom_site_fract_x
 _atom_site_fract_y
 _atom_site_fract_z
 _atom_site_occupancy
  Y  Y0  1  0.250000  0.071201  0.207680  1
  Y  Y1  1  0.750000  0.928428  0.792218  1
  Y  Y2  1  0.750000  0.571341  0.292931  1
  Y  Y3  1  0.250000  0.429058  0.706603  1
  Hf  Hf4  1  0.250000  0.160009  0.497518  1
  Hf  Hf5  1  0.750000  0.840097  0.502427  1
  Hf  Hf6  1  0.750000  0.659567  0.002423  1
  Zr  Zr7  1  0.250000  0.340175  0.997270  1
  Ni  Ni8  1  0.250000  0.728752  0.664171  1
  Ni  Ni9  1  0.750000  0.271505  0.336449  1
  Ni  Ni10  1  0.750000  0.227972  0.835028  1
  Ni  Ni11  1  0.250000  0.772068  0.164310  1
  Ni  Ni12  1  0.250000  0.366214  0.219225  1
  Ni  Ni13  1  0.750000  0.635031  0.781770  1
  Ni  Ni14  1  0.750000  0.865687  0.282396  1
  Ni  Ni15  1  0.250000  0.133878  0.717720  1
  Ni  Ni16  1  0.250000  0.599529  0.483890  1
  Ni  Ni17  1  0.750000  0.400973  0.516242  1
  Ni  Ni18  1  0.750000  0.098399  0.015959  1
  Ni  Ni19  1  0.250000  0.900479  0.983636  1
  P  P20  1  0.250000  0.944952  0.621096  1
  P  P21  1  0.750000  0.055038  0.378865  1
  P  P22  1  0.750000  0.445536  0.876485  1
  P  P23  1  0.250000  0.555805  0.122195  1
  P  P24  1  0.250000  0.393835  0.403208  1
  P  P25  1  0.750000  0.606760  0.597109  1
  P  P26  1  0.750000  0.893221  0.097504  1
  P  P27  1  0.250000  0.105101  0.902084  1
  P  P28  1  0.250000  0.770892  0.355385  1
  P  P29  1  0.750000  0.229048  0.644526  1
  P  P30  1  0.750000  0.270357  0.146355  1
  P  P31  1  0.250000  0.729091  0.855325  1
