# generated using pymatgen
data_CaNd(NiAs)4
_symmetry_space_group_name_H-M   'P 1'
_cell_length_a   4.16979800
_cell_length_b   4.16979800
_cell_length_c   9.61429100
_cell_angle_alpha   90.00000000
_cell_angle_beta   90.00000000
_cell_angle_gamma   90.00000000
_symmetry_Int_Tables_number   1
_chemical_formula_structural   CaNd(NiAs)4
_chemical_formula_sum   'Ca1 Nd1 Ni4 As4'
_cell_volume   167.16574816
_cell_formula_units_Z   1
loop_
 _symmetry_equiv_pos_site_id
 _symmetry_equiv_pos_as_xyz
  1  'x, y, z'
loop_
 _atom_site_type_symbol
 _atom_site_label
 _atom_site_symmetry_multiplicity
 _atom_site_fract_x
 _atom_site_fract_y
 _atom_site_fract_z
 _atom_site_occupancy
  Ca  Ca0  1  0.500000  0.000000  0.754602  1
  Nd  Nd1  1  0.000000  0.500000  0.246773  1
  Ni  Ni2  1  0.500000  0.500000  0.999750  1
  Ni  Ni3  1  0.000000  0.000000  0.999750  1
  Ni  Ni4  1  0.500000  0.000000  0.376942  1
  Ni  Ni5  1  0.000000  0.500000  0.621117  1
  As  As6  1  0.500000  0.000000  0.129815  1
  As  As7  1  0.000000  0.500000  0.868304  1
  As  As8  1  0.500000  0.500000  0.501473  1
  As  As9  1  0.000000  0.000000  0.501473  1
