# generated using pymatgen
data_Ti5GaSnBi
_symmetry_space_group_name_H-M   'P 1'
_cell_length_a   5.20880355
_cell_length_b   7.96156834
_cell_length_c   7.95667658
_cell_angle_alpha   83.83545937
_cell_angle_beta   70.90723656
_cell_angle_gamma   70.89712408
_symmetry_Int_Tables_number   1
_chemical_formula_structural   Ti5GaSnBi
_chemical_formula_sum   'Ti10 Ga2 Sn2 Bi2'
_cell_volume   294.64317151
_cell_formula_units_Z   2
loop_
 _symmetry_equiv_pos_site_id
 _symmetry_equiv_pos_as_xyz
  1  'x, y, z'
loop_
 _atom_site_type_symbol
 _atom_site_label
 _atom_site_symmetry_multiplicity
 _atom_site_fract_x
 _atom_site_fract_y
 _atom_site_fract_z
 _atom_site_occupancy
  Ti  Ti0  1  0.714204  0.862173  0.709245  1
  Ti  Ti1  1  0.285796  0.137827  0.290755  1
  Ti  Ti2  1  0.784496  0.285620  0.145417  1
  Ti  Ti3  1  0.215504  0.714380  0.854583  1
  Ti  Ti4  1  0.569942  0.714171  0.145406  1
  Ti  Ti5  1  0.430058  0.285829  0.854594  1
  Ti  Ti6  1  0.076352  0.137817  0.708921  1
  Ti  Ti7  1  0.923648  0.862183  0.291079  1
  Ti  Ti8  1  0.744708  0.500174  0.499888  1
  Ti  Ti9  1  0.255292  0.499826  0.500112  1
  Ga  Ga10  1  0.250035  0.000036  0.999988  1
  Ga  Ga11  1  0.749965  0.999964  0.000012  1
  Sn  Sn12  1  0.335296  0.829655  0.499838  1
  Sn  Sn13  1  0.664704  0.170345  0.500162  1
  Bi  Bi14  1  0.165540  0.500101  0.168688  1
  Bi  Bi15  1  0.834460  0.499899  0.831312  1
