# generated using pymatgen
data_DyHo(Er3Bi2)6
_symmetry_space_group_name_H-M   'P 1'
_cell_length_a   8.20385800
_cell_length_b   9.48046400
_cell_length_c   11.95813900
_cell_angle_alpha   90.00000000
_cell_angle_beta   89.99719714
_cell_angle_gamma   90.00000000
_symmetry_Int_Tables_number   1
_chemical_formula_structural   DyHo(Er3Bi2)6
_chemical_formula_sum   'Dy1 Ho1 Er18 Bi12'
_cell_volume   930.06076754
_cell_formula_units_Z   1
loop_
 _symmetry_equiv_pos_site_id
 _symmetry_equiv_pos_as_xyz
  1  'x, y, z'
loop_
 _atom_site_type_symbol
 _atom_site_label
 _atom_site_symmetry_multiplicity
 _atom_site_fract_x
 _atom_site_fract_y
 _atom_site_fract_z
 _atom_site_occupancy
  Dy  Dy0  1  0.685731  0.750000  0.781834  1
  Ho  Ho1  1  0.185731  0.750000  0.718085  1
  Er  Er2  1  0.353705  0.750000  0.216569  1
  Er  Er3  1  0.853674  0.750000  0.283347  1
  Er  Er4  1  0.646311  0.250000  0.783453  1
  Er  Er5  1  0.146335  0.250000  0.716645  1
  Er  Er6  1  0.692106  0.564630  0.059138  1
  Er  Er7  1  0.192120  0.935364  0.440841  1
  Er  Er8  1  0.307934  0.064613  0.940958  1
  Er  Er9  1  0.807918  0.435376  0.559083  1
  Er  Er10  1  0.307934  0.435387  0.940958  1
  Er  Er11  1  0.807918  0.064624  0.559083  1
  Er  Er12  1  0.692106  0.935370  0.059138  1
  Er  Er13  1  0.192120  0.564636  0.440841  1
  Er  Er14  1  0.476628  0.250000  0.488931  1
  Er  Er15  1  0.976653  0.250000  0.011065  1
  Er  Er16  1  0.523360  0.750000  0.510898  1
  Er  Er17  1  0.023426  0.750000  0.989127  1
  Er  Er18  1  0.314121  0.250000  0.217823  1
  Er  Er19  1  0.814111  0.250000  0.282082  1
  Bi  Bi20  1  0.405025  0.750000  0.957859  1
  Bi  Bi21  1  0.905229  0.750000  0.542206  1
  Bi  Bi22  1  0.594750  0.250000  0.042519  1
  Bi  Bi23  1  0.094742  0.250000  0.457492  1
  Bi  Bi24  1  0.566149  0.996232  0.325717  1
  Bi  Bi25  1  0.066135  0.503763  0.174309  1
  Bi  Bi26  1  0.433853  0.495886  0.674163  1
  Bi  Bi27  1  0.934018  0.004148  0.825823  1
  Bi  Bi28  1  0.433853  0.004114  0.674163  1
  Bi  Bi29  1  0.934018  0.495852  0.825823  1
  Bi  Bi30  1  0.566149  0.503768  0.325717  1
  Bi  Bi31  1  0.066135  0.996237  0.174309  1
