# generated using pymatgen
data_YbPrAl20(IrOs)2
_symmetry_space_group_name_H-M   'P 1'
_cell_length_a   6.89807521
_cell_length_b   6.89807374
_cell_length_c   9.18208562
_cell_angle_alpha   90.09206521
_cell_angle_beta   89.90793067
_cell_angle_gamma   96.76299574
_symmetry_Int_Tables_number   1
_chemical_formula_structural   YbPrAl20(IrOs)2
_chemical_formula_sum   'Yb1 Pr1 Al20 Ir2 Os2'
_cell_volume   433.87398363
_cell_formula_units_Z   1
loop_
 _symmetry_equiv_pos_site_id
 _symmetry_equiv_pos_as_xyz
  1  'x, y, z'
loop_
 _atom_site_type_symbol
 _atom_site_label
 _atom_site_symmetry_multiplicity
 _atom_site_fract_x
 _atom_site_fract_y
 _atom_site_fract_z
 _atom_site_occupancy
  Yb  Yb0  1  0.372378  0.627622  0.250698  1
  Pr  Pr1  1  0.625631  0.374369  0.750374  1
  Al  Al2  1  0.278524  0.015856  0.748135  1
  Al  Al3  1  0.019157  0.280549  0.251534  1
  Al  Al4  1  0.719451  0.980843  0.251534  1
  Al  Al5  1  0.984144  0.721476  0.748135  1
  Al  Al6  1  0.879147  0.120853  0.949474  1
  Al  Al7  1  0.122352  0.877648  0.050815  1
  Al  Al8  1  0.877643  0.122357  0.547383  1
  Al  Al9  1  0.124277  0.875723  0.451972  1
  Al  Al10  1  0.645297  0.912483  0.748884  1
  Al  Al11  1  0.917471  0.647665  0.251015  1
  Al  Al12  1  0.352335  0.082529  0.251015  1
  Al  Al13  1  0.087517  0.354703  0.748884  1
  Al  Al14  1  0.341391  0.658609  0.895988  1
  Al  Al15  1  0.658792  0.341208  0.106019  1
  Al  Al16  1  0.342638  0.657362  0.599801  1
  Al  Al17  1  0.658605  0.341395  0.397763  1
  Al  Al18  1  0.723598  0.725767  0.002272  1
  Al  Al19  1  0.722234  0.724314  0.498180  1
  Al  Al20  1  0.274233  0.276402  0.002272  1
  Al  Al21  1  0.275686  0.277766  0.498180  1
  Ir  Ir22  1  0.499274  0.000635  0.000233  1
  Ir  Ir23  1  0.999365  0.500726  0.000233  1
  Os  Os24  1  0.499721  0.000860  0.499604  1
  Os  Os25  1  0.999140  0.500279  0.499604  1
