# generated using pymatgen
data_Tb7HoTi11Si16W
_symmetry_space_group_name_H-M   'P 1'
_cell_length_a   7.04433271
_cell_length_b   7.04323907
_cell_length_c   12.95308972
_cell_angle_alpha   90.04289628
_cell_angle_beta   89.97626160
_cell_angle_gamma   90.08556685
_symmetry_Int_Tables_number   1
_chemical_formula_structural   Tb7HoTi11Si16W
_chemical_formula_sum   'Tb7 Ho1 Ti11 Si16 W1'
_cell_volume   642.66555004
_cell_formula_units_Z   1
loop_
 _symmetry_equiv_pos_site_id
 _symmetry_equiv_pos_as_xyz
  1  'x, y, z'
loop_
 _atom_site_type_symbol
 _atom_site_label
 _atom_site_symmetry_multiplicity
 _atom_site_fract_x
 _atom_site_fract_y
 _atom_site_fract_z
 _atom_site_occupancy
  Tb  Tb0  1  0.340293  0.003383  0.467059  1
  Tb  Tb1  1  0.496963  0.839976  0.717525  1
  Tb  Tb2  1  0.501330  0.159555  0.215453  1
  Tb  Tb3  1  0.840042  0.497013  0.282423  1
  Tb  Tb4  1  0.159436  0.501361  0.784550  1
  Tb  Tb5  1  0.658510  0.998092  0.967178  1
  Tb  Tb6  1  0.003343  0.340265  0.532961  1
  Ho  Ho7  1  0.999105  0.657926  0.032922  1
  Ti  Ti8  1  0.174131  0.827139  0.249373  1
  Ti  Ti9  1  0.827266  0.174165  0.750607  1
  Ti  Ti10  1  0.673072  0.673041  0.500010  1
  Ti  Ti11  1  0.153905  0.009652  0.877035  1
  Ti  Ti12  1  0.491371  0.651446  0.124248  1
  Ti  Ti13  1  0.507641  0.348470  0.626422  1
  Ti  Ti14  1  0.651508  0.491626  0.875808  1
  Ti  Ti15  1  0.348379  0.507640  0.373526  1
  Ti  Ti16  1  0.848045  0.991825  0.375777  1
  Ti  Ti17  1  0.009510  0.153920  0.123031  1
  Ti  Ti18  1  0.991966  0.848042  0.624210  1
  Si  Si19  1  0.201879  0.129846  0.685254  1
  Si  Si20  1  0.369517  0.700031  0.935126  1
  Si  Si21  1  0.629888  0.297560  0.434891  1
  Si  Si22  1  0.700820  0.370982  0.065102  1
  Si  Si23  1  0.297513  0.629861  0.565078  1
  Si  Si24  1  0.798517  0.869794  0.184283  1
  Si  Si25  1  0.129774  0.201941  0.314746  1
  Si  Si26  1  0.870529  0.797663  0.815496  1
  Si  Si27  1  0.289402  0.953610  0.064567  1
  Si  Si28  1  0.546806  0.790763  0.314658  1
  Si  Si29  1  0.452292  0.209394  0.815813  1
  Si  Si30  1  0.790819  0.546660  0.685357  1
  Si  Si31  1  0.208840  0.452866  0.183887  1
  Si  Si32  1  0.709728  0.047494  0.565033  1
  Si  Si33  1  0.954380  0.290851  0.935642  1
  Si  Si34  1  0.047505  0.709700  0.434957  1
  W  W35  1  0.325977  0.326444  0.999993  1
