# generated using pymatgen
data_Y4Er8Co4BiIr
_symmetry_space_group_name_H-M   'P 1'
_cell_length_a   8.30526765
_cell_length_b   8.30526751
_cell_length_c   8.30526763
_cell_angle_alpha   110.99833012
_cell_angle_beta   110.61620774
_cell_angle_gamma   106.83119097
_symmetry_Int_Tables_number   1
_chemical_formula_structural   Y4Er8Co4BiIr
_chemical_formula_sum   'Y4 Er8 Co4 Bi1 Ir1'
_cell_volume   440.29710396
_cell_formula_units_Z   1
loop_
 _symmetry_equiv_pos_site_id
 _symmetry_equiv_pos_as_xyz
  1  'x, y, z'
loop_
 _atom_site_type_symbol
 _atom_site_label
 _atom_site_symmetry_multiplicity
 _atom_site_fract_x
 _atom_site_fract_y
 _atom_site_fract_z
 _atom_site_occupancy
  Y  Y0  1  0.815996  0.712582  0.528579  1
  Y  Y1  1  0.184004  0.287418  0.471421  1
  Y  Y2  1  0.184004  0.712582  0.896588  1
  Y  Y3  1  0.815996  0.287418  0.103412  1
  Er  Er4  1  0.688095  0.378075  0.689980  1
  Er  Er5  1  0.311905  0.621925  0.310020  1
  Er  Er6  1  0.688095  0.998117  0.310020  1
  Er  Er7  1  0.311905  0.001883  0.689980  1
  Er  Er8  1  0.593080  0.790185  0.802895  1
  Er  Er9  1  0.406920  0.209815  0.197105  1
  Er  Er10  1  0.987290  0.790185  0.197105  1
  Er  Er11  1  0.012710  0.209815  0.802895  1
  Co  Co12  1  0.622180  0.000000  0.622180  1
  Co  Co13  1  0.377820  0.000000  0.377820  1
  Co  Co14  1  0.111800  0.611800  0.500000  1
  Co  Co15  1  0.888200  0.388200  0.500000  1
  Bi  Bi16  1  0.500000  0.500000  0.000000  1
  Ir  Ir17  1  0.000000  0.000000  0.000000  1
