# generated using pymatgen
data_CrFe4Si2P2W3
_symmetry_space_group_name_H-M   'P 1'
_cell_length_a   3.59893900
_cell_length_b   5.99722626
_cell_length_c   6.80224492
_cell_angle_alpha   89.96390205
_cell_angle_beta   90.00000000
_cell_angle_gamma   90.00000000
_symmetry_Int_Tables_number   1
_chemical_formula_structural   CrFe4Si2P2W3
_chemical_formula_sum   'Cr1 Fe4 Si2 P2 W3'
_cell_volume   146.81725451
_cell_formula_units_Z   1
loop_
 _symmetry_equiv_pos_site_id
 _symmetry_equiv_pos_as_xyz
  1  'x, y, z'
loop_
 _atom_site_type_symbol
 _atom_site_label
 _atom_site_symmetry_multiplicity
 _atom_site_fract_x
 _atom_site_fract_y
 _atom_site_fract_z
 _atom_site_occupancy
  Cr  Cr0  1  0.250000  0.525138  0.678658  1
  Fe  Fe1  1  0.250000  0.645920  0.052331  1
  Fe  Fe2  1  0.750000  0.356921  0.929238  1
  Fe  Fe3  1  0.250000  0.146496  0.447533  1
  Fe  Fe4  1  0.750000  0.860505  0.569608  1
  Si  Si5  1  0.250000  0.274860  0.123002  1
  Si  Si6  1  0.250000  0.771116  0.384223  1
  P  P7  1  0.750000  0.717148  0.870053  1
  P  P8  1  0.750000  0.236314  0.621253  1
  W  W9  1  0.750000  0.970727  0.171629  1
  W  W10  1  0.250000  0.018620  0.824513  1
  W  W11  1  0.750000  0.476235  0.327959  1
