# generated using pymatgen
data_HfSc5(Be2Rh5)2
_symmetry_space_group_name_H-M   'P 1'
_cell_length_a   9.57060300
_cell_length_b   9.57060300
_cell_length_c   3.21487600
_cell_angle_alpha   90.00000000
_cell_angle_beta   90.00000000
_cell_angle_gamma   90.00000000
_symmetry_Int_Tables_number   1
_chemical_formula_structural   HfSc5(Be2Rh5)2
_chemical_formula_sum   'Hf1 Sc5 Be4 Rh10'
_cell_volume   294.47120238
_cell_formula_units_Z   1
loop_
 _symmetry_equiv_pos_site_id
 _symmetry_equiv_pos_as_xyz
  1  'x, y, z'
loop_
 _atom_site_type_symbol
 _atom_site_label
 _atom_site_symmetry_multiplicity
 _atom_site_fract_x
 _atom_site_fract_y
 _atom_site_fract_z
 _atom_site_occupancy
  Hf  Hf0  1  0.000000  0.000000  0.000000  1
  Sc  Sc1  1  0.823866  0.326707  0.000000  1
  Sc  Sc2  1  0.326707  0.176134  0.000000  1
  Sc  Sc3  1  0.673293  0.823866  0.000000  1
  Sc  Sc4  1  0.176134  0.673293  0.000000  1
  Sc  Sc5  1  0.500000  0.500000  0.000000  1
  Be  Be6  1  0.620978  0.123267  0.000000  1
  Be  Be7  1  0.123267  0.379022  0.000000  1
  Be  Be8  1  0.876733  0.620978  0.000000  1
  Be  Be9  1  0.379022  0.876733  0.000000  1
  Rh  Rh10  1  0.070925  0.215320  0.500000  1
  Rh  Rh11  1  0.215320  0.929075  0.500000  1
  Rh  Rh12  1  0.784680  0.070925  0.500000  1
  Rh  Rh13  1  0.929075  0.784680  0.500000  1
  Rh  Rh14  1  0.427885  0.715433  0.500000  1
  Rh  Rh15  1  0.572115  0.284567  0.500000  1
  Rh  Rh16  1  0.715433  0.572115  0.500000  1
  Rh  Rh17  1  0.284567  0.427885  0.500000  1
  Rh  Rh18  1  0.500000  0.000000  0.500000  1
  Rh  Rh19  1  0.000000  0.500000  0.500000  1
