# generated using pymatgen
data_Li2Ho16In2IrPt3
_symmetry_space_group_name_H-M   'P 1'
_cell_length_a   9.62804144
_cell_length_b   9.62804230
_cell_length_c   9.64739457
_cell_angle_alpha   60.22415195
_cell_angle_beta   60.22415181
_cell_angle_gamma   59.66331143
_symmetry_Int_Tables_number   1
_chemical_formula_structural   Li2Ho16In2IrPt3
_chemical_formula_sum   'Li2 Ho16 In2 Ir1 Pt3'
_cell_volume   632.86266732
_cell_formula_units_Z   1
loop_
 _symmetry_equiv_pos_site_id
 _symmetry_equiv_pos_as_xyz
  1  'x, y, z'
loop_
 _atom_site_type_symbol
 _atom_site_label
 _atom_site_symmetry_multiplicity
 _atom_site_fract_x
 _atom_site_fract_y
 _atom_site_fract_z
 _atom_site_occupancy
  Li  Li0  1  0.427018  0.427018  0.424717  1
  Li  Li1  1  0.427114  0.427114  0.721679  1
  Ho  Ho2  1  0.436309  0.436309  0.062887  1
  Ho  Ho3  1  0.645526  0.645526  0.062174  1
  Ho  Ho4  1  0.185481  0.811427  0.192711  1
  Ho  Ho5  1  0.065116  0.437732  0.061381  1
  Ho  Ho6  1  0.189130  0.810742  0.807397  1
  Ho  Ho7  1  0.064842  0.438155  0.432821  1
  Ho  Ho8  1  0.811427  0.185481  0.192711  1
  Ho  Ho9  1  0.652167  0.652167  0.646299  1
  Ho  Ho10  1  0.810742  0.189130  0.807397  1
  Ho  Ho11  1  0.183830  0.183830  0.816826  1
  Ho  Ho12  1  0.047982  0.652194  0.646833  1
  Ho  Ho13  1  0.437732  0.065116  0.061381  1
  Ho  Ho14  1  0.063613  0.063613  0.436062  1
  Ho  Ho15  1  0.652194  0.047982  0.646833  1
  Ho  Ho16  1  0.808043  0.808043  0.194913  1
  Ho  Ho17  1  0.438155  0.064842  0.432821  1
  In  In18  1  0.414506  0.745094  0.420809  1
  In  In19  1  0.745094  0.414506  0.420809  1
  Ir  Ir20  1  0.856279  0.856279  0.426903  1
  Pt  Pt21  1  0.428507  0.854667  0.861578  1
  Pt  Pt22  1  0.854530  0.854530  0.860479  1
  Pt  Pt23  1  0.854667  0.428507  0.861578  1
