# generated using pymatgen
data_Pr4GaSi3
_symmetry_space_group_name_H-M   'P 1'
_cell_length_a   4.03953400
_cell_length_b   4.49853300
_cell_length_c   11.16531100
_cell_angle_alpha   90.00000000
_cell_angle_beta   90.00000000
_cell_angle_gamma   90.00000000
_symmetry_Int_Tables_number   1
_chemical_formula_structural   Pr4GaSi3
_chemical_formula_sum   'Pr4 Ga1 Si3'
_cell_volume   202.89577473
_cell_formula_units_Z   1
loop_
 _symmetry_equiv_pos_site_id
 _symmetry_equiv_pos_as_xyz
  1  'x, y, z'
loop_
 _atom_site_type_symbol
 _atom_site_label
 _atom_site_symmetry_multiplicity
 _atom_site_fract_x
 _atom_site_fract_y
 _atom_site_fract_z
 _atom_site_occupancy
  Pr  Pr0  1  0.000000  0.000000  0.362213  1
  Pr  Pr1  1  0.000000  0.500000  0.856070  1
  Pr  Pr2  1  0.500000  0.500000  0.143229  1
  Pr  Pr3  1  0.500000  0.000000  0.639521  1
  Ga  Ga4  1  0.000000  0.000000  0.069413  1
  Si  Si5  1  0.000000  0.500000  0.570544  1
  Si  Si6  1  0.500000  0.500000  0.431561  1
  Si  Si7  1  0.500000  0.000000  0.927449  1
