# generated using pymatgen
data_YbTa8NbS16
_symmetry_space_group_name_H-M   'P 1'
_cell_length_a   6.72838000
_cell_length_b   6.72838049
_cell_length_c   13.18028500
_cell_angle_alpha   90.00000000
_cell_angle_beta   90.00000000
_cell_angle_gamma   120.00000740
_symmetry_Int_Tables_number   1
_chemical_formula_structural   YbTa8NbS16
_chemical_formula_sum   'Yb1 Ta8 Nb1 S16'
_cell_volume   516.74520435
_cell_formula_units_Z   1
loop_
 _symmetry_equiv_pos_site_id
 _symmetry_equiv_pos_as_xyz
  1  'x, y, z'
loop_
 _atom_site_type_symbol
 _atom_site_label
 _atom_site_symmetry_multiplicity
 _atom_site_fract_x
 _atom_site_fract_y
 _atom_site_fract_z
 _atom_site_occupancy
  Yb  Yb0  1  0.000000  0.000000  0.000000  1
  Ta  Ta1  1  0.000000  0.000000  0.263134  1
  Ta  Ta2  1  0.000000  0.000000  0.736866  1
  Ta  Ta3  1  0.504842  0.009684  0.264181  1
  Ta  Ta4  1  0.495158  0.990316  0.735819  1
  Ta  Ta5  1  0.990316  0.495158  0.264181  1
  Ta  Ta6  1  0.009684  0.504842  0.735819  1
  Ta  Ta7  1  0.504842  0.495158  0.264181  1
  Ta  Ta8  1  0.495158  0.504842  0.735819  1
  Nb  Nb9  1  0.000000  0.000000  0.500000  1
  S  S10  1  0.333333  0.666667  0.615826  1
  S  S11  1  0.666667  0.333333  0.384174  1
  S  S12  1  0.666667  0.333333  0.142885  1
  S  S13  1  0.333333  0.666667  0.857115  1
  S  S14  1  0.168957  0.337913  0.146376  1
  S  S15  1  0.831043  0.662087  0.853624  1
  S  S16  1  0.662087  0.831043  0.146376  1
  S  S17  1  0.832372  0.664746  0.618524  1
  S  S18  1  0.337913  0.168957  0.853624  1
  S  S19  1  0.167628  0.335254  0.381476  1
  S  S20  1  0.168957  0.831043  0.146376  1
  S  S21  1  0.335254  0.167628  0.618524  1
  S  S22  1  0.831043  0.168957  0.853624  1
  S  S23  1  0.664746  0.832372  0.381476  1
  S  S24  1  0.832372  0.167628  0.618524  1
  S  S25  1  0.167628  0.832372  0.381476  1
