# generated using pymatgen
data_Pa(Zn2Rh)2
_symmetry_space_group_name_H-M   'P 1'
_cell_length_a   7.92827300
_cell_length_b   7.92827300
_cell_length_c   3.80664400
_cell_angle_alpha   90.00000000
_cell_angle_beta   90.00000000
_cell_angle_gamma   90.00000000
_symmetry_Int_Tables_number   1
_chemical_formula_structural   Pa(Zn2Rh)2
_chemical_formula_sum   'Pa2 Zn8 Rh4'
_cell_volume   239.27617381
_cell_formula_units_Z   2
loop_
 _symmetry_equiv_pos_site_id
 _symmetry_equiv_pos_as_xyz
  1  'x, y, z'
loop_
 _atom_site_type_symbol
 _atom_site_label
 _atom_site_symmetry_multiplicity
 _atom_site_fract_x
 _atom_site_fract_y
 _atom_site_fract_z
 _atom_site_occupancy
  Pa  Pa0  1  0.500000  0.500000  0.500000  1
  Pa  Pa1  1  0.000000  0.000000  0.000000  1
  Zn  Zn2  1  0.355145  0.103265  0.500000  1
  Zn  Zn3  1  0.644855  0.896735  0.500000  1
  Zn  Zn4  1  0.855145  0.396735  0.000000  1
  Zn  Zn5  1  0.144855  0.603265  0.000000  1
  Zn  Zn6  1  0.103265  0.355145  0.500000  1
  Zn  Zn7  1  0.896735  0.644855  0.500000  1
  Zn  Zn8  1  0.396735  0.855145  0.000000  1
  Zn  Zn9  1  0.603265  0.144855  0.000000  1
  Rh  Rh10  1  0.831131  0.168869  0.500000  1
  Rh  Rh11  1  0.168869  0.831131  0.500000  1
  Rh  Rh12  1  0.331131  0.331131  0.000000  1
  Rh  Rh13  1  0.668869  0.668869  0.000000  1
