# generated using pymatgen
data_NdY15Cd4TcPd3
_symmetry_space_group_name_H-M   'P 1'
_cell_length_a   9.79632636
_cell_length_b   9.79632678
_cell_length_c   9.79632558
_cell_angle_alpha   59.32914835
_cell_angle_beta   59.32914708
_cell_angle_gamma   59.32914913
_symmetry_Int_Tables_number   1
_chemical_formula_structural   NdY15Cd4TcPd3
_chemical_formula_sum   'Nd1 Y15 Cd4 Tc1 Pd3'
_cell_volume   654.62216198
_cell_formula_units_Z   1
loop_
 _symmetry_equiv_pos_site_id
 _symmetry_equiv_pos_as_xyz
  1  'x, y, z'
loop_
 _atom_site_type_symbol
 _atom_site_label
 _atom_site_symmetry_multiplicity
 _atom_site_fract_x
 _atom_site_fract_y
 _atom_site_fract_z
 _atom_site_occupancy
  Nd  Nd0  1  0.353391  0.353391  0.353391  1
  Y  Y1  1  0.351422  0.351422  0.943601  1
  Y  Y2  1  0.351422  0.943601  0.351422  1
  Y  Y3  1  0.943601  0.351422  0.351422  1
  Y  Y4  1  0.818267  0.187040  0.187040  1
  Y  Y5  1  0.188588  0.810055  0.810055  1
  Y  Y6  1  0.187040  0.818267  0.187040  1
  Y  Y7  1  0.810055  0.188588  0.810055  1
  Y  Y8  1  0.187040  0.187040  0.818267  1
  Y  Y9  1  0.810055  0.810055  0.188588  1
  Y  Y10  1  0.934156  0.566095  0.566095  1
  Y  Y11  1  0.557538  0.937411  0.937411  1
  Y  Y12  1  0.566095  0.934156  0.566095  1
  Y  Y13  1  0.937411  0.557538  0.937411  1
  Y  Y14  1  0.566095  0.566095  0.934156  1
  Y  Y15  1  0.937411  0.937411  0.557538  1
  Cd  Cd16  1  0.579923  0.579923  0.579923  1
  Cd  Cd17  1  0.582788  0.582788  0.253313  1
  Cd  Cd18  1  0.582788  0.253313  0.582788  1
  Cd  Cd19  1  0.253313  0.582788  0.582788  1
  Tc  Tc20  1  0.145008  0.145008  0.145008  1
  Pd  Pd21  1  0.142882  0.142882  0.570828  1
  Pd  Pd22  1  0.142882  0.570828  0.142882  1
  Pd  Pd23  1  0.570828  0.142882  0.142882  1
