# generated using pymatgen
data_Er2Pa(AlCo)3
_symmetry_space_group_name_H-M   'P 1'
_cell_length_a   7.19503700
_cell_length_b   7.00436335
_cell_length_c   3.61622300
_cell_angle_alpha   90.00000000
_cell_angle_beta   90.00000000
_cell_angle_gamma   120.90465681
_symmetry_Int_Tables_number   1
_chemical_formula_structural   Er2Pa(AlCo)3
_chemical_formula_sum   'Er2 Pa1 Al3 Co3'
_cell_volume   156.37089252
_cell_formula_units_Z   1
loop_
 _symmetry_equiv_pos_site_id
 _symmetry_equiv_pos_as_xyz
  1  'x, y, z'
loop_
 _atom_site_type_symbol
 _atom_site_label
 _atom_site_symmetry_multiplicity
 _atom_site_fract_x
 _atom_site_fract_y
 _atom_site_fract_z
 _atom_site_occupancy
  Er  Er0  1  0.998426  0.414951  0.500000  1
  Er  Er1  1  0.583475  0.585049  0.500000  1
  Pa  Pa2  1  0.430902  0.000000  0.500000  1
  Al  Al3  1  0.774134  0.000000  0.000000  1
  Al  Al4  1  0.999457  0.758278  0.000000  1
  Al  Al5  1  0.241179  0.241722  0.000000  1
  Co  Co6  1  0.336949  0.708915  0.000000  1
  Co  Co7  1  0.628035  0.291085  0.000000  1
  Co  Co8  1  0.007444  0.000000  0.500000  1
