# generated using pymatgen
data_Hf14Sc4Re5P2W3
_symmetry_space_group_name_H-M   'P 1'
_cell_length_a   8.65926786
_cell_length_b   8.65926850
_cell_length_c   8.55792400
_cell_angle_alpha   90.00000000
_cell_angle_beta   90.00000000
_cell_angle_gamma   120.07474349
_symmetry_Int_Tables_number   1
_chemical_formula_structural   Hf14Sc4Re5P2W3
_chemical_formula_sum   'Hf14 Sc4 Re5 P2 W3'
_cell_volume   555.30789599
_cell_formula_units_Z   1
loop_
 _symmetry_equiv_pos_site_id
 _symmetry_equiv_pos_as_xyz
  1  'x, y, z'
loop_
 _atom_site_type_symbol
 _atom_site_label
 _atom_site_symmetry_multiplicity
 _atom_site_fract_x
 _atom_site_fract_y
 _atom_site_fract_z
 _atom_site_occupancy
  Hf  Hf0  1  0.196293  0.803707  0.452412  1
  Hf  Hf1  1  0.196405  0.392899  0.452716  1
  Hf  Hf2  1  0.607101  0.803595  0.452716  1
  Hf  Hf3  1  0.803524  0.196476  0.549081  1
  Hf  Hf4  1  0.803594  0.607784  0.548369  1
  Hf  Hf5  1  0.392216  0.196406  0.548369  1
  Hf  Hf6  1  0.803524  0.196476  0.950919  1
  Hf  Hf7  1  0.803594  0.607784  0.951631  1
  Hf  Hf8  1  0.392216  0.196406  0.951631  1
  Hf  Hf9  1  0.196293  0.803707  0.047588  1
  Hf  Hf10  1  0.196405  0.392899  0.047284  1
  Hf  Hf11  1  0.607101  0.803595  0.047284  1
  Hf  Hf12  1  0.538994  0.078875  0.250000  1
  Hf  Hf13  1  0.921125  0.461006  0.250000  1
  Sc  Sc14  1  0.541162  0.458838  0.250000  1
  Sc  Sc15  1  0.458977  0.541023  0.750000  1
  Sc  Sc16  1  0.459002  0.918255  0.750000  1
  Sc  Sc17  1  0.081745  0.540998  0.750000  1
  Re  Re18  1  0.889925  0.779316  0.250000  1
  Re  Re19  1  0.220684  0.110075  0.250000  1
  Re  Re20  1  0.110268  0.889732  0.750000  1
  Re  Re21  1  0.110831  0.221151  0.750000  1
  Re  Re22  1  0.778849  0.889169  0.750000  1
  P  P23  1  0.331668  0.668332  0.250000  1
  P  P24  1  0.666554  0.333446  0.750000  1
  W  W25  1  0.890879  0.109121  0.250000  1
  W  W26  1  0.000537  0.999463  0.502208  1
  W  W27  1  0.000537  0.999463  0.997792  1
