# generated using pymatgen
data_Tb2ThU(Al3Ir)6
_symmetry_space_group_name_H-M   'P 1'
_cell_length_a   7.61375400
_cell_length_b   7.60842997
_cell_length_c   9.46148400
_cell_angle_alpha   90.00000000
_cell_angle_beta   90.00000000
_cell_angle_gamma   119.55043221
_symmetry_Int_Tables_number   1
_chemical_formula_structural   Tb2ThU(Al3Ir)6
_chemical_formula_sum   'Tb2 Th1 U1 Al18 Ir6'
_cell_volume   476.79690054
_cell_formula_units_Z   1
loop_
 _symmetry_equiv_pos_site_id
 _symmetry_equiv_pos_as_xyz
  1  'x, y, z'
loop_
 _atom_site_type_symbol
 _atom_site_label
 _atom_site_symmetry_multiplicity
 _atom_site_fract_x
 _atom_site_fract_y
 _atom_site_fract_z
 _atom_site_occupancy
  Tb  Tb0  1  0.671033  0.995259  0.250000  1
  Tb  Tb1  1  0.329138  0.005549  0.750000  1
  Th  Th2  1  0.995014  0.670304  0.250000  1
  U  U3  1  0.003478  0.328560  0.750000  1
  Al  Al4  1  0.130093  0.131496  0.250000  1
  Al  Al5  1  0.869883  0.872387  0.750000  1
  Al  Al6  1  0.001323  0.331117  0.071643  1
  Al  Al7  1  0.999393  0.665683  0.919424  1
  Al  Al8  1  0.999393  0.665683  0.580576  1
  Al  Al9  1  0.339244  0.004802  0.427191  1
  Al  Al10  1  0.001323  0.331117  0.428357  1
  Al  Al11  1  0.663061  0.998153  0.575890  1
  Al  Al12  1  0.663061  0.998153  0.924110  1
  Al  Al13  1  0.339244  0.004802  0.072809  1
  Al  Al14  1  0.334651  0.333469  0.554390  1
  Al  Al15  1  0.663274  0.666610  0.450032  1
  Al  Al16  1  0.663274  0.666610  0.049968  1
  Al  Al17  1  0.334651  0.333469  0.945610  1
  Al  Al18  1  0.342407  0.548110  0.250000  1
  Al  Al19  1  0.659834  0.451429  0.750000  1
  Al  Al20  1  0.544282  0.337173  0.250000  1
  Al  Al21  1  0.451037  0.658943  0.750000  1
  Ir  Ir22  1  0.673646  0.329517  0.999375  1
  Ir  Ir23  1  0.326682  0.671216  0.999486  1
  Ir  Ir24  1  0.326682  0.671216  0.500514  1
  Ir  Ir25  1  0.673646  0.329517  0.500625  1
  Ir  Ir26  1  0.000627  0.999828  0.998939  1
  Ir  Ir27  1  0.000627  0.999828  0.501061  1
