# generated using pymatgen
data_Er4CrTc3B16
_symmetry_space_group_name_H-M   'P 1'
_cell_length_a   3.55243300
_cell_length_b   5.95030371
_cell_length_c   11.49537201
_cell_angle_alpha   89.88412662
_cell_angle_beta   90.00000000
_cell_angle_gamma   90.00000000
_symmetry_Int_Tables_number   1
_chemical_formula_structural   Er4CrTc3B16
_chemical_formula_sum   'Er4 Cr1 Tc3 B16'
_cell_volume   242.98931200
_cell_formula_units_Z   1
loop_
 _symmetry_equiv_pos_site_id
 _symmetry_equiv_pos_as_xyz
  1  'x, y, z'
loop_
 _atom_site_type_symbol
 _atom_site_label
 _atom_site_symmetry_multiplicity
 _atom_site_fract_x
 _atom_site_fract_y
 _atom_site_fract_z
 _atom_site_occupancy
  Er  Er0  1  0.000000  0.626289  0.350731  1
  Er  Er1  1  0.000000  0.374883  0.649494  1
  Er  Er2  1  0.000000  0.128137  0.150167  1
  Er  Er3  1  0.000000  0.871891  0.848313  1
  Cr  Cr4  1  0.000000  0.871375  0.583196  1
  Tc  Tc5  1  0.000000  0.634301  0.088070  1
  Tc  Tc6  1  0.000000  0.365640  0.911922  1
  Tc  Tc7  1  0.000000  0.127948  0.416724  1
  B  B8  1  0.500000  0.787701  0.186069  1
  B  B9  1  0.500000  0.211750  0.813715  1
  B  B10  1  0.500000  0.286881  0.315890  1
  B  B11  1  0.500000  0.714712  0.683582  1
  B  B12  1  0.500000  0.865064  0.031109  1
  B  B13  1  0.500000  0.135050  0.968462  1
  B  B14  1  0.500000  0.364590  0.469171  1
  B  B15  1  0.500000  0.636532  0.532466  1
  B  B16  1  0.500000  0.885182  0.453505  1
  B  B17  1  0.500000  0.112710  0.548440  1
  B  B18  1  0.500000  0.386517  0.047385  1
  B  B19  1  0.500000  0.613965  0.952091  1
  B  B20  1  0.500000  0.977453  0.308040  1
  B  B21  1  0.500000  0.020684  0.691945  1
  B  B22  1  0.500000  0.476027  0.193380  1
  B  B23  1  0.500000  0.524719  0.806135  1
