# generated using pymatgen
data_CaY3Al16Si2(IrRh)3
_symmetry_space_group_name_H-M   'P 1'
_cell_length_a   7.52468800
_cell_length_b   7.52468897
_cell_length_c   9.37605300
_cell_angle_alpha   89.99795935
_cell_angle_beta   89.99795935
_cell_angle_gamma   119.45867017
_symmetry_Int_Tables_number   1
_chemical_formula_structural   CaY3Al16Si2(IrRh)3
_chemical_formula_sum   'Ca1 Y3 Al16 Si2 Ir3 Rh3'
_cell_volume   462.24366967
_cell_formula_units_Z   1
loop_
 _symmetry_equiv_pos_site_id
 _symmetry_equiv_pos_as_xyz
  1  'x, y, z'
loop_
 _atom_site_type_symbol
 _atom_site_label
 _atom_site_symmetry_multiplicity
 _atom_site_fract_x
 _atom_site_fract_y
 _atom_site_fract_z
 _atom_site_occupancy
  Ca  Ca0  1  0.994803  0.675181  0.250256  1
  Y  Y1  1  0.005156  0.326392  0.749687  1
  Y  Y2  1  0.674545  0.994664  0.250370  1
  Y  Y3  1  0.323465  0.002503  0.749694  1
  Al  Al4  1  0.001155  0.337141  0.076283  1
  Al  Al5  1  0.997506  0.663776  0.925609  1
  Al  Al6  1  0.997487  0.663764  0.574278  1
  Al  Al7  1  0.334884  0.001110  0.423365  1
  Al  Al8  1  0.001658  0.337505  0.423569  1
  Al  Al9  1  0.664000  0.998260  0.577041  1
  Al  Al10  1  0.664220  0.998836  0.923086  1
  Al  Al11  1  0.334760  0.001077  0.076683  1
  Al  Al12  1  0.335421  0.335152  0.554203  1
  Al  Al13  1  0.665337  0.664205  0.446579  1
  Al  Al14  1  0.665297  0.664080  0.053629  1
  Al  Al15  1  0.335627  0.335089  0.945521  1
  Al  Al16  1  0.337388  0.548429  0.249890  1
  Al  Al17  1  0.665200  0.450823  0.750893  1
  Al  Al18  1  0.549072  0.333905  0.249247  1
  Al  Al19  1  0.453118  0.664249  0.750101  1
  Si  Si20  1  0.128333  0.130641  0.250106  1
  Si  Si21  1  0.872573  0.871961  0.749972  1
  Ir  Ir22  1  0.328950  0.672127  0.999123  1
  Ir  Ir23  1  0.328926  0.672027  0.500869  1
  Ir  Ir24  1  0.670631  0.326970  0.500823  1
  Rh  Rh25  1  0.670368  0.326688  0.999127  1
  Rh  Rh26  1  0.000098  0.001702  0.998745  1
  Rh  Rh27  1  0.000023  0.001744  0.501249  1
