# generated using pymatgen
data_Dy4Pt3Pb2Au
_symmetry_space_group_name_H-M   'P 1'
_cell_length_a   8.00013081
_cell_length_b   8.00012986
_cell_length_c   3.64222200
_cell_angle_alpha   90.00000000
_cell_angle_beta   90.00000000
_cell_angle_gamma   89.47448256
_symmetry_Int_Tables_number   1
_chemical_formula_structural   Dy4Pt3Pb2Au
_chemical_formula_sum   'Dy4 Pt3 Pb2 Au1'
_cell_volume   233.09999824
_cell_formula_units_Z   1
loop_
 _symmetry_equiv_pos_site_id
 _symmetry_equiv_pos_as_xyz
  1  'x, y, z'
loop_
 _atom_site_type_symbol
 _atom_site_label
 _atom_site_symmetry_multiplicity
 _atom_site_fract_x
 _atom_site_fract_y
 _atom_site_fract_z
 _atom_site_occupancy
  Dy  Dy0  1  0.657506  0.157506  0.500000  1
  Dy  Dy1  1  0.182698  0.336571  0.500000  1
  Dy  Dy2  1  0.836571  0.682698  0.500000  1
  Dy  Dy3  1  0.328739  0.828739  0.500000  1
  Pt  Pt4  1  0.370373  0.124139  0.000000  1
  Pt  Pt5  1  0.124632  0.624632  0.000000  1
  Pt  Pt6  1  0.624139  0.870373  0.000000  1
  Pb  Pb7  1  0.002151  0.000431  0.000000  1
  Pb  Pb8  1  0.500431  0.502151  0.000000  1
  Au  Au9  1  0.872761  0.372761  0.000000  1
