# generated using pymatgen
data_Ho2NpCo2Si7
_symmetry_space_group_name_H-M   'P 1'
_cell_length_a   12.37631760
_cell_length_b   12.37631787
_cell_length_c   3.99249200
_cell_angle_alpha   90.00000000
_cell_angle_beta   90.00000000
_cell_angle_gamma   161.49747110
_symmetry_Int_Tables_number   1
_chemical_formula_structural   Ho2NpCo2Si7
_chemical_formula_sum   'Ho2 Np1 Co2 Si7'
_cell_volume   194.07101889
_cell_formula_units_Z   1
loop_
 _symmetry_equiv_pos_site_id
 _symmetry_equiv_pos_as_xyz
  1  'x, y, z'
loop_
 _atom_site_type_symbol
 _atom_site_label
 _atom_site_symmetry_multiplicity
 _atom_site_fract_x
 _atom_site_fract_y
 _atom_site_fract_z
 _atom_site_occupancy
  Ho  Ho0  1  0.901470  0.098530  0.500000  1
  Ho  Ho1  1  0.532382  0.467618  0.500000  1
  Np  Np2  1  0.216954  0.783046  0.000000  1
  Co  Co3  1  0.345727  0.654273  0.000000  1
  Co  Co4  1  0.088217  0.911783  0.000000  1
  Si  Si5  1  0.631337  0.368663  0.000000  1
  Si  Si6  1  0.439334  0.560666  0.000000  1
  Si  Si7  1  0.131241  0.868759  0.500000  1
  Si  Si8  1  0.994504  0.005496  0.000000  1
  Si  Si9  1  0.802622  0.197378  0.000000  1
  Si  Si10  1  0.716769  0.283231  0.500000  1
  Si  Si11  1  0.302740  0.697260  0.500000  1
