# generated using pymatgen
data_Ho3TmAl18Ir5Pt
_symmetry_space_group_name_H-M   'P 1'
_cell_length_a   7.55692313
_cell_length_b   7.55875836
_cell_length_c   9.44249300
_cell_angle_alpha   89.97120506
_cell_angle_beta   89.97230925
_cell_angle_gamma   119.59136365
_symmetry_Int_Tables_number   1
_chemical_formula_structural   Ho3TmAl18Ir5Pt
_chemical_formula_sum   'Ho3 Tm1 Al18 Ir5 Pt1'
_cell_volume   469.01438701
_cell_formula_units_Z   1
loop_
 _symmetry_equiv_pos_site_id
 _symmetry_equiv_pos_as_xyz
  1  'x, y, z'
loop_
 _atom_site_type_symbol
 _atom_site_label
 _atom_site_symmetry_multiplicity
 _atom_site_fract_x
 _atom_site_fract_y
 _atom_site_fract_z
 _atom_site_occupancy
  Ho  Ho0  1  0.994838  0.670958  0.250773  1
  Ho  Ho1  1  0.004832  0.328816  0.749369  1
  Ho  Ho2  1  0.671077  0.995308  0.250612  1
  Tm  Tm3  1  0.328584  0.004754  0.749120  1
  Al  Al4  1  0.128276  0.127367  0.250313  1
  Al  Al5  1  0.872718  0.871690  0.749682  1
  Al  Al6  1  0.004026  0.335411  0.076663  1
  Al  Al7  1  0.002635  0.668667  0.923372  1
  Al  Al8  1  0.000293  0.665176  0.575014  1
  Al  Al9  1  0.335255  0.999979  0.425532  1
  Al  Al10  1  0.000680  0.334701  0.424533  1
  Al  Al11  1  0.664841  0.999309  0.575489  1
  Al  Al12  1  0.664165  0.996003  0.923337  1
  Al  Al13  1  0.331809  0.997738  0.076132  1
  Al  Al14  1  0.333045  0.332552  0.552723  1
  Al  Al15  1  0.667166  0.666965  0.447531  1
  Al  Al16  1  0.666420  0.669577  0.055639  1
  Al  Al17  1  0.330458  0.333353  0.944106  1
  Al  Al18  1  0.340376  0.549637  0.250320  1
  Al  Al19  1  0.659657  0.452727  0.747549  1
  Al  Al20  1  0.546982  0.339848  0.252470  1
  Al  Al21  1  0.450649  0.660114  0.749695  1
  Ir  Ir22  1  0.327889  0.671887  0.999804  1
  Ir  Ir23  1  0.328157  0.671558  0.500212  1
  Ir  Ir24  1  0.672217  0.327816  0.500263  1
  Ir  Ir25  1  0.000020  0.000414  0.999703  1
  Ir  Ir26  1  0.000531  0.999899  0.500279  1
  Pt  Pt27  1  0.672404  0.327778  0.999767  1
