# generated using pymatgen
data_CeNd(Si2Rh3)2
_symmetry_space_group_name_H-M   'P 1'
_cell_length_a   6.68274847
_cell_length_b   6.68274792
_cell_length_c   6.68274728
_cell_angle_alpha   130.27042354
_cell_angle_beta   114.82536889
_cell_angle_gamma   86.20137029
_symmetry_Int_Tables_number   1
_chemical_formula_structural   CeNd(Si2Rh3)2
_chemical_formula_sum   'Ce1 Nd1 Si4 Rh6'
_cell_volume   197.39538937
_cell_formula_units_Z   1
loop_
 _symmetry_equiv_pos_site_id
 _symmetry_equiv_pos_as_xyz
  1  'x, y, z'
loop_
 _atom_site_type_symbol
 _atom_site_label
 _atom_site_symmetry_multiplicity
 _atom_site_fract_x
 _atom_site_fract_y
 _atom_site_fract_z
 _atom_site_occupancy
  Ce  Ce0  1  0.750000  0.040600  0.290600  1
  Nd  Nd1  1  0.250000  0.963331  0.713331  1
  Si  Si2  1  0.578155  0.383124  0.804970  1
  Si  Si3  1  0.420933  0.617159  0.196226  1
  Si  Si4  1  0.079067  0.275294  0.196226  1
  Si  Si5  1  0.921845  0.726815  0.804970  1
  Rh  Rh6  1  0.214145  0.497971  0.713822  1
  Rh  Rh7  1  0.715851  0.999677  0.713822  1
  Rh  Rh8  1  0.784149  0.497971  0.283826  1
  Rh  Rh9  1  0.285855  0.999677  0.283826  1
  Rh  Rh10  1  0.501049  0.499191  0.500240  1
  Rh  Rh11  1  0.998951  0.499191  0.998142  1
