# generated using pymatgen
data_TbDy3(NiPt)2
_symmetry_space_group_name_H-M   'P 1'
_cell_length_a   4.34951200
_cell_length_b   5.48938763
_cell_length_c   7.05615326
_cell_angle_alpha   90.10470856
_cell_angle_beta   90.00000000
_cell_angle_gamma   90.00000000
_symmetry_Int_Tables_number   1
_chemical_formula_structural   TbDy3(NiPt)2
_chemical_formula_sum   'Tb1 Dy3 Ni2 Pt2'
_cell_volume   168.47354442
_cell_formula_units_Z   1
loop_
 _symmetry_equiv_pos_site_id
 _symmetry_equiv_pos_as_xyz
  1  'x, y, z'
loop_
 _atom_site_type_symbol
 _atom_site_label
 _atom_site_symmetry_multiplicity
 _atom_site_fract_x
 _atom_site_fract_y
 _atom_site_fract_z
 _atom_site_occupancy
  Tb  Tb0  1  0.000000  0.888068  0.181874  1
  Dy  Dy1  1  0.000000  0.111951  0.681590  1
  Dy  Dy2  1  0.500000  0.385366  0.319299  1
  Dy  Dy3  1  0.500000  0.614601  0.818718  1
  Ni  Ni4  1  0.500000  0.894971  0.460961  1
  Ni  Ni5  1  0.500000  0.105864  0.958934  1
  Pt  Pt6  1  0.000000  0.612250  0.539994  1
  Pt  Pt7  1  0.000000  0.386930  0.038632  1
