# generated using pymatgen
data_LaDySiPtI2
_symmetry_space_group_name_H-M   'P 1'
_cell_length_a   4.30879100
_cell_length_b   4.30879121
_cell_length_c   11.86462000
_cell_angle_alpha   90.00000000
_cell_angle_beta   90.00000000
_cell_angle_gamma   119.99999069
_symmetry_Int_Tables_number   1
_chemical_formula_structural   LaDySiPtI2
_chemical_formula_sum   'La1 Dy1 Si1 Pt1 I2'
_cell_volume   190.76354523
_cell_formula_units_Z   1
loop_
 _symmetry_equiv_pos_site_id
 _symmetry_equiv_pos_as_xyz
  1  'x, y, z'
loop_
 _atom_site_type_symbol
 _atom_site_label
 _atom_site_symmetry_multiplicity
 _atom_site_fract_x
 _atom_site_fract_y
 _atom_site_fract_z
 _atom_site_occupancy
  La  La0  1  0.000000  0.000000  0.840630  1
  Dy  Dy1  1  0.000000  0.000000  0.156371  1
  Si  Si2  1  0.666667  0.333333  0.997152  1
  Pt  Pt3  1  0.333333  0.666667  0.017220  1
  I  I4  1  0.333333  0.666667  0.657795  1
  I  I5  1  0.666667  0.333333  0.330832  1
