# generated using pymatgen
data_Yb6CrSiHN6
_symmetry_space_group_name_H-M   'P 1'
_cell_length_a   5.97059873
_cell_length_b   5.97059860
_cell_length_c   5.97059824
_cell_angle_alpha   96.23540852
_cell_angle_beta   96.23539471
_cell_angle_gamma   96.23539718
_symmetry_Int_Tables_number   1
_chemical_formula_structural   Yb6CrSiHN6
_chemical_formula_sum   'Yb6 Cr1 Si1 H1 N6'
_cell_volume   208.76210981
_cell_formula_units_Z   1
loop_
 _symmetry_equiv_pos_site_id
 _symmetry_equiv_pos_as_xyz
  1  'x, y, z'
loop_
 _atom_site_type_symbol
 _atom_site_label
 _atom_site_symmetry_multiplicity
 _atom_site_fract_x
 _atom_site_fract_y
 _atom_site_fract_z
 _atom_site_occupancy
  Yb  Yb0  1  0.626565  0.108239  0.782693  1
  Yb  Yb1  1  0.108239  0.782693  0.626565  1
  Yb  Yb2  1  0.782693  0.626565  0.108239  1
  Yb  Yb3  1  0.378108  0.883813  0.211597  1
  Yb  Yb4  1  0.883813  0.211597  0.378108  1
  Yb  Yb5  1  0.211597  0.378108  0.883813  1
  Cr  Cr6  1  0.365499  0.365499  0.365499  1
  Si  Si7  1  0.629702  0.629702  0.629702  1
  H  H8  1  0.000740  0.000740  0.000740  1
  N  N9  1  0.729291  0.852515  0.475471  1
  N  N10  1  0.852515  0.475471  0.729291  1
  N  N11  1  0.475471  0.729291  0.852515  1
  N  N12  1  0.274018  0.151518  0.530231  1
  N  N13  1  0.151518  0.530231  0.274018  1
  N  N14  1  0.530231  0.274018  0.151518  1
