# generated using pymatgen
data_Ho3Tm(FeOs)4
_symmetry_space_group_name_H-M   'P 1'
_cell_length_a   5.25696864
_cell_length_b   5.25222940
_cell_length_c   8.99858227
_cell_angle_alpha   73.03207487
_cell_angle_beta   91.03933517
_cell_angle_gamma   119.97016929
_symmetry_Int_Tables_number   1
_chemical_formula_structural   Ho3Tm(FeOs)4
_chemical_formula_sum   'Ho3 Tm1 Fe4 Os4'
_cell_volume   203.40846224
_cell_formula_units_Z   1
loop_
 _symmetry_equiv_pos_site_id
 _symmetry_equiv_pos_as_xyz
  1  'x, y, z'
loop_
 _atom_site_type_symbol
 _atom_site_label
 _atom_site_symmetry_multiplicity
 _atom_site_fract_x
 _atom_site_fract_y
 _atom_site_fract_z
 _atom_site_occupancy
  Ho  Ho0  1  0.377283  0.751502  0.874278  1
  Ho  Ho1  1  0.997636  0.998197  0.001242  1
  Ho  Ho2  1  0.498026  0.998808  0.500409  1
  Tm  Tm3  1  0.877392  0.751667  0.374056  1
  Fe  Fe4  1  0.187510  0.375112  0.437288  1
  Fe  Fe5  1  0.687328  0.374879  0.937571  1
  Fe  Fe6  1  0.937156  0.374456  0.188243  1
  Fe  Fe7  1  0.437947  0.375525  0.686897  1
  Os  Os8  1  0.437347  0.374275  0.188521  1
  Os  Os9  1  0.937513  0.375589  0.686488  1
  Os  Os10  1  0.437347  0.874552  0.188521  1
  Os  Os11  1  0.937513  0.875436  0.686488  1
