# generated using pymatgen
data_RbBa2NaUSe6
_symmetry_space_group_name_H-M   'P 1'
_cell_length_a   8.94712584
_cell_length_b   8.98578691
_cell_length_c   8.94712709
_cell_angle_alpha   91.24471184
_cell_angle_beta   91.79834693
_cell_angle_gamma   91.24471833
_symmetry_Int_Tables_number   1
_chemical_formula_structural   RbBa2NaUSe6
_chemical_formula_sum   'Rb2 Ba4 Na2 U2 Se12'
_cell_volume   718.61724462
_cell_formula_units_Z   2
loop_
 _symmetry_equiv_pos_site_id
 _symmetry_equiv_pos_as_xyz
  1  'x, y, z'
loop_
 _atom_site_type_symbol
 _atom_site_label
 _atom_site_symmetry_multiplicity
 _atom_site_fract_x
 _atom_site_fract_y
 _atom_site_fract_z
 _atom_site_occupancy
  Rb  Rb0  1  0.879207  0.623163  0.251672  1
  Rb  Rb1  1  0.248328  0.876837  0.620793  1
  Ba  Ba2  1  0.621397  0.250000  0.878603  1
  Ba  Ba3  1  0.749697  0.121442  0.374413  1
  Ba  Ba4  1  0.377194  0.750000  0.122806  1
  Ba  Ba5  1  0.125587  0.378558  0.750303  1
  Na  Na6  1  0.247993  0.250000  0.252007  1
  Na  Na7  1  0.750485  0.750000  0.749515  1
  U  U8  1  0.504093  0.499248  0.501710  1
  U  U9  1  0.998290  0.000752  0.995907  1
  Se  Se10  1  0.218272  0.545784  0.420051  1
  Se  Se11  1  0.427161  0.212811  0.557111  1
  Se  Se12  1  0.550836  0.411936  0.214182  1
  Se  Se13  1  0.910257  0.060494  0.710474  1
  Se  Se14  1  0.705127  0.927589  0.049455  1
  Se  Se15  1  0.055490  0.715199  0.918139  1
  Se  Se16  1  0.789526  0.439506  0.589743  1
  Se  Se17  1  0.581861  0.784801  0.444510  1
  Se  Se18  1  0.450545  0.572411  0.794873  1
  Se  Se19  1  0.079949  0.954216  0.281728  1
  Se  Se20  1  0.285818  0.088064  0.949164  1
  Se  Se21  1  0.942889  0.287189  0.072839  1
