# generated using pymatgen
data_Pr8HoSc10Si16Hg
_symmetry_space_group_name_H-M   'P 1'
_cell_length_a   7.24264969
_cell_length_b   7.58887619
_cell_length_c   14.37396766
_cell_angle_alpha   89.92899653
_cell_angle_beta   90.12851332
_cell_angle_gamma   90.32382609
_symmetry_Int_Tables_number   1
_chemical_formula_structural   Pr8HoSc10Si16Hg
_chemical_formula_sum   'Pr8 Ho1 Sc10 Si16 Hg1'
_cell_volume   790.02940233
_cell_formula_units_Z   1
loop_
 _symmetry_equiv_pos_site_id
 _symmetry_equiv_pos_as_xyz
  1  'x, y, z'
loop_
 _atom_site_type_symbol
 _atom_site_label
 _atom_site_symmetry_multiplicity
 _atom_site_fract_x
 _atom_site_fract_y
 _atom_site_fract_z
 _atom_site_occupancy
  Pr  Pr0  1  0.013419  0.172335  0.400573  1
  Pr  Pr1  1  0.511649  0.330865  0.399165  1
  Pr  Pr2  1  0.491209  0.680173  0.901175  1
  Pr  Pr3  1  0.491224  0.682450  0.600946  1
  Pr  Pr4  1  0.977579  0.828115  0.602231  1
  Pr  Pr5  1  0.980411  0.827779  0.901173  1
  Pr  Pr6  1  0.510195  0.330870  0.098502  1
  Pr  Pr7  1  0.012366  0.172712  0.098379  1
  Ho  Ho8  1  0.337701  0.174262  0.622834  1
  Sc  Sc9  1  0.672444  0.819066  0.371305  1
  Sc  Sc10  1  0.171546  0.676349  0.374459  1
  Sc  Sc11  1  0.826197  0.316477  0.877186  1
  Sc  Sc12  1  0.826490  0.314998  0.625029  1
  Sc  Sc13  1  0.840762  0.501922  0.249298  1
  Sc  Sc14  1  0.340502  0.996730  0.248861  1
  Sc  Sc15  1  0.336159  0.174999  0.876730  1
  Sc  Sc16  1  0.170852  0.676653  0.124037  1
  Sc  Sc17  1  0.670888  0.820494  0.126284  1
  Sc  Sc18  1  0.156581  0.497625  0.752292  1
  Si  Si19  1  0.268525  0.877069  0.752380  1
  Si  Si20  1  0.465384  0.623610  0.248958  1
  Si  Si21  1  0.044567  0.127350  0.753514  1
  Si  Si22  1  0.532061  0.394840  0.752255  1
  Si  Si23  1  0.148125  0.470893  0.540051  1
  Si  Si24  1  0.967321  0.873051  0.249211  1
  Si  Si25  1  0.711006  0.116242  0.249205  1
  Si  Si26  1  0.849077  0.535408  0.039259  1
  Si  Si27  1  0.347788  0.963361  0.039697  1
  Si  Si28  1  0.153028  0.465732  0.959382  1
  Si  Si29  1  0.662091  0.041155  0.523553  1
  Si  Si30  1  0.352861  0.960378  0.455063  1
  Si  Si31  1  0.848649  0.536540  0.460995  1
  Si  Si32  1  0.793689  0.593408  0.751180  1
  Si  Si33  1  0.209515  0.385608  0.249073  1
  Si  Si34  1  0.653286  0.041772  0.971843  1
  Hg  Hg35  1  0.654852  0.998707  0.753920  1
