# generated using pymatgen
data_La8Tb12Ga7Si9
_symmetry_space_group_name_H-M   'P 1'
_cell_length_a   7.60641717
_cell_length_b   7.94716258
_cell_length_c   15.16665800
_cell_angle_alpha   90.00816126
_cell_angle_beta   89.98803830
_cell_angle_gamma   89.97976439
_symmetry_Int_Tables_number   1
_chemical_formula_structural   La8Tb12Ga7Si9
_chemical_formula_sum   'La8 Tb12 Ga7 Si9'
_cell_volume   916.81580287
_cell_formula_units_Z   1
loop_
 _symmetry_equiv_pos_site_id
 _symmetry_equiv_pos_as_xyz
  1  'x, y, z'
loop_
 _atom_site_type_symbol
 _atom_site_label
 _atom_site_symmetry_multiplicity
 _atom_site_fract_x
 _atom_site_fract_y
 _atom_site_fract_z
 _atom_site_occupancy
  La  La0  1  0.979120  0.822676  0.096159  1
  La  La1  1  0.478886  0.677467  0.404143  1
  La  La2  1  0.520158  0.323020  0.902167  1
  La  La3  1  0.021975  0.178950  0.598051  1
  La  La4  1  0.025518  0.176794  0.901574  1
  La  La5  1  0.523621  0.325090  0.598187  1
  La  La6  1  0.475450  0.674837  0.096089  1
  La  La7  1  0.975559  0.824902  0.403510  1
  Tb  Tb8  1  0.654090  0.991557  0.251408  1
  Tb  Tb9  1  0.154469  0.508069  0.248573  1
  Tb  Tb10  1  0.849480  0.493975  0.748714  1
  Tb  Tb11  1  0.345827  0.010831  0.751138  1
  Tb  Tb12  1  0.679449  0.822206  0.875726  1
  Tb  Tb13  1  0.181318  0.675205  0.624404  1
  Tb  Tb14  1  0.820175  0.322388  0.123062  1
  Tb  Tb15  1  0.319944  0.177734  0.376924  1
  Tb  Tb16  1  0.317499  0.178265  0.121518  1
  Tb  Tb17  1  0.817372  0.321720  0.378500  1
  Tb  Tb18  1  0.183191  0.676061  0.877130  1
  Tb  Tb19  1  0.681812  0.821235  0.622805  1
  Ga  Ga20  1  0.765746  0.619405  0.249627  1
  Ga  Ga21  1  0.266278  0.881185  0.250364  1
  Ga  Ga22  1  0.730856  0.119128  0.750529  1
  Ga  Ga23  1  0.852155  0.533181  0.959643  1
  Ga  Ga24  1  0.351557  0.966218  0.540516  1
  Ga  Ga25  1  0.647816  0.033894  0.039349  1
  Ga  Ga26  1  0.147836  0.466369  0.460234  1
  Si  Si27  1  0.232323  0.382588  0.749495  1
  Si  Si28  1  0.024771  0.117329  0.249484  1
  Si  Si29  1  0.525131  0.382590  0.250480  1
  Si  Si30  1  0.474894  0.613863  0.750580  1
  Si  Si31  1  0.976474  0.881838  0.749532  1
  Si  Si32  1  0.145131  0.467218  0.039754  1
  Si  Si33  1  0.645183  0.033031  0.460666  1
  Si  Si34  1  0.354110  0.966777  0.959856  1
  Si  Si35  1  0.854829  0.532404  0.540111  1
