# generated using pymatgen
data_Tm10TcRh3
_symmetry_space_group_name_H-M   'P 1'
_cell_length_a   6.32594021
_cell_length_b   7.19917137
_cell_length_c   8.36422743
_cell_angle_alpha   96.67092041
_cell_angle_beta   111.75920729
_cell_angle_gamma   89.97769540
_symmetry_Int_Tables_number   1
_chemical_formula_structural   Tm10TcRh3
_chemical_formula_sum   'Tm10 Tc1 Rh3'
_cell_volume   351.00778169
_cell_formula_units_Z   1
loop_
 _symmetry_equiv_pos_site_id
 _symmetry_equiv_pos_as_xyz
  1  'x, y, z'
loop_
 _atom_site_type_symbol
 _atom_site_label
 _atom_site_symmetry_multiplicity
 _atom_site_fract_x
 _atom_site_fract_y
 _atom_site_fract_z
 _atom_site_occupancy
  Tm  Tm0  1  0.786818  0.082580  0.811034  1
  Tm  Tm1  1  0.978598  0.415728  0.186364  1
  Tm  Tm2  1  0.206247  0.917038  0.177773  1
  Tm  Tm3  1  0.023396  0.583136  0.811623  1
  Tm  Tm4  1  0.210286  0.183323  0.563318  1
  Tm  Tm5  1  0.648110  0.314603  0.437484  1
  Tm  Tm6  1  0.793807  0.814818  0.440720  1
  Tm  Tm7  1  0.348277  0.687081  0.563677  1
  Tm  Tm8  1  0.422023  0.249621  0.999702  1
  Tm  Tm9  1  0.578440  0.750479  0.999743  1
  Tc  Tc10  1  0.177018  0.927417  0.787044  1
  Rh  Rh11  1  0.604182  0.425756  0.777133  1
  Rh  Rh12  1  0.823304  0.075673  0.220789  1
  Rh  Rh13  1  0.399492  0.572747  0.223596  1
