# generated using pymatgen
data_Gd4Fe2B6Pb
_symmetry_space_group_name_H-M   'P 1'
_cell_length_a   5.31308963
_cell_length_b   5.31309175
_cell_length_c   8.45149400
_cell_angle_alpha   71.67972111
_cell_angle_beta   71.67972490
_cell_angle_gamma   59.99998816
_symmetry_Int_Tables_number   1
_chemical_formula_structural   Gd4Fe2B6Pb
_chemical_formula_sum   'Gd4 Fe2 B6 Pb1'
_cell_volume   192.52374665
_cell_formula_units_Z   1
loop_
 _symmetry_equiv_pos_site_id
 _symmetry_equiv_pos_as_xyz
  1  'x, y, z'
loop_
 _atom_site_type_symbol
 _atom_site_label
 _atom_site_symmetry_multiplicity
 _atom_site_fract_x
 _atom_site_fract_y
 _atom_site_fract_z
 _atom_site_occupancy
  Gd  Gd0  1  0.749989  0.749989  0.750033  1
  Gd  Gd1  1  0.250011  0.250011  0.249967  1
  Gd  Gd2  1  0.583702  0.583702  0.248893  1
  Gd  Gd3  1  0.416298  0.416298  0.751107  1
  Fe  Fe4  1  0.882810  0.882810  0.351572  1
  Fe  Fe5  1  0.117190  0.117190  0.648429  1
  B  B6  1  0.500000  0.168167  0.500000  1
  B  B7  1  0.831833  0.500000  0.500000  1
  B  B8  1  0.168167  0.831833  0.500000  1
  B  B9  1  0.168167  0.500000  0.500000  1
  B  B10  1  0.831833  0.168167  0.500000  1
  B  B11  1  0.500000  0.831833  0.500000  1
  Pb  Pb12  1  0.000000  0.000000  0.000000  1
