# generated using pymatgen
data_Lu20CoTcHg6
_symmetry_space_group_name_H-M   'P 1'
_cell_length_a   9.41507900
_cell_length_b   9.41507910
_cell_length_c   9.44526700
_cell_angle_alpha   90.00000000
_cell_angle_beta   90.00000000
_cell_angle_gamma   119.99999613
_symmetry_Int_Tables_number   1
_chemical_formula_structural   Lu20CoTcHg6
_chemical_formula_sum   'Lu20 Co1 Tc1 Hg6'
_cell_volume   725.09152560
_cell_formula_units_Z   1
loop_
 _symmetry_equiv_pos_site_id
 _symmetry_equiv_pos_as_xyz
  1  'x, y, z'
loop_
 _atom_site_type_symbol
 _atom_site_label
 _atom_site_symmetry_multiplicity
 _atom_site_fract_x
 _atom_site_fract_y
 _atom_site_fract_z
 _atom_site_occupancy
  Lu  Lu0  1  0.000000  0.000000  0.499778  1
  Lu  Lu1  1  0.000000  0.000000  0.000222  1
  Lu  Lu2  1  0.540000  0.460000  0.250000  1
  Lu  Lu3  1  0.540000  0.079999  0.250000  1
  Lu  Lu4  1  0.920001  0.460000  0.250000  1
  Lu  Lu5  1  0.458218  0.541782  0.750000  1
  Lu  Lu6  1  0.458218  0.916436  0.750000  1
  Lu  Lu7  1  0.083564  0.541782  0.750000  1
  Lu  Lu8  1  0.209692  0.790308  0.440587  1
  Lu  Lu9  1  0.209692  0.419387  0.440587  1
  Lu  Lu10  1  0.580613  0.790308  0.440587  1
  Lu  Lu11  1  0.788007  0.211993  0.563826  1
  Lu  Lu12  1  0.788007  0.576011  0.563826  1
  Lu  Lu13  1  0.423989  0.211993  0.563826  1
  Lu  Lu14  1  0.788007  0.211993  0.936174  1
  Lu  Lu15  1  0.788007  0.576011  0.936174  1
  Lu  Lu16  1  0.423989  0.211993  0.936174  1
  Lu  Lu17  1  0.209692  0.790308  0.059413  1
  Lu  Lu18  1  0.209692  0.419387  0.059413  1
  Lu  Lu19  1  0.580613  0.790308  0.059413  1
  Co  Co20  1  0.666667  0.333333  0.750000  1
  Tc  Tc21  1  0.333333  0.666667  0.250000  1
  Hg  Hg22  1  0.881170  0.118830  0.250000  1
  Hg  Hg23  1  0.881170  0.762342  0.250000  1
  Hg  Hg24  1  0.237658  0.118830  0.250000  1
  Hg  Hg25  1  0.117817  0.882183  0.750000  1
  Hg  Hg26  1  0.117817  0.235633  0.750000  1
  Hg  Hg27  1  0.764367  0.882183  0.750000  1
