# generated using pymatgen
data_Gd6P13Rh20
_symmetry_space_group_name_H-M   'P 1'
_cell_length_a   13.71744400
_cell_length_b   13.71744352
_cell_length_c   4.02677500
_cell_angle_alpha   90.00000000
_cell_angle_beta   90.00000000
_cell_angle_gamma   119.99999634
_symmetry_Int_Tables_number   1
_chemical_formula_structural   Gd6P13Rh20
_chemical_formula_sum   'Gd6 P13 Rh20'
_cell_volume   656.19722270
_cell_formula_units_Z   1
loop_
 _symmetry_equiv_pos_site_id
 _symmetry_equiv_pos_as_xyz
  1  'x, y, z'
loop_
 _atom_site_type_symbol
 _atom_site_label
 _atom_site_symmetry_multiplicity
 _atom_site_fract_x
 _atom_site_fract_y
 _atom_site_fract_z
 _atom_site_occupancy
  Gd  Gd0  1  0.530333  0.717396  0.246695  1
  Gd  Gd1  1  0.282604  0.812937  0.246695  1
  Gd  Gd2  1  0.187063  0.469667  0.246695  1
  Gd  Gd3  1  0.469667  0.282604  0.753305  1
  Gd  Gd4  1  0.717396  0.187063  0.753305  1
  Gd  Gd5  1  0.812937  0.530333  0.753305  1
  P  P6  1  0.522877  0.136371  0.250648  1
  P  P7  1  0.863629  0.386507  0.250648  1
  P  P8  1  0.613493  0.477123  0.250648  1
  P  P9  1  0.947376  0.719160  0.257725  1
  P  P10  1  0.280840  0.228216  0.257725  1
  P  P11  1  0.771784  0.052624  0.257725  1
  P  P12  1  0.386507  0.522877  0.749352  1
  P  P13  1  0.477123  0.863629  0.749352  1
  P  P14  1  0.136371  0.613493  0.749352  1
  P  P15  1  0.719160  0.771784  0.742275  1
  P  P16  1  0.228216  0.947376  0.742275  1
  P  P17  1  0.052624  0.280840  0.742275  1
  P  P18  1  0.000000  0.000000  0.000000  1
  Rh  Rh19  1  0.333333  0.666667  0.751605  1
  Rh  Rh20  1  0.921448  0.249387  0.261590  1
  Rh  Rh21  1  0.750613  0.672061  0.261590  1
  Rh  Rh22  1  0.327939  0.078552  0.261590  1
  Rh  Rh23  1  0.441401  0.026207  0.753274  1
  Rh  Rh24  1  0.973793  0.415194  0.753274  1
  Rh  Rh25  1  0.584806  0.558599  0.753274  1
  Rh  Rh26  1  0.666667  0.333333  0.248395  1
  Rh  Rh27  1  0.094320  0.186604  0.238615  1
  Rh  Rh28  1  0.813396  0.907715  0.238615  1
  Rh  Rh29  1  0.092285  0.905680  0.238615  1
  Rh  Rh30  1  0.026207  0.584806  0.246726  1
  Rh  Rh31  1  0.415194  0.441401  0.246726  1
  Rh  Rh32  1  0.558599  0.973793  0.246726  1
  Rh  Rh33  1  0.672061  0.921448  0.738410  1
  Rh  Rh34  1  0.078552  0.750613  0.738410  1
  Rh  Rh35  1  0.249387  0.327939  0.738410  1
  Rh  Rh36  1  0.905680  0.813396  0.761385  1
  Rh  Rh37  1  0.186604  0.092285  0.761385  1
  Rh  Rh38  1  0.907715  0.094320  0.761385  1
