# generated using pymatgen
data_V12Si3Te
_symmetry_space_group_name_H-M   'P 1'
_cell_length_a   4.76255200
_cell_length_b   4.77586000
_cell_length_c   9.49167100
_cell_angle_alpha   90.00000000
_cell_angle_beta   90.00000000
_cell_angle_gamma   90.00000000
_symmetry_Int_Tables_number   1
_chemical_formula_structural   V12Si3Te
_chemical_formula_sum   'V12 Si3 Te1'
_cell_volume   215.89072970
_cell_formula_units_Z   1
loop_
 _symmetry_equiv_pos_site_id
 _symmetry_equiv_pos_as_xyz
  1  'x, y, z'
loop_
 _atom_site_type_symbol
 _atom_site_label
 _atom_site_symmetry_multiplicity
 _atom_site_fract_x
 _atom_site_fract_y
 _atom_site_fract_z
 _atom_site_occupancy
  V  V0  1  0.000000  0.500000  0.134542  1
  V  V1  1  0.000000  0.500000  0.623846  1
  V  V2  1  0.500000  0.243406  0.740989  1
  V  V3  1  0.500000  0.243406  0.259011  1
  V  V4  1  0.762419  0.000000  0.000000  1
  V  V5  1  0.745827  0.000000  0.500000  1
  V  V6  1  0.000000  0.500000  0.865458  1
  V  V7  1  0.000000  0.500000  0.376154  1
  V  V8  1  0.500000  0.756594  0.740989  1
  V  V9  1  0.500000  0.756594  0.259011  1
  V  V10  1  0.237581  0.000000  0.000000  1
  V  V11  1  0.254173  0.000000  0.500000  1
  Si  Si12  1  0.500000  0.500000  0.500000  1
  Si  Si13  1  0.000000  0.000000  0.748717  1
  Si  Si14  1  0.000000  0.000000  0.251283  1
  Te  Te15  1  0.500000  0.500000  0.000000  1
