# generated using pymatgen
data_GaSnSbO6
_symmetry_space_group_name_H-M   'P 1'
_cell_length_a   4.72007100
_cell_length_b   9.43802601
_cell_length_c   9.41149000
_cell_angle_alpha   89.99908323
_cell_angle_beta   90.00032214
_cell_angle_gamma   90.00168179
_symmetry_Int_Tables_number   1
_chemical_formula_structural   GaSnSbO6
_chemical_formula_sum   'Ga4 Sn4 Sb4 O24'
_cell_volume   419.26449505
_cell_formula_units_Z   4
loop_
 _symmetry_equiv_pos_site_id
 _symmetry_equiv_pos_as_xyz
  1  'x, y, z'
loop_
 _atom_site_type_symbol
 _atom_site_label
 _atom_site_symmetry_multiplicity
 _atom_site_fract_x
 _atom_site_fract_y
 _atom_site_fract_z
 _atom_site_occupancy
  Ga  Ga0  1  0.499990  0.750023  0.167016  1
  Ga  Ga1  1  0.000012  0.499970  0.667029  1
  Ga  Ga2  1  0.500000  0.250008  0.166999  1
  Ga  Ga3  1  0.000015  0.999986  0.667010  1
  Sn  Sn4  1  0.500001  0.249975  0.499291  1
  Sn  Sn5  1  0.500010  0.749991  0.499302  1
  Sn  Sn6  1  0.999992  0.000024  0.999287  1
  Sn  Sn7  1  0.999964  0.500031  0.999298  1
  Sb  Sb8  1  0.499999  0.249994  0.833279  1
  Sb  Sb9  1  0.500003  0.750005  0.833282  1
  Sb  Sb10  1  0.999985  0.000014  0.333333  1
  Sb  Sb11  1  0.000012  0.499988  0.333335  1
  O  O12  1  0.197367  0.401350  0.171495  1
  O  O13  1  0.197391  0.901373  0.171507  1
  O  O14  1  0.802604  0.098656  0.171495  1
  O  O15  1  0.802578  0.598643  0.171513  1
  O  O16  1  0.302559  0.151354  0.671497  1
  O  O17  1  0.302553  0.651353  0.671507  1
  O  O18  1  0.697406  0.348645  0.671492  1
  O  O19  1  0.697430  0.848642  0.671494  1
  O  O20  1  0.188077  0.406055  0.499965  1
  O  O21  1  0.188071  0.906069  0.499957  1
  O  O22  1  0.811939  0.093934  0.499972  1
  O  O23  1  0.811966  0.593924  0.499965  1
  O  O24  1  0.312011  0.156046  0.999956  1
  O  O25  1  0.311987  0.656076  0.999965  1
  O  O26  1  0.688038  0.343933  0.999948  1
  O  O27  1  0.688028  0.843947  0.999961  1
  O  O28  1  0.196968  0.401579  0.828745  1
  O  O29  1  0.196998  0.901594  0.828715  1
  O  O30  1  0.803040  0.098414  0.828707  1
  O  O31  1  0.802997  0.598408  0.828711  1
  O  O32  1  0.302845  0.151675  0.328737  1
  O  O33  1  0.302852  0.651667  0.328743  1
  O  O34  1  0.697172  0.348314  0.328739  1
  O  O35  1  0.697142  0.848340  0.328758  1
