# generated using pymatgen
data_Zr2Ti7In14Co6Tc
_symmetry_space_group_name_H-M   'P 1'
_cell_length_a   9.26088194
_cell_length_b   9.26088342
_cell_length_c   9.22862823
_cell_angle_alpha   59.88432539
_cell_angle_beta   59.88431976
_cell_angle_gamma   60.00000102
_symmetry_Int_Tables_number   1
_chemical_formula_structural   Zr2Ti7In14Co6Tc
_chemical_formula_sum   'Zr2 Ti7 In14 Co6 Tc1'
_cell_volume   558.68287085
_cell_formula_units_Z   1
loop_
 _symmetry_equiv_pos_site_id
 _symmetry_equiv_pos_as_xyz
  1  'x, y, z'
loop_
 _atom_site_type_symbol
 _atom_site_label
 _atom_site_symmetry_multiplicity
 _atom_site_fract_x
 _atom_site_fract_y
 _atom_site_fract_z
 _atom_site_occupancy
  Zr  Zr0  1  0.499364  0.499364  0.501908  1
  Zr  Zr1  1  0.123737  0.123737  0.628789  1
  Ti  Ti2  1  0.116839  0.648026  0.118298  1
  Ti  Ti3  1  0.351569  0.881352  0.885726  1
  Ti  Ti4  1  0.881352  0.881352  0.885726  1
  Ti  Ti5  1  0.648026  0.116839  0.118298  1
  Ti  Ti6  1  0.882878  0.882878  0.351365  1
  Ti  Ti7  1  0.116839  0.116839  0.118298  1
  Ti  Ti8  1  0.881352  0.351569  0.885726  1
  In  In9  1  0.500106  0.843752  0.156036  1
  In  In10  1  0.502776  0.842748  0.500920  1
  In  In11  1  0.502776  0.153556  0.500920  1
  In  In12  1  0.499042  0.499042  0.847491  1
  In  In13  1  0.153556  0.502776  0.500920  1
  In  In14  1  0.842748  0.153556  0.500920  1
  In  In15  1  0.153556  0.842748  0.500920  1
  In  In16  1  0.499042  0.154425  0.847491  1
  In  In17  1  0.154425  0.499042  0.847491  1
  In  In18  1  0.500106  0.500106  0.156036  1
  In  In19  1  0.842748  0.502776  0.500920  1
  In  In20  1  0.843752  0.500106  0.156036  1
  In  In21  1  0.257068  0.257068  0.228797  1
  In  In22  1  0.750034  0.750034  0.749898  1
  Co  Co23  1  0.783666  0.783666  0.215443  1
  Co  Co24  1  0.217226  0.783666  0.215443  1
  Co  Co25  1  0.216929  0.778703  0.787439  1
  Co  Co26  1  0.216929  0.216929  0.787439  1
  Co  Co27  1  0.778703  0.216929  0.787439  1
  Co  Co28  1  0.783666  0.217226  0.215443  1
  Tc  Tc29  1  0.999192  0.999192  0.002424  1
