# generated using pymatgen
data_HfZr2Mn4Si4Mo
_symmetry_space_group_name_H-M   'P 1'
_cell_length_a   3.58931700
_cell_length_b   6.52039868
_cell_length_c   7.62074509
_cell_angle_alpha   90.59695923
_cell_angle_beta   90.00000000
_cell_angle_gamma   90.00000000
_symmetry_Int_Tables_number   1
_chemical_formula_structural   HfZr2Mn4Si4Mo
_chemical_formula_sum   'Hf1 Zr2 Mn4 Si4 Mo1'
_cell_volume   178.34454456
_cell_formula_units_Z   1
loop_
 _symmetry_equiv_pos_site_id
 _symmetry_equiv_pos_as_xyz
  1  'x, y, z'
loop_
 _atom_site_type_symbol
 _atom_site_label
 _atom_site_symmetry_multiplicity
 _atom_site_fract_x
 _atom_site_fract_y
 _atom_site_fract_z
 _atom_site_occupancy
  Hf  Hf0  1  0.750000  0.536646  0.824599  1
  Zr  Zr1  1  0.250000  0.469871  0.179547  1
  Zr  Zr2  1  0.750000  0.030048  0.672003  1
  Mn  Mn3  1  0.250000  0.360471  0.562322  1
  Mn  Mn4  1  0.250000  0.864481  0.938540  1
  Mn  Mn5  1  0.750000  0.633368  0.435732  1
  Mn  Mn6  1  0.750000  0.137125  0.063246  1
  Si  Si7  1  0.250000  0.730436  0.617739  1
  Si  Si8  1  0.250000  0.232694  0.874791  1
  Si  Si9  1  0.750000  0.255675  0.371124  1
  Si  Si10  1  0.750000  0.780545  0.133973  1
  Mo  Mo11  1  0.250000  0.968641  0.326384  1
