# generated using pymatgen
data_TbLuZr2(Co5P3)4
_symmetry_space_group_name_H-M   'P 1'
_cell_length_a   3.62283800
_cell_length_b   10.21119790
_cell_length_c   11.67778303
_cell_angle_alpha   89.95191382
_cell_angle_beta   90.00000000
_cell_angle_gamma   90.00000000
_symmetry_Int_Tables_number   1
_chemical_formula_structural   TbLuZr2(Co5P3)4
_chemical_formula_sum   'Tb1 Lu1 Zr2 Co20 P12'
_cell_volume   432.00209852
_cell_formula_units_Z   1
loop_
 _symmetry_equiv_pos_site_id
 _symmetry_equiv_pos_as_xyz
  1  'x, y, z'
loop_
 _atom_site_type_symbol
 _atom_site_label
 _atom_site_symmetry_multiplicity
 _atom_site_fract_x
 _atom_site_fract_y
 _atom_site_fract_z
 _atom_site_occupancy
  Tb  Tb0  1  0.750000  0.082561  0.796865  1
  Lu  Lu1  1  0.750000  0.417807  0.297169  1
  Zr  Zr2  1  0.250000  0.581831  0.701322  1
  Zr  Zr3  1  0.250000  0.918015  0.201462  1
  Co  Co4  1  0.250000  0.718166  0.993798  1
  Co  Co5  1  0.250000  0.780879  0.492946  1
  Co  Co6  1  0.750000  0.282382  0.008767  1
  Co  Co7  1  0.750000  0.217974  0.508430  1
  Co  Co8  1  0.250000  0.409551  0.488225  1
  Co  Co9  1  0.250000  0.090294  0.991175  1
  Co  Co10  1  0.750000  0.593010  0.514667  1
  Co  Co11  1  0.750000  0.906350  0.015246  1
  Co  Co12  1  0.250000  0.222952  0.178478  1
  Co  Co13  1  0.250000  0.279030  0.677304  1
  Co  Co14  1  0.750000  0.776252  0.822808  1
  Co  Co15  1  0.750000  0.722928  0.322597  1
  Co  Co16  1  0.250000  0.880174  0.698557  1
  Co  Co17  1  0.250000  0.617657  0.199747  1
  Co  Co18  1  0.750000  0.115008  0.299314  1
  Co  Co19  1  0.750000  0.386260  0.799670  1
  Co  Co20  1  0.250000  0.470295  0.929746  1
  Co  Co21  1  0.250000  0.030923  0.428241  1
  Co  Co22  1  0.750000  0.534205  0.068079  1
  Co  Co23  1  0.750000  0.964911  0.566407  1
  P  P24  1  0.250000  0.419436  0.112535  1
  P  P25  1  0.250000  0.080888  0.609951  1
  P  P26  1  0.750000  0.581413  0.885148  1
  P  P27  1  0.750000  0.918463  0.384373  1
  P  P28  1  0.250000  0.270924  0.872101  1
  P  P29  1  0.250000  0.231994  0.370866  1
  P  P30  1  0.750000  0.732394  0.131300  1
  P  P31  1  0.750000  0.767283  0.631121  1
  P  P32  1  0.250000  0.600282  0.390150  1
  P  P33  1  0.250000  0.897495  0.891091  1
  P  P34  1  0.750000  0.400307  0.610140  1
  P  P35  1  0.750000  0.099708  0.110206  1
