# generated using pymatgen
data_Dy3Lu17AlBi11
_symmetry_space_group_name_H-M   'P 1'
_cell_length_a   8.12099187
_cell_length_b   9.36747300
_cell_length_c   11.82323004
_cell_angle_alpha   90.00000000
_cell_angle_beta   90.29035064
_cell_angle_gamma   90.00000000
_symmetry_Int_Tables_number   1
_chemical_formula_structural   Dy3Lu17AlBi11
_chemical_formula_sum   'Dy3 Lu17 Al1 Bi11'
_cell_volume   899.41906506
_cell_formula_units_Z   1
loop_
 _symmetry_equiv_pos_site_id
 _symmetry_equiv_pos_as_xyz
  1  'x, y, z'
loop_
 _atom_site_type_symbol
 _atom_site_label
 _atom_site_symmetry_multiplicity
 _atom_site_fract_x
 _atom_site_fract_y
 _atom_site_fract_z
 _atom_site_occupancy
  Dy  Dy0  1  0.312167  0.250000  0.219714  1
  Dy  Dy1  1  0.810791  0.250000  0.281401  1
  Dy  Dy2  1  0.191165  0.750000  0.722751  1
  Lu  Lu3  1  0.354738  0.750000  0.207231  1
  Lu  Lu4  1  0.851923  0.750000  0.283801  1
  Lu  Lu5  1  0.648991  0.250000  0.782738  1
  Lu  Lu6  1  0.149889  0.250000  0.717310  1
  Lu  Lu7  1  0.685703  0.571885  0.055475  1
  Lu  Lu8  1  0.194003  0.933590  0.439642  1
  Lu  Lu9  1  0.307090  0.053370  0.941322  1
  Lu  Lu10  1  0.805922  0.434083  0.559768  1
  Lu  Lu11  1  0.307090  0.446630  0.941322  1
  Lu  Lu12  1  0.805922  0.065917  0.559768  1
  Lu  Lu13  1  0.685703  0.928115  0.055475  1
  Lu  Lu14  1  0.194003  0.566410  0.439642  1
  Lu  Lu15  1  0.476373  0.250000  0.489777  1
  Lu  Lu16  1  0.978626  0.250000  0.010204  1
  Lu  Lu17  1  0.524801  0.750000  0.510696  1
  Lu  Lu18  1  0.035117  0.750000  0.989832  1
  Lu  Lu19  1  0.679005  0.750000  0.787784  1
  Al  Al20  1  0.407764  0.750000  0.958688  1
  Bi  Bi21  1  0.906005  0.750000  0.543321  1
  Bi  Bi22  1  0.594928  0.250000  0.040932  1
  Bi  Bi23  1  0.094839  0.250000  0.458917  1
  Bi  Bi24  1  0.564003  0.994267  0.326061  1
  Bi  Bi25  1  0.062927  0.504703  0.175111  1
  Bi  Bi26  1  0.437144  0.495491  0.675359  1
  Bi  Bi27  1  0.934648  0.004271  0.824712  1
  Bi  Bi28  1  0.437144  0.004509  0.675359  1
  Bi  Bi29  1  0.934648  0.495729  0.824712  1
  Bi  Bi30  1  0.564003  0.505733  0.326061  1
  Bi  Bi31  1  0.062927  0.995297  0.175111  1
