# generated using pymatgen
data_LaNd3(Al3Rh)6
_symmetry_space_group_name_H-M   'P 1'
_cell_length_a   7.63925540
_cell_length_b   7.64355576
_cell_length_c   9.61473500
_cell_angle_alpha   90.00000000
_cell_angle_beta   90.00000000
_cell_angle_gamma   119.27522057
_symmetry_Int_Tables_number   1
_chemical_formula_structural   LaNd3(Al3Rh)6
_chemical_formula_sum   'La1 Nd3 Al18 Rh6'
_cell_volume   489.71129343
_cell_formula_units_Z   1
loop_
 _symmetry_equiv_pos_site_id
 _symmetry_equiv_pos_as_xyz
  1  'x, y, z'
loop_
 _atom_site_type_symbol
 _atom_site_label
 _atom_site_symmetry_multiplicity
 _atom_site_fract_x
 _atom_site_fract_y
 _atom_site_fract_z
 _atom_site_occupancy
  La  La0  1  0.994797  0.671386  0.750000  1
  Nd  Nd1  1  0.005283  0.329249  0.250000  1
  Nd  Nd2  1  0.671579  0.994203  0.750000  1
  Nd  Nd3  1  0.327825  0.004788  0.250000  1
  Al  Al4  1  0.132529  0.133331  0.750000  1
  Al  Al5  1  0.868400  0.869505  0.250000  1
  Al  Al6  1  0.002737  0.334130  0.571971  1
  Al  Al7  1  0.996695  0.664008  0.424991  1
  Al  Al8  1  0.996695  0.664008  0.075009  1
  Al  Al9  1  0.337417  0.004160  0.928045  1
  Al  Al10  1  0.002737  0.334130  0.928029  1
  Al  Al11  1  0.664480  0.997825  0.072911  1
  Al  Al12  1  0.664480  0.997825  0.427089  1
  Al  Al13  1  0.337417  0.004160  0.571955  1
  Al  Al14  1  0.333877  0.333872  0.045817  1
  Al  Al15  1  0.664751  0.665720  0.957497  1
  Al  Al16  1  0.664751  0.665720  0.542503  1
  Al  Al17  1  0.333877  0.333872  0.454183  1
  Al  Al18  1  0.342246  0.547496  0.750000  1
  Al  Al19  1  0.659163  0.451883  0.250000  1
  Al  Al20  1  0.545973  0.338519  0.750000  1
  Al  Al21  1  0.452504  0.660611  0.250000  1
  Rh  Rh22  1  0.670915  0.328519  0.499593  1
  Rh  Rh23  1  0.328607  0.670971  0.499544  1
  Rh  Rh24  1  0.328607  0.670971  0.000456  1
  Rh  Rh25  1  0.670915  0.328519  0.000407  1
  Rh  Rh26  1  0.000371  0.000310  0.499710  1
  Rh  Rh27  1  0.000371  0.000310  0.000290  1
