# generated using pymatgen
data_CaYV3Co9As7
_symmetry_space_group_name_H-M   'P 1'
_cell_length_a   3.75290100
_cell_length_b   9.38847984
_cell_length_c   9.38848000
_cell_angle_alpha   120.00000056
_cell_angle_beta   90.00000000
_cell_angle_gamma   90.00000000
_symmetry_Int_Tables_number   1
_chemical_formula_structural   CaYV3Co9As7
_chemical_formula_sum   'Ca1 Y1 V3 Co9 As7'
_cell_volume   286.47603745
_cell_formula_units_Z   1
loop_
 _symmetry_equiv_pos_site_id
 _symmetry_equiv_pos_as_xyz
  1  'x, y, z'
loop_
 _atom_site_type_symbol
 _atom_site_label
 _atom_site_symmetry_multiplicity
 _atom_site_fract_x
 _atom_site_fract_y
 _atom_site_fract_z
 _atom_site_occupancy
  Ca  Ca0  1  0.500000  0.333333  0.666667  1
  Y  Y1  1  0.000000  0.666667  0.333333  1
  V  V2  1  0.500000  0.783415  0.898562  1
  V  V3  1  0.500000  0.115147  0.216585  1
  V  V4  1  0.500000  0.101438  0.884853  1
  Co  Co5  1  0.000000  0.571602  0.944880  1
  Co  Co6  1  0.000000  0.373277  0.428398  1
  Co  Co7  1  0.000000  0.055120  0.626723  1
  Co  Co8  1  0.000000  0.879924  0.158298  1
  Co  Co9  1  0.000000  0.278373  0.120076  1
  Co  Co10  1  0.000000  0.841702  0.721627  1
  Co  Co11  1  0.500000  0.948992  0.380862  1
  Co  Co12  1  0.500000  0.431868  0.051008  1
  Co  Co13  1  0.500000  0.619138  0.568132  1
  As  As14  1  0.000000  0.000000  0.000000  1
  As  As15  1  0.500000  0.707433  0.116829  1
  As  As16  1  0.500000  0.409396  0.292567  1
  As  As17  1  0.500000  0.883171  0.590604  1
  As  As18  1  0.000000  0.585381  0.702492  1
  As  As19  1  0.000000  0.117112  0.414619  1
  As  As20  1  0.000000  0.297508  0.882888  1
