# generated using pymatgen
data_Cd2Hg2SF6
_symmetry_space_group_name_H-M   'P 1'
_cell_length_a   8.10446339
_cell_length_b   8.10446381
_cell_length_c   8.10446400
_cell_angle_alpha   59.99999923
_cell_angle_beta   59.99999750
_cell_angle_gamma   60.00000007
_symmetry_Int_Tables_number   1
_chemical_formula_structural   Cd2Hg2SF6
_chemical_formula_sum   'Cd4 Hg4 S2 F12'
_cell_volume   376.40712983
_cell_formula_units_Z   2
loop_
 _symmetry_equiv_pos_site_id
 _symmetry_equiv_pos_as_xyz
  1  'x, y, z'
loop_
 _atom_site_type_symbol
 _atom_site_label
 _atom_site_symmetry_multiplicity
 _atom_site_fract_x
 _atom_site_fract_y
 _atom_site_fract_z
 _atom_site_occupancy
  Cd  Cd0  1  0.625000  0.625000  0.125000  1
  Cd  Cd1  1  0.625000  0.125000  0.625000  1
  Cd  Cd2  1  0.125000  0.625000  0.625000  1
  Cd  Cd3  1  0.625000  0.625000  0.625000  1
  Hg  Hg4  1  0.125000  0.125000  0.625000  1
  Hg  Hg5  1  0.125000  0.625000  0.125000  1
  Hg  Hg6  1  0.625000  0.125000  0.125000  1
  Hg  Hg7  1  0.125000  0.125000  0.125000  1
  S  S8  1  0.000000  0.000000  0.000000  1
  S  S9  1  0.250000  0.250000  0.250000  1
  F  F10  1  0.711135  0.288865  0.711135  1
  F  F11  1  0.288865  0.288865  0.711135  1
  F  F12  1  0.538865  0.961135  0.538865  1
  F  F13  1  0.288865  0.711135  0.288865  1
  F  F14  1  0.538865  0.538865  0.961135  1
  F  F15  1  0.961135  0.538865  0.538865  1
  F  F16  1  0.711135  0.711135  0.288865  1
  F  F17  1  0.961135  0.961135  0.538865  1
  F  F18  1  0.961135  0.538865  0.961135  1
  F  F19  1  0.711135  0.288865  0.288865  1
  F  F20  1  0.288865  0.711135  0.711135  1
  F  F21  1  0.538865  0.961135  0.961135  1
