# generated using pymatgen
data_TbTm7Sc12GaSi15
_symmetry_space_group_name_H-M   'P 1'
_cell_length_a   7.06397344
_cell_length_b   7.36014244
_cell_length_c   13.95314701
_cell_angle_alpha   89.98597997
_cell_angle_beta   89.99126792
_cell_angle_gamma   90.02192579
_symmetry_Int_Tables_number   1
_chemical_formula_structural   TbTm7Sc12GaSi15
_chemical_formula_sum   'Tb1 Tm7 Sc12 Ga1 Si15'
_cell_volume   725.44985317
_cell_formula_units_Z   1
loop_
 _symmetry_equiv_pos_site_id
 _symmetry_equiv_pos_as_xyz
  1  'x, y, z'
loop_
 _atom_site_type_symbol
 _atom_site_label
 _atom_site_symmetry_multiplicity
 _atom_site_fract_x
 _atom_site_fract_y
 _atom_site_fract_z
 _atom_site_occupancy
  Tb  Tb0  1  0.011767  0.175649  0.096184  1
  Tm  Tm1  1  0.987844  0.823748  0.903497  1
  Tm  Tm2  1  0.487902  0.677215  0.903513  1
  Tm  Tm3  1  0.987534  0.825666  0.597303  1
  Tm  Tm4  1  0.512018  0.323359  0.096483  1
  Tm  Tm5  1  0.010977  0.174784  0.401738  1
  Tm  Tm6  1  0.512804  0.322686  0.402054  1
  Tm  Tm7  1  0.489860  0.679102  0.597303  1
  Sc  Sc8  1  0.161215  0.503743  0.751638  1
  Sc  Sc9  1  0.838442  0.496719  0.250179  1
  Sc  Sc10  1  0.338932  0.003309  0.249808  1
  Sc  Sc11  1  0.661707  0.995601  0.750205  1
  Sc  Sc12  1  0.332795  0.173779  0.626162  1
  Sc  Sc13  1  0.668222  0.824058  0.374488  1
  Sc  Sc14  1  0.169762  0.677644  0.373661  1
  Sc  Sc15  1  0.669132  0.823179  0.125342  1
  Sc  Sc16  1  0.828663  0.323211  0.625553  1
  Sc  Sc17  1  0.330627  0.176003  0.874805  1
  Sc  Sc18  1  0.830383  0.323264  0.874867  1
  Sc  Sc19  1  0.169020  0.676752  0.125390  1
  Ga  Ga20  1  0.161320  0.462956  0.539292  1
  Si  Si21  1  0.033276  0.115698  0.750567  1
  Si  Si22  1  0.966687  0.884736  0.249986  1
  Si  Si23  1  0.467922  0.613635  0.249982  1
  Si  Si24  1  0.531694  0.386785  0.749753  1
  Si  Si25  1  0.284449  0.870706  0.750403  1
  Si  Si26  1  0.714008  0.129133  0.250019  1
  Si  Si27  1  0.215260  0.371206  0.249852  1
  Si  Si28  1  0.785519  0.629321  0.750797  1
  Si  Si29  1  0.840314  0.535238  0.460320  1
  Si  Si30  1  0.340230  0.965050  0.460261  1
  Si  Si31  1  0.840201  0.535947  0.038335  1
  Si  Si32  1  0.658990  0.035094  0.539062  1
  Si  Si33  1  0.159646  0.465669  0.961368  1
  Si  Si34  1  0.658284  0.034677  0.960508  1
  Si  Si35  1  0.342593  0.964676  0.039324  1
