# generated using pymatgen
data_Y2HoEr3(Si3Ru)8
_symmetry_space_group_name_H-M   'P 1'
_cell_length_a   10.11634985
_cell_length_b   10.11635054
_cell_length_c   8.13385712
_cell_angle_alpha   89.95133901
_cell_angle_beta   90.04866240
_cell_angle_gamma   132.62554903
_symmetry_Int_Tables_number   1
_chemical_formula_structural   Y2HoEr3(Si3Ru)8
_chemical_formula_sum   'Y2 Ho1 Er3 Si24 Ru8'
_cell_volume   612.49282230
_cell_formula_units_Z   1
loop_
 _symmetry_equiv_pos_site_id
 _symmetry_equiv_pos_as_xyz
  1  'x, y, z'
loop_
 _atom_site_type_symbol
 _atom_site_label
 _atom_site_symmetry_multiplicity
 _atom_site_fract_x
 _atom_site_fract_y
 _atom_site_fract_z
 _atom_site_occupancy
  Y  Y0  1  0.997106  0.497106  0.250000  1
  Y  Y1  1  0.497455  0.997455  0.250000  1
  Ho  Ho2  1  0.002360  0.502360  0.750000  1
  Er  Er3  1  0.500043  0.499999  0.500037  1
  Er  Er4  1  0.999999  0.000043  0.999963  1
  Er  Er5  1  0.502655  0.002655  0.750000  1
  Si  Si6  1  0.795125  0.205748  0.500537  1
  Si  Si7  1  0.294115  0.704831  0.999381  1
  Si  Si8  1  0.204831  0.794115  0.500619  1
  Si  Si9  1  0.705748  0.295125  0.999463  1
  Si  Si10  1  0.332213  0.332332  0.833211  1
  Si  Si11  1  0.667803  0.667597  0.166839  1
  Si  Si12  1  0.167597  0.167803  0.333161  1
  Si  Si13  1  0.832332  0.832213  0.666789  1
  Si  Si14  1  0.121353  0.887353  0.728312  1
  Si  Si15  1  0.111529  0.877153  0.271293  1
  Si  Si16  1  0.613328  0.378955  0.228960  1
  Si  Si17  1  0.622281  0.388062  0.772085  1
  Si  Si18  1  0.878955  0.113328  0.271040  1
  Si  Si19  1  0.888062  0.122281  0.727915  1
  Si  Si20  1  0.387353  0.621353  0.771688  1
  Si  Si21  1  0.377153  0.611529  0.228707  1
  Si  Si22  1  0.344435  0.111518  0.505289  1
  Si  Si23  1  0.887719  0.653948  0.495226  1
  Si  Si24  1  0.388524  0.155844  0.003928  1
  Si  Si25  1  0.846062  0.612285  0.994932  1
  Si  Si26  1  0.655844  0.888524  0.496072  1
  Si  Si27  1  0.112285  0.346062  0.505068  1
  Si  Si28  1  0.611518  0.844435  0.994711  1
  Si  Si29  1  0.153948  0.387719  0.004774  1
  Ru  Ru30  1  0.667616  0.329437  0.501355  1
  Ru  Ru31  1  0.170589  0.832453  0.999144  1
  Ru  Ru32  1  0.332453  0.670589  0.500856  1
  Ru  Ru33  1  0.829437  0.167616  0.998645  1
  Ru  Ru34  1  0.126327  0.126479  0.627349  1
  Ru  Ru35  1  0.873652  0.873712  0.372531  1
  Ru  Ru36  1  0.373712  0.373652  0.127469  1
  Ru  Ru37  1  0.626479  0.626327  0.872651  1
