# generated using pymatgen
data_YbDy6Sc(B6Os)4
_symmetry_space_group_name_H-M   'P 1'
_cell_length_a   3.63330300
_cell_length_b   9.11473413
_cell_length_c   11.50238995
_cell_angle_alpha   89.98410031
_cell_angle_beta   90.00000000
_cell_angle_gamma   90.00000000
_symmetry_Int_Tables_number   1
_chemical_formula_structural   YbDy6Sc(B6Os)4
_chemical_formula_sum   'Yb1 Dy6 Sc1 B24 Os4'
_cell_volume   380.91992692
_cell_formula_units_Z   1
loop_
 _symmetry_equiv_pos_site_id
 _symmetry_equiv_pos_as_xyz
  1  'x, y, z'
loop_
 _atom_site_type_symbol
 _atom_site_label
 _atom_site_symmetry_multiplicity
 _atom_site_fract_x
 _atom_site_fract_y
 _atom_site_fract_z
 _atom_site_occupancy
  Yb  Yb0  1  0.000000  0.323557  0.413882  1
  Dy  Dy1  1  0.000000  0.676226  0.586497  1
  Dy  Dy2  1  0.000000  0.820838  0.085300  1
  Dy  Dy3  1  0.000000  0.179600  0.913722  1
  Dy  Dy4  1  0.000000  0.944286  0.371890  1
  Dy  Dy5  1  0.000000  0.058198  0.628493  1
  Dy  Dy6  1  0.000000  0.443748  0.126604  1
  Sc  Sc7  1  0.000000  0.555867  0.872039  1
  B  B8  1  0.500000  0.553305  0.432671  1
  B  B9  1  0.500000  0.447262  0.568527  1
  B  B10  1  0.500000  0.052635  0.065830  1
  B  B11  1  0.500000  0.943609  0.932678  1
  B  B12  1  0.500000  0.747563  0.418911  1
  B  B13  1  0.500000  0.253975  0.582076  1
  B  B14  1  0.500000  0.248045  0.080039  1
  B  B15  1  0.500000  0.747145  0.919005  1
  B  B16  1  0.500000  0.790965  0.265700  1
  B  B17  1  0.500000  0.211682  0.735397  1
  B  B18  1  0.500000  0.290309  0.233278  1
  B  B19  1  0.500000  0.705954  0.767371  1
  B  B20  1  0.500000  0.630993  0.185371  1
  B  B21  1  0.500000  0.372715  0.816686  1
  B  B22  1  0.500000  0.132049  0.313585  1
  B  B23  1  0.500000  0.867118  0.686206  1
  B  B24  1  0.500000  0.983373  0.211589  1
  B  B25  1  0.500000  0.015435  0.787979  1
  B  B26  1  0.500000  0.482802  0.287498  1
  B  B27  1  0.500000  0.518948  0.715171  1
  B  B28  1  0.500000  0.603085  0.025178  1
  B  B29  1  0.500000  0.400012  0.968890  1
  B  B30  1  0.500000  0.106175  0.471235  1
  B  B31  1  0.500000  0.893393  0.529931  1
  Os  Os32  1  0.000000  0.638443  0.320061  1
  Os  Os33  1  0.000000  0.365476  0.682446  1
  Os  Os34  1  0.000000  0.136835  0.176539  1
  Os  Os35  1  0.000000  0.858377  0.821725  1
