# generated using pymatgen
data_Eu8In2Ga
_symmetry_space_group_name_H-M   'P 1'
_cell_length_a   9.73529675
_cell_length_b   9.77777173
_cell_length_c   9.89663967
_cell_angle_alpha   99.00696594
_cell_angle_beta   101.21896593
_cell_angle_gamma   119.67678668
_symmetry_Int_Tables_number   1
_chemical_formula_structural   Eu8In2Ga
_chemical_formula_sum   'Eu16 In4 Ga2'
_cell_volume   766.68900583
_cell_formula_units_Z   2
loop_
 _symmetry_equiv_pos_site_id
 _symmetry_equiv_pos_as_xyz
  1  'x, y, z'
loop_
 _atom_site_type_symbol
 _atom_site_label
 _atom_site_symmetry_multiplicity
 _atom_site_fract_x
 _atom_site_fract_y
 _atom_site_fract_z
 _atom_site_occupancy
  Eu  Eu0  1  0.956123  0.055337  0.667930  1
  Eu  Eu1  1  0.040192  0.936919  0.332119  1
  Eu  Eu2  1  0.923750  0.764242  0.893101  1
  Eu  Eu3  1  0.075387  0.234851  0.106457  1
  Eu  Eu4  1  0.537243  0.702305  0.649020  1
  Eu  Eu5  1  0.471343  0.303952  0.354786  1
  Eu  Eu6  1  0.710672  0.500135  0.114671  1
  Eu  Eu7  1  0.289615  0.499782  0.887516  1
  Eu  Eu8  1  0.881085  0.405460  0.648657  1
  Eu  Eu9  1  0.116966  0.598642  0.347127  1
  Eu  Eu10  1  0.675549  0.129010  0.887319  1
  Eu  Eu11  1  0.323995  0.870266  0.111767  1
  Eu  Eu12  1  0.540128  0.703469  0.296160  1
  Eu  Eu13  1  0.464551  0.296071  0.708491  1
  Eu  Eu14  1  0.766347  0.153842  0.294440  1
  Eu  Eu15  1  0.226837  0.842810  0.701207  1
  In  In16  1  0.171999  0.336702  0.499228  1
  In  In17  1  0.675282  0.837356  0.025862  1
  In  In18  1  0.324120  0.161977  0.974717  1
  In  In19  1  0.500037  0.000227  0.499864  1
  Ga  Ga20  1  0.829413  0.666639  0.500683  1
  Ga  Ga21  1  0.999363  0.500005  0.998881  1
