# generated using pymatgen
data_Zr10TlIn2Bi3Pb2
_symmetry_space_group_name_H-M   'P 1'
_cell_length_a   8.99870330
_cell_length_b   8.99870396
_cell_length_c   6.00487300
_cell_angle_alpha   90.00000000
_cell_angle_beta   90.00000000
_cell_angle_gamma   120.14600945
_symmetry_Int_Tables_number   1
_chemical_formula_structural   Zr10TlIn2Bi3Pb2
_chemical_formula_sum   'Zr10 Tl1 In2 Bi3 Pb2'
_cell_volume   420.48789847
_cell_formula_units_Z   1
loop_
 _symmetry_equiv_pos_site_id
 _symmetry_equiv_pos_as_xyz
  1  'x, y, z'
loop_
 _atom_site_type_symbol
 _atom_site_label
 _atom_site_symmetry_multiplicity
 _atom_site_fract_x
 _atom_site_fract_y
 _atom_site_fract_z
 _atom_site_occupancy
  Zr  Zr0  1  0.666669  0.333359  0.002654  1
  Zr  Zr1  1  0.333359  0.666669  0.002654  1
  Zr  Zr2  1  0.333359  0.666669  0.497346  1
  Zr  Zr3  1  0.666669  0.333359  0.497346  1
  Zr  Zr4  1  0.719616  0.719616  0.750000  1
  Zr  Zr5  1  0.279230  0.999530  0.750000  1
  Zr  Zr6  1  0.999530  0.279230  0.750000  1
  Zr  Zr7  1  0.283398  0.283398  0.250000  1
  Zr  Zr8  1  0.717938  0.999781  0.250000  1
  Zr  Zr9  1  0.999781  0.717938  0.250000  1
  Tl  Tl10  1  0.620789  0.620789  0.250000  1
  In  In11  1  0.999390  0.999390  0.001620  1
  In  In12  1  0.999390  0.999390  0.498380  1
  Bi  Bi13  1  0.385153  0.385153  0.750000  1
  Bi  Bi14  1  0.615187  0.999598  0.750000  1
  Bi  Bi15  1  0.999598  0.615187  0.750000  1
  Pb  Pb16  1  0.381200  0.999743  0.250000  1
  Pb  Pb17  1  0.999743  0.381200  0.250000  1
