# generated using pymatgen
data_Tm2MgCo5(P3Rh2)2
_symmetry_space_group_name_H-M   'P 1'
_cell_length_a   3.74193200
_cell_length_b   10.57378900
_cell_length_c   12.30660900
_cell_angle_alpha   90.00000000
_cell_angle_beta   90.00000000
_cell_angle_gamma   90.00000000
_symmetry_Int_Tables_number   1
_chemical_formula_structural   Tm2MgCo5(P3Rh2)2
_chemical_formula_sum   'Tm4 Mg2 Co10 P12 Rh8'
_cell_volume   486.92820720
_cell_formula_units_Z   2
loop_
 _symmetry_equiv_pos_site_id
 _symmetry_equiv_pos_as_xyz
  1  'x, y, z'
loop_
 _atom_site_type_symbol
 _atom_site_label
 _atom_site_symmetry_multiplicity
 _atom_site_fract_x
 _atom_site_fract_y
 _atom_site_fract_z
 _atom_site_occupancy
  Tm  Tm0  1  0.250000  0.584584  0.712369  1
  Tm  Tm1  1  0.250000  0.915416  0.212369  1
  Tm  Tm2  1  0.750000  0.422051  0.290451  1
  Tm  Tm3  1  0.750000  0.077949  0.790451  1
  Mg  Mg4  1  0.750000  0.293739  0.011918  1
  Mg  Mg5  1  0.750000  0.206261  0.511918  1
  Co  Co6  1  0.750000  0.775546  0.822667  1
  Co  Co7  1  0.750000  0.724454  0.322667  1
  Co  Co8  1  0.250000  0.877094  0.697793  1
  Co  Co9  1  0.250000  0.622906  0.197793  1
  Co  Co10  1  0.750000  0.111168  0.305506  1
  Co  Co11  1  0.750000  0.388832  0.805506  1
  Co  Co12  1  0.250000  0.464268  0.934810  1
  Co  Co13  1  0.250000  0.035732  0.434810  1
  Co  Co14  1  0.750000  0.540880  0.065823  1
  Co  Co15  1  0.750000  0.959120  0.565823  1
  P  P16  1  0.250000  0.435485  0.115588  1
  P  P17  1  0.250000  0.064515  0.615588  1
  P  P18  1  0.750000  0.578723  0.888399  1
  P  P19  1  0.750000  0.921277  0.388399  1
  P  P20  1  0.250000  0.273968  0.860890  1
  P  P21  1  0.250000  0.226032  0.360890  1
  P  P22  1  0.750000  0.728139  0.141470  1
  P  P23  1  0.750000  0.771861  0.641470  1
  P  P24  1  0.250000  0.606337  0.379314  1
  P  P25  1  0.250000  0.893663  0.879314  1
  P  P26  1  0.750000  0.411365  0.620709  1
  P  P27  1  0.750000  0.088635  0.120709  1
  Rh  Rh28  1  0.250000  0.706278  0.982390  1
  Rh  Rh29  1  0.250000  0.793722  0.482390  1
  Rh  Rh30  1  0.250000  0.408372  0.474036  1
  Rh  Rh31  1  0.250000  0.091628  0.974036  1
  Rh  Rh32  1  0.750000  0.600638  0.521439  1
  Rh  Rh33  1  0.750000  0.899362  0.021439  1
  Rh  Rh34  1  0.250000  0.222201  0.174430  1
  Rh  Rh35  1  0.250000  0.277799  0.674430  1
