# generated using pymatgen
data_DyTm3GeS3
_symmetry_space_group_name_H-M   'P 1'
_cell_length_a   6.85900207
_cell_length_b   6.85900176
_cell_length_c   6.85900200
_cell_angle_alpha   131.99052481
_cell_angle_beta   131.99052252
_cell_angle_gamma   70.24399853
_symmetry_Int_Tables_number   1
_chemical_formula_structural   DyTm3GeS3
_chemical_formula_sum   'Dy1 Tm3 Ge1 S3'
_cell_volume   174.72144968
_cell_formula_units_Z   1
loop_
 _symmetry_equiv_pos_site_id
 _symmetry_equiv_pos_as_xyz
  1  'x, y, z'
loop_
 _atom_site_type_symbol
 _atom_site_label
 _atom_site_symmetry_multiplicity
 _atom_site_fract_x
 _atom_site_fract_y
 _atom_site_fract_z
 _atom_site_occupancy
  Dy  Dy0  1  0.248741  0.248741  0.000000  1
  Tm  Tm1  1  0.751491  0.751491  0.000000  1
  Tm  Tm2  1  0.499872  0.999872  0.500000  1
  Tm  Tm3  1  0.999872  0.499872  0.500000  1
  Ge  Ge4  1  0.998408  0.998408  0.000000  1
  S  S5  1  0.502236  0.502236  0.000000  1
  S  S6  1  0.749689  0.249689  0.500000  1
  S  S7  1  0.249689  0.749689  0.500000  1
