# generated using pymatgen
data_La4Pr4CdHgIr2
_symmetry_space_group_name_H-M   'P 1'
_cell_length_a   10.05791498
_cell_length_b   10.05791458
_cell_length_c   10.11757600
_cell_angle_alpha   59.80358985
_cell_angle_beta   59.80359118
_cell_angle_gamma   60.42664632
_symmetry_Int_Tables_number   1
_chemical_formula_structural   La4Pr4CdHgIr2
_chemical_formula_sum   'La8 Pr8 Cd2 Hg2 Ir4'
_cell_volume   723.85906013
_cell_formula_units_Z   2
loop_
 _symmetry_equiv_pos_site_id
 _symmetry_equiv_pos_as_xyz
  1  'x, y, z'
loop_
 _atom_site_type_symbol
 _atom_site_label
 _atom_site_symmetry_multiplicity
 _atom_site_fract_x
 _atom_site_fract_y
 _atom_site_fract_z
 _atom_site_occupancy
  La  La0  1  0.346773  0.346773  0.348340  1
  La  La1  1  0.346773  0.346773  0.958114  1
  La  La2  1  0.349888  0.954815  0.347648  1
  La  La3  1  0.954815  0.349888  0.347648  1
  La  La4  1  0.810192  0.188757  0.190674  1
  La  La5  1  0.188757  0.810192  0.810377  1
  La  La6  1  0.188757  0.810192  0.190674  1
  La  La7  1  0.810192  0.188757  0.810377  1
  Pr  Pr8  1  0.191884  0.191884  0.808116  1
  Pr  Pr9  1  0.804647  0.804647  0.195353  1
  Pr  Pr10  1  0.937487  0.562112  0.563415  1
  Pr  Pr11  1  0.562112  0.937487  0.936986  1
  Pr  Pr12  1  0.562112  0.937487  0.563415  1
  Pr  Pr13  1  0.937487  0.562112  0.936986  1
  Pr  Pr14  1  0.561611  0.561611  0.938389  1
  Pr  Pr15  1  0.937871  0.937871  0.562129  1
  Cd  Cd16  1  0.577586  0.260920  0.580747  1
  Cd  Cd17  1  0.260920  0.577586  0.580747  1
  Hg  Hg18  1  0.583845  0.583845  0.584544  1
  Hg  Hg19  1  0.583845  0.583845  0.247766  1
  Ir  Ir20  1  0.139174  0.139174  0.144999  1
  Ir  Ir21  1  0.139174  0.139174  0.576653  1
  Ir  Ir22  1  0.147076  0.577021  0.137952  1
  Ir  Ir23  1  0.577021  0.147076  0.137952  1
