# generated using pymatgen
data_HfZr5BI12
_symmetry_space_group_name_H-M   'P 1'
_cell_length_a   9.29652831
_cell_length_b   9.31141798
_cell_length_c   9.28364124
_cell_angle_alpha   106.89910711
_cell_angle_beta   107.01208449
_cell_angle_gamma   107.05395760
_symmetry_Int_Tables_number   1
_chemical_formula_structural   HfZr5BI12
_chemical_formula_sum   'Hf1 Zr5 B1 I12'
_cell_volume   669.47991107
_cell_formula_units_Z   1
loop_
 _symmetry_equiv_pos_site_id
 _symmetry_equiv_pos_as_xyz
  1  'x, y, z'
loop_
 _atom_site_type_symbol
 _atom_site_label
 _atom_site_symmetry_multiplicity
 _atom_site_fract_x
 _atom_site_fract_y
 _atom_site_fract_z
 _atom_site_occupancy
  Hf  Hf0  1  0.972827  0.730396  0.911457  1
  Zr  Zr1  1  0.272738  0.090161  0.027498  1
  Zr  Zr2  1  0.089868  0.028239  0.273355  1
  Zr  Zr3  1  0.910390  0.973561  0.727351  1
  Zr  Zr4  1  0.728186  0.911337  0.973011  1
  Zr  Zr5  1  0.027086  0.270194  0.088605  1
  B  B6  1  0.000078  0.997829  0.999291  1
  I  I7  1  0.921975  0.307563  0.775575  1
  I  I8  1  0.692407  0.223950  0.077875  1
  I  I9  1  0.442780  0.143697  0.368404  1
  I  I10  1  0.857987  0.632167  0.561768  1
  I  I11  1  0.224592  0.078062  0.692045  1
  I  I12  1  0.636259  0.558821  0.856866  1
  I  I13  1  0.367944  0.441986  0.143439  1
  I  I14  1  0.775184  0.921760  0.307797  1
  I  I15  1  0.143628  0.367743  0.442404  1
  I  I16  1  0.557101  0.856323  0.631736  1
  I  I17  1  0.302396  0.773814  0.921461  1
  I  I18  1  0.076574  0.692399  0.220063  1
