# generated using pymatgen
data_Ce2Al9RuRh2
_symmetry_space_group_name_H-M   'P 1'
_cell_length_a   7.62571793
_cell_length_b   7.62571828
_cell_length_c   9.48152400
_cell_angle_alpha   90.00000000
_cell_angle_beta   90.00000000
_cell_angle_gamma   119.00872919
_symmetry_Int_Tables_number   1
_chemical_formula_structural   Ce2Al9RuRh2
_chemical_formula_sum   'Ce4 Al18 Ru2 Rh4'
_cell_volume   482.19446154
_cell_formula_units_Z   2
loop_
 _symmetry_equiv_pos_site_id
 _symmetry_equiv_pos_as_xyz
  1  'x, y, z'
loop_
 _atom_site_type_symbol
 _atom_site_label
 _atom_site_symmetry_multiplicity
 _atom_site_fract_x
 _atom_site_fract_y
 _atom_site_fract_z
 _atom_site_occupancy
  Ce  Ce0  1  0.995380  0.677076  0.250000  1
  Ce  Ce1  1  0.004620  0.322924  0.750000  1
  Ce  Ce2  1  0.677076  0.995380  0.250000  1
  Ce  Ce3  1  0.322924  0.004620  0.750000  1
  Al  Al4  1  0.003297  0.337378  0.077142  1
  Al  Al5  1  0.996703  0.662622  0.922858  1
  Al  Al6  1  0.996703  0.662622  0.577142  1
  Al  Al7  1  0.337378  0.003297  0.422858  1
  Al  Al8  1  0.003297  0.337378  0.422858  1
  Al  Al9  1  0.662622  0.996703  0.577142  1
  Al  Al10  1  0.662622  0.996703  0.922858  1
  Al  Al11  1  0.337378  0.003297  0.077142  1
  Al  Al12  1  0.333020  0.333020  0.546244  1
  Al  Al13  1  0.666980  0.666980  0.453756  1
  Al  Al14  1  0.666980  0.666980  0.046244  1
  Al  Al15  1  0.333020  0.333020  0.953756  1
  Al  Al16  1  0.131854  0.131854  0.250000  1
  Al  Al17  1  0.868146  0.868146  0.750000  1
  Al  Al18  1  0.343069  0.551548  0.250000  1
  Al  Al19  1  0.656931  0.448452  0.750000  1
  Al  Al20  1  0.551548  0.343069  0.250000  1
  Al  Al21  1  0.448452  0.656931  0.750000  1
  Ru  Ru22  1  0.000000  0.000000  0.000000  1
  Ru  Ru23  1  0.000000  0.000000  0.500000  1
  Rh  Rh24  1  0.671727  0.328273  0.000000  1
  Rh  Rh25  1  0.328273  0.671727  0.000000  1
  Rh  Rh26  1  0.328273  0.671727  0.500000  1
  Rh  Rh27  1  0.671727  0.328273  0.500000  1
