# generated using pymatgen
data_Pr3Nd2IrRu
_symmetry_space_group_name_H-M   'P 1'
_cell_length_a   9.02949307
_cell_length_b   9.02949272
_cell_length_c   7.39494692
_cell_angle_alpha   83.66055372
_cell_angle_beta   83.66055424
_cell_angle_gamma   43.30103045
_symmetry_Int_Tables_number   1
_chemical_formula_structural   Pr3Nd2IrRu
_chemical_formula_sum   'Pr6 Nd4 Ir2 Ru2'
_cell_volume   410.57515090
_cell_formula_units_Z   2
loop_
 _symmetry_equiv_pos_site_id
 _symmetry_equiv_pos_as_xyz
  1  'x, y, z'
loop_
 _atom_site_type_symbol
 _atom_site_label
 _atom_site_symmetry_multiplicity
 _atom_site_fract_x
 _atom_site_fract_y
 _atom_site_fract_z
 _atom_site_occupancy
  Pr  Pr0  1  0.014256  0.799945  0.918415  1
  Pr  Pr1  1  0.200055  0.985744  0.581585  1
  Pr  Pr2  1  0.981461  0.203776  0.085582  1
  Pr  Pr3  1  0.796224  0.018539  0.414418  1
  Pr  Pr4  1  0.359102  0.209164  0.815910  1
  Pr  Pr5  1  0.790836  0.640898  0.684090  1
  Nd  Nd6  1  0.644830  0.788866  0.185938  1
  Nd  Nd7  1  0.211134  0.355170  0.314062  1
  Nd  Nd8  1  0.569271  0.430729  0.750000  1
  Nd  Nd9  1  0.429022  0.570978  0.250000  1
  Ir  Ir10  1  0.180087  0.595787  0.574349  1
  Ir  Ir11  1  0.404213  0.819913  0.925651  1
  Ru  Ru12  1  0.821590  0.402082  0.426435  1
  Ru  Ru13  1  0.597918  0.178410  0.073565  1
