# generated using pymatgen
data_YbAlB3O7
_symmetry_space_group_name_H-M   'P 1'
_cell_length_a   7.09881077
_cell_length_b   7.09881167
_cell_length_c   4.38767400
_cell_angle_alpha   90.00000000
_cell_angle_beta   90.00000000
_cell_angle_gamma   111.75658349
_symmetry_Int_Tables_number   1
_chemical_formula_structural   YbAlB3O7
_chemical_formula_sum   'Yb2 Al2 B6 O14'
_cell_volume   205.35835079
_cell_formula_units_Z   2
loop_
 _symmetry_equiv_pos_site_id
 _symmetry_equiv_pos_as_xyz
  1  'x, y, z'
loop_
 _atom_site_type_symbol
 _atom_site_label
 _atom_site_symmetry_multiplicity
 _atom_site_fract_x
 _atom_site_fract_y
 _atom_site_fract_z
 _atom_site_occupancy
  Yb  Yb0  1  0.000000  0.500000  0.000000  1
  Yb  Yb1  1  0.500000  0.000000  0.000000  1
  Al  Al2  1  0.500000  0.500000  0.000000  1
  Al  Al3  1  0.000000  0.000000  0.000000  1
  B  B4  1  0.862646  0.137354  0.458047  1
  B  B5  1  0.362646  0.637354  0.541953  1
  B  B6  1  0.250000  0.250000  0.500000  1
  B  B7  1  0.637354  0.362646  0.458047  1
  B  B8  1  0.137354  0.862646  0.541953  1
  B  B9  1  0.750000  0.750000  0.500000  1
  O  O10  1  0.132832  0.867168  0.222511  1
  O  O11  1  0.632832  0.367168  0.777489  1
  O  O12  1  0.278900  0.426447  0.700966  1
  O  O13  1  0.573553  0.721100  0.700966  1
  O  O14  1  0.221100  0.073553  0.700966  1
  O  O15  1  0.721100  0.573553  0.299034  1
  O  O16  1  0.926447  0.778900  0.700966  1
  O  O17  1  0.867168  0.132832  0.777489  1
  O  O18  1  0.426447  0.278900  0.299034  1
  O  O19  1  0.750000  0.250000  0.325323  1
  O  O20  1  0.250000  0.750000  0.674677  1
  O  O21  1  0.778900  0.926447  0.299034  1
  O  O22  1  0.073553  0.221100  0.299034  1
  O  O23  1  0.367168  0.632832  0.222511  1
