# generated using pymatgen
data_SmAl8Cu4Si
_symmetry_space_group_name_H-M   'P 1'
_cell_length_a   5.80449785
_cell_length_b   5.80449901
_cell_length_c   14.30473016
_cell_angle_alpha   101.70747683
_cell_angle_beta   101.70749711
_cell_angle_gamma   90.00146760
_symmetry_Int_Tables_number   1
_chemical_formula_structural   SmAl8Cu4Si
_chemical_formula_sum   'Sm2 Al16 Cu8 Si2'
_cell_volume   461.68662248
_cell_formula_units_Z   2
loop_
 _symmetry_equiv_pos_site_id
 _symmetry_equiv_pos_as_xyz
  1  'x, y, z'
loop_
 _atom_site_type_symbol
 _atom_site_label
 _atom_site_symmetry_multiplicity
 _atom_site_fract_x
 _atom_site_fract_y
 _atom_site_fract_z
 _atom_site_occupancy
  Sm  Sm0  1  0.750002  0.249998  0.500000  1
  Sm  Sm1  1  0.249998  0.750003  0.500000  1
  Al  Al2  1  0.301858  0.301858  0.104170  1
  Al  Al3  1  0.802328  0.301818  0.104166  1
  Al  Al4  1  0.301818  0.802328  0.104166  1
  Al  Al5  1  0.802312  0.802313  0.104169  1
  Al  Al6  1  0.408975  0.408975  0.310484  1
  Al  Al7  1  0.901498  0.409026  0.310504  1
  Al  Al8  1  0.409027  0.901498  0.310504  1
  Al  Al9  1  0.901421  0.901420  0.310492  1
  Al  Al10  1  0.098581  0.098581  0.689508  1
  Al  Al11  1  0.590974  0.098502  0.689496  1
  Al  Al12  1  0.098502  0.590974  0.689496  1
  Al  Al13  1  0.591025  0.591025  0.689516  1
  Al  Al14  1  0.197688  0.197688  0.895831  1
  Al  Al15  1  0.698182  0.197672  0.895834  1
  Al  Al16  1  0.197672  0.698182  0.895834  1
  Al  Al17  1  0.698142  0.698142  0.895829  1
  Cu  Cu18  1  0.000000  0.000000  0.000000  1
  Cu  Cu19  1  0.500000  0.500000  0.000000  1
  Cu  Cu20  1  0.604505  0.104538  0.209067  1
  Cu  Cu21  1  0.104537  0.604505  0.209067  1
  Cu  Cu22  1  0.706685  0.706685  0.413436  1
  Cu  Cu23  1  0.293315  0.293315  0.586564  1
  Cu  Cu24  1  0.895464  0.395492  0.790933  1
  Cu  Cu25  1  0.395492  0.895464  0.790933  1
  Si  Si26  1  0.210539  0.210539  0.421083  1
  Si  Si27  1  0.789461  0.789461  0.578918  1
