# generated using pymatgen
data_Pr2CoRuBr
_symmetry_space_group_name_H-M   'P 1'
_cell_length_a   4.14428900
_cell_length_b   4.14428964
_cell_length_c   17.04886300
_cell_angle_alpha   90.00000000
_cell_angle_beta   90.00000000
_cell_angle_gamma   120.00000291
_symmetry_Int_Tables_number   1
_chemical_formula_structural   Pr2CoRuBr
_chemical_formula_sum   'Pr4 Co2 Ru2 Br2'
_cell_volume   253.58652517
_cell_formula_units_Z   2
loop_
 _symmetry_equiv_pos_site_id
 _symmetry_equiv_pos_as_xyz
  1  'x, y, z'
loop_
 _atom_site_type_symbol
 _atom_site_label
 _atom_site_symmetry_multiplicity
 _atom_site_fract_x
 _atom_site_fract_y
 _atom_site_fract_z
 _atom_site_occupancy
  Pr  Pr0  1  0.000000  0.000000  0.609672  1
  Pr  Pr1  1  0.000000  0.000000  0.390474  1
  Pr  Pr2  1  0.000000  0.000000  0.109672  1
  Pr  Pr3  1  0.000000  0.000000  0.890474  1
  Co  Co4  1  0.666667  0.333333  0.998609  1
  Co  Co5  1  0.333333  0.666667  0.498609  1
  Ru  Ru6  1  0.666667  0.333333  0.501302  1
  Ru  Ru7  1  0.333333  0.666667  0.001302  1
  Br  Br8  1  0.666667  0.333333  0.249944  1
  Br  Br9  1  0.333333  0.666667  0.749944  1
