# generated using pymatgen
data_Na3Al7S12
_symmetry_space_group_name_H-M   'P 1'
_cell_length_a   9.20379800
_cell_length_b   9.73574404
_cell_length_c   12.62917700
_cell_angle_alpha   90.00000000
_cell_angle_beta   90.00000000
_cell_angle_gamma   96.10230945
_symmetry_Int_Tables_number   1
_chemical_formula_structural   Na3Al7S12
_chemical_formula_sum   'Na6 Al14 S24'
_cell_volume   1125.23547869
_cell_formula_units_Z   2
loop_
 _symmetry_equiv_pos_site_id
 _symmetry_equiv_pos_as_xyz
  1  'x, y, z'
loop_
 _atom_site_type_symbol
 _atom_site_label
 _atom_site_symmetry_multiplicity
 _atom_site_fract_x
 _atom_site_fract_y
 _atom_site_fract_z
 _atom_site_occupancy
  Na  Na0  1  0.985967  0.488358  0.285381  1
  Na  Na1  1  0.014033  0.511642  0.785381  1
  Na  Na2  1  0.859506  0.178710  0.015876  1
  Na  Na3  1  0.140494  0.821290  0.515876  1
  Na  Na4  1  0.371682  0.173704  0.000870  1
  Na  Na5  1  0.628318  0.826296  0.500870  1
  Al  Al6  1  0.966061  0.028983  0.285112  1
  Al  Al7  1  0.033939  0.971017  0.785112  1
  Al  Al8  1  0.708744  0.189166  0.764664  1
  Al  Al9  1  0.291256  0.810834  0.264664  1
  Al  Al10  1  0.303378  0.179262  0.372641  1
  Al  Al11  1  0.696622  0.820738  0.872641  1
  Al  Al12  1  0.526364  0.477605  0.767833  1
  Al  Al13  1  0.473636  0.522395  0.267833  1
  Al  Al14  1  0.331314  0.172205  0.670991  1
  Al  Al15  1  0.668686  0.827795  0.170991  1
  Al  Al16  1  0.975915  0.193549  0.537428  1
  Al  Al17  1  0.024085  0.806451  0.037428  1
  Al  Al18  1  0.630581  0.362708  0.515386  1
  Al  Al19  1  0.369419  0.637292  0.015386  1
  S  S20  1  0.082177  0.013164  0.959953  1
  S  S21  1  0.755026  0.048383  0.201035  1
  S  S22  1  0.671599  0.676157  0.305091  1
  S  S23  1  0.328401  0.323843  0.805091  1
  S  S24  1  0.244974  0.951617  0.701036  1
  S  S25  1  0.571036  0.157865  0.611542  1
  S  S26  1  0.477143  0.683092  0.849172  1
  S  S27  1  0.522857  0.316908  0.349172  1
  S  S28  1  0.271739  0.601102  0.338007  1
  S  S29  1  0.728261  0.398898  0.838007  1
  S  S30  1  0.545871  0.542084  0.596073  1
  S  S31  1  0.454129  0.457916  0.096073  1
  S  S32  1  0.365611  0.961304  0.392957  1
  S  S33  1  0.634389  0.038696  0.892957  1
  S  S34  1  0.866567  0.790658  0.749017  1
  S  S35  1  0.133433  0.209342  0.249017  1
  S  S36  1  0.221732  0.268124  0.528201  1
  S  S37  1  0.778268  0.731876  0.028201  1
  S  S38  1  0.949185  0.173459  0.719914  1
  S  S39  1  0.050815  0.826541  0.219914  1
  S  S40  1  0.875028  0.385247  0.489813  1
  S  S41  1  0.124972  0.614753  0.989813  1
  S  S42  1  0.428964  0.842135  0.111541  1
  S  S43  1  0.917823  0.986836  0.459953  1
