# generated using pymatgen
data_AcThPPt8
_symmetry_space_group_name_H-M   'P 1'
_cell_length_a   9.16596600
_cell_length_b   9.23381475
_cell_length_c   4.31599900
_cell_angle_alpha   90.00000000
_cell_angle_beta   90.00000000
_cell_angle_gamma   145.45577138
_symmetry_Int_Tables_number   1
_chemical_formula_structural   AcThPPt8
_chemical_formula_sum   'Ac1 Th1 P1 Pt8'
_cell_volume   207.13626754
_cell_formula_units_Z   1
loop_
 _symmetry_equiv_pos_site_id
 _symmetry_equiv_pos_as_xyz
  1  'x, y, z'
loop_
 _atom_site_type_symbol
 _atom_site_label
 _atom_site_symmetry_multiplicity
 _atom_site_fract_x
 _atom_site_fract_y
 _atom_site_fract_z
 _atom_site_occupancy
  Ac  Ac0  1  0.615793  0.373778  0.500000  1
  Th  Th1  1  0.373379  0.625956  0.500000  1
  P  P2  1  0.222525  0.219342  0.000000  1
  Pt  Pt3  1  0.105870  0.884547  0.000000  1
  Pt  Pt4  1  0.894745  0.113222  0.000000  1
  Pt  Pt5  1  0.491722  0.977944  0.000000  1
  Pt  Pt6  1  0.991506  0.489964  0.000000  1
  Pt  Pt7  1  0.197996  0.791590  0.500000  1
  Pt  Pt8  1  0.797152  0.195719  0.500000  1
  Pt  Pt9  1  0.998996  0.002392  0.500000  1
  Pt  Pt10  1  0.623915  0.639144  0.000000  1
