# generated using pymatgen
data_Yb2Pu5HfH24
_symmetry_space_group_name_H-M   'P 1'
_cell_length_a   6.52506600
_cell_length_b   6.51683100
_cell_length_c   6.54349400
_cell_angle_alpha   90.00000000
_cell_angle_beta   90.00000000
_cell_angle_gamma   90.00000000
_symmetry_Int_Tables_number   1
_chemical_formula_structural   Yb2Pu5HfH24
_chemical_formula_sum   'Yb2 Pu5 Hf1 H24'
_cell_volume   278.24737510
_cell_formula_units_Z   1
loop_
 _symmetry_equiv_pos_site_id
 _symmetry_equiv_pos_as_xyz
  1  'x, y, z'
loop_
 _atom_site_type_symbol
 _atom_site_label
 _atom_site_symmetry_multiplicity
 _atom_site_fract_x
 _atom_site_fract_y
 _atom_site_fract_z
 _atom_site_occupancy
  Yb  Yb0  1  0.247106  0.000000  0.500000  1
  Yb  Yb1  1  0.752894  0.000000  0.500000  1
  Pu  Pu2  1  0.500000  0.500000  0.500000  1
  Pu  Pu3  1  0.000000  0.500000  0.248382  1
  Pu  Pu4  1  0.000000  0.500000  0.751618  1
  Pu  Pu5  1  0.500000  0.757211  0.000000  1
  Pu  Pu6  1  0.500000  0.242789  0.000000  1
  Hf  Hf7  1  0.000000  0.000000  0.000000  1
  H  H8  1  0.000000  0.156663  0.274617  1
  H  H9  1  0.500000  0.204389  0.659926  1
  H  H10  1  0.500000  0.795611  0.340074  1
  H  H11  1  0.812899  0.651951  0.500000  1
  H  H12  1  0.187101  0.651951  0.500000  1
  H  H13  1  0.343811  0.500000  0.806236  1
  H  H14  1  0.656189  0.500000  0.806236  1
  H  H15  1  0.293903  0.000000  0.145002  1
  H  H16  1  0.150745  0.289231  0.000000  1
  H  H17  1  0.849255  0.710769  0.000000  1
  H  H18  1  0.293903  0.000000  0.854998  1
  H  H19  1  0.849255  0.289231  0.000000  1
  H  H20  1  0.706097  0.000000  0.145002  1
  H  H21  1  0.706097  0.000000  0.854998  1
  H  H22  1  0.150745  0.710769  0.000000  1
  H  H23  1  0.000000  0.843337  0.725383  1
  H  H24  1  0.000000  0.156663  0.725383  1
  H  H25  1  0.000000  0.843337  0.274617  1
  H  H26  1  0.656189  0.500000  0.193764  1
  H  H27  1  0.343811  0.500000  0.193764  1
  H  H28  1  0.812899  0.348049  0.500000  1
  H  H29  1  0.187101  0.348049  0.500000  1
  H  H30  1  0.500000  0.795611  0.659926  1
  H  H31  1  0.500000  0.204389  0.340074  1
