# generated using pymatgen
data_Y4Th(In2Ir)2
_symmetry_space_group_name_H-M   'P 1'
_cell_length_a   3.71768500
_cell_length_b   8.08427125
_cell_length_c   18.27826008
_cell_angle_alpha   90.48771765
_cell_angle_beta   90.00000000
_cell_angle_gamma   90.00000000
_symmetry_Int_Tables_number   1
_chemical_formula_structural   Y4Th(In2Ir)2
_chemical_formula_sum   'Y8 Th2 In8 Ir4'
_cell_volume   549.32907241
_cell_formula_units_Z   2
loop_
 _symmetry_equiv_pos_site_id
 _symmetry_equiv_pos_as_xyz
  1  'x, y, z'
loop_
 _atom_site_type_symbol
 _atom_site_label
 _atom_site_symmetry_multiplicity
 _atom_site_fract_x
 _atom_site_fract_y
 _atom_site_fract_z
 _atom_site_occupancy
  Y  Y0  1  0.500000  0.258554  0.278526  1
  Y  Y1  1  0.500000  0.741446  0.721474  1
  Y  Y2  1  0.500000  0.112247  0.586203  1
  Y  Y3  1  0.500000  0.887753  0.413797  1
  Y  Y4  1  0.500000  0.387644  0.087169  1
  Y  Y5  1  0.500000  0.612356  0.912831  1
  Y  Y6  1  0.500000  0.000000  0.000000  1
  Y  Y7  1  0.500000  0.500000  0.500000  1
  Th  Th8  1  0.500000  0.244236  0.775974  1
  Th  Th9  1  0.500000  0.755764  0.224026  1
  In  In10  1  0.000000  0.082033  0.148182  1
  In  In11  1  0.000000  0.917967  0.851818  1
  In  In12  1  0.000000  0.431845  0.644692  1
  In  In13  1  0.000000  0.568155  0.355308  1
  In  In14  1  0.000000  0.207648  0.432374  1
  In  In15  1  0.000000  0.792352  0.567626  1
  In  In16  1  0.000000  0.294359  0.936525  1
  In  In17  1  0.000000  0.705641  0.063475  1
  Ir  Ir18  1  0.000000  0.027210  0.700273  1
  Ir  Ir19  1  0.000000  0.972790  0.299727  1
  Ir  Ir20  1  0.000000  0.494551  0.196504  1
  Ir  Ir21  1  0.000000  0.505449  0.803496  1
