# generated using pymatgen
data_K5GaTe4
_symmetry_space_group_name_H-M   'P 1'
_cell_length_a   13.42158600
_cell_length_b   13.69951600
_cell_length_c   16.70445900
_cell_angle_alpha   90.00000000
_cell_angle_beta   90.00000000
_cell_angle_gamma   90.00000000
_symmetry_Int_Tables_number   1
_chemical_formula_structural   K5GaTe4
_chemical_formula_sum   'K40 Ga8 Te32'
_cell_volume   3071.43604985
_cell_formula_units_Z   8
loop_
 _symmetry_equiv_pos_site_id
 _symmetry_equiv_pos_as_xyz
  1  'x, y, z'
loop_
 _atom_site_type_symbol
 _atom_site_label
 _atom_site_symmetry_multiplicity
 _atom_site_fract_x
 _atom_site_fract_y
 _atom_site_fract_z
 _atom_site_occupancy
  K  K0  1  0.052414  0.344969  0.276492  1
  K  K1  1  0.552414  0.155031  0.723508  1
  K  K2  1  0.947586  0.844969  0.223508  1
  K  K3  1  0.447586  0.655031  0.776492  1
  K  K4  1  0.947586  0.655031  0.723508  1
  K  K5  1  0.447586  0.844969  0.276492  1
  K  K6  1  0.052414  0.155031  0.776492  1
  K  K7  1  0.552414  0.344969  0.223508  1
  K  K8  1  0.384968  0.013949  0.056987  1
  K  K9  1  0.884968  0.486051  0.943013  1
  K  K10  1  0.615032  0.513949  0.443013  1
  K  K11  1  0.115032  0.986051  0.556987  1
  K  K12  1  0.615032  0.986051  0.943013  1
  K  K13  1  0.115032  0.513949  0.056987  1
  K  K14  1  0.384968  0.486051  0.556987  1
  K  K15  1  0.884968  0.013949  0.443013  1
  K  K16  1  0.059641  0.071593  0.110987  1
  K  K17  1  0.559641  0.428407  0.889013  1
  K  K18  1  0.940359  0.571593  0.389013  1
  K  K19  1  0.440359  0.928407  0.610987  1
  K  K20  1  0.940359  0.928407  0.889013  1
  K  K21  1  0.440359  0.571593  0.110987  1
  K  K22  1  0.059641  0.428407  0.610987  1
  K  K23  1  0.559641  0.071593  0.389013  1
  K  K24  1  0.179514  0.646376  0.268326  1
  K  K25  1  0.679514  0.853624  0.731674  1
  K  K26  1  0.820486  0.146376  0.231674  1
  K  K27  1  0.320486  0.353624  0.768326  1
  K  K28  1  0.820486  0.353624  0.731674  1
  K  K29  1  0.320486  0.146376  0.268326  1
  K  K30  1  0.179514  0.853624  0.768326  1
  K  K31  1  0.679514  0.646376  0.231674  1
  K  K32  1  0.274449  0.788276  0.984873  1
  K  K33  1  0.774449  0.711724  0.015127  1
  K  K34  1  0.725551  0.288276  0.515127  1
  K  K35  1  0.225551  0.211724  0.484873  1
  K  K36  1  0.725551  0.211724  0.015127  1
  K  K37  1  0.225551  0.288276  0.984873  1
  K  K38  1  0.274449  0.711724  0.484873  1
  K  K39  1  0.774449  0.788276  0.515127  1
  Ga  Ga40  1  0.164003  0.932876  0.335362  1
  Ga  Ga41  1  0.664003  0.567124  0.664638  1
  Ga  Ga42  1  0.835997  0.432876  0.164638  1
  Ga  Ga43  1  0.335997  0.067124  0.835362  1
  Ga  Ga44  1  0.835997  0.067124  0.664638  1
  Ga  Ga45  1  0.335997  0.432876  0.335362  1
  Ga  Ga46  1  0.164003  0.567124  0.835362  1
  Ga  Ga47  1  0.664003  0.932876  0.164638  1
  Te  Te48  1  0.067087  0.102730  0.322020  1
  Te  Te49  1  0.567087  0.397270  0.677980  1
  Te  Te50  1  0.932913  0.602730  0.177980  1
  Te  Te51  1  0.432913  0.897270  0.822020  1
  Te  Te52  1  0.932913  0.897270  0.677980  1
  Te  Te53  1  0.432913  0.602730  0.322020  1
  Te  Te54  1  0.067087  0.397270  0.822020  1
  Te  Te55  1  0.567087  0.102730  0.177980  1
  Te  Te56  1  0.322722  0.966069  0.429398  1
  Te  Te57  1  0.822722  0.533931  0.570602  1
  Te  Te58  1  0.677278  0.466069  0.070602  1
  Te  Te59  1  0.177278  0.033931  0.929398  1
  Te  Te60  1  0.677278  0.033931  0.570602  1
  Te  Te61  1  0.177278  0.466069  0.429398  1
  Te  Te62  1  0.322722  0.533931  0.929398  1
  Te  Te63  1  0.822722  0.966069  0.070602  1
  Te  Te64  1  0.214532  0.881941  0.186397  1
  Te  Te65  1  0.714532  0.618059  0.813603  1
  Te  Te66  1  0.785468  0.381941  0.313603  1
  Te  Te67  1  0.285468  0.118059  0.686397  1
  Te  Te68  1  0.785468  0.118059  0.813603  1
  Te  Te69  1  0.285468  0.381941  0.186397  1
  Te  Te70  1  0.214532  0.618059  0.686397  1
  Te  Te71  1  0.714532  0.881941  0.313603  1
  Te  Te72  1  0.049364  0.805151  0.413602  1
  Te  Te73  1  0.549364  0.694849  0.586398  1
  Te  Te74  1  0.950636  0.305151  0.086398  1
  Te  Te75  1  0.450636  0.194849  0.913602  1
  Te  Te76  1  0.950636  0.194849  0.586398  1
  Te  Te77  1  0.450636  0.305151  0.413602  1
  Te  Te78  1  0.049364  0.694849  0.913602  1
  Te  Te79  1  0.549364  0.805151  0.086398  1
