# generated using pymatgen
data_Li3DyHo2Sn3
_symmetry_space_group_name_H-M   'P 1'
_cell_length_a   7.27432000
_cell_length_b   7.27900268
_cell_length_c   4.60706300
_cell_angle_alpha   90.00000000
_cell_angle_beta   90.00000000
_cell_angle_gamma   119.97871258
_symmetry_Int_Tables_number   1
_chemical_formula_structural   Li3DyHo2Sn3
_chemical_formula_sum   'Li3 Dy1 Ho2 Sn3'
_cell_volume   211.30617207
_cell_formula_units_Z   1
loop_
 _symmetry_equiv_pos_site_id
 _symmetry_equiv_pos_as_xyz
  1  'x, y, z'
loop_
 _atom_site_type_symbol
 _atom_site_label
 _atom_site_symmetry_multiplicity
 _atom_site_fract_x
 _atom_site_fract_y
 _atom_site_fract_z
 _atom_site_occupancy
  Li  Li0  1  0.770016  0.000000  0.500000  1
  Li  Li1  1  0.230081  0.230054  0.500000  1
  Li  Li2  1  0.000027  0.769946  0.500000  1
  Dy  Dy3  1  0.441053  0.000000  0.000000  1
  Ho  Ho4  1  0.999992  0.441070  0.000000  1
  Ho  Ho5  1  0.558922  0.558929  0.000000  1
  Sn  Sn6  1  0.999794  0.000000  0.000000  1
  Sn  Sn7  1  0.666891  0.333668  0.500000  1
  Sn  Sn8  1  0.333222  0.666332  0.500000  1
