# generated using pymatgen
data_Dy5AsP11Ir9Ru10
_symmetry_space_group_name_H-M   'P 1'
_cell_length_a   12.64281424
_cell_length_b   12.63958308
_cell_length_c   3.97513600
_cell_angle_alpha   90.00000000
_cell_angle_beta   90.00000000
_cell_angle_gamma   119.77129175
_symmetry_Int_Tables_number   1
_chemical_formula_structural   Dy5AsP11Ir9Ru10
_chemical_formula_sum   'Dy5 As1 P11 Ir9 Ru10'
_cell_volume   551.38558089
_cell_formula_units_Z   1
loop_
 _symmetry_equiv_pos_site_id
 _symmetry_equiv_pos_as_xyz
  1  'x, y, z'
loop_
 _atom_site_type_symbol
 _atom_site_label
 _atom_site_symmetry_multiplicity
 _atom_site_fract_x
 _atom_site_fract_y
 _atom_site_fract_z
 _atom_site_occupancy
  Dy  Dy0  1  0.667152  0.333407  0.000000  1
  Dy  Dy1  1  0.331723  0.665849  0.000000  1
  Dy  Dy2  1  0.816838  0.000684  0.500000  1
  Dy  Dy3  1  0.185160  0.188123  0.500000  1
  Dy  Dy4  1  0.000146  0.813388  0.500000  1
  As  As5  1  0.634327  0.997312  0.000000  1
  P  P6  1  0.364626  0.370685  0.000000  1
  P  P7  1  0.006838  0.635879  0.000000  1
  P  P8  1  0.689423  0.518255  0.500000  1
  P  P9  1  0.831020  0.308592  0.500000  1
  P  P10  1  0.311725  0.830488  0.500000  1
  P  P11  1  0.516312  0.685298  0.500000  1
  P  P12  1  0.179503  0.001698  0.000000  1
  P  P13  1  0.818809  0.817031  0.000000  1
  P  P14  1  0.997919  0.183137  0.000000  1
  P  P15  1  0.478274  0.167389  0.500000  1
  P  P16  1  0.170794  0.484215  0.500000  1
  Ir  Ir17  1  0.620784  0.794857  0.000000  1
  Ir  Ir18  1  0.181620  0.377173  0.000000  1
  Ir  Ir19  1  0.372853  0.184390  0.000000  1
  Ir  Ir20  1  0.195154  0.821693  0.000000  1
  Ir  Ir21  1  0.811320  0.625037  0.000000  1
  Ir  Ir22  1  0.869090  0.505498  0.500000  1
  Ir  Ir23  1  0.493595  0.360175  0.500000  1
  Ir  Ir24  1  0.637380  0.133166  0.500000  1
  Ir  Ir25  1  0.997822  0.000308  0.000000  1
  Ru  Ru26  1  0.127464  0.640792  0.500000  1
  Ru  Ru27  1  0.361950  0.487578  0.500000  1
  Ru  Ru28  1  0.506790  0.866877  0.500000  1
  Ru  Ru29  1  0.715316  0.711007  0.500000  1
  Ru  Ru30  1  0.002630  0.288401  0.500000  1
  Ru  Ru31  1  0.446580  0.002577  0.000000  1
  Ru  Ru32  1  0.552349  0.544202  0.000000  1
  Ru  Ru33  1  0.001287  0.452368  0.000000  1
  Ru  Ru34  1  0.821328  0.200486  0.000000  1
  Ru  Ru35  1  0.284097  0.001986  0.500000  1
