# generated using pymatgen
data_La10MgAl2CdRu6
_symmetry_space_group_name_H-M   'P 1'
_cell_length_a   8.74363292
_cell_length_b   8.74144045
_cell_length_c   8.70684129
_cell_angle_alpha   109.85942392
_cell_angle_beta   109.55258842
_cell_angle_gamma   109.71402134
_symmetry_Int_Tables_number   1
_chemical_formula_structural   La10MgAl2CdRu6
_chemical_formula_sum   'La10 Mg1 Al2 Cd1 Ru6'
_cell_volume   507.73089151
_cell_formula_units_Z   1
loop_
 _symmetry_equiv_pos_site_id
 _symmetry_equiv_pos_as_xyz
  1  'x, y, z'
loop_
 _atom_site_type_symbol
 _atom_site_label
 _atom_site_symmetry_multiplicity
 _atom_site_fract_x
 _atom_site_fract_y
 _atom_site_fract_z
 _atom_site_occupancy
  La  La0  1  0.241474  0.681848  0.433912  1
  La  La1  1  0.748448  0.807141  0.064171  1
  La  La2  1  0.434469  0.249355  0.688190  1
  La  La3  1  0.694821  0.446033  0.250558  1
  La  La4  1  0.058295  0.744967  0.810977  1
  La  La5  1  0.818390  0.066933  0.749622  1
  La  La6  1  0.206700  0.207155  0.204968  1
  La  La7  1  0.503041  0.001680  0.296210  1
  La  La8  1  0.286445  0.501559  0.999804  1
  La  La9  1  0.001152  0.286781  0.501271  1
  Mg  Mg10  1  0.501174  0.000855  0.914221  1
  Al  Al11  1  0.913038  0.499934  0.000705  1
  Al  Al12  1  0.001530  0.913126  0.499139  1
  Cd  Cd13  1  0.586176  0.588126  0.585713  1
  Ru  Ru14  1  0.239423  0.122453  0.864755  1
  Ru  Ru15  1  0.760402  0.371371  0.637283  1
  Ru  Ru16  1  0.891637  0.264746  0.125098  1
  Ru  Ru17  1  0.114958  0.866134  0.250292  1
  Ru  Ru18  1  0.639939  0.766756  0.371199  1
  Ru  Ru19  1  0.358489  0.613050  0.751913  1
