# generated using pymatgen
data_Ba4Y(IrO4)3
_symmetry_space_group_name_H-M   'P 1'
_cell_length_a   5.94740858
_cell_length_b   5.94740892
_cell_length_c   10.47297012
_cell_angle_alpha   106.49554286
_cell_angle_beta   73.50445559
_cell_angle_gamma   119.99999469
_symmetry_Int_Tables_number   1
_chemical_formula_structural   Ba4Y(IrO4)3
_chemical_formula_sum   'Ba4 Y1 Ir3 O12'
_cell_volume   303.08264023
_cell_formula_units_Z   1
loop_
 _symmetry_equiv_pos_site_id
 _symmetry_equiv_pos_as_xyz
  1  'x, y, z'
loop_
 _atom_site_type_symbol
 _atom_site_label
 _atom_site_symmetry_multiplicity
 _atom_site_fract_x
 _atom_site_fract_y
 _atom_site_fract_z
 _atom_site_occupancy
  Ba  Ba0  1  0.286340  0.713658  0.140978  1
  Ba  Ba1  1  0.871349  0.128651  0.385953  1
  Ba  Ba2  1  0.128652  0.871349  0.614046  1
  Ba  Ba3  1  0.713660  0.286341  0.859021  1
  Y  Y4  1  0.000000  0.000000  0.000000  1
  Ir  Ir5  1  0.586116  0.413884  0.241654  1
  Ir  Ir6  1  0.500000  0.500000  0.500000  1
  Ir  Ir7  1  0.413884  0.586115  0.758346  1
  O  O8  1  0.781104  0.691805  0.129598  1
  O  O9  1  0.308193  0.218896  0.129598  1
  O  O10  1  0.781103  0.218896  0.129598  1
  O  O11  1  0.385353  0.614648  0.373392  1
  O  O12  1  0.855903  0.614648  0.373392  1
  O  O13  1  0.385353  0.144098  0.373392  1
  O  O14  1  0.614647  0.855901  0.626607  1
  O  O15  1  0.144098  0.385353  0.626607  1
  O  O16  1  0.614648  0.385353  0.626607  1
  O  O17  1  0.218895  0.781103  0.870402  1
  O  O18  1  0.691805  0.781103  0.870402  1
  O  O19  1  0.218896  0.308194  0.870402  1
