# generated using pymatgen
data_Dy2Sc3Sn4
_symmetry_space_group_name_H-M   'P 1'
_cell_length_a   7.69389600
_cell_length_b   7.95838900
_cell_length_c   14.83937000
_cell_angle_alpha   90.00000000
_cell_angle_beta   90.00000000
_cell_angle_gamma   90.00000000
_symmetry_Int_Tables_number   1
_chemical_formula_structural   Dy2Sc3Sn4
_chemical_formula_sum   'Dy8 Sc12 Sn16'
_cell_volume   908.62972110
_cell_formula_units_Z   4
loop_
 _symmetry_equiv_pos_site_id
 _symmetry_equiv_pos_as_xyz
  1  'x, y, z'
loop_
 _atom_site_type_symbol
 _atom_site_label
 _atom_site_symmetry_multiplicity
 _atom_site_fract_x
 _atom_site_fract_y
 _atom_site_fract_z
 _atom_site_occupancy
  Dy  Dy0  1  0.996846  0.176511  0.094500  1
  Dy  Dy1  1  0.003154  0.823489  0.905500  1
  Dy  Dy2  1  0.503154  0.676511  0.905500  1
  Dy  Dy3  1  0.003154  0.823489  0.594500  1
  Dy  Dy4  1  0.496846  0.323489  0.094500  1
  Dy  Dy5  1  0.996846  0.176511  0.405500  1
  Dy  Dy6  1  0.496846  0.323489  0.405500  1
  Dy  Dy7  1  0.503154  0.676511  0.594500  1
  Sc  Sc8  1  0.162974  0.496975  0.750000  1
  Sc  Sc9  1  0.837026  0.503025  0.250000  1
  Sc  Sc10  1  0.337026  0.996975  0.250000  1
  Sc  Sc11  1  0.662974  0.003025  0.750000  1
  Sc  Sc12  1  0.334285  0.162654  0.627077  1
  Sc  Sc13  1  0.665715  0.837346  0.372923  1
  Sc  Sc14  1  0.165715  0.662654  0.372923  1
  Sc  Sc15  1  0.665715  0.837346  0.127077  1
  Sc  Sc16  1  0.834285  0.337346  0.627077  1
  Sc  Sc17  1  0.334285  0.162654  0.872923  1
  Sc  Sc18  1  0.834285  0.337346  0.872923  1
  Sc  Sc19  1  0.165715  0.662654  0.127077  1
  Sn  Sn20  1  0.025593  0.124906  0.750000  1
  Sn  Sn21  1  0.974407  0.875094  0.250000  1
  Sn  Sn22  1  0.474407  0.624906  0.250000  1
  Sn  Sn23  1  0.525593  0.375094  0.750000  1
  Sn  Sn24  1  0.304917  0.851244  0.750000  1
  Sn  Sn25  1  0.695083  0.148756  0.250000  1
  Sn  Sn26  1  0.195083  0.351244  0.250000  1
  Sn  Sn27  1  0.804917  0.648756  0.750000  1
  Sn  Sn28  1  0.178883  0.458408  0.542345  1
  Sn  Sn29  1  0.821117  0.541592  0.457655  1
  Sn  Sn30  1  0.321117  0.958408  0.457655  1
  Sn  Sn31  1  0.821117  0.541592  0.042345  1
  Sn  Sn32  1  0.678883  0.041592  0.542345  1
  Sn  Sn33  1  0.178883  0.458408  0.957655  1
  Sn  Sn34  1  0.678883  0.041592  0.957655  1
  Sn  Sn35  1  0.321117  0.958408  0.042345  1
