# generated using pymatgen
data_Sr9(PdPt2)2
_symmetry_space_group_name_H-M   'P 1'
_cell_length_a   8.08409736
_cell_length_b   8.08647572
_cell_length_c   8.07890472
_cell_angle_alpha   71.80232577
_cell_angle_beta   71.93066957
_cell_angle_gamma   71.91254678
_symmetry_Int_Tables_number   1
_chemical_formula_structural   Sr9(PdPt2)2
_chemical_formula_sum   'Sr9 Pd2 Pt4'
_cell_volume   463.44176053
_cell_formula_units_Z   1
loop_
 _symmetry_equiv_pos_site_id
 _symmetry_equiv_pos_as_xyz
  1  'x, y, z'
loop_
 _atom_site_type_symbol
 _atom_site_label
 _atom_site_symmetry_multiplicity
 _atom_site_fract_x
 _atom_site_fract_y
 _atom_site_fract_z
 _atom_site_occupancy
  Sr  Sr0  1  0.001519  0.999358  0.002937  1
  Sr  Sr1  1  0.795809  0.793939  0.797103  1
  Sr  Sr2  1  0.201135  0.203262  0.202128  1
  Sr  Sr3  1  0.325643  0.610396  0.845993  1
  Sr  Sr4  1  0.844433  0.329645  0.607614  1
  Sr  Sr5  1  0.613958  0.840432  0.326545  1
  Sr  Sr6  1  0.675902  0.390647  0.159014  1
  Sr  Sr7  1  0.156555  0.672794  0.387312  1
  Sr  Sr8  1  0.390126  0.157745  0.673371  1
  Pd  Pd9  1  0.144843  0.960800  0.586513  1
  Pd  Pd10  1  0.585751  0.147235  0.960422  1
  Pt  Pt11  1  0.960659  0.588903  0.147142  1
  Pt  Pt12  1  0.852260  0.040267  0.412667  1
  Pt  Pt13  1  0.411145  0.854182  0.039539  1
  Pt  Pt14  1  0.040264  0.410394  0.851701  1
