# generated using pymatgen
data_Ho10In8NiPd3
_symmetry_space_group_name_H-M   'P 1'
_cell_length_a   3.62361500
_cell_length_b   8.07203904
_cell_length_c   18.19938294
_cell_angle_alpha   90.27378454
_cell_angle_beta   90.00000000
_cell_angle_gamma   90.00000000
_symmetry_Int_Tables_number   1
_chemical_formula_structural   Ho10In8NiPd3
_chemical_formula_sum   'Ho10 In8 Ni1 Pd3'
_cell_volume   532.32517738
_cell_formula_units_Z   1
loop_
 _symmetry_equiv_pos_site_id
 _symmetry_equiv_pos_as_xyz
  1  'x, y, z'
loop_
 _atom_site_type_symbol
 _atom_site_label
 _atom_site_symmetry_multiplicity
 _atom_site_fract_x
 _atom_site_fract_y
 _atom_site_fract_z
 _atom_site_occupancy
  Ho  Ho0  1  0.000000  0.500350  0.498607  1
  Ho  Ho1  1  0.000000  0.000125  0.001442  1
  Ho  Ho2  1  0.000000  0.734334  0.276581  1
  Ho  Ho3  1  0.000000  0.256672  0.719998  1
  Ho  Ho4  1  0.000000  0.756693  0.780234  1
  Ho  Ho5  1  0.000000  0.254064  0.219574  1
  Ho  Ho6  1  0.000000  0.615706  0.088804  1
  Ho  Ho7  1  0.000000  0.382591  0.917921  1
  Ho  Ho8  1  0.000000  0.880858  0.582644  1
  Ho  Ho9  1  0.000000  0.118664  0.415248  1
  In  In10  1  0.500000  0.709006  0.933164  1
  In  In11  1  0.500000  0.293626  0.070068  1
  In  In12  1  0.500000  0.790641  0.429763  1
  In  In13  1  0.500000  0.209351  0.567443  1
  In  In14  1  0.500000  0.576737  0.649590  1
  In  In15  1  0.500000  0.422972  0.348225  1
  In  In16  1  0.500000  0.924613  0.150416  1
  In  In17  1  0.500000  0.077687  0.851141  1
  Ni  Ni18  1  0.500000  0.520273  0.196013  1
  Pd  Pd19  1  0.500000  0.475257  0.804867  1
  Pd  Pd20  1  0.500000  0.974506  0.695863  1
  Pd  Pd21  1  0.500000  0.025274  0.302396  1
