# generated using pymatgen
data_Sr3LaTiV3O12
_symmetry_space_group_name_H-M   'P 1'
_cell_length_a   5.58695857
_cell_length_b   5.57445647
_cell_length_c   7.80351406
_cell_angle_alpha   89.96876774
_cell_angle_beta   89.72648998
_cell_angle_gamma   90.08028031
_symmetry_Int_Tables_number   1
_chemical_formula_structural   Sr3LaTiV3O12
_chemical_formula_sum   'Sr3 La1 Ti1 V3 O12'
_cell_volume   243.03160537
_cell_formula_units_Z   1
loop_
 _symmetry_equiv_pos_site_id
 _symmetry_equiv_pos_as_xyz
  1  'x, y, z'
loop_
 _atom_site_type_symbol
 _atom_site_label
 _atom_site_symmetry_multiplicity
 _atom_site_fract_x
 _atom_site_fract_y
 _atom_site_fract_z
 _atom_site_occupancy
  Sr  Sr0  1  0.000875  0.990104  0.748368  1
  Sr  Sr1  1  0.496332  0.486785  0.747563  1
  Sr  Sr2  1  0.502787  0.512728  0.251397  1
  La  La3  1  0.999337  0.018028  0.251263  1
  Ti  Ti4  1  0.003334  0.501424  0.997858  1
  V  V5  1  0.001515  0.501331  0.500307  1
  V  V6  1  0.501519  0.000448  0.998716  1
  V  V7  1  0.497943  0.999332  0.500065  1
  O  O8  1  0.738024  0.265672  0.474456  1
  O  O9  1  0.778122  0.773917  0.030623  1
  O  O10  1  0.227355  0.229447  0.517442  1
  O  O11  1  0.264962  0.726004  0.982607  1
  O  O12  1  0.267353  0.728730  0.518096  1
  O  O13  1  0.222976  0.229557  0.982429  1
  O  O14  1  0.777310  0.774379  0.470767  1
  O  O15  1  0.737037  0.268145  0.025765  1
  O  O16  1  0.038470  0.489043  0.253044  1
  O  O17  1  0.448469  0.998427  0.239203  1
  O  O18  1  0.537501  0.000203  0.762688  1
  O  O19  1  0.958781  0.506299  0.747345  1
