# generated using pymatgen
data_Ca2CuPd5O8
_symmetry_space_group_name_H-M   'P 1'
_cell_length_a   5.79503200
_cell_length_b   5.79592600
_cell_length_c   5.79592600
_cell_angle_alpha   90.00000000
_cell_angle_beta   90.00000000
_cell_angle_gamma   90.00000000
_symmetry_Int_Tables_number   1
_chemical_formula_structural   Ca2CuPd5O8
_chemical_formula_sum   'Ca2 Cu1 Pd5 O8'
_cell_volume   194.67110872
_cell_formula_units_Z   1
loop_
 _symmetry_equiv_pos_site_id
 _symmetry_equiv_pos_as_xyz
  1  'x, y, z'
loop_
 _atom_site_type_symbol
 _atom_site_label
 _atom_site_symmetry_multiplicity
 _atom_site_fract_x
 _atom_site_fract_y
 _atom_site_fract_z
 _atom_site_occupancy
  Ca  Ca0  1  0.498078  0.500000  0.500000  1
  Ca  Ca1  1  0.001922  0.000000  0.000000  1
  Cu  Cu2  1  0.250000  0.500000  0.000000  1
  Pd  Pd3  1  0.496997  0.000000  0.749642  1
  Pd  Pd4  1  0.496997  0.000000  0.250358  1
  Pd  Pd5  1  0.750000  0.500000  0.000000  1
  Pd  Pd6  1  0.003003  0.750358  0.500000  1
  Pd  Pd7  1  0.003003  0.249642  0.500000  1
  O  O8  1  0.750000  0.750267  0.749733  1
  O  O9  1  0.750000  0.249733  0.749733  1
  O  O10  1  0.750000  0.750267  0.250267  1
  O  O11  1  0.750000  0.249733  0.250267  1
  O  O12  1  0.250000  0.744433  0.755567  1
  O  O13  1  0.250000  0.744433  0.244433  1
  O  O14  1  0.250000  0.255567  0.755567  1
  O  O15  1  0.250000  0.255567  0.244433  1
