# generated using pymatgen
data_Tb3Nd2SmCoBr10
_symmetry_space_group_name_H-M   'P 1'
_cell_length_a   7.45756458
_cell_length_b   9.27633906
_cell_length_c   9.40784248
_cell_angle_alpha   108.05981743
_cell_angle_beta   96.43533952
_cell_angle_gamma   104.40066540
_symmetry_Int_Tables_number   1
_chemical_formula_structural   Tb3Nd2SmCoBr10
_chemical_formula_sum   'Tb3 Nd2 Sm1 Co1 Br10'
_cell_volume   586.53536435
_cell_formula_units_Z   1
loop_
 _symmetry_equiv_pos_site_id
 _symmetry_equiv_pos_as_xyz
  1  'x, y, z'
loop_
 _atom_site_type_symbol
 _atom_site_label
 _atom_site_symmetry_multiplicity
 _atom_site_fract_x
 _atom_site_fract_y
 _atom_site_fract_z
 _atom_site_occupancy
  Tb  Tb0  1  0.125152  0.047647  0.257943  1
  Tb  Tb1  1  0.351788  0.129121  0.675495  1
  Tb  Tb2  1  0.647961  0.871198  0.325462  1
  Nd  Nd3  1  0.035628  0.713916  0.409311  1
  Nd  Nd4  1  0.964127  0.285442  0.587698  1
  Sm  Sm5  1  0.873935  0.951757  0.746318  1
  Co  Co6  1  0.999993  0.999577  0.500013  1
  Br  Br7  1  0.455947  0.822877  0.583462  1
  Br  Br8  1  0.540600  0.175949  0.415268  1
  Br  Br9  1  0.911254  0.630615  0.673610  1
  Br  Br10  1  0.090713  0.364426  0.321884  1
  Br  Br11  1  0.247756  0.082820  0.952988  1
  Br  Br12  1  0.757804  0.919418  0.053112  1
  Br  Br13  1  0.349887  0.444865  0.770280  1
  Br  Br14  1  0.648491  0.555199  0.228826  1
  Br  Br15  1  0.768008  0.248494  0.843541  1
  Br  Br16  1  0.230953  0.756680  0.154788  1
