# generated using pymatgen
data_Ho6Er2Ti11Si16Pd
_symmetry_space_group_name_H-M   'P 1'
_cell_length_a   7.04421078
_cell_length_b   7.04316595
_cell_length_c   12.84032613
_cell_angle_alpha   90.10482049
_cell_angle_beta   89.90105621
_cell_angle_gamma   89.65970994
_symmetry_Int_Tables_number   1
_chemical_formula_structural   Ho6Er2Ti11Si16Pd
_chemical_formula_sum   'Ho6 Er2 Ti11 Si16 Pd1'
_cell_volume   637.04084103
_cell_formula_units_Z   1
loop_
 _symmetry_equiv_pos_site_id
 _symmetry_equiv_pos_as_xyz
  1  'x, y, z'
loop_
 _atom_site_type_symbol
 _atom_site_label
 _atom_site_symmetry_multiplicity
 _atom_site_fract_x
 _atom_site_fract_y
 _atom_site_fract_z
 _atom_site_occupancy
  Ho  Ho0  1  0.341409  0.002025  0.467161  1
  Ho  Ho1  1  0.498023  0.842137  0.717429  1
  Ho  Ho2  1  0.500676  0.156994  0.214275  1
  Ho  Ho3  1  0.842427  0.497921  0.282559  1
  Ho  Ho4  1  0.156988  0.500739  0.785629  1
  Ho  Ho5  1  0.655510  0.000525  0.967966  1
  Er  Er6  1  0.001736  0.341539  0.532863  1
  Er  Er7  1  0.000648  0.655546  0.032190  1
  Ti  Ti8  1  0.174932  0.826250  0.248453  1
  Ti  Ti9  1  0.826313  0.175012  0.751542  1
  Ti  Ti10  1  0.671816  0.671597  0.499952  1
  Ti  Ti11  1  0.149605  0.005017  0.876560  1
  Ti  Ti12  1  0.494819  0.651735  0.124942  1
  Ti  Ti13  1  0.507891  0.351122  0.626730  1
  Ti  Ti14  1  0.652111  0.494855  0.875124  1
  Ti  Ti15  1  0.351117  0.507750  0.373210  1
  Ti  Ti16  1  0.850495  0.994316  0.374862  1
  Ti  Ti17  1  0.005078  0.149590  0.123520  1
  Ti  Ti18  1  0.994443  0.850352  0.625124  1
  Si  Si19  1  0.202416  0.133935  0.684961  1
  Si  Si20  1  0.371874  0.711435  0.932036  1
  Si  Si21  1  0.631657  0.294325  0.432402  1
  Si  Si22  1  0.712505  0.372723  0.068230  1
  Si  Si23  1  0.294018  0.630975  0.567607  1
  Si  Si24  1  0.797894  0.866437  0.182901  1
  Si  Si25  1  0.133597  0.202789  0.314923  1
  Si  Si26  1  0.866613  0.797549  0.817074  1
  Si  Si27  1  0.285693  0.943553  0.064231  1
  Si  Si28  1  0.547066  0.791431  0.314171  1
  Si  Si29  1  0.450024  0.209600  0.814229  1
  Si  Si30  1  0.791614  0.546869  0.685639  1
  Si  Si31  1  0.209281  0.450366  0.185637  1
  Si  Si32  1  0.709408  0.048541  0.564730  1
  Si  Si33  1  0.944346  0.286543  0.935930  1
  Si  Si34  1  0.048205  0.708827  0.435284  1
  Pd  Pd35  1  0.327751  0.329082  0.999926  1
