# generated using pymatgen
data_PmGaGePt2
_symmetry_space_group_name_H-M   'P 1'
_cell_length_a   5.96993030
_cell_length_b   5.96993117
_cell_length_c   5.96992985
_cell_angle_alpha   137.39874794
_cell_angle_beta   137.39875287
_cell_angle_gamma   61.82508915
_symmetry_Int_Tables_number   1
_chemical_formula_structural   PmGaGePt2
_chemical_formula_sum   'Pm1 Ga1 Ge1 Pt2'
_cell_volume   96.35394566
_cell_formula_units_Z   1
loop_
 _symmetry_equiv_pos_site_id
 _symmetry_equiv_pos_as_xyz
  1  'x, y, z'
loop_
 _atom_site_type_symbol
 _atom_site_label
 _atom_site_symmetry_multiplicity
 _atom_site_fract_x
 _atom_site_fract_y
 _atom_site_fract_z
 _atom_site_occupancy
  Pm  Pm0  1  0.001490  0.001490  0.000000  1
  Ga  Ga1  1  0.377969  0.377969  0.000000  1
  Ge  Ge2  1  0.621650  0.621650  0.000000  1
  Pt  Pt3  1  0.749445  0.249445  0.500000  1
  Pt  Pt4  1  0.249445  0.749445  0.500000  1
