# generated using pymatgen
data_Mg5Si16Pd7PtRh2
_symmetry_space_group_name_H-M   'P 1'
_cell_length_a   8.91049664
_cell_length_b   8.92339881
_cell_length_c   8.92211120
_cell_angle_alpha   59.92114144
_cell_angle_beta   60.06020183
_cell_angle_gamma   60.07249165
_symmetry_Int_Tables_number   1
_chemical_formula_structural   Mg5Si16Pd7PtRh2
_chemical_formula_sum   'Mg5 Si16 Pd7 Pt1 Rh2'
_cell_volume   501.83346729
_cell_formula_units_Z   1
loop_
 _symmetry_equiv_pos_site_id
 _symmetry_equiv_pos_as_xyz
  1  'x, y, z'
loop_
 _atom_site_type_symbol
 _atom_site_label
 _atom_site_symmetry_multiplicity
 _atom_site_fract_x
 _atom_site_fract_y
 _atom_site_fract_z
 _atom_site_occupancy
  Mg  Mg0  1  0.196263  0.603428  0.599608  1
  Mg  Mg1  1  0.600701  0.600373  0.197636  1
  Mg  Mg2  1  0.599760  0.603108  0.600163  1
  Mg  Mg3  1  0.601872  0.196225  0.599922  1
  Mg  Mg4  1  0.250476  0.242714  0.257159  1
  Si  Si5  1  0.203756  0.664223  0.203355  1
  Si  Si6  1  0.927015  0.663831  0.204150  1
  Si  Si7  1  0.209135  0.198817  0.662914  1
  Si  Si8  1  0.660343  0.202217  0.211807  1
  Si  Si9  1  0.929404  0.198687  0.663303  1
  Si  Si10  1  0.205420  0.662562  0.925971  1
  Si  Si11  1  0.925218  0.202904  0.211540  1
  Si  Si12  1  0.662008  0.926552  0.210704  1
  Si  Si13  1  0.200057  0.927804  0.209668  1
  Si  Si14  1  0.208578  0.924879  0.658207  1
  Si  Si15  1  0.533872  0.826473  0.815561  1
  Si  Si16  1  0.825647  0.828747  0.815152  1
  Si  Si17  1  0.665089  0.202443  0.930270  1
  Si  Si18  1  0.821458  0.830609  0.528097  1
  Si  Si19  1  0.821355  0.536847  0.819086  1
  Si  Si20  1  0.202139  0.203401  0.929662  1
  Pd  Pd21  1  0.379920  0.376456  0.865034  1
  Pd  Pd22  1  0.376977  0.382339  0.379336  1
  Pd  Pd23  1  0.861519  0.381591  0.380445  1
  Pd  Pd24  1  0.986614  0.513070  0.513612  1
  Pd  Pd25  1  0.513586  0.513090  0.986756  1
  Pd  Pd26  1  0.382530  0.857490  0.376902  1
  Pd  Pd27  1  0.513711  0.986419  0.986621  1
  Pt  Pt28  1  0.984534  0.515369  0.984785  1
  Rh  Rh29  1  0.989487  0.989259  0.510824  1
  Rh  Rh30  1  0.511554  0.988073  0.511747  1
