# generated using pymatgen
data_ReOF5
_symmetry_space_group_name_H-M   'P 1'
_cell_length_a   5.22702000
_cell_length_b   9.03975400
_cell_length_c   9.75543400
_cell_angle_alpha   90.00000000
_cell_angle_beta   90.00000000
_cell_angle_gamma   90.00000000
_symmetry_Int_Tables_number   1
_chemical_formula_structural   ReOF5
_chemical_formula_sum   'Re4 O4 F20'
_cell_volume   460.95376759
_cell_formula_units_Z   4
loop_
 _symmetry_equiv_pos_site_id
 _symmetry_equiv_pos_as_xyz
  1  'x, y, z'
loop_
 _atom_site_type_symbol
 _atom_site_label
 _atom_site_symmetry_multiplicity
 _atom_site_fract_x
 _atom_site_fract_y
 _atom_site_fract_z
 _atom_site_occupancy
  Re  Re0  1  0.925419  0.750000  0.116962  1
  Re  Re1  1  0.425419  0.250000  0.383038  1
  Re  Re2  1  0.074581  0.250000  0.883038  1
  Re  Re3  1  0.574581  0.750000  0.616962  1
  O  O4  1  0.190604  0.750000  0.014403  1
  O  O5  1  0.690604  0.250000  0.485597  1
  O  O6  1  0.809396  0.250000  0.985597  1
  O  O7  1  0.309396  0.750000  0.514403  1
  F  F8  1  0.620774  0.750000  0.229550  1
  F  F9  1  0.120774  0.250000  0.270450  1
  F  F10  1  0.379226  0.250000  0.770450  1
  F  F11  1  0.879226  0.750000  0.729550  1
  F  F12  1  0.756791  0.896164  0.016472  1
  F  F13  1  0.256791  0.103836  0.483528  1
  F  F14  1  0.243209  0.396164  0.983528  1
  F  F15  1  0.743209  0.603836  0.516472  1
  F  F16  1  0.243209  0.103836  0.983528  1
  F  F17  1  0.743209  0.896164  0.516472  1
  F  F18  1  0.756791  0.603836  0.016472  1
  F  F19  1  0.256791  0.396164  0.483528  1
  F  F20  1  0.045866  0.894833  0.236349  1
  F  F21  1  0.545866  0.105167  0.263651  1
  F  F22  1  0.954134  0.394833  0.763651  1
  F  F23  1  0.454134  0.605167  0.736349  1
  F  F24  1  0.954134  0.105167  0.763651  1
  F  F25  1  0.454134  0.894833  0.736349  1
  F  F26  1  0.045866  0.605167  0.236349  1
  F  F27  1  0.545866  0.394833  0.263651  1
