# generated using pymatgen
data_FeHg4Ir3O14
_symmetry_space_group_name_H-M   'P 1'
_cell_length_a   7.31043400
_cell_length_b   7.35002464
_cell_length_c   7.35002417
_cell_angle_alpha   59.64395879
_cell_angle_beta   90.00000000
_cell_angle_gamma   60.17802339
_symmetry_Int_Tables_number   1
_chemical_formula_structural   FeHg4Ir3O14
_chemical_formula_sum   'Fe1 Hg4 Ir3 O14'
_cell_volume   278.49891719
_cell_formula_units_Z   1
loop_
 _symmetry_equiv_pos_site_id
 _symmetry_equiv_pos_as_xyz
  1  'x, y, z'
loop_
 _atom_site_type_symbol
 _atom_site_label
 _atom_site_symmetry_multiplicity
 _atom_site_fract_x
 _atom_site_fract_y
 _atom_site_fract_z
 _atom_site_occupancy
  Fe  Fe0  1  0.000000  0.000000  0.500000  1
  Hg  Hg1  1  0.499999  0.000000  0.000000  1
  Hg  Hg2  1  0.000000  0.500000  0.000000  1
  Hg  Hg3  1  0.500001  0.500000  0.000000  1
  Hg  Hg4  1  0.500001  0.000000  0.500000  1
  Ir  Ir5  1  0.000000  0.000000  0.000000  1
  Ir  Ir6  1  0.000000  0.499998  0.500002  1
  Ir  Ir7  1  0.500001  0.499998  0.500002  1
  O  O8  1  0.372921  0.254157  0.127077  1
  O  O9  1  0.321426  0.755673  0.178571  1
  O  O10  1  0.922900  0.755673  0.178571  1
  O  O11  1  0.932584  0.134831  0.174985  1
  O  O12  1  0.067414  0.257601  0.432583  1
  O  O13  1  0.674985  0.257601  0.432583  1
  O  O14  1  0.678572  0.642857  0.422902  1
  O  O15  1  0.325015  0.742400  0.567416  1
  O  O16  1  0.932584  0.742400  0.567416  1
  O  O17  1  0.321428  0.357142  0.577100  1
  O  O18  1  0.067417  0.865168  0.825014  1
  O  O19  1  0.077100  0.244329  0.821428  1
  O  O20  1  0.678571  0.244329  0.821428  1
  O  O21  1  0.627078  0.745844  0.872923  1
