# generated using pymatgen
data_Cs4Ge2Au7
_symmetry_space_group_name_H-M   'P 1'
_cell_length_a   10.55677135
_cell_length_b   10.55677113
_cell_length_c   10.55677144
_cell_angle_alpha   37.59748307
_cell_angle_beta   37.59748424
_cell_angle_gamma   37.59748258
_symmetry_Int_Tables_number   1
_chemical_formula_structural   Cs4Ge2Au7
_chemical_formula_sum   'Cs4 Ge2 Au7'
_cell_volume   392.82117139
_cell_formula_units_Z   1
loop_
 _symmetry_equiv_pos_site_id
 _symmetry_equiv_pos_as_xyz
  1  'x, y, z'
loop_
 _atom_site_type_symbol
 _atom_site_label
 _atom_site_symmetry_multiplicity
 _atom_site_fract_x
 _atom_site_fract_y
 _atom_site_fract_z
 _atom_site_occupancy
  Cs  Cs0  1  0.683032  0.683032  0.683032  1
  Cs  Cs1  1  0.316968  0.316968  0.316968  1
  Cs  Cs2  1  0.810778  0.810778  0.810778  1
  Cs  Cs3  1  0.189222  0.189222  0.189222  1
  Ge  Ge4  1  0.547291  0.547291  0.547291  1
  Ge  Ge5  1  0.452709  0.452709  0.452709  1
  Au  Au6  1  0.000000  0.000000  0.000000  1
  Au  Au7  1  0.221557  0.221557  0.798203  1
  Au  Au8  1  0.798203  0.221557  0.221557  1
  Au  Au9  1  0.221557  0.798203  0.221557  1
  Au  Au10  1  0.778443  0.201797  0.778443  1
  Au  Au11  1  0.778443  0.778443  0.201797  1
  Au  Au12  1  0.201797  0.778443  0.778443  1
