# generated using pymatgen
data_NaPaSe3
_symmetry_space_group_name_H-M   'P 1'
_cell_length_a   7.19494391
_cell_length_b   7.19494228
_cell_length_c   7.07739934
_cell_angle_alpha   78.77473116
_cell_angle_beta   78.77473873
_cell_angle_gamma   117.84201395
_symmetry_Int_Tables_number   1
_chemical_formula_structural   NaPaSe3
_chemical_formula_sum   'Na2 Pa2 Se6'
_cell_volume   300.04725699
_cell_formula_units_Z   2
loop_
 _symmetry_equiv_pos_site_id
 _symmetry_equiv_pos_as_xyz
  1  'x, y, z'
loop_
 _atom_site_type_symbol
 _atom_site_label
 _atom_site_symmetry_multiplicity
 _atom_site_fract_x
 _atom_site_fract_y
 _atom_site_fract_z
 _atom_site_occupancy
  Na  Na0  1  0.498581  0.501419  0.500000  1
  Na  Na1  1  0.831624  0.168376  0.500000  1
  Pa  Pa2  1  0.174799  0.825201  0.500000  1
  Pa  Pa3  1  0.990955  0.009045  0.000000  1
  Se  Se4  1  0.238157  0.206577  0.233417  1
  Se  Se5  1  0.583407  0.924280  0.243404  1
  Se  Se6  1  0.942868  0.629536  0.254815  1
  Se  Se7  1  0.075720  0.416593  0.756596  1
  Se  Se8  1  0.370464  0.057132  0.745185  1
  Se  Se9  1  0.793423  0.761843  0.766583  1
