# generated using pymatgen
data_Pr2Nd8C4Cl17
_symmetry_space_group_name_H-M   'P 1'
_cell_length_a   8.87512881
_cell_length_b   9.52218283
_cell_length_c   11.97223356
_cell_angle_alpha   104.59053095
_cell_angle_beta   96.14020194
_cell_angle_gamma   110.90777981
_symmetry_Int_Tables_number   1
_chemical_formula_structural   Pr2Nd8C4Cl17
_chemical_formula_sum   'Pr2 Nd8 C4 Cl17'
_cell_volume   892.73063850
_cell_formula_units_Z   1
loop_
 _symmetry_equiv_pos_site_id
 _symmetry_equiv_pos_as_xyz
  1  'x, y, z'
loop_
 _atom_site_type_symbol
 _atom_site_label
 _atom_site_symmetry_multiplicity
 _atom_site_fract_x
 _atom_site_fract_y
 _atom_site_fract_z
 _atom_site_occupancy
  Pr  Pr0  1  0.654301  0.486553  0.438019  1
  Pr  Pr1  1  0.345698  0.513447  0.561982  1
  Nd  Nd2  1  0.078696  0.424165  0.268738  1
  Nd  Nd3  1  0.921304  0.575835  0.731261  1
  Nd  Nd4  1  0.409576  0.367678  0.135457  1
  Nd  Nd5  1  0.590425  0.632323  0.864544  1
  Nd  Nd6  1  0.492323  0.782291  0.340902  1
  Nd  Nd7  1  0.507678  0.217711  0.659098  1
  Nd  Nd8  1  0.205801  0.096519  0.307583  1
  Nd  Nd9  1  0.794199  0.903482  0.692416  1
  C  C10  1  0.395641  0.525851  0.341462  1
  C  C11  1  0.604358  0.474150  0.658538  1
  C  C12  1  0.325741  0.364385  0.336239  1
  C  C13  1  0.674261  0.635617  0.663763  1
  Cl  Cl14  1  0.104314  0.349292  0.039867  1
  Cl  Cl15  1  0.895686  0.650707  0.960133  1
  Cl  Cl16  1  0.811314  0.821385  0.445156  1
  Cl  Cl17  1  0.188685  0.178613  0.554844  1
  Cl  Cl18  1  0.999999  0.499998  0.499999  1
  Cl  Cl19  1  0.297423  0.043081  0.095084  1
  Cl  Cl20  1  0.702578  0.956921  0.904916  1
  Cl  Cl21  1  0.903777  0.104122  0.248370  1
  Cl  Cl22  1  0.096223  0.895879  0.751629  1
  Cl  Cl23  1  0.542350  0.132562  0.412519  1
  Cl  Cl24  1  0.457652  0.867438  0.587481  1
  Cl  Cl25  1  0.739632  0.414169  0.210810  1
  Cl  Cl26  1  0.260368  0.585830  0.789189  1
  Cl  Cl27  1  0.165774  0.755671  0.286792  1
  Cl  Cl28  1  0.834226  0.244330  0.713208  1
  Cl  Cl29  1  0.535374  0.684228  0.111180  1
  Cl  Cl30  1  0.464627  0.315772  0.888820  1
