# generated using pymatgen
data_La3PrNb4(TeO6)4
_symmetry_space_group_name_H-M   'P 1'
_cell_length_a   6.86511192
_cell_length_b   7.49628859
_cell_length_c   10.89317211
_cell_angle_alpha   79.87892216
_cell_angle_beta   77.00310317
_cell_angle_gamma   89.44046114
_symmetry_Int_Tables_number   1
_chemical_formula_structural   La3PrNb4(TeO6)4
_chemical_formula_sum   'La3 Pr1 Nb4 Te4 O24'
_cell_volume   537.47370975
_cell_formula_units_Z   1
loop_
 _symmetry_equiv_pos_site_id
 _symmetry_equiv_pos_as_xyz
  1  'x, y, z'
loop_
 _atom_site_type_symbol
 _atom_site_label
 _atom_site_symmetry_multiplicity
 _atom_site_fract_x
 _atom_site_fract_y
 _atom_site_fract_z
 _atom_site_occupancy
  La  La0  1  0.762167  0.859974  0.493211  1
  La  La1  1  0.237668  0.139362  0.506804  1
  La  La2  1  0.328635  0.286128  0.844589  1
  Pr  Pr3  1  0.669650  0.714468  0.156531  1
  Nb  Nb4  1  0.184360  0.455863  0.197597  1
  Nb  Nb5  1  0.174197  0.959970  0.199001  1
  Nb  Nb6  1  0.824782  0.038726  0.801994  1
  Nb  Nb7  1  0.814944  0.544960  0.803390  1
  Te  Te8  1  0.670548  0.199001  0.201267  1
  Te  Te9  1  0.733774  0.370006  0.496731  1
  Te  Te10  1  0.267126  0.629665  0.502417  1
  Te  Te11  1  0.329310  0.801215  0.798396  1
  O  O12  1  0.241577  0.431378  0.030455  1
  O  O13  1  0.182871  0.057084  0.034212  1
  O  O14  1  0.292304  0.714910  0.180354  1
  O  O15  1  0.497195  0.015571  0.179642  1
  O  O16  1  0.503564  0.401722  0.207473  1
  O  O17  1  0.912911  0.506156  0.223298  1
  O  O18  1  0.893738  0.890211  0.256397  1
  O  O19  1  0.146968  0.184924  0.280693  1
  O  O20  1  0.602291  0.127945  0.385358  1
  O  O21  1  0.535893  0.677841  0.401861  1
  O  O22  1  0.183889  0.454568  0.411986  1
  O  O23  1  0.149129  0.849675  0.428375  1
  O  O24  1  0.850514  0.149999  0.571436  1
  O  O25  1  0.815290  0.544870  0.587912  1
  O  O26  1  0.464188  0.322624  0.596144  1
  O  O27  1  0.398012  0.871414  0.614219  1
  O  O28  1  0.852632  0.815014  0.718937  1
  O  O29  1  0.105774  0.107110  0.743135  1
  O  O30  1  0.088168  0.498439  0.776178  1
  O  O31  1  0.497817  0.599475  0.792555  1
  O  O32  1  0.503736  0.983933  0.819988  1
  O  O33  1  0.711199  0.285037  0.820435  1
  O  O34  1  0.815183  0.940343  0.966777  1
  O  O35  1  0.758001  0.570425  0.970250  1
