# generated using pymatgen
data_Tb8Ti8Nb3Si16Pd
_symmetry_space_group_name_H-M   'P 1'
_cell_length_a   7.08037469
_cell_length_b   7.08037430
_cell_length_c   12.94832122
_cell_angle_alpha   90.24149711
_cell_angle_beta   89.75850269
_cell_angle_gamma   89.54158449
_symmetry_Int_Tables_number   1
_chemical_formula_structural   Tb8Ti8Nb3Si16Pd
_chemical_formula_sum   'Tb8 Ti8 Nb3 Si16 Pd1'
_cell_volume   649.08899299
_cell_formula_units_Z   1
loop_
 _symmetry_equiv_pos_site_id
 _symmetry_equiv_pos_as_xyz
  1  'x, y, z'
loop_
 _atom_site_type_symbol
 _atom_site_label
 _atom_site_symmetry_multiplicity
 _atom_site_fract_x
 _atom_site_fract_y
 _atom_site_fract_z
 _atom_site_occupancy
  Tb  Tb0  1  0.340476  0.001886  0.467361  1
  Tb  Tb1  1  0.497603  0.840783  0.717953  1
  Tb  Tb2  1  0.501426  0.158613  0.214945  1
  Tb  Tb3  1  0.840783  0.497603  0.282047  1
  Tb  Tb4  1  0.158613  0.501426  0.785055  1
  Tb  Tb5  1  0.657486  0.000009  0.968050  1
  Tb  Tb6  1  0.001886  0.340476  0.532639  1
  Tb  Tb7  1  0.000009  0.657486  0.031950  1
  Ti  Ti8  1  0.148377  0.006220  0.876240  1
  Ti  Ti9  1  0.491821  0.655114  0.125230  1
  Ti  Ti10  1  0.509651  0.349374  0.627215  1
  Ti  Ti11  1  0.655114  0.491821  0.874770  1
  Ti  Ti12  1  0.349374  0.509651  0.372785  1
  Ti  Ti13  1  0.848248  0.990168  0.374498  1
  Ti  Ti14  1  0.006220  0.148377  0.123760  1
  Ti  Ti15  1  0.990168  0.848248  0.625502  1
  Nb  Nb16  1  0.174950  0.825823  0.248575  1
  Nb  Nb17  1  0.825823  0.174950  0.751425  1
  Nb  Nb18  1  0.673518  0.673518  0.500000  1
  Si  Si19  1  0.202385  0.130840  0.685265  1
  Si  Si20  1  0.373934  0.709350  0.933072  1
  Si  Si21  1  0.629139  0.296072  0.434424  1
  Si  Si22  1  0.709350  0.373934  0.066928  1
  Si  Si23  1  0.296072  0.629139  0.565576  1
  Si  Si24  1  0.797698  0.869035  0.183814  1
  Si  Si25  1  0.130840  0.202385  0.314735  1
  Si  Si26  1  0.869035  0.797698  0.816186  1
  Si  Si27  1  0.287465  0.945694  0.062585  1
  Si  Si28  1  0.547613  0.792371  0.313999  1
  Si  Si29  1  0.449640  0.209576  0.814155  1
  Si  Si30  1  0.792371  0.547613  0.686001  1
  Si  Si31  1  0.209576  0.449640  0.185845  1
  Si  Si32  1  0.708407  0.047995  0.564103  1
  Si  Si33  1  0.945694  0.287465  0.937415  1
  Si  Si34  1  0.047995  0.708407  0.435897  1
  Pd  Pd35  1  0.331240  0.331240  0.000000  1
