# generated using pymatgen
data_YbMg(Nb2B5)4
_symmetry_space_group_name_H-M   'P 1'
_cell_length_a   6.22721258
_cell_length_b   7.08485024
_cell_length_c   7.48771669
_cell_angle_alpha   94.32528250
_cell_angle_beta   102.03139422
_cell_angle_gamma   115.97978451
_symmetry_Int_Tables_number   1
_chemical_formula_structural   YbMg(Nb2B5)4
_chemical_formula_sum   'Yb1 Mg1 Nb8 B20'
_cell_volume   285.17362498
_cell_formula_units_Z   1
loop_
 _symmetry_equiv_pos_site_id
 _symmetry_equiv_pos_as_xyz
  1  'x, y, z'
loop_
 _atom_site_type_symbol
 _atom_site_label
 _atom_site_symmetry_multiplicity
 _atom_site_fract_x
 _atom_site_fract_y
 _atom_site_fract_z
 _atom_site_occupancy
  Yb  Yb0  1  0.999279  0.998006  0.998798  1
  Mg  Mg1  1  0.000740  0.604389  0.802500  1
  Nb  Nb2  1  0.499767  0.999867  0.000161  1
  Nb  Nb3  1  0.499064  0.797606  0.400312  1
  Nb  Nb4  1  0.999418  0.395543  0.203390  1
  Nb  Nb5  1  0.503906  0.202848  0.599459  1
  Nb  Nb6  1  0.000106  0.800414  0.398196  1
  Nb  Nb7  1  0.499460  0.600881  0.797677  1
  Nb  Nb8  1  0.497805  0.397850  0.201156  1
  Nb  Nb9  1  0.000229  0.204411  0.599841  1
  B  B10  1  0.335053  0.235082  0.864672  1
  B  B11  1  0.331803  0.631612  0.066498  1
  B  B12  1  0.167800  0.370288  0.932341  1
  B  B13  1  0.335237  0.031688  0.268849  1
  B  B14  1  0.166961  0.762710  0.135249  1
  B  B15  1  0.832415  0.236244  0.863786  1
  B  B16  1  0.167709  0.166272  0.335825  1
  B  B17  1  0.832732  0.628671  0.068476  1
  B  B18  1  0.334096  0.434221  0.466596  1
  B  B19  1  0.667581  0.367647  0.932312  1
  B  B20  1  0.831450  0.030871  0.269054  1
  B  B21  1  0.663797  0.763558  0.134739  1
  B  B22  1  0.332137  0.833159  0.666210  1
  B  B23  1  0.166512  0.568732  0.534787  1
  B  B24  1  0.666574  0.166000  0.335746  1
  B  B25  1  0.834143  0.435070  0.469017  1
  B  B26  1  0.166938  0.967291  0.728718  1
  B  B27  1  0.833712  0.833258  0.662056  1
  B  B28  1  0.668344  0.567443  0.534090  1
  B  B29  1  0.665234  0.968368  0.729488  1
