# generated using pymatgen
data_Pa2VZn3
_symmetry_space_group_name_H-M   'P 1'
_cell_length_a   5.56095165
_cell_length_b   5.56095162
_cell_length_c   5.56095264
_cell_angle_alpha   55.41964998
_cell_angle_beta   55.41965423
_cell_angle_gamma   55.41965541
_symmetry_Int_Tables_number   1
_chemical_formula_structural   Pa2VZn3
_chemical_formula_sum   'Pa2 V1 Zn3'
_cell_volume   108.66341327
_cell_formula_units_Z   1
loop_
 _symmetry_equiv_pos_site_id
 _symmetry_equiv_pos_as_xyz
  1  'x, y, z'
loop_
 _atom_site_type_symbol
 _atom_site_label
 _atom_site_symmetry_multiplicity
 _atom_site_fract_x
 _atom_site_fract_y
 _atom_site_fract_z
 _atom_site_occupancy
  Pa  Pa0  1  0.140089  0.140089  0.140089  1
  Pa  Pa1  1  0.859911  0.859911  0.859911  1
  V  V2  1  0.500000  0.500000  0.500000  1
  Zn  Zn3  1  0.500000  0.000000  0.500000  1
  Zn  Zn4  1  0.000000  0.500000  0.500000  1
  Zn  Zn5  1  0.500000  0.500000  0.000000  1
