# generated using pymatgen
data_Sr8LiSi12AgHg2
_symmetry_space_group_name_H-M   'P 1'
_cell_length_a   11.87816878
_cell_length_b   10.23074850
_cell_length_c   8.53261532
_cell_angle_alpha   77.96777073
_cell_angle_beta   57.38956807
_cell_angle_gamma   44.64354869
_symmetry_Int_Tables_number   1
_chemical_formula_structural   Sr8LiSi12AgHg2
_chemical_formula_sum   'Sr8 Li1 Si12 Ag1 Hg2'
_cell_volume   586.33179625
_cell_formula_units_Z   1
loop_
 _symmetry_equiv_pos_site_id
 _symmetry_equiv_pos_as_xyz
  1  'x, y, z'
loop_
 _atom_site_type_symbol
 _atom_site_label
 _atom_site_symmetry_multiplicity
 _atom_site_fract_x
 _atom_site_fract_y
 _atom_site_fract_z
 _atom_site_occupancy
  Sr  Sr0  1  0.126448  0.122350  0.875348  1
  Sr  Sr1  1  0.875334  0.875943  0.126423  1
  Sr  Sr2  1  0.128148  0.124445  0.372005  1
  Sr  Sr3  1  0.372110  0.375231  0.128202  1
  Sr  Sr4  1  0.624235  0.623580  0.375655  1
  Sr  Sr5  1  0.375742  0.376711  0.624089  1
  Sr  Sr6  1  0.625921  0.627877  0.873250  1
  Sr  Sr7  1  0.872925  0.873225  0.626062  1
  Li  Li8  1  0.416815  0.083170  0.417022  1
  Si  Si9  1  0.909420  0.595362  0.433358  1
  Si  Si10  1  0.075365  0.419746  0.588204  1
  Si  Si11  1  0.432822  0.061559  0.909696  1
  Si  Si12  1  0.588111  0.916415  0.075394  1
  Si  Si13  1  0.334307  0.658918  0.828404  1
  Si  Si14  1  0.653424  0.339066  0.189125  1
  Si  Si15  1  0.828895  0.178619  0.333980  1
  Si  Si16  1  0.189288  0.818995  0.653058  1
  Si  Si17  1  0.907364  0.592737  0.907139  1
  Si  Si18  1  0.586073  0.914201  0.585447  1
  Si  Si19  1  0.336858  0.662620  0.337426  1
  Si  Si20  1  0.657561  0.342269  0.657798  1
  Ag  Ag21  1  0.166916  0.832923  0.167057  1
  Hg  Hg22  1  0.083109  0.417152  0.082796  1
  Hg  Hg23  1  0.832813  0.166894  0.833060  1
