# generated using pymatgen
data_CoAg2IO6
_symmetry_space_group_name_H-M   'P 1'
_cell_length_a   6.42746847
_cell_length_b   6.42741124
_cell_length_c   6.42780660
_cell_angle_alpha   47.05434654
_cell_angle_beta   47.06130462
_cell_angle_gamma   47.05808202
_symmetry_Int_Tables_number   1
_chemical_formula_structural   CoAg2IO6
_chemical_formula_sum   'Co1 Ag2 I1 O6'
_cell_volume   130.09618558
_cell_formula_units_Z   1
loop_
 _symmetry_equiv_pos_site_id
 _symmetry_equiv_pos_as_xyz
  1  'x, y, z'
loop_
 _atom_site_type_symbol
 _atom_site_label
 _atom_site_symmetry_multiplicity
 _atom_site_fract_x
 _atom_site_fract_y
 _atom_site_fract_z
 _atom_site_occupancy
  Co  Co0  1  0.834988  0.835026  0.835004  1
  Ag  Ag1  1  0.357124  0.357120  0.357077  1
  Ag  Ag2  1  0.643830  0.643837  0.643858  1
  I  I3  1  0.164855  0.164816  0.164844  1
  O  O4  1  0.055074  0.813062  0.441409  1
  O  O5  1  0.559214  0.943477  0.186976  1
  O  O6  1  0.186950  0.559230  0.943481  1
  O  O7  1  0.813054  0.441435  0.055044  1
  O  O8  1  0.441429  0.055051  0.813073  1
  O  O9  1  0.943480  0.186944  0.559235  1
