# generated using pymatgen
data_Dy2Tm3Sn3Bi
_symmetry_space_group_name_H-M   'P 1'
_cell_length_a   8.08060300
_cell_length_b   8.08695400
_cell_length_c   15.26178800
_cell_angle_alpha   90.00000000
_cell_angle_beta   90.00000000
_cell_angle_gamma   90.00000000
_symmetry_Int_Tables_number   1
_chemical_formula_structural   Dy2Tm3Sn3Bi
_chemical_formula_sum   'Dy8 Tm12 Sn12 Bi4'
_cell_volume   997.31915340
_cell_formula_units_Z   4
loop_
 _symmetry_equiv_pos_site_id
 _symmetry_equiv_pos_as_xyz
  1  'x, y, z'
loop_
 _atom_site_type_symbol
 _atom_site_label
 _atom_site_symmetry_multiplicity
 _atom_site_fract_x
 _atom_site_fract_y
 _atom_site_fract_z
 _atom_site_occupancy
  Dy  Dy0  1  0.542414  0.325076  0.897048  1
  Dy  Dy1  1  0.042414  0.174924  0.602952  1
  Dy  Dy2  1  0.457586  0.674924  0.397048  1
  Dy  Dy3  1  0.957586  0.825076  0.102952  1
  Dy  Dy4  1  0.475621  0.674407  0.101111  1
  Dy  Dy5  1  0.975621  0.825593  0.398889  1
  Dy  Dy6  1  0.524379  0.325593  0.601111  1
  Dy  Dy7  1  0.024379  0.174407  0.898889  1
  Tm  Tm8  1  0.376095  0.840087  0.874223  1
  Tm  Tm9  1  0.876095  0.659913  0.625777  1
  Tm  Tm10  1  0.623905  0.159913  0.374223  1
  Tm  Tm11  1  0.123905  0.340087  0.125777  1
  Tm  Tm12  1  0.633900  0.161735  0.123934  1
  Tm  Tm13  1  0.133900  0.338265  0.376066  1
  Tm  Tm14  1  0.366100  0.838265  0.623934  1
  Tm  Tm15  1  0.866100  0.661735  0.876066  1
  Tm  Tm16  1  0.200925  0.501992  0.746942  1
  Tm  Tm17  1  0.700925  0.998008  0.753058  1
  Tm  Tm18  1  0.799075  0.498008  0.246942  1
  Tm  Tm19  1  0.299075  0.001992  0.253058  1
  Sn  Sn20  1  0.711533  0.964908  0.957803  1
  Sn  Sn21  1  0.211533  0.535092  0.542197  1
  Sn  Sn22  1  0.288467  0.035092  0.457803  1
  Sn  Sn23  1  0.788467  0.464908  0.042197  1
  Sn  Sn24  1  0.566622  0.622668  0.748024  1
  Sn  Sn25  1  0.066622  0.877332  0.751976  1
  Sn  Sn26  1  0.433378  0.377332  0.248024  1
  Sn  Sn27  1  0.933378  0.122668  0.251976  1
  Sn  Sn28  1  0.340575  0.149300  0.751283  1
  Sn  Sn29  1  0.840575  0.350700  0.748717  1
  Sn  Sn30  1  0.659425  0.850700  0.251283  1
  Sn  Sn31  1  0.159425  0.649300  0.248717  1
  Bi  Bi32  1  0.285287  0.032881  0.042820  1
  Bi  Bi33  1  0.785287  0.467119  0.457180  1
  Bi  Bi34  1  0.714713  0.967119  0.542820  1
  Bi  Bi35  1  0.214713  0.532881  0.957180  1
