# generated using pymatgen
data_SmY2Co7(P3Rh)2
_symmetry_space_group_name_H-M   'P 1'
_cell_length_a   3.74359500
_cell_length_b   10.67922800
_cell_length_c   12.41361000
_cell_angle_alpha   90.00000000
_cell_angle_beta   90.00000000
_cell_angle_gamma   90.00000000
_symmetry_Int_Tables_number   1
_chemical_formula_structural   SmY2Co7(P3Rh)2
_chemical_formula_sum   'Sm2 Y4 Co14 P12 Rh4'
_cell_volume   496.28004652
_cell_formula_units_Z   2
loop_
 _symmetry_equiv_pos_site_id
 _symmetry_equiv_pos_as_xyz
  1  'x, y, z'
loop_
 _atom_site_type_symbol
 _atom_site_label
 _atom_site_symmetry_multiplicity
 _atom_site_fract_x
 _atom_site_fract_y
 _atom_site_fract_z
 _atom_site_occupancy
  Sm  Sm0  1  0.000000  0.500000  0.521296  1
  Sm  Sm1  1  0.500000  0.000000  0.478704  1
  Y  Y2  1  0.500000  0.813589  0.205446  1
  Y  Y3  1  0.500000  0.186411  0.205446  1
  Y  Y4  1  0.000000  0.686411  0.794554  1
  Y  Y5  1  0.000000  0.313589  0.794554  1
  Co  Co6  1  0.000000  0.500000  0.988433  1
  Co  Co7  1  0.500000  0.000000  0.011567  1
  Co  Co8  1  0.500000  0.332010  0.993855  1
  Co  Co9  1  0.500000  0.667990  0.993855  1
  Co  Co10  1  0.000000  0.167990  0.006145  1
  Co  Co11  1  0.000000  0.832010  0.006145  1
  Co  Co12  1  0.500000  0.299785  0.428789  1
  Co  Co13  1  0.500000  0.700215  0.428789  1
  Co  Co14  1  0.000000  0.200215  0.571211  1
  Co  Co15  1  0.000000  0.799785  0.571211  1
  Co  Co16  1  0.500000  0.880813  0.710996  1
  Co  Co17  1  0.500000  0.119187  0.710996  1
  Co  Co18  1  0.000000  0.619187  0.289004  1
  Co  Co19  1  0.000000  0.380813  0.289004  1
  P  P20  1  0.500000  0.500000  0.890967  1
  P  P21  1  0.000000  0.000000  0.109033  1
  P  P22  1  0.500000  0.500000  0.347423  1
  P  P23  1  0.000000  0.000000  0.652577  1
  P  P24  1  0.500000  0.300600  0.613673  1
  P  P25  1  0.500000  0.699400  0.613673  1
  P  P26  1  0.000000  0.199400  0.386327  1
  P  P27  1  0.000000  0.800600  0.386327  1
  P  P28  1  0.500000  0.844721  0.895214  1
  P  P29  1  0.500000  0.155279  0.895214  1
  P  P30  1  0.000000  0.655279  0.104786  1
  P  P31  1  0.000000  0.344721  0.104786  1
  Rh  Rh32  1  0.500000  0.500000  0.159007  1
  Rh  Rh33  1  0.000000  0.000000  0.840993  1
  Rh  Rh34  1  0.500000  0.500000  0.705621  1
  Rh  Rh35  1  0.000000  0.000000  0.294379  1
