# generated using pymatgen
data_DyHo7(SiBr6)2
_symmetry_space_group_name_H-M   'P 1'
_cell_length_a   4.03838700
_cell_length_b   13.16453121
_cell_length_c   13.95305922
_cell_angle_alpha   89.97965710
_cell_angle_beta   90.00000000
_cell_angle_gamma   90.00000000
_symmetry_Int_Tables_number   1
_chemical_formula_structural   DyHo7(SiBr6)2
_chemical_formula_sum   'Dy1 Ho7 Si2 Br12'
_cell_volume   741.79302206
_cell_formula_units_Z   1
loop_
 _symmetry_equiv_pos_site_id
 _symmetry_equiv_pos_as_xyz
  1  'x, y, z'
loop_
 _atom_site_type_symbol
 _atom_site_label
 _atom_site_symmetry_multiplicity
 _atom_site_fract_x
 _atom_site_fract_y
 _atom_site_fract_z
 _atom_site_occupancy
  Dy  Dy0  1  0.000000  0.117947  0.578270  1
  Ho  Ho1  1  0.500000  0.118040  0.341204  1
  Ho  Ho2  1  0.500000  0.881931  0.658782  1
  Ho  Ho3  1  0.500000  0.618085  0.158828  1
  Ho  Ho4  1  0.500000  0.381903  0.841157  1
  Ho  Ho5  1  0.000000  0.882156  0.421799  1
  Ho  Ho6  1  0.000000  0.617727  0.921871  1
  Ho  Ho7  1  0.000000  0.382279  0.078139  1
  Si  Si8  1  0.500000  0.999615  0.499740  1
  Si  Si9  1  0.500000  0.500001  0.000003  1
  Br  Br10  1  0.500000  0.243850  0.162646  1
  Br  Br11  1  0.500000  0.756141  0.837348  1
  Br  Br12  1  0.500000  0.743830  0.337320  1
  Br  Br13  1  0.500000  0.256582  0.662937  1
  Br  Br14  1  0.000000  0.255864  0.410922  1
  Br  Br15  1  0.000000  0.744253  0.588821  1
  Br  Br16  1  0.000000  0.755739  0.088821  1
  Br  Br17  1  0.000000  0.244269  0.911190  1
  Br  Br18  1  0.000000  0.001714  0.242775  1
  Br  Br19  1  0.000000  0.998070  0.757419  1
  Br  Br20  1  0.000000  0.501708  0.257211  1
  Br  Br21  1  0.000000  0.498297  0.742796  1
