# generated using pymatgen
data_Y5Lu5(Si5Pt2)4
_symmetry_space_group_name_H-M   'P 1'
_cell_length_a   12.59436200
_cell_length_b   12.59436269
_cell_length_c   4.23742000
_cell_angle_alpha   90.00000000
_cell_angle_beta   90.00000000
_cell_angle_gamma   89.97027475
_symmetry_Int_Tables_number   1
_chemical_formula_structural   Y5Lu5(Si5Pt2)4
_chemical_formula_sum   'Y5 Lu5 Si20 Pt8'
_cell_volume   672.13083806
_cell_formula_units_Z   1
loop_
 _symmetry_equiv_pos_site_id
 _symmetry_equiv_pos_as_xyz
  1  'x, y, z'
loop_
 _atom_site_type_symbol
 _atom_site_label
 _atom_site_symmetry_multiplicity
 _atom_site_fract_x
 _atom_site_fract_y
 _atom_site_fract_z
 _atom_site_occupancy
  Y  Y0  1  0.821507  0.678493  0.500000  1
  Y  Y1  1  0.887486  0.386779  0.500000  1
  Y  Y2  1  0.113221  0.612514  0.500000  1
  Y  Y3  1  0.386969  0.113031  0.500000  1
  Y  Y4  1  0.611714  0.888286  0.500000  1
  Lu  Lu5  1  0.499708  0.500640  0.000000  1
  Lu  Lu6  1  0.999360  0.000292  0.000000  1
  Lu  Lu7  1  0.677685  0.177928  0.500000  1
  Lu  Lu8  1  0.322072  0.822315  0.500000  1
  Lu  Lu9  1  0.177811  0.322189  0.500000  1
  Si  Si10  1  0.565083  0.065704  0.000000  1
  Si  Si11  1  0.434296  0.934917  0.000000  1
  Si  Si12  1  0.065786  0.434214  0.000000  1
  Si  Si13  1  0.935207  0.564793  0.000000  1
  Si  Si14  1  0.661691  0.703852  0.000000  1
  Si  Si15  1  0.336904  0.296515  0.000000  1
  Si  Si16  1  0.163290  0.796773  0.000000  1
  Si  Si17  1  0.837164  0.203671  0.000000  1
  Si  Si18  1  0.296329  0.662836  0.000000  1
  Si  Si19  1  0.703227  0.336710  0.000000  1
  Si  Si20  1  0.203485  0.163096  0.000000  1
  Si  Si21  1  0.796148  0.838309  0.000000  1
  Si  Si22  1  0.653163  0.496103  0.500000  1
  Si  Si23  1  0.347069  0.499511  0.500000  1
  Si  Si24  1  0.152932  0.000498  0.500000  1
  Si  Si25  1  0.846406  0.998489  0.500000  1
  Si  Si26  1  0.501511  0.653594  0.500000  1
  Si  Si27  1  0.499502  0.347068  0.500000  1
  Si  Si28  1  0.000489  0.152931  0.500000  1
  Si  Si29  1  0.003897  0.846837  0.500000  1
  Pt  Pt30  1  0.741013  0.522608  0.000000  1
  Pt  Pt31  1  0.258082  0.475890  0.000000  1
  Pt  Pt32  1  0.241923  0.976276  0.000000  1
  Pt  Pt33  1  0.757643  0.025001  0.000000  1
  Pt  Pt34  1  0.474999  0.742357  0.000000  1
  Pt  Pt35  1  0.523724  0.258077  0.000000  1
  Pt  Pt36  1  0.024110  0.241918  0.000000  1
  Pt  Pt37  1  0.977392  0.758987  0.000000  1
