# generated using pymatgen
data_Cs8Li4ScIn3As8
_symmetry_space_group_name_H-M   'P 1'
_cell_length_a   10.99782306
_cell_length_b   10.99784143
_cell_length_c   6.66258680
_cell_angle_alpha   90.12261010
_cell_angle_beta   89.87737263
_cell_angle_gamma   105.76301964
_symmetry_Int_Tables_number   1
_chemical_formula_structural   Cs8Li4ScIn3As8
_chemical_formula_sum   'Cs8 Li4 Sc1 In3 As8'
_cell_volume   775.54712601
_cell_formula_units_Z   1
loop_
 _symmetry_equiv_pos_site_id
 _symmetry_equiv_pos_as_xyz
  1  'x, y, z'
loop_
 _atom_site_type_symbol
 _atom_site_label
 _atom_site_symmetry_multiplicity
 _atom_site_fract_x
 _atom_site_fract_y
 _atom_site_fract_z
 _atom_site_occupancy
  Cs  Cs0  1  0.078267  0.426750  0.745574  1
  Cs  Cs1  1  0.670518  0.327715  0.779347  1
  Cs  Cs2  1  0.327714  0.670518  0.220654  1
  Cs  Cs3  1  0.575824  0.924186  0.749995  1
  Cs  Cs4  1  0.426751  0.078269  0.254427  1
  Cs  Cs5  1  0.924186  0.575825  0.250003  1
  Cs  Cs6  1  0.824937  0.171610  0.285598  1
  Cs  Cs7  1  0.171611  0.824938  0.714403  1
  Li  Li8  1  0.121736  0.121736  0.500000  1
  Li  Li9  1  0.878355  0.878355  0.500000  1
  Li  Li10  1  0.378110  0.378110  0.000000  1
  Li  Li11  1  0.621449  0.621450  0.999999  1
  Sc  Sc12  1  0.126313  0.126313  0.000000  1
  In  In13  1  0.871396  0.871396  0.000000  1
  In  In14  1  0.368165  0.368165  0.500000  1
  In  In15  1  0.632324  0.632324  0.500000  1
  As  As16  1  0.838303  0.663513  0.751664  1
  As  As17  1  0.087511  0.917607  0.226771  1
  As  As18  1  0.415038  0.586254  0.725719  1
  As  As19  1  0.586257  0.415037  0.274280  1
  As  As20  1  0.663513  0.838303  0.248336  1
  As  As21  1  0.164167  0.329949  0.244577  1
  As  As22  1  0.329949  0.164167  0.755423  1
  As  As23  1  0.917607  0.087511  0.773229  1
