# generated using pymatgen
data_La3Zn4Pd3Pt
_symmetry_space_group_name_H-M   'P 1'
_cell_length_a   8.45300160
_cell_length_b   8.45300232
_cell_length_c   8.45300137
_cell_angle_alpha   151.20500337
_cell_angle_beta   127.12740194
_cell_angle_gamma   61.31864600
_symmetry_Int_Tables_number   1
_chemical_formula_structural   La3Zn4Pd3Pt
_chemical_formula_sum   'La3 Zn4 Pd3 Pt1'
_cell_volume   230.06023015
_cell_formula_units_Z   1
loop_
 _symmetry_equiv_pos_site_id
 _symmetry_equiv_pos_as_xyz
  1  'x, y, z'
loop_
 _atom_site_type_symbol
 _atom_site_label
 _atom_site_symmetry_multiplicity
 _atom_site_fract_x
 _atom_site_fract_y
 _atom_site_fract_z
 _atom_site_occupancy
  La  La0  1  0.495340  0.000000  0.495340  1
  La  La1  1  0.874889  0.872622  0.002267  1
  La  La2  1  0.129646  0.127378  0.002267  1
  Zn  Zn3  1  0.481702  0.673478  0.808224  1
  Zn  Zn4  1  0.865353  0.673687  0.191666  1
  Zn  Zn5  1  0.134746  0.326522  0.808224  1
  Zn  Zn6  1  0.517979  0.326313  0.191666  1
  Pd  Pd7  1  0.282557  0.782422  0.500134  1
  Pd  Pd8  1  0.717712  0.217578  0.500134  1
  Pd  Pd9  1  0.801728  0.500000  0.301728  1
  Pt  Pt10  1  0.198349  0.500000  0.698349  1
