# generated using pymatgen
data_Nd3In3Ag2Ir
_symmetry_space_group_name_H-M   'P 1'
_cell_length_a   7.92721500
_cell_length_b   7.92721649
_cell_length_c   4.05125400
_cell_angle_alpha   90.00000000
_cell_angle_beta   90.00000000
_cell_angle_gamma   119.99999797
_symmetry_Int_Tables_number   1
_chemical_formula_structural   Nd3In3Ag2Ir
_chemical_formula_sum   'Nd3 In3 Ag2 Ir1'
_cell_volume   220.47607524
_cell_formula_units_Z   1
loop_
 _symmetry_equiv_pos_site_id
 _symmetry_equiv_pos_as_xyz
  1  'x, y, z'
loop_
 _atom_site_type_symbol
 _atom_site_label
 _atom_site_symmetry_multiplicity
 _atom_site_fract_x
 _atom_site_fract_y
 _atom_site_fract_z
 _atom_site_occupancy
  Nd  Nd0  1  0.575690  0.600853  0.000000  1
  Nd  Nd1  1  0.399147  0.974837  0.000000  1
  Nd  Nd2  1  0.025163  0.424310  0.000000  1
  In  In3  1  0.997134  0.739333  0.500000  1
  In  In4  1  0.260667  0.257802  0.500000  1
  In  In5  1  0.742198  0.002866  0.500000  1
  Ag  Ag6  1  0.000000  0.000000  0.000000  1
  Ag  Ag7  1  0.666667  0.333333  0.500000  1
  Ir  Ir8  1  0.333333  0.666667  0.500000  1
