# generated using pymatgen
data_Hf5Re7Tc17
_symmetry_space_group_name_H-M   'P 1'
_cell_length_a   8.40995230
_cell_length_b   8.42353030
_cell_length_c   8.45045561
_cell_angle_alpha   109.48894336
_cell_angle_beta   109.47442201
_cell_angle_gamma   109.27454806
_symmetry_Int_Tables_number   1
_chemical_formula_structural   Hf5Re7Tc17
_chemical_formula_sum   'Hf5 Re7 Tc17'
_cell_volume   461.83080073
_cell_formula_units_Z   1
loop_
 _symmetry_equiv_pos_site_id
 _symmetry_equiv_pos_as_xyz
  1  'x, y, z'
loop_
 _atom_site_type_symbol
 _atom_site_label
 _atom_site_symmetry_multiplicity
 _atom_site_fract_x
 _atom_site_fract_y
 _atom_site_fract_z
 _atom_site_occupancy
  Hf  Hf0  1  0.999209  0.999406  0.999955  1
  Hf  Hf1  1  0.623497  0.000456  0.000186  1
  Hf  Hf2  1  0.001575  0.625109  0.000847  1
  Hf  Hf3  1  0.001097  0.000557  0.626179  1
  Hf  Hf4  1  0.374127  0.374112  0.373441  1
  Re  Re5  1  0.807412  0.184214  0.808442  1
  Re  Re6  1  0.807351  0.807774  0.182958  1
  Re  Re7  1  0.998684  0.194479  0.374108  1
  Re  Re8  1  0.195643  0.999408  0.374099  1
  Re  Re9  1  0.624552  0.624959  0.817653  1
  Re  Re10  1  0.822175  0.625576  0.626101  1
  Re  Re11  1  0.624731  0.819565  0.625605  1
  Tc  Tc12  1  0.396809  0.672689  0.000126  1
  Tc  Tc13  1  0.719593  0.324424  0.325121  1
  Tc  Tc14  1  0.395796  0.999225  0.674699  1
  Tc  Tc15  1  0.673236  0.397005  0.999869  1
  Tc  Tc16  1  0.998971  0.394442  0.675579  1
  Tc  Tc17  1  0.322900  0.717778  0.324153  1
  Tc  Tc18  1  0.322104  0.322617  0.715118  1
  Tc  Tc19  1  0.998896  0.674826  0.393762  1
  Tc  Tc20  1  0.674661  0.999237  0.395736  1
  Tc  Tc21  1  0.606438  0.606965  0.284284  1
  Tc  Tc22  1  0.279947  0.604610  0.605148  1
  Tc  Tc23  1  0.604340  0.282115  0.605436  1
  Tc  Tc24  1  0.374338  0.195067  0.999662  1
  Tc  Tc25  1  0.182618  0.807063  0.807666  1
  Tc  Tc26  1  0.374984  0.999157  0.192385  1
  Tc  Tc27  1  0.196041  0.373259  0.999383  1
  Tc  Tc28  1  0.998278  0.373904  0.192299  1
