# generated using pymatgen
data_Tb8Si16TcW11
_symmetry_space_group_name_H-M   'P 1'
_cell_length_a   6.88218432
_cell_length_b   6.88218511
_cell_length_c   12.79181271
_cell_angle_alpha   90.02689745
_cell_angle_beta   90.02689715
_cell_angle_gamma   90.23363884
_symmetry_Int_Tables_number   1
_chemical_formula_structural   Tb8Si16TcW11
_chemical_formula_sum   'Tb8 Si16 Tc1 W11'
_cell_volume   605.87221214
_cell_formula_units_Z   1
loop_
 _symmetry_equiv_pos_site_id
 _symmetry_equiv_pos_as_xyz
  1  'x, y, z'
loop_
 _atom_site_type_symbol
 _atom_site_label
 _atom_site_symmetry_multiplicity
 _atom_site_fract_x
 _atom_site_fract_y
 _atom_site_fract_z
 _atom_site_occupancy
  Tb  Tb0  1  0.002249  0.336968  0.218974  1
  Tb  Tb1  1  0.997262  0.662130  0.718677  1
  Tb  Tb2  1  0.163053  0.501612  0.469674  1
  Tb  Tb3  1  0.498388  0.836947  0.030326  1
  Tb  Tb4  1  0.836402  0.498020  0.968608  1
  Tb  Tb5  1  0.501980  0.163598  0.531392  1
  Tb  Tb6  1  0.337870  0.002738  0.781323  1
  Tb  Tb7  1  0.663032  0.997751  0.281026  1
  Si  Si8  1  0.375553  0.298414  0.316121  1
  Si  Si9  1  0.622720  0.697428  0.814373  1
  Si  Si10  1  0.202083  0.875522  0.566196  1
  Si  Si11  1  0.124478  0.797917  0.933804  1
  Si  Si12  1  0.797123  0.124992  0.065319  1
  Si  Si13  1  0.875008  0.202877  0.434681  1
  Si  Si14  1  0.302572  0.377280  0.685627  1
  Si  Si15  1  0.701586  0.624447  0.183879  1
  Si  Si16  1  0.287636  0.034836  0.186478  1
  Si  Si17  1  0.714499  0.967123  0.687822  1
  Si  Si18  1  0.463851  0.789223  0.435725  1
  Si  Si19  1  0.210777  0.536149  0.064275  1
  Si  Si20  1  0.537751  0.212963  0.933975  1
  Si  Si21  1  0.787037  0.462249  0.566025  1
  Si  Si22  1  0.032877  0.285501  0.812178  1
  Si  Si23  1  0.965164  0.712364  0.313522  1
  Tc  Tc24  1  0.667232  0.332768  0.750000  1
  W  W25  1  0.166577  0.166363  0.999832  1
  W  W26  1  0.833637  0.833423  0.500168  1
  W  W27  1  0.333566  0.666434  0.250000  1
  W  W28  1  0.164101  0.000830  0.376990  1
  W  W29  1  0.835301  0.995903  0.877495  1
  W  W30  1  0.499765  0.669208  0.624500  1
  W  W31  1  0.330792  0.500235  0.875500  1
  W  W32  1  0.498923  0.334110  0.124959  1
  W  W33  1  0.665890  0.501077  0.375041  1
  W  W34  1  0.004097  0.164699  0.622505  1
  W  W35  1  0.999170  0.835899  0.123010  1
