# generated using pymatgen
data_Pa4Ga5Tc3
_symmetry_space_group_name_H-M   'P 1'
_cell_length_a   5.42630113
_cell_length_b   5.11928206
_cell_length_c   9.05882300
_cell_angle_alpha   90.00000000
_cell_angle_beta   90.00000000
_cell_angle_gamma   118.14533150
_symmetry_Int_Tables_number   1
_chemical_formula_structural   Pa4Ga5Tc3
_chemical_formula_sum   'Pa4 Ga5 Tc3'
_cell_volume   221.88713842
_cell_formula_units_Z   1
loop_
 _symmetry_equiv_pos_site_id
 _symmetry_equiv_pos_as_xyz
  1  'x, y, z'
loop_
 _atom_site_type_symbol
 _atom_site_label
 _atom_site_symmetry_multiplicity
 _atom_site_fract_x
 _atom_site_fract_y
 _atom_site_fract_z
 _atom_site_occupancy
  Pa  Pa0  1  0.355155  0.677578  0.457896  1
  Pa  Pa1  1  0.644202  0.322101  0.555953  1
  Pa  Pa2  1  0.644202  0.322101  0.944047  1
  Pa  Pa3  1  0.355155  0.677578  0.042104  1
  Ga  Ga4  1  0.845776  0.175475  0.250000  1
  Ga  Ga5  1  0.845776  0.670303  0.250000  1
  Ga  Ga6  1  0.344989  0.172494  0.250000  1
  Ga  Ga7  1  0.143579  0.822197  0.750000  1
  Ga  Ga8  1  0.143579  0.321382  0.750000  1
  Tc  Tc9  1  0.016749  0.008374  0.495782  1
  Tc  Tc10  1  0.016749  0.008374  0.004218  1
  Tc  Tc11  1  0.644086  0.822043  0.750000  1
