# generated using pymatgen
data_Ac12Sn(OsI4)3
_symmetry_space_group_name_H-M   'P 1'
_cell_length_a   11.68901497
_cell_length_b   11.68904312
_cell_length_c   11.68888699
_cell_angle_alpha   110.45159806
_cell_angle_beta   110.45032789
_cell_angle_gamma   110.44945387
_symmetry_Int_Tables_number   1
_chemical_formula_structural   Ac12Sn(OsI4)3
_chemical_formula_sum   'Ac12 Sn1 Os3 I12'
_cell_volume   1182.77237207
_cell_formula_units_Z   1
loop_
 _symmetry_equiv_pos_site_id
 _symmetry_equiv_pos_as_xyz
  1  'x, y, z'
loop_
 _atom_site_type_symbol
 _atom_site_label
 _atom_site_symmetry_multiplicity
 _atom_site_fract_x
 _atom_site_fract_y
 _atom_site_fract_z
 _atom_site_occupancy
  Ac  Ac0  1  0.466846  0.500444  0.221034  1
  Ac  Ac1  1  0.750005  0.224786  0.275210  1
  Ac  Ac2  1  0.750002  0.020962  0.479026  1
  Ac  Ac3  1  0.221028  0.466834  0.500436  1
  Ac  Ac4  1  0.275221  0.749999  0.224792  1
  Ac  Ac5  1  0.033172  0.278993  0.999551  1
  Ac  Ac6  1  0.999548  0.033158  0.278967  1
  Ac  Ac7  1  0.479021  0.749973  0.020958  1
  Ac  Ac8  1  0.500447  0.221029  0.466838  1
  Ac  Ac9  1  0.020978  0.479031  0.749991  1
  Ac  Ac10  1  0.278982  0.999563  0.033179  1
  Ac  Ac11  1  0.224777  0.275212  0.749994  1
  Sn  Sn12  1  0.249940  0.250031  0.249975  1
  Os  Os13  1  0.502897  0.997103  0.250003  1
  Os  Os14  1  0.997105  0.250001  0.502884  1
  Os  Os15  1  0.250000  0.502897  0.997104  1
  I  I16  1  0.249998  0.764950  0.735047  1
  I  I17  1  0.512865  0.501891  0.752478  1
  I  I18  1  0.987127  0.747528  0.998111  1
  I  I19  1  0.735055  0.250002  0.764960  1
  I  I20  1  0.998098  0.987132  0.747533  1
  I  I21  1  0.250012  0.997882  0.502144  1
  I  I22  1  0.752475  0.512885  0.501899  1
  I  I23  1  0.502117  0.249984  0.997867  1
  I  I24  1  0.764964  0.735020  0.250005  1
  I  I25  1  0.747527  0.998096  0.987123  1
  I  I26  1  0.997878  0.502135  0.250002  1
  I  I27  1  0.501919  0.752480  0.512890  1
