# generated using pymatgen
data_Ce8Si12Os3Rh
_symmetry_space_group_name_H-M   'P 1'
_cell_length_a   8.23555407
_cell_length_b   8.23569009
_cell_length_c   8.14085700
_cell_angle_alpha   89.99842634
_cell_angle_beta   90.00012585
_cell_angle_gamma   119.98482344
_symmetry_Int_Tables_number   1
_chemical_formula_structural   Ce8Si12Os3Rh
_chemical_formula_sum   'Ce8 Si12 Os3 Rh1'
_cell_volume   478.25549889
_cell_formula_units_Z   1
loop_
 _symmetry_equiv_pos_site_id
 _symmetry_equiv_pos_as_xyz
  1  'x, y, z'
loop_
 _atom_site_type_symbol
 _atom_site_label
 _atom_site_symmetry_multiplicity
 _atom_site_fract_x
 _atom_site_fract_y
 _atom_site_fract_z
 _atom_site_occupancy
  Ce  Ce0  1  0.999994  0.999989  0.248953  1
  Ce  Ce1  1  0.000015  0.000008  0.750065  1
  Ce  Ce2  1  0.503061  0.496946  0.252440  1
  Ce  Ce3  1  0.503050  0.006109  0.252451  1
  Ce  Ce4  1  0.993886  0.496943  0.252447  1
  Ce  Ce5  1  0.500153  0.499869  0.747615  1
  Ce  Ce6  1  0.500142  0.000311  0.747580  1
  Ce  Ce7  1  0.999711  0.499839  0.747608  1
  Si  Si8  1  0.165565  0.834432  0.499555  1
  Si  Si9  1  0.165595  0.331145  0.499574  1
  Si  Si10  1  0.668855  0.834403  0.499562  1
  Si  Si11  1  0.834978  0.165017  0.500073  1
  Si  Si12  1  0.834949  0.669944  0.500085  1
  Si  Si13  1  0.330055  0.165048  0.500073  1
  Si  Si14  1  0.834530  0.165464  0.002470  1
  Si  Si15  1  0.834506  0.669051  0.002456  1
  Si  Si16  1  0.330946  0.165488  0.002467  1
  Si  Si17  1  0.165724  0.834270  0.997208  1
  Si  Si18  1  0.165760  0.331470  0.997187  1
  Si  Si19  1  0.668531  0.834237  0.997200  1
  Os  Os20  1  0.333350  0.666649  0.496745  1
  Os  Os21  1  0.666652  0.333356  0.503670  1
  Os  Os22  1  0.666648  0.333356  0.988786  1
  Rh  Rh23  1  0.333345  0.666656  0.013729  1
