# generated using pymatgen
data_Mg7Zr(B6Ru)4
_symmetry_space_group_name_H-M   'P 1'
_cell_length_a   8.85055401
_cell_length_b   11.05511402
_cell_length_c   3.47626600
_cell_angle_alpha   90.00000000
_cell_angle_beta   90.00000000
_cell_angle_gamma   89.99398502
_symmetry_Int_Tables_number   1
_chemical_formula_structural   Mg7Zr(B6Ru)4
_chemical_formula_sum   'Mg7 Zr1 B24 Ru4'
_cell_volume   340.13136435
_cell_formula_units_Z   1
loop_
 _symmetry_equiv_pos_site_id
 _symmetry_equiv_pos_as_xyz
  1  'x, y, z'
loop_
 _atom_site_type_symbol
 _atom_site_label
 _atom_site_symmetry_multiplicity
 _atom_site_fract_x
 _atom_site_fract_y
 _atom_site_fract_z
 _atom_site_occupancy
  Mg  Mg0  1  0.825723  0.088627  0.000000  1
  Mg  Mg1  1  0.444213  0.129872  0.000000  1
  Mg  Mg2  1  0.943469  0.371962  0.000000  1
  Mg  Mg3  1  0.327933  0.412745  0.000000  1
  Mg  Mg4  1  0.672834  0.585371  0.000000  1
  Mg  Mg5  1  0.054920  0.625910  0.000000  1
  Mg  Mg6  1  0.555725  0.871037  0.000000  1
  Zr  Zr7  1  0.175685  0.913666  0.000000  1
  B  B8  1  0.594253  0.026146  0.500001  1
  B  B9  1  0.056024  0.065215  0.500001  1
  B  B10  1  0.255731  0.079856  0.500001  1
  B  B11  1  0.630617  0.180637  0.500001  1
  B  B12  1  0.978698  0.211734  0.500001  1
  B  B13  1  0.296579  0.238611  0.500001  1
  B  B14  1  0.796267  0.261116  0.500001  1
  B  B15  1  0.479201  0.288685  0.500001  1
  B  B16  1  0.130918  0.318858  0.500001  1
  B  B17  1  0.755873  0.420466  0.500001  1
  B  B18  1  0.554173  0.435747  0.500001  1
  B  B19  1  0.093011  0.474068  0.500001  1
  B  B20  1  0.907314  0.524685  0.500001  1
  B  B21  1  0.445080  0.564891  0.500001  1
  B  B22  1  0.244538  0.577476  0.500001  1
  B  B23  1  0.868895  0.679694  0.500001  1
  B  B24  1  0.520441  0.711594  0.500001  1
  B  B25  1  0.203905  0.737989  0.500001  1
  B  B26  1  0.704608  0.761785  0.500001  1
  B  B27  1  0.019470  0.787632  0.500001  1
  B  B28  1  0.369721  0.819019  0.500001  1
  B  B29  1  0.743942  0.921574  0.500001  1
  B  B30  1  0.945264  0.935779  0.500001  1
  B  B31  1  0.405668  0.974294  0.500001  1
  Ru  Ru32  1  0.140543  0.180213  0.000000  1
  Ru  Ru33  1  0.640772  0.321070  0.000000  1
  Ru  Ru34  1  0.356040  0.681301  0.000000  1
  Ru  Ru35  1  0.861946  0.820679  0.000000  1
