# generated using pymatgen
data_CeMn5H12
_symmetry_space_group_name_H-M   'P 1'
_cell_length_a   5.80225800
_cell_length_b   5.80225678
_cell_length_c   4.31851200
_cell_angle_alpha   90.00000000
_cell_angle_beta   90.00000000
_cell_angle_gamma   119.99999553
_symmetry_Int_Tables_number   1
_chemical_formula_structural   CeMn5H12
_chemical_formula_sum   'Ce1 Mn5 H12'
_cell_volume   125.90957642
_cell_formula_units_Z   1
loop_
 _symmetry_equiv_pos_site_id
 _symmetry_equiv_pos_as_xyz
  1  'x, y, z'
loop_
 _atom_site_type_symbol
 _atom_site_label
 _atom_site_symmetry_multiplicity
 _atom_site_fract_x
 _atom_site_fract_y
 _atom_site_fract_z
 _atom_site_occupancy
  Ce  Ce0  1  0.000000  0.000000  0.000000  1
  Mn  Mn1  1  0.500000  0.000000  0.500000  1
  Mn  Mn2  1  0.000000  0.500000  0.500000  1
  Mn  Mn3  1  0.666667  0.333333  0.000000  1
  Mn  Mn4  1  0.500000  0.500000  0.500000  1
  Mn  Mn5  1  0.333333  0.666667  0.000000  1
  H  H6  1  0.792097  0.584195  0.725497  1
  H  H7  1  0.207903  0.415805  0.274503  1
  H  H8  1  0.207903  0.792097  0.274503  1
  H  H9  1  0.792097  0.207903  0.274503  1
  H  H10  1  0.584195  0.792097  0.274503  1
  H  H11  1  0.415805  0.207903  0.274503  1
  H  H12  1  0.415805  0.207903  0.725497  1
  H  H13  1  0.207903  0.415805  0.725497  1
  H  H14  1  0.792097  0.207903  0.725497  1
  H  H15  1  0.584195  0.792097  0.725497  1
  H  H16  1  0.792097  0.584195  0.274503  1
  H  H17  1  0.207903  0.792097  0.725497  1
