# generated using pymatgen
data_La14Pd5Rh
_symmetry_space_group_name_H-M   'P 1'
_cell_length_a   10.36719832
_cell_length_b   10.36719862
_cell_length_c   6.61373832
_cell_angle_alpha   89.96912806
_cell_angle_beta   90.03087505
_cell_angle_gamma   120.04901516
_symmetry_Int_Tables_number   1
_chemical_formula_structural   La14Pd5Rh
_chemical_formula_sum   'La14 Pd5 Rh1'
_cell_volume   615.29823185
_cell_formula_units_Z   1
loop_
 _symmetry_equiv_pos_site_id
 _symmetry_equiv_pos_as_xyz
  1  'x, y, z'
loop_
 _atom_site_type_symbol
 _atom_site_label
 _atom_site_symmetry_multiplicity
 _atom_site_fract_x
 _atom_site_fract_y
 _atom_site_fract_z
 _atom_site_occupancy
  La  La0  1  0.333193  0.666807  0.454834  1
  La  La1  1  0.668602  0.331398  0.959708  1
  La  La2  1  0.126507  0.873493  0.245952  1
  La  La3  1  0.749229  0.880026  0.244316  1
  La  La4  1  0.119974  0.250771  0.244316  1
  La  La5  1  0.873075  0.126925  0.752210  1
  La  La6  1  0.252754  0.125931  0.746771  1
  La  La7  1  0.874069  0.747246  0.746771  1
  La  La8  1  0.537952  0.462048  0.442918  1
  La  La9  1  0.920969  0.456298  0.438718  1
  La  La10  1  0.543702  0.079031  0.438718  1
  La  La11  1  0.461866  0.538134  0.941775  1
  La  La12  1  0.076125  0.537343  0.941628  1
  La  La13  1  0.462657  0.923875  0.941628  1
  Pd  Pd14  1  0.375470  0.187950  0.190541  1
  Pd  Pd15  1  0.812050  0.624530  0.190541  1
  Pd  Pd16  1  0.187927  0.812073  0.691059  1
  Pd  Pd17  1  0.624333  0.812279  0.690719  1
  Pd  Pd18  1  0.187721  0.375667  0.690719  1
  Rh  Rh19  1  0.811827  0.188173  0.191948  1
