# generated using pymatgen
data_La4Nd6Ir5Ru
_symmetry_space_group_name_H-M   'P 1'
_cell_length_a   11.32600100
_cell_length_b   11.32600100
_cell_length_c   6.61486100
_cell_angle_alpha   90.00000000
_cell_angle_beta   90.00000000
_cell_angle_gamma   90.00000000
_symmetry_Int_Tables_number   1
_chemical_formula_structural   La4Nd6Ir5Ru
_chemical_formula_sum   'La8 Nd12 Ir10 Ru2'
_cell_volume   848.54311490
_cell_formula_units_Z   2
loop_
 _symmetry_equiv_pos_site_id
 _symmetry_equiv_pos_as_xyz
  1  'x, y, z'
loop_
 _atom_site_type_symbol
 _atom_site_label
 _atom_site_symmetry_multiplicity
 _atom_site_fract_x
 _atom_site_fract_y
 _atom_site_fract_z
 _atom_site_occupancy
  La  La0  1  0.089333  0.291594  0.116301  1
  La  La1  1  0.791594  0.410667  0.116301  1
  La  La2  1  0.208406  0.589333  0.116301  1
  La  La3  1  0.910667  0.708406  0.116301  1
  La  La4  1  0.410667  0.791594  0.383699  1
  La  La5  1  0.589333  0.208406  0.383699  1
  La  La6  1  0.291594  0.089333  0.383699  1
  La  La7  1  0.708406  0.910667  0.383699  1
  Nd  Nd8  1  0.410716  0.207554  0.885178  1
  Nd  Nd9  1  0.707554  0.089284  0.885178  1
  Nd  Nd10  1  0.292446  0.910716  0.885178  1
  Nd  Nd11  1  0.589284  0.792446  0.885178  1
  Nd  Nd12  1  0.089284  0.707554  0.614822  1
  Nd  Nd13  1  0.910716  0.292446  0.614822  1
  Nd  Nd14  1  0.207554  0.410716  0.614822  1
  Nd  Nd15  1  0.792446  0.589284  0.614822  1
  Nd  Nd16  1  0.000000  0.000000  0.998134  1
  Nd  Nd17  1  0.500000  0.500000  0.998134  1
  Nd  Nd18  1  0.500000  0.500000  0.501866  1
  Nd  Nd19  1  0.000000  0.000000  0.501866  1
  Ir  Ir20  1  0.153540  0.846460  0.250000  1
  Ir  Ir21  1  0.346460  0.346460  0.250000  1
  Ir  Ir22  1  0.653540  0.653540  0.250000  1
  Ir  Ir23  1  0.846460  0.153540  0.250000  1
  Ir  Ir24  1  0.346779  0.653221  0.750000  1
  Ir  Ir25  1  0.153221  0.153221  0.750000  1
  Ir  Ir26  1  0.846779  0.846779  0.750000  1
  Ir  Ir27  1  0.653221  0.346779  0.750000  1
  Ir  Ir28  1  0.500000  0.000000  0.620938  1
  Ir  Ir29  1  0.000000  0.500000  0.879062  1
  Ru  Ru30  1  0.000000  0.500000  0.378732  1
  Ru  Ru31  1  0.500000  0.000000  0.121268  1
