# generated using pymatgen
data_Dy6ErLu3(Si3H)2
_symmetry_space_group_name_H-M   'P 1'
_cell_length_a   8.39398700
_cell_length_b   8.39398863
_cell_length_c   6.15224600
_cell_angle_alpha   90.00000000
_cell_angle_beta   90.00000000
_cell_angle_gamma   120.00000539
_symmetry_Int_Tables_number   1
_chemical_formula_structural   Dy6ErLu3(Si3H)2
_chemical_formula_sum   'Dy6 Er1 Lu3 Si6 H2'
_cell_volume   375.40579268
_cell_formula_units_Z   1
loop_
 _symmetry_equiv_pos_site_id
 _symmetry_equiv_pos_as_xyz
  1  'x, y, z'
loop_
 _atom_site_type_symbol
 _atom_site_label
 _atom_site_symmetry_multiplicity
 _atom_site_fract_x
 _atom_site_fract_y
 _atom_site_fract_z
 _atom_site_occupancy
  Dy  Dy0  1  0.749373  0.749460  0.749790  1
  Dy  Dy1  1  0.250540  0.999913  0.749790  1
  Dy  Dy2  1  0.000087  0.250627  0.749790  1
  Dy  Dy3  1  0.250540  0.250627  0.250210  1
  Dy  Dy4  1  0.749373  0.999913  0.250210  1
  Dy  Dy5  1  0.000087  0.749460  0.250210  1
  Er  Er6  1  0.666667  0.333333  0.000000  1
  Lu  Lu7  1  0.333333  0.666667  0.000000  1
  Lu  Lu8  1  0.333333  0.666667  0.500000  1
  Lu  Lu9  1  0.666667  0.333333  0.500000  1
  Si  Si10  1  0.390992  0.391615  0.749468  1
  Si  Si11  1  0.608385  0.999377  0.749468  1
  Si  Si12  1  0.000623  0.609008  0.749468  1
  Si  Si13  1  0.608385  0.609008  0.250532  1
  Si  Si14  1  0.390992  0.999377  0.250532  1
  Si  Si15  1  0.000623  0.391615  0.250532  1
  H  H16  1  0.000000  0.000000  0.500000  1
  H  H17  1  0.000000  0.000000  0.000000  1
