# generated using pymatgen
data_Nd5Mo2C7
_symmetry_space_group_name_H-M   'P 1'
_cell_length_a   8.74802163
_cell_length_b   8.74802134
_cell_length_c   3.55875500
_cell_angle_alpha   90.00000000
_cell_angle_beta   90.00000000
_cell_angle_gamma   124.64777970
_symmetry_Int_Tables_number   1
_chemical_formula_structural   Nd5Mo2C7
_chemical_formula_sum   'Nd5 Mo2 C7'
_cell_volume   224.04718900
_cell_formula_units_Z   1
loop_
 _symmetry_equiv_pos_site_id
 _symmetry_equiv_pos_as_xyz
  1  'x, y, z'
loop_
 _atom_site_type_symbol
 _atom_site_label
 _atom_site_symmetry_multiplicity
 _atom_site_fract_x
 _atom_site_fract_y
 _atom_site_fract_z
 _atom_site_occupancy
  Nd  Nd0  1  0.500000  0.500000  0.000000  1
  Nd  Nd1  1  0.068178  0.326801  0.500000  1
  Nd  Nd2  1  0.931822  0.673199  0.500000  1
  Nd  Nd3  1  0.673199  0.931822  0.500000  1
  Nd  Nd4  1  0.326801  0.068178  0.500000  1
  Mo  Mo5  1  0.711497  0.288503  0.000000  1
  Mo  Mo6  1  0.288503  0.711497  0.000000  1
  C  C7  1  0.630791  0.369209  0.500000  1
  C  C8  1  0.369209  0.630791  0.500000  1
  C  C9  1  0.000000  0.000000  0.000000  1
  C  C10  1  0.166629  0.166629  0.000000  1
  C  C11  1  0.833371  0.833371  0.000000  1
  C  C12  1  0.000000  0.500000  0.000000  1
  C  C13  1  0.500000  0.000000  0.000000  1
