# generated using pymatgen
data_Pr3NdSm4(Se3N2)2
_symmetry_space_group_name_H-M   'P 1'
_cell_length_a   8.32403858
_cell_length_b   8.32694284
_cell_length_c   6.45296502
_cell_angle_alpha   90.04883828
_cell_angle_beta   90.04526633
_cell_angle_gamma   75.32769727
_symmetry_Int_Tables_number   1
_chemical_formula_structural   Pr3NdSm4(Se3N2)2
_chemical_formula_sum   'Pr3 Nd1 Sm4 Se6 N4'
_cell_volume   432.69360485
_cell_formula_units_Z   1
loop_
 _symmetry_equiv_pos_site_id
 _symmetry_equiv_pos_as_xyz
  1  'x, y, z'
loop_
 _atom_site_type_symbol
 _atom_site_label
 _atom_site_symmetry_multiplicity
 _atom_site_fract_x
 _atom_site_fract_y
 _atom_site_fract_z
 _atom_site_occupancy
  Pr  Pr0  1  0.809364  0.442099  0.530339  1
  Pr  Pr1  1  0.557848  0.190490  0.969664  1
  Pr  Pr2  1  0.190685  0.557990  0.469554  1
  Nd  Nd3  1  0.442634  0.811151  0.030004  1
  Sm  Sm4  1  0.243561  0.086107  0.572040  1
  Sm  Sm5  1  0.913449  0.756409  0.928004  1
  Sm  Sm6  1  0.756379  0.913419  0.427922  1
  Sm  Sm7  1  0.086494  0.243476  0.072030  1
  Se  Se8  1  0.749523  0.484027  0.034183  1
  Se  Se9  1  0.093662  0.906610  0.249694  1
  Se  Se10  1  0.516383  0.249870  0.465913  1
  Se  Se11  1  0.250340  0.516760  0.965990  1
  Se  Se12  1  0.906754  0.093141  0.750040  1
  Se  Se13  1  0.483550  0.750203  0.534367  1
  N  N14  1  0.084379  0.325957  0.413101  1
  N  N15  1  0.326400  0.083182  0.913665  1
  N  N16  1  0.915622  0.674011  0.586862  1
  N  N17  1  0.672973  0.915098  0.086628  1
