# generated using pymatgen
data_Dy2Er2FeSi4Ir
_symmetry_space_group_name_H-M   'P 1'
_cell_length_a   5.65461883
_cell_length_b   5.65461889
_cell_length_c   10.00033928
_cell_angle_alpha   63.09412699
_cell_angle_beta   63.09412706
_cell_angle_gamma   43.28369820
_symmetry_Int_Tables_number   1
_chemical_formula_structural   Dy2Er2FeSi4Ir
_chemical_formula_sum   'Dy2 Er2 Fe1 Si4 Ir1'
_cell_volume   191.49456322
_cell_formula_units_Z   1
loop_
 _symmetry_equiv_pos_site_id
 _symmetry_equiv_pos_as_xyz
  1  'x, y, z'
loop_
 _atom_site_type_symbol
 _atom_site_label
 _atom_site_symmetry_multiplicity
 _atom_site_fract_x
 _atom_site_fract_y
 _atom_site_fract_z
 _atom_site_occupancy
  Dy  Dy0  1  0.813782  0.813782  0.107164  1
  Dy  Dy1  1  0.186457  0.186457  0.890187  1
  Er  Er2  1  0.004097  0.004097  0.324358  1
  Er  Er3  1  0.997681  0.997681  0.672830  1
  Fe  Fe4  1  0.272317  0.272317  0.379755  1
  Si  Si5  1  0.651422  0.651422  0.430756  1
  Si  Si6  1  0.358778  0.358778  0.558433  1
  Si  Si7  1  0.499752  0.499752  0.130023  1
  Si  Si8  1  0.488824  0.488824  0.878525  1
  Ir  Ir9  1  0.726887  0.726887  0.627970  1
