# generated using pymatgen
data_LaY2Al7Cu2
_symmetry_space_group_name_H-M   'P 1'
_cell_length_a   9.18829866
_cell_length_b   9.18829931
_cell_length_c   9.18829901
_cell_angle_alpha   35.12820416
_cell_angle_beta   35.12819902
_cell_angle_gamma   35.12819625
_symmetry_Int_Tables_number   1
_chemical_formula_structural   LaY2Al7Cu2
_chemical_formula_sum   'La1 Y2 Al7 Cu2'
_cell_volume   229.37477077
_cell_formula_units_Z   1
loop_
 _symmetry_equiv_pos_site_id
 _symmetry_equiv_pos_as_xyz
  1  'x, y, z'
loop_
 _atom_site_type_symbol
 _atom_site_label
 _atom_site_symmetry_multiplicity
 _atom_site_fract_x
 _atom_site_fract_y
 _atom_site_fract_z
 _atom_site_occupancy
  La  La0  1  0.000000  0.000000  0.000000  1
  Y  Y1  1  0.857804  0.857804  0.857804  1
  Y  Y2  1  0.142196  0.142196  0.142196  1
  Al  Al3  1  0.417150  0.417150  0.926368  1
  Al  Al4  1  0.926368  0.417150  0.417150  1
  Al  Al5  1  0.417150  0.926368  0.417150  1
  Al  Al6  1  0.500000  0.500000  0.500000  1
  Al  Al7  1  0.582850  0.073632  0.582850  1
  Al  Al8  1  0.073632  0.582850  0.582850  1
  Al  Al9  1  0.582850  0.582850  0.073632  1
  Cu  Cu10  1  0.664417  0.664417  0.664417  1
  Cu  Cu11  1  0.335583  0.335583  0.335583  1
