# generated using pymatgen
data_Ac2Ce2Zn7NiRu2
_symmetry_space_group_name_H-M   'P 1'
_cell_length_a   7.29576082
_cell_length_b   7.29576082
_cell_length_c   5.24195336
_cell_angle_alpha   90.30196324
_cell_angle_beta   90.30196324
_cell_angle_gamma   90.30744813
_symmetry_Int_Tables_number   1
_chemical_formula_structural   Ac2Ce2Zn7NiRu2
_chemical_formula_sum   'Ac2 Ce2 Zn7 Ni1 Ru2'
_cell_volume   279.00754516
_cell_formula_units_Z   1
loop_
 _symmetry_equiv_pos_site_id
 _symmetry_equiv_pos_as_xyz
  1  'x, y, z'
loop_
 _atom_site_type_symbol
 _atom_site_label
 _atom_site_symmetry_multiplicity
 _atom_site_fract_x
 _atom_site_fract_y
 _atom_site_fract_z
 _atom_site_occupancy
  Ac  Ac0  1  0.005373  0.505373  0.772259  1
  Ac  Ac1  1  0.492513  0.992513  0.225823  1
  Ce  Ce2  1  0.008032  0.993344  0.011839  1
  Ce  Ce3  1  0.493344  0.508032  0.011839  1
  Zn  Zn4  1  0.823957  0.686584  0.292118  1
  Zn  Zn5  1  0.810393  0.310393  0.290351  1
  Zn  Zn6  1  0.314205  0.187191  0.709967  1
  Zn  Zn7  1  0.186584  0.323957  0.292118  1
  Zn  Zn8  1  0.687865  0.187865  0.717234  1
  Zn  Zn9  1  0.687191  0.814205  0.709967  1
  Zn  Zn10  1  0.306695  0.806695  0.690784  1
  Ni  Ni11  1  0.180815  0.680815  0.269662  1
  Ru  Ru12  1  0.504445  0.498586  0.503020  1
  Ru  Ru13  1  0.998586  0.004445  0.503020  1
