# generated using pymatgen
data_Er19TmPt16
_symmetry_space_group_name_H-M   'P 1'
_cell_length_a   7.41207200
_cell_length_b   7.51307100
_cell_length_c   14.61958000
_cell_angle_alpha   90.00000000
_cell_angle_beta   90.00000000
_cell_angle_gamma   90.00333982
_symmetry_Int_Tables_number   1
_chemical_formula_structural   Er19TmPt16
_chemical_formula_sum   'Er19 Tm1 Pt16'
_cell_volume   814.12673767
_cell_formula_units_Z   1
loop_
 _symmetry_equiv_pos_site_id
 _symmetry_equiv_pos_as_xyz
  1  'x, y, z'
loop_
 _atom_site_type_symbol
 _atom_site_label
 _atom_site_symmetry_multiplicity
 _atom_site_fract_x
 _atom_site_fract_y
 _atom_site_fract_z
 _atom_site_occupancy
  Er  Er0  1  0.657139  0.167723  0.622558  1
  Er  Er1  1  0.156999  0.332402  0.877432  1
  Er  Er2  1  0.342904  0.832354  0.122489  1
  Er  Er3  1  0.842915  0.667654  0.377508  1
  Er  Er4  1  0.342904  0.832354  0.377511  1
  Er  Er5  1  0.842915  0.667654  0.122492  1
  Er  Er6  1  0.657139  0.167723  0.877442  1
  Er  Er7  1  0.156999  0.332402  0.622568  1
  Er  Er8  1  0.501242  0.679989  0.592589  1
  Er  Er9  1  0.001110  0.819875  0.907436  1
  Er  Er10  1  0.498820  0.319987  0.092500  1
  Er  Er11  1  0.998859  0.180010  0.407501  1
  Er  Er12  1  0.498820  0.319987  0.407500  1
  Er  Er13  1  0.998859  0.180010  0.092499  1
  Er  Er14  1  0.501242  0.679989  0.907411  1
  Er  Er15  1  0.001110  0.819875  0.592564  1
  Er  Er16  1  0.318999  0.988183  0.750000  1
  Er  Er17  1  0.181048  0.488051  0.250000  1
  Er  Er18  1  0.681053  0.011945  0.250000  1
  Tm  Tm19  1  0.818866  0.511958  0.750000  1
  Pt  Pt20  1  0.683309  0.967270  0.458391  1
  Pt  Pt21  1  0.183316  0.532735  0.041606  1
  Pt  Pt22  1  0.316692  0.032715  0.958387  1
  Pt  Pt23  1  0.816686  0.467285  0.541689  1
  Pt  Pt24  1  0.316692  0.032715  0.541613  1
  Pt  Pt25  1  0.816686  0.467285  0.958311  1
  Pt  Pt26  1  0.683309  0.967270  0.041609  1
  Pt  Pt27  1  0.183316  0.532735  0.458394  1
  Pt  Pt28  1  0.454580  0.387887  0.750000  1
  Pt  Pt29  1  0.954203  0.112400  0.750000  1
  Pt  Pt30  1  0.545725  0.612264  0.250000  1
  Pt  Pt31  1  0.045736  0.887770  0.250000  1
  Pt  Pt32  1  0.683437  0.856032  0.750000  1
  Pt  Pt33  1  0.183013  0.643484  0.750000  1
  Pt  Pt34  1  0.316699  0.143630  0.250000  1
  Pt  Pt35  1  0.816661  0.356396  0.250000  1
