# generated using pymatgen
data_Hf3Pa3SBr15
_symmetry_space_group_name_H-M   'P 1'
_cell_length_a   9.44192366
_cell_length_b   9.44192444
_cell_length_c   9.52130100
_cell_angle_alpha   109.64160840
_cell_angle_beta   109.64161009
_cell_angle_gamma   109.30029943
_symmetry_Int_Tables_number   1
_chemical_formula_structural   Hf3Pa3SBr15
_chemical_formula_sum   'Hf3 Pa3 S1 Br15'
_cell_volume   652.04537921
_cell_formula_units_Z   1
loop_
 _symmetry_equiv_pos_site_id
 _symmetry_equiv_pos_as_xyz
  1  'x, y, z'
loop_
 _atom_site_type_symbol
 _atom_site_label
 _atom_site_symmetry_multiplicity
 _atom_site_fract_x
 _atom_site_fract_y
 _atom_site_fract_z
 _atom_site_occupancy
  Hf  Hf0  1  0.215272  0.215253  0.989891  1
  Hf  Hf1  1  0.784585  0.999902  0.774646  1
  Hf  Hf2  1  0.999943  0.784704  0.774744  1
  Pa  Pa3  1  0.756649  0.756746  0.002852  1
  Pa  Pa4  1  0.243347  0.000066  0.246240  1
  Pa  Pa5  1  0.000008  0.243575  0.246131  1
  S  S6  1  0.999877  0.999964  0.004270  1
  Br  Br7  1  0.263981  0.264164  0.523937  1
  Br  Br8  1  0.735735  0.000315  0.259545  1
  Br  Br9  1  0.000087  0.735540  0.259454  1
  Br  Br10  1  0.743160  0.240627  0.977729  1
  Br  Br11  1  0.256821  0.497510  0.234367  1
  Br  Br12  1  0.999895  0.244007  0.751974  1
  Br  Br13  1  0.240680  0.743299  0.977832  1
  Br  Br14  1  0.244093  0.999830  0.752023  1
  Br  Br15  1  0.497522  0.256614  0.234284  1
  Br  Br16  1  0.756309  0.756216  0.507921  1
  Br  Br17  1  0.759211  0.502700  0.737126  1
  Br  Br18  1  0.502524  0.758993  0.736882  1
  Br  Br19  1  0.487488  0.487399  0.994354  1
  Br  Br20  1  0.512826  0.999909  0.506911  1
  Br  Br21  1  0.999988  0.512664  0.506890  1
