# generated using pymatgen
data_Dy20NiIrRu10
_symmetry_space_group_name_H-M   'P 1'
_cell_length_a   10.80308721
_cell_length_b   10.80308735
_cell_length_c   6.37983253
_cell_angle_alpha   90.06781539
_cell_angle_beta   90.06780795
_cell_angle_gamma   89.74781095
_symmetry_Int_Tables_number   1
_chemical_formula_structural   Dy20NiIrRu10
_chemical_formula_sum   'Dy20 Ni1 Ir1 Ru10'
_cell_volume   744.56091682
_cell_formula_units_Z   1
loop_
 _symmetry_equiv_pos_site_id
 _symmetry_equiv_pos_as_xyz
  1  'x, y, z'
loop_
 _atom_site_type_symbol
 _atom_site_label
 _atom_site_symmetry_multiplicity
 _atom_site_fract_x
 _atom_site_fract_y
 _atom_site_fract_z
 _atom_site_occupancy
  Dy  Dy0  1  0.290248  0.086650  0.377140  1
  Dy  Dy1  1  0.292330  0.914735  0.875478  1
  Dy  Dy2  1  0.706703  0.085381  0.875988  1
  Dy  Dy3  1  0.706759  0.910120  0.377362  1
  Dy  Dy4  1  0.586587  0.792062  0.877457  1
  Dy  Dy5  1  0.584416  0.207112  0.375471  1
  Dy  Dy6  1  0.413325  0.792262  0.376521  1
  Dy  Dy7  1  0.413351  0.208575  0.876434  1
  Dy  Dy8  1  0.207938  0.413413  0.622543  1
  Dy  Dy9  1  0.207738  0.586675  0.123479  1
  Dy  Dy10  1  0.792888  0.415584  0.124529  1
  Dy  Dy11  1  0.791425  0.586649  0.623566  1
  Dy  Dy12  1  0.913350  0.709752  0.122860  1
  Dy  Dy13  1  0.914619  0.293297  0.624012  1
  Dy  Dy14  1  0.085265  0.707670  0.624522  1
  Dy  Dy15  1  0.089880  0.293241  0.122638  1
  Dy  Dy16  1  0.999354  0.998777  0.500040  1
  Dy  Dy17  1  0.001223  0.000646  0.999960  1
  Dy  Dy18  1  0.501711  0.499302  0.000534  1
  Dy  Dy19  1  0.500698  0.498289  0.499466  1
  Ni  Ni20  1  0.847474  0.152526  0.250000  1
  Ir  Ir21  1  0.346080  0.653920  0.750000  1
  Ru  Ru22  1  0.846990  0.849907  0.750803  1
  Ru  Ru23  1  0.150093  0.153010  0.749197  1
  Ru  Ru24  1  0.153257  0.846743  0.250000  1
  Ru  Ru25  1  0.655678  0.344322  0.750000  1
  Ru  Ru26  1  0.652156  0.652504  0.250716  1
  Ru  Ru27  1  0.347496  0.347844  0.249284  1
  Ru  Ru28  1  0.500622  0.000319  0.125814  1
  Ru  Ru29  1  0.501279  0.000614  0.624558  1
  Ru  Ru30  1  0.999386  0.498721  0.875442  1
  Ru  Ru31  1  0.999681  0.499378  0.374186  1
