# generated using pymatgen
data_Li4La3Y(Si2Ge)2
_symmetry_space_group_name_H-M   'P 1'
_cell_length_a   9.62940222
_cell_length_b   9.62940244
_cell_length_c   6.81922300
_cell_angle_alpha   90.00000000
_cell_angle_beta   90.00000000
_cell_angle_gamma   153.07579244
_symmetry_Int_Tables_number   1
_chemical_formula_structural   Li4La3Y(Si2Ge)2
_chemical_formula_sum   'Li4 La3 Y1 Si4 Ge2'
_cell_volume   286.31952365
_cell_formula_units_Z   1
loop_
 _symmetry_equiv_pos_site_id
 _symmetry_equiv_pos_as_xyz
  1  'x, y, z'
loop_
 _atom_site_type_symbol
 _atom_site_label
 _atom_site_symmetry_multiplicity
 _atom_site_fract_x
 _atom_site_fract_y
 _atom_site_fract_z
 _atom_site_occupancy
  Li  Li0  1  0.812799  0.187201  0.439878  1
  Li  Li1  1  0.186653  0.813347  0.561430  1
  Li  Li2  1  0.812799  0.187201  0.060122  1
  Li  Li3  1  0.186653  0.813347  0.938570  1
  La  La4  1  0.449522  0.550478  0.250000  1
  La  La5  1  0.342285  0.657715  0.750000  1
  La  La6  1  0.657913  0.342087  0.250000  1
  Y  Y7  1  0.550660  0.449340  0.750000  1
  Si  Si8  1  0.943473  0.056527  0.923625  1
  Si  Si9  1  0.058042  0.941958  0.071785  1
  Si  Si10  1  0.943473  0.056527  0.576375  1
  Si  Si11  1  0.058042  0.941958  0.428215  1
  Ge  Ge12  1  0.717430  0.282570  0.750000  1
  Ge  Ge13  1  0.280254  0.719746  0.250000  1
