# generated using pymatgen
data_CaNdZn3Ga5
_symmetry_space_group_name_H-M   'P 1'
_cell_length_a   4.22270200
_cell_length_b   4.23163200
_cell_length_c   10.93049900
_cell_angle_alpha   90.00000000
_cell_angle_beta   90.00000000
_cell_angle_gamma   90.00000000
_symmetry_Int_Tables_number   1
_chemical_formula_structural   CaNdZn3Ga5
_chemical_formula_sum   'Ca1 Nd1 Zn3 Ga5'
_cell_volume   195.31622213
_cell_formula_units_Z   1
loop_
 _symmetry_equiv_pos_site_id
 _symmetry_equiv_pos_as_xyz
  1  'x, y, z'
loop_
 _atom_site_type_symbol
 _atom_site_label
 _atom_site_symmetry_multiplicity
 _atom_site_fract_x
 _atom_site_fract_y
 _atom_site_fract_z
 _atom_site_occupancy
  Ca  Ca0  1  0.000000  0.000000  0.997857  1
  Nd  Nd1  1  0.500000  0.500000  0.502289  1
  Zn  Zn2  1  0.500000  0.000000  0.749544  1
  Zn  Zn3  1  0.500000  0.000000  0.249918  1
  Zn  Zn4  1  0.000000  0.500000  0.748646  1
  Ga  Ga5  1  0.500000  0.500000  0.111607  1
  Ga  Ga6  1  0.000000  0.000000  0.615676  1
  Ga  Ga7  1  0.000000  0.000000  0.390665  1
  Ga  Ga8  1  0.500000  0.500000  0.882937  1
  Ga  Ga9  1  0.000000  0.500000  0.250861  1
