# generated using pymatgen
data_ZrCu4Rh
_symmetry_space_group_name_H-M   'P 1'
_cell_length_a   4.86551064
_cell_length_b   4.86551066
_cell_length_c   4.86551100
_cell_angle_alpha   60.00000448
_cell_angle_beta   60.00000434
_cell_angle_gamma   60.00000303
_symmetry_Int_Tables_number   1
_chemical_formula_structural   ZrCu4Rh
_chemical_formula_sum   'Zr1 Cu4 Rh1'
_cell_volume   81.44611153
_cell_formula_units_Z   1
loop_
 _symmetry_equiv_pos_site_id
 _symmetry_equiv_pos_as_xyz
  1  'x, y, z'
loop_
 _atom_site_type_symbol
 _atom_site_label
 _atom_site_symmetry_multiplicity
 _atom_site_fract_x
 _atom_site_fract_y
 _atom_site_fract_z
 _atom_site_occupancy
  Zr  Zr0  1  0.000000  0.000000  0.000000  1
  Cu  Cu1  1  0.624514  0.624514  0.126457  1
  Cu  Cu2  1  0.624514  0.126457  0.624514  1
  Cu  Cu3  1  0.126457  0.624514  0.624514  1
  Cu  Cu4  1  0.624514  0.624514  0.624514  1
  Rh  Rh5  1  0.250000  0.250000  0.250000  1
