# generated using pymatgen
data_Ho4ZnNi19Sn4
_symmetry_space_group_name_H-M   'P 1'
_cell_length_a   4.83044300
_cell_length_b   8.02153102
_cell_length_c   10.21691600
_cell_angle_alpha   90.19826167
_cell_angle_beta   90.00000000
_cell_angle_gamma   90.00000000
_symmetry_Int_Tables_number   1
_chemical_formula_structural   Ho4ZnNi19Sn4
_chemical_formula_sum   'Ho4 Zn1 Ni19 Sn4'
_cell_volume   395.87807696
_cell_formula_units_Z   1
loop_
 _symmetry_equiv_pos_site_id
 _symmetry_equiv_pos_as_xyz
  1  'x, y, z'
loop_
 _atom_site_type_symbol
 _atom_site_label
 _atom_site_symmetry_multiplicity
 _atom_site_fract_x
 _atom_site_fract_y
 _atom_site_fract_z
 _atom_site_occupancy
  Ho  Ho0  1  0.750000  0.260023  0.566044  1
  Ho  Ho1  1  0.250000  0.251429  0.060961  1
  Ho  Ho2  1  0.750000  0.746833  0.942199  1
  Ho  Ho3  1  0.250000  0.741470  0.435547  1
  Zn  Zn4  1  0.750000  0.926494  0.479298  1
  Ni  Ni5  1  0.250000  0.584639  0.983397  1
  Ni  Ni6  1  0.750000  0.412973  0.018127  1
  Ni  Ni7  1  0.250000  0.081347  0.515793  1
  Ni  Ni8  1  0.250000  0.187446  0.742568  1
  Ni  Ni9  1  0.750000  0.313996  0.243938  1
  Ni  Ni10  1  0.250000  0.687148  0.758020  1
  Ni  Ni11  1  0.750000  0.811583  0.255572  1
  Ni  Ni12  1  0.750000  0.552396  0.402660  1
  Ni  Ni13  1  0.250000  0.951531  0.900515  1
  Ni  Ni14  1  0.750000  0.048935  0.097708  1
  Ni  Ni15  1  0.250000  0.451158  0.600136  1
  Ni  Ni16  1  0.497290  0.068742  0.304993  1
  Ni  Ni17  1  0.500461  0.431936  0.811088  1
  Ni  Ni18  1  0.001598  0.565394  0.190774  1
  Ni  Ni19  1  0.000732  0.932498  0.689144  1
  Ni  Ni20  1  0.499268  0.932498  0.689144  1
  Ni  Ni21  1  0.498402  0.565394  0.190774  1
  Ni  Ni22  1  0.999539  0.431936  0.811088  1
  Ni  Ni23  1  0.002710  0.068742  0.304993  1
  Sn  Sn24  1  0.750000  0.639671  0.644946  1
  Sn  Sn25  1  0.250000  0.858875  0.138939  1
  Sn  Sn26  1  0.750000  0.138414  0.860317  1
  Sn  Sn27  1  0.250000  0.356496  0.361319  1
