# generated using pymatgen
data_KMnCoSe4
_symmetry_space_group_name_H-M   'P 1'
_cell_length_a   6.25135200
_cell_length_b   7.19339500
_cell_length_c   15.33951900
_cell_angle_alpha   90.00000000
_cell_angle_beta   90.00000000
_cell_angle_gamma   90.00000000
_symmetry_Int_Tables_number   1
_chemical_formula_structural   KMnCoSe4
_chemical_formula_sum   'K4 Mn4 Co4 Se16'
_cell_volume   689.79430451
_cell_formula_units_Z   4
loop_
 _symmetry_equiv_pos_site_id
 _symmetry_equiv_pos_as_xyz
  1  'x, y, z'
loop_
 _atom_site_type_symbol
 _atom_site_label
 _atom_site_symmetry_multiplicity
 _atom_site_fract_x
 _atom_site_fract_y
 _atom_site_fract_z
 _atom_site_occupancy
  K  K0  1  0.357737  0.000000  0.000000  1
  K  K1  1  0.642263  0.500000  0.500000  1
  K  K2  1  0.034306  0.000000  0.500000  1
  K  K3  1  0.965694  0.500000  0.000000  1
  Mn  Mn4  1  0.002251  0.000000  0.249980  1
  Mn  Mn5  1  0.002251  0.000000  0.750020  1
  Mn  Mn6  1  0.997749  0.500000  0.250020  1
  Mn  Mn7  1  0.997749  0.500000  0.749980  1
  Co  Co8  1  0.500000  0.250000  0.250000  1
  Co  Co9  1  0.500000  0.750000  0.750000  1
  Co  Co10  1  0.500000  0.750000  0.250000  1
  Co  Co11  1  0.500000  0.250000  0.750000  1
  Se  Se12  1  0.822866  0.249960  0.335754  1
  Se  Se13  1  0.822866  0.750040  0.664246  1
  Se  Se14  1  0.177134  0.749960  0.164246  1
  Se  Se15  1  0.177134  0.250040  0.835754  1
  Se  Se16  1  0.177134  0.250040  0.164246  1
  Se  Se17  1  0.177134  0.749960  0.835754  1
  Se  Se18  1  0.822866  0.750040  0.335754  1
  Se  Se19  1  0.822866  0.249960  0.664246  1
  Se  Se20  1  0.662974  0.000000  0.167016  1
  Se  Se21  1  0.662974  0.000000  0.832984  1
  Se  Se22  1  0.337026  0.500000  0.332984  1
  Se  Se23  1  0.337026  0.500000  0.667016  1
  Se  Se24  1  0.346603  0.000000  0.333371  1
  Se  Se25  1  0.346603  0.000000  0.666629  1
  Se  Se26  1  0.653397  0.500000  0.166629  1
  Se  Se27  1  0.653397  0.500000  0.833371  1
