# generated using pymatgen
data_RbDy6(CI6)2
_symmetry_space_group_name_H-M   'P 1'
_cell_length_a   9.47427943
_cell_length_b   9.46368125
_cell_length_c   9.90532300
_cell_angle_alpha   72.42124652
_cell_angle_beta   71.39484823
_cell_angle_gamma   73.10274346
_symmetry_Int_Tables_number   1
_chemical_formula_structural   RbDy6(CI6)2
_chemical_formula_sum   'Rb1 Dy6 C2 I12'
_cell_volume   783.63226639
_cell_formula_units_Z   1
loop_
 _symmetry_equiv_pos_site_id
 _symmetry_equiv_pos_as_xyz
  1  'x, y, z'
loop_
 _atom_site_type_symbol
 _atom_site_label
 _atom_site_symmetry_multiplicity
 _atom_site_fract_x
 _atom_site_fract_y
 _atom_site_fract_z
 _atom_site_occupancy
  Rb  Rb0  1  0.999999  0.500001  0.999997  1
  Dy  Dy1  1  0.473788  0.106705  0.196567  1
  Dy  Dy2  1  0.762142  0.031498  0.413113  1
  Dy  Dy3  1  0.586189  0.740614  0.476115  1
  Dy  Dy4  1  0.413813  0.259385  0.523885  1
  Dy  Dy5  1  0.237859  0.968501  0.586887  1
  Dy  Dy6  1  0.526213  0.893295  0.803433  1
  C  C7  1  0.493272  0.024872  0.426293  1
  C  C8  1  0.506729  0.975126  0.573706  1
  I  I9  1  0.797136  0.158069  0.081173  1
  I  I10  1  0.583986  0.782084  0.140895  1
  I  I11  1  0.352845  0.431250  0.222385  1
  I  I12  1  0.136898  0.067860  0.294537  1
  I  I13  1  0.921512  0.721497  0.356077  1
  I  I14  1  0.714183  0.362764  0.432629  1
  I  I15  1  0.285817  0.637236  0.567372  1
  I  I16  1  0.078490  0.278502  0.643923  1
  I  I17  1  0.863103  0.932140  0.705464  1
  I  I18  1  0.647155  0.568749  0.777615  1
  I  I19  1  0.416013  0.217917  0.859106  1
  I  I20  1  0.202865  0.841932  0.918827  1
