# generated using pymatgen
data_Zn2Ga2Pd7Pt
_symmetry_space_group_name_H-M   'P 1'
_cell_length_a   4.13761600
_cell_length_b   5.50330827
_cell_length_c   7.91726425
_cell_angle_alpha   89.89442867
_cell_angle_beta   90.00000000
_cell_angle_gamma   90.00000000
_symmetry_Int_Tables_number   1
_chemical_formula_structural   Zn2Ga2Pd7Pt
_chemical_formula_sum   'Zn2 Ga2 Pd7 Pt1'
_cell_volume   180.28036417
_cell_formula_units_Z   1
loop_
 _symmetry_equiv_pos_site_id
 _symmetry_equiv_pos_as_xyz
  1  'x, y, z'
loop_
 _atom_site_type_symbol
 _atom_site_label
 _atom_site_symmetry_multiplicity
 _atom_site_fract_x
 _atom_site_fract_y
 _atom_site_fract_z
 _atom_site_occupancy
  Zn  Zn0  1  0.750000  0.194675  0.393565  1
  Zn  Zn1  1  0.750000  0.692501  0.105668  1
  Ga  Ga2  1  0.250000  0.809796  0.599254  1
  Ga  Ga3  1  0.250000  0.311968  0.901801  1
  Pd  Pd4  1  0.250000  0.835000  0.927698  1
  Pd  Pd5  1  0.750000  0.671154  0.435716  1
  Pd  Pd6  1  0.250000  0.333746  0.572862  1
  Pd  Pd7  1  0.750000  0.035401  0.714768  1
  Pd  Pd8  1  0.250000  0.955166  0.278126  1
  Pd  Pd9  1  0.750000  0.536251  0.783848  1
  Pd  Pd10  1  0.250000  0.455469  0.222965  1
  Pt  Pt11  1  0.750000  0.168874  0.063729  1
