# generated using pymatgen
data_Sr2BHN2
_symmetry_space_group_name_H-M   'P 1'
_cell_length_a   3.94052400
_cell_length_b   9.88831000
_cell_length_c   10.29716800
_cell_angle_alpha   90.00000000
_cell_angle_beta   90.00000000
_cell_angle_gamma   90.00000000
_symmetry_Int_Tables_number   1
_chemical_formula_structural   Sr2BHN2
_chemical_formula_sum   'Sr8 B4 H4 N8'
_cell_volume   401.23041638
_cell_formula_units_Z   4
loop_
 _symmetry_equiv_pos_site_id
 _symmetry_equiv_pos_as_xyz
  1  'x, y, z'
loop_
 _atom_site_type_symbol
 _atom_site_label
 _atom_site_symmetry_multiplicity
 _atom_site_fract_x
 _atom_site_fract_y
 _atom_site_fract_z
 _atom_site_occupancy
  Sr  Sr0  1  0.250000  0.677235  0.520179  1
  Sr  Sr1  1  0.750000  0.322765  0.479821  1
  Sr  Sr2  1  0.250000  0.177235  0.979821  1
  Sr  Sr3  1  0.750000  0.822765  0.020179  1
  Sr  Sr4  1  0.250000  0.527066  0.160431  1
  Sr  Sr5  1  0.750000  0.472934  0.839569  1
  Sr  Sr6  1  0.250000  0.027066  0.339569  1
  Sr  Sr7  1  0.750000  0.972934  0.660431  1
  B  B8  1  0.250000  0.730466  0.826647  1
  B  B9  1  0.750000  0.269534  0.173353  1
  B  B10  1  0.250000  0.230466  0.673353  1
  B  B11  1  0.750000  0.769534  0.326647  1
  H  H12  1  0.250000  0.955504  0.101990  1
  H  H13  1  0.750000  0.044496  0.898010  1
  H  H14  1  0.250000  0.455504  0.398010  1
  H  H15  1  0.750000  0.544496  0.601990  1
  N  N16  1  0.750000  0.682320  0.227386  1
  N  N17  1  0.250000  0.317680  0.772614  1
  N  N18  1  0.750000  0.182320  0.272614  1
  N  N19  1  0.250000  0.817680  0.727386  1
  N  N20  1  0.750000  0.850471  0.433125  1
  N  N21  1  0.250000  0.149529  0.566875  1
  N  N22  1  0.750000  0.350471  0.066875  1
  N  N23  1  0.250000  0.649529  0.933125  1
