# generated using pymatgen
data_RbCe4Se6O
_symmetry_space_group_name_H-M   'P 1'
_cell_length_a   9.84373000
_cell_length_b   9.84519860
_cell_length_c   7.27078401
_cell_angle_alpha   89.99336762
_cell_angle_beta   90.00086411
_cell_angle_gamma   119.99436701
_symmetry_Int_Tables_number   1
_chemical_formula_structural   RbCe4Se6O
_chemical_formula_sum   'Rb2 Ce8 Se12 O2'
_cell_volume   610.26813645
_cell_formula_units_Z   2
loop_
 _symmetry_equiv_pos_site_id
 _symmetry_equiv_pos_as_xyz
  1  'x, y, z'
loop_
 _atom_site_type_symbol
 _atom_site_label
 _atom_site_symmetry_multiplicity
 _atom_site_fract_x
 _atom_site_fract_y
 _atom_site_fract_z
 _atom_site_occupancy
  Rb  Rb0  1  0.000197  0.000144  0.507707  1
  Rb  Rb1  1  0.999993  0.999767  0.007561  1
  Ce  Ce2  1  0.796475  0.593060  0.160209  1
  Ce  Ce3  1  0.407267  0.204032  0.160259  1
  Ce  Ce4  1  0.796614  0.203882  0.160186  1
  Ce  Ce5  1  0.333225  0.666387  0.206686  1
  Ce  Ce6  1  0.203571  0.407255  0.659905  1
  Ce  Ce7  1  0.203336  0.795879  0.659821  1
  Ce  Ce8  1  0.592583  0.795984  0.659750  1
  Ce  Ce9  1  0.666815  0.333578  0.706628  1
  Se  Se10  1  0.153112  0.846319  0.266000  1
  Se  Se11  1  0.693152  0.846138  0.266015  1
  Se  Se12  1  0.153694  0.307111  0.266232  1
  Se  Se13  1  0.534912  0.465222  0.434317  1
  Se  Se14  1  0.930360  0.465371  0.434594  1
  Se  Se15  1  0.534909  0.070049  0.434493  1
  Se  Se16  1  0.306800  0.153643  0.765727  1
  Se  Se17  1  0.846949  0.153750  0.765736  1
  Se  Se18  1  0.846542  0.692946  0.765977  1
  Se  Se19  1  0.069988  0.534906  0.934346  1
  Se  Se20  1  0.464879  0.534711  0.934632  1
  Se  Se21  1  0.464777  0.929757  0.934466  1
  O  O22  1  0.666887  0.334002  0.057244  1
  O  O23  1  0.332964  0.666109  0.556839  1
