# generated using pymatgen
data_Ho2Sc3Si3Rh
_symmetry_space_group_name_H-M   'P 1'
_cell_length_a   6.90128400
_cell_length_b   7.59905800
_cell_length_c   13.92350300
_cell_angle_alpha   90.00000000
_cell_angle_beta   90.00000000
_cell_angle_gamma   90.00000000
_symmetry_Int_Tables_number   1
_chemical_formula_structural   Ho2Sc3Si3Rh
_chemical_formula_sum   'Ho8 Sc12 Si12 Rh4'
_cell_volume   730.19385161
_cell_formula_units_Z   4
loop_
 _symmetry_equiv_pos_site_id
 _symmetry_equiv_pos_as_xyz
  1  'x, y, z'
loop_
 _atom_site_type_symbol
 _atom_site_label
 _atom_site_symmetry_multiplicity
 _atom_site_fract_x
 _atom_site_fract_y
 _atom_site_fract_z
 _atom_site_occupancy
  Ho  Ho0  1  0.004432  0.181883  0.093049  1
  Ho  Ho1  1  0.995568  0.818117  0.906951  1
  Ho  Ho2  1  0.495568  0.681883  0.906951  1
  Ho  Ho3  1  0.995568  0.818117  0.593049  1
  Ho  Ho4  1  0.504432  0.318117  0.093049  1
  Ho  Ho5  1  0.004432  0.181883  0.406951  1
  Ho  Ho6  1  0.504432  0.318117  0.406951  1
  Ho  Ho7  1  0.495568  0.681883  0.593049  1
  Sc  Sc8  1  0.173026  0.502991  0.750000  1
  Sc  Sc9  1  0.826974  0.497009  0.250000  1
  Sc  Sc10  1  0.326974  0.002991  0.250000  1
  Sc  Sc11  1  0.673026  0.997009  0.750000  1
  Sc  Sc12  1  0.318930  0.166473  0.628509  1
  Sc  Sc13  1  0.681070  0.833527  0.371491  1
  Sc  Sc14  1  0.181070  0.666473  0.371491  1
  Sc  Sc15  1  0.681070  0.833527  0.128509  1
  Sc  Sc16  1  0.818930  0.333527  0.628509  1
  Sc  Sc17  1  0.318930  0.166473  0.871491  1
  Sc  Sc18  1  0.818930  0.333527  0.871491  1
  Sc  Sc19  1  0.181070  0.666473  0.128509  1
  Si  Si20  1  0.283142  0.864347  0.750000  1
  Si  Si21  1  0.716858  0.135653  0.250000  1
  Si  Si22  1  0.216858  0.364347  0.250000  1
  Si  Si23  1  0.783142  0.635653  0.750000  1
  Si  Si24  1  0.160634  0.465463  0.539008  1
  Si  Si25  1  0.839366  0.534537  0.460992  1
  Si  Si26  1  0.339366  0.965463  0.460992  1
  Si  Si27  1  0.839366  0.534537  0.039008  1
  Si  Si28  1  0.660634  0.034537  0.539008  1
  Si  Si29  1  0.160634  0.465463  0.960992  1
  Si  Si30  1  0.660634  0.034537  0.960992  1
  Si  Si31  1  0.339366  0.965463  0.039008  1
  Rh  Rh32  1  0.024987  0.107538  0.750000  1
  Rh  Rh33  1  0.975013  0.892462  0.250000  1
  Rh  Rh34  1  0.475013  0.607538  0.250000  1
  Rh  Rh35  1  0.524987  0.392462  0.750000  1
