# generated using pymatgen
data_Zr6V3Re4W5
_symmetry_space_group_name_H-M   'P 1'
_cell_length_a   5.30659900
_cell_length_b   5.33757628
_cell_length_c   13.10738143
_cell_angle_alpha   90.17500379
_cell_angle_beta   90.02141008
_cell_angle_gamma   120.06136427
_symmetry_Int_Tables_number   1
_chemical_formula_structural   Zr6V3Re4W5
_chemical_formula_sum   'Zr6 V3 Re4 W5'
_cell_volume   321.31794543
_cell_formula_units_Z   1
loop_
 _symmetry_equiv_pos_site_id
 _symmetry_equiv_pos_as_xyz
  1  'x, y, z'
loop_
 _atom_site_type_symbol
 _atom_site_label
 _atom_site_symmetry_multiplicity
 _atom_site_fract_x
 _atom_site_fract_y
 _atom_site_fract_z
 _atom_site_occupancy
  Zr  Zr0  1  0.334753  0.665021  0.917446  1
  Zr  Zr1  1  0.001755  0.002128  0.248557  1
  Zr  Zr2  1  0.667664  0.333098  0.582878  1
  Zr  Zr3  1  0.332336  0.666902  0.667122  1
  Zr  Zr4  1  0.998245  0.997872  0.001442  1
  Zr  Zr5  1  0.665247  0.334979  0.332554  1
  V  V6  1  0.000000  0.500000  0.125000  1
  V  V7  1  0.666122  0.833868  0.458023  1
  V  V8  1  0.333878  0.166132  0.791977  1
  Re  Re9  1  0.500000  0.500000  0.125000  1
  Re  Re10  1  0.166217  0.834227  0.458127  1
  Re  Re11  1  0.833783  0.165773  0.791873  1
  Re  Re12  1  0.500000  0.000000  0.125000  1
  W  W13  1  0.166320  0.333865  0.457889  1
  W  W14  1  0.833680  0.666135  0.792111  1
  W  W15  1  0.333798  0.669120  0.290834  1
  W  W16  1  0.000000  0.000000  0.625000  1
  W  W17  1  0.666202  0.330880  0.959166  1
