# generated using pymatgen
data_Mn2(MoN2)3
_symmetry_space_group_name_H-M   'P 1'
_cell_length_a   5.03362200
_cell_length_b   5.03362105
_cell_length_c   10.31138100
_cell_angle_alpha   90.00000000
_cell_angle_beta   90.00000000
_cell_angle_gamma   119.99999313
_symmetry_Int_Tables_number   1
_chemical_formula_structural   Mn2(MoN2)3
_chemical_formula_sum   'Mn4 Mo6 N12'
_cell_volume   226.26043182
_cell_formula_units_Z   2
loop_
 _symmetry_equiv_pos_site_id
 _symmetry_equiv_pos_as_xyz
  1  'x, y, z'
loop_
 _atom_site_type_symbol
 _atom_site_label
 _atom_site_symmetry_multiplicity
 _atom_site_fract_x
 _atom_site_fract_y
 _atom_site_fract_z
 _atom_site_occupancy
  Mn  Mn0  1  0.666667  0.333334  0.000000  1
  Mn  Mn1  1  0.333334  0.666668  0.000000  1
  Mn  Mn2  1  0.666667  0.333334  0.500000  1
  Mn  Mn3  1  0.333334  0.666668  0.500000  1
  Mo  Mo4  1  0.327628  0.000000  0.250000  1
  Mo  Mo5  1  0.000000  0.327627  0.250000  1
  Mo  Mo6  1  0.672371  0.672372  0.250000  1
  Mo  Mo7  1  0.672373  0.000000  0.750000  1
  Mo  Mo8  1  0.327628  0.327627  0.750000  1
  Mo  Mo9  1  0.000000  0.672372  0.750000  1
  N  N10  1  0.652963  0.000000  0.125196  1
  N  N11  1  0.347037  0.347037  0.125196  1
  N  N12  1  0.000000  0.652964  0.125196  1
  N  N13  1  0.652963  0.000000  0.374804  1
  N  N14  1  0.347037  0.347037  0.374804  1
  N  N15  1  0.000000  0.652964  0.374804  1
  N  N16  1  0.347037  0.000000  0.625196  1
  N  N17  1  0.000000  0.347037  0.625196  1
  N  N18  1  0.652964  0.652964  0.625196  1
  N  N19  1  0.347037  0.000000  0.874803  1
  N  N20  1  0.000000  0.347037  0.874803  1
  N  N21  1  0.652964  0.652964  0.874803  1
