# generated using pymatgen
data_NaSr4Bi3O
_symmetry_space_group_name_H-M   'P 1'
_cell_length_a   10.14141095
_cell_length_b   10.14141064
_cell_length_c   10.14141113
_cell_angle_alpha   130.43703128
_cell_angle_beta   130.43703028
_cell_angle_gamma   72.70905985
_symmetry_Int_Tables_number   1
_chemical_formula_structural   NaSr4Bi3O
_chemical_formula_sum   'Na2 Sr8 Bi6 O2'
_cell_volume   590.34323337
_cell_formula_units_Z   2
loop_
 _symmetry_equiv_pos_site_id
 _symmetry_equiv_pos_as_xyz
  1  'x, y, z'
loop_
 _atom_site_type_symbol
 _atom_site_label
 _atom_site_symmetry_multiplicity
 _atom_site_fract_x
 _atom_site_fract_y
 _atom_site_fract_z
 _atom_site_occupancy
  Na  Na0  1  0.000000  0.000000  0.000000  1
  Na  Na1  1  0.500000  0.500000  0.000000  1
  Sr  Sr2  1  0.497510  0.997510  0.806423  1
  Sr  Sr3  1  0.997510  0.191086  0.500000  1
  Sr  Sr4  1  0.191086  0.691086  0.193577  1
  Sr  Sr5  1  0.502490  0.002490  0.193577  1
  Sr  Sr6  1  0.691086  0.497510  0.500000  1
  Sr  Sr7  1  0.808914  0.308914  0.806423  1
  Sr  Sr8  1  0.308914  0.502490  0.500000  1
  Sr  Sr9  1  0.002490  0.808914  0.500000  1
  Bi  Bi10  1  0.368798  0.131202  0.500000  1
  Bi  Bi11  1  0.868798  0.368798  0.237597  1
  Bi  Bi12  1  0.250000  0.250000  0.000000  1
  Bi  Bi13  1  0.750000  0.750000  0.000000  1
  Bi  Bi14  1  0.131202  0.631202  0.762403  1
  Bi  Bi15  1  0.631202  0.868798  0.500000  1
  O  O16  1  0.250000  0.750000  0.500000  1
  O  O17  1  0.750000  0.250000  0.500000  1
