# generated using pymatgen
data_Dy4MnFeRu6
_symmetry_space_group_name_H-M   'P 1'
_cell_length_a   5.37694396
_cell_length_b   5.17684309
_cell_length_c   8.89682300
_cell_angle_alpha   90.00000000
_cell_angle_beta   90.00000000
_cell_angle_gamma   121.28034174
_symmetry_Int_Tables_number   1
_chemical_formula_structural   Dy4MnFeRu6
_chemical_formula_sum   'Dy4 Mn1 Fe1 Ru6'
_cell_volume   211.64946143
_cell_formula_units_Z   1
loop_
 _symmetry_equiv_pos_site_id
 _symmetry_equiv_pos_as_xyz
  1  'x, y, z'
loop_
 _atom_site_type_symbol
 _atom_site_label
 _atom_site_symmetry_multiplicity
 _atom_site_fract_x
 _atom_site_fract_y
 _atom_site_fract_z
 _atom_site_occupancy
  Dy  Dy0  1  0.670299  0.340703  0.566537  1
  Dy  Dy1  1  0.329415  0.658879  0.435798  1
  Dy  Dy2  1  0.329415  0.658879  0.064202  1
  Dy  Dy3  1  0.670299  0.340703  0.933463  1
  Mn  Mn4  1  0.840166  0.680342  0.250000  1
  Fe  Fe5  1  0.159416  0.317968  0.750000  1
  Ru  Ru6  1  0.000653  0.001443  0.499771  1
  Ru  Ru7  1  0.000653  0.001443  0.000229  1
  Ru  Ru8  1  0.178081  0.828660  0.750000  1
  Ru  Ru9  1  0.650930  0.829271  0.750000  1
  Ru  Ru10  1  0.820793  0.170854  0.250000  1
  Ru  Ru11  1  0.349881  0.170854  0.250000  1
