# generated using pymatgen
data_Hf6Co16Si6P
_symmetry_space_group_name_H-M   'P 1'
_cell_length_a   8.03891869
_cell_length_b   8.02892113
_cell_length_c   8.02892064
_cell_angle_alpha   60.19835442
_cell_angle_beta   59.95880669
_cell_angle_gamma   59.95880030
_symmetry_Int_Tables_number   1
_chemical_formula_structural   Hf6Co16Si6P
_chemical_formula_sum   'Hf6 Co16 Si6 P1'
_cell_volume   366.75182058
_cell_formula_units_Z   1
loop_
 _symmetry_equiv_pos_site_id
 _symmetry_equiv_pos_as_xyz
  1  'x, y, z'
loop_
 _atom_site_type_symbol
 _atom_site_label
 _atom_site_symmetry_multiplicity
 _atom_site_fract_x
 _atom_site_fract_y
 _atom_site_fract_z
 _atom_site_occupancy
  Hf  Hf0  1  0.795804  0.795141  0.204857  1
  Hf  Hf1  1  0.795804  0.204857  0.795141  1
  Hf  Hf2  1  0.204195  0.204858  0.795141  1
  Hf  Hf3  1  0.204195  0.795141  0.204858  1
  Hf  Hf4  1  0.204734  0.795264  0.795264  1
  Hf  Hf5  1  0.795264  0.204735  0.204735  1
  Co  Co6  1  0.140046  0.620410  0.620410  1
  Co  Co7  1  0.619562  0.141458  0.619417  1
  Co  Co8  1  0.619562  0.619417  0.141458  1
  Co  Co9  1  0.859954  0.379590  0.379590  1
  Co  Co10  1  0.380438  0.380583  0.858542  1
  Co  Co11  1  0.380866  0.379590  0.379590  1
  Co  Co12  1  0.509349  0.832785  0.832785  1
  Co  Co13  1  0.830191  0.509887  0.829730  1
  Co  Co14  1  0.830191  0.829730  0.509887  1
  Co  Co15  1  0.825079  0.832785  0.832785  1
  Co  Co16  1  0.169808  0.490112  0.170269  1
  Co  Co17  1  0.490650  0.167214  0.167214  1
  Co  Co18  1  0.169808  0.170269  0.490112  1
  Co  Co19  1  0.174920  0.167214  0.167214  1
  Co  Co20  1  0.619134  0.620410  0.620410  1
  Co  Co21  1  0.380438  0.858542  0.380583  1
  Si  Si22  1  0.499999  0.499999  0.000000  1
  Si  Si23  1  0.499999  0.000000  0.499999  1
  Si  Si24  1  0.499999  0.499999  0.499999  1
  Si  Si25  1  0.000000  0.000000  0.499999  1
  Si  Si26  1  0.000000  0.499999  0.000000  1
  Si  Si27  1  0.000000  0.499999  0.499999  1
  P  P28  1  0.499999  0.000000  0.000000  1
