# generated using pymatgen
data_Dy10Ga3ReTe4
_symmetry_space_group_name_H-M   'P 1'
_cell_length_a   8.75960524
_cell_length_b   8.75960719
_cell_length_c   7.95772100
_cell_angle_alpha   90.28874958
_cell_angle_beta   90.28875618
_cell_angle_gamma   125.80121765
_symmetry_Int_Tables_number   1
_chemical_formula_structural   Dy10Ga3ReTe4
_chemical_formula_sum   'Dy10 Ga3 Re1 Te4'
_cell_volume   495.19889557
_cell_formula_units_Z   1
loop_
 _symmetry_equiv_pos_site_id
 _symmetry_equiv_pos_as_xyz
  1  'x, y, z'
loop_
 _atom_site_type_symbol
 _atom_site_label
 _atom_site_symmetry_multiplicity
 _atom_site_fract_x
 _atom_site_fract_y
 _atom_site_fract_z
 _atom_site_occupancy
  Dy  Dy0  1  0.994336  0.994336  0.010276  1
  Dy  Dy1  1  0.510604  0.510604  0.489738  1
  Dy  Dy2  1  0.812594  0.564232  0.182140  1
  Dy  Dy3  1  0.463001  0.217083  0.836569  1
  Dy  Dy4  1  0.954213  0.707899  0.652509  1
  Dy  Dy5  1  0.266350  0.025424  0.340054  1
  Dy  Dy6  1  0.217083  0.463001  0.836569  1
  Dy  Dy7  1  0.564232  0.812594  0.182140  1
  Dy  Dy8  1  0.025424  0.266350  0.340054  1
  Dy  Dy9  1  0.707899  0.954213  0.652509  1
  Ga  Ga10  1  0.125995  0.125995  0.631536  1
  Ga  Ga11  1  0.626333  0.626333  0.871585  1
  Ga  Ga12  1  0.370001  0.370001  0.124671  1
  Re  Re13  1  0.869320  0.869320  0.374361  1
  Te  Te14  1  0.220755  0.806470  0.990539  1
  Te  Te15  1  0.687421  0.277968  0.497106  1
  Te  Te16  1  0.806470  0.220755  0.990539  1
  Te  Te17  1  0.277968  0.687421  0.497106  1
