# generated using pymatgen
data_Nd3Sm3RuI10
_symmetry_space_group_name_H-M   'P 1'
_cell_length_a   7.94711856
_cell_length_b   9.95930365
_cell_length_c   9.98331565
_cell_angle_alpha   107.14312697
_cell_angle_beta   96.52438064
_cell_angle_gamma   104.79679939
_symmetry_Int_Tables_number   1
_chemical_formula_structural   Nd3Sm3RuI10
_chemical_formula_sum   'Nd3 Sm3 Ru1 I10'
_cell_volume   714.58938028
_cell_formula_units_Z   1
loop_
 _symmetry_equiv_pos_site_id
 _symmetry_equiv_pos_as_xyz
  1  'x, y, z'
loop_
 _atom_site_type_symbol
 _atom_site_label
 _atom_site_symmetry_multiplicity
 _atom_site_fract_x
 _atom_site_fract_y
 _atom_site_fract_z
 _atom_site_occupancy
  Nd  Nd0  1  0.116083  0.042868  0.759534  1
  Nd  Nd1  1  0.882376  0.957369  0.239888  1
  Nd  Nd2  1  0.968364  0.283227  0.083855  1
  Sm  Sm3  1  0.647663  0.872859  0.831940  1
  Sm  Sm4  1  0.351800  0.125363  0.167622  1
  Sm  Sm5  1  0.032313  0.721518  0.917530  1
  Ru  Ru6  1  0.999828  0.000435  0.999961  1
  I  I7  1  0.352716  0.448720  0.271936  1
  I  I8  1  0.654529  0.551732  0.730282  1
  I  I9  1  0.739557  0.912291  0.542592  1
  I  I10  1  0.087204  0.371841  0.818887  1
  I  I11  1  0.914644  0.630438  0.178392  1
  I  I12  1  0.451421  0.815479  0.089456  1
  I  I13  1  0.545978  0.181936  0.908962  1
  I  I14  1  0.777726  0.256678  0.346394  1
  I  I15  1  0.219426  0.741383  0.655946  1
  I  I16  1  0.258371  0.085864  0.456822  1
