# generated using pymatgen
data_Pa3Al3IrPt2
_symmetry_space_group_name_H-M   'P 1'
_cell_length_a   7.04311800
_cell_length_b   7.04311840
_cell_length_c   8.29986500
_cell_angle_alpha   90.00000000
_cell_angle_beta   90.00000000
_cell_angle_gamma   120.00000749
_symmetry_Int_Tables_number   1
_chemical_formula_structural   Pa3Al3IrPt2
_chemical_formula_sum   'Pa6 Al6 Ir2 Pt4'
_cell_volume   356.55914655
_cell_formula_units_Z   2
loop_
 _symmetry_equiv_pos_site_id
 _symmetry_equiv_pos_as_xyz
  1  'x, y, z'
loop_
 _atom_site_type_symbol
 _atom_site_label
 _atom_site_symmetry_multiplicity
 _atom_site_fract_x
 _atom_site_fract_y
 _atom_site_fract_z
 _atom_site_occupancy
  Pa  Pa0  1  0.002395  0.578352  0.743777  1
  Pa  Pa1  1  0.997605  0.575958  0.256223  1
  Pa  Pa2  1  0.578352  0.002395  0.256223  1
  Pa  Pa3  1  0.575958  0.997605  0.743777  1
  Pa  Pa4  1  0.424042  0.421648  0.256223  1
  Pa  Pa5  1  0.421648  0.424042  0.743777  1
  Al  Al6  1  0.000000  0.238428  0.500000  1
  Al  Al7  1  0.760301  0.760301  0.000000  1
  Al  Al8  1  0.000000  0.239699  0.000000  1
  Al  Al9  1  0.238428  0.000000  0.500000  1
  Al  Al10  1  0.239699  0.000000  0.000000  1
  Al  Al11  1  0.761572  0.761572  0.500000  1
  Ir  Ir12  1  0.333333  0.666667  0.498576  1
  Ir  Ir13  1  0.666667  0.333333  0.501424  1
  Pt  Pt14  1  0.666667  0.333333  0.996943  1
  Pt  Pt15  1  0.000000  0.000000  0.249358  1
  Pt  Pt16  1  0.000000  0.000000  0.750642  1
  Pt  Pt17  1  0.333333  0.666667  0.003057  1
