# generated using pymatgen
data_Y2Ho6CdCo2Hg
_symmetry_space_group_name_H-M   'P 1'
_cell_length_a   9.46724672
_cell_length_b   9.47216516
_cell_length_c   9.45337479
_cell_angle_alpha   59.88404308
_cell_angle_beta   59.87776593
_cell_angle_gamma   59.85994189
_symmetry_Int_Tables_number   1
_chemical_formula_structural   Y2Ho6CdCo2Hg
_chemical_formula_sum   'Y4 Ho12 Cd2 Co4 Hg2'
_cell_volume   597.72380203
_cell_formula_units_Z   2
loop_
 _symmetry_equiv_pos_site_id
 _symmetry_equiv_pos_as_xyz
  1  'x, y, z'
loop_
 _atom_site_type_symbol
 _atom_site_label
 _atom_site_symmetry_multiplicity
 _atom_site_fract_x
 _atom_site_fract_y
 _atom_site_fract_z
 _atom_site_occupancy
  Y  Y0  1  0.938760  0.938164  0.562240  1
  Y  Y1  1  0.810407  0.187459  0.188363  1
  Y  Y2  1  0.939439  0.561218  0.562229  1
  Y  Y3  1  0.938362  0.561718  0.938821  1
  Ho  Ho4  1  0.811009  0.811289  0.186415  1
  Ho  Ho5  1  0.346145  0.346155  0.346159  1
  Ho  Ho6  1  0.559160  0.938983  0.940636  1
  Ho  Ho7  1  0.560677  0.938153  0.563686  1
  Ho  Ho8  1  0.186757  0.811223  0.811850  1
  Ho  Ho9  1  0.189365  0.187089  0.810820  1
  Ho  Ho10  1  0.347742  0.347988  0.961347  1
  Ho  Ho11  1  0.348269  0.958866  0.348510  1
  Ho  Ho12  1  0.811298  0.185242  0.812346  1
  Ho  Ho13  1  0.560888  0.563144  0.939680  1
  Ho  Ho14  1  0.189575  0.809981  0.188230  1
  Ho  Ho15  1  0.962392  0.347336  0.346988  1
  Cd  Cd16  1  0.579307  0.579332  0.578157  1
  Cd  Cd17  1  0.579548  0.259626  0.578968  1
  Co  Co18  1  0.577035  0.140537  0.141162  1
  Co  Co19  1  0.146263  0.139954  0.141099  1
  Co  Co20  1  0.142260  0.578693  0.141861  1
  Co  Co21  1  0.142395  0.141403  0.579044  1
  Hg  Hg22  1  0.584039  0.583456  0.247274  1
  Hg  Hg23  1  0.248911  0.582992  0.584117  1
