# generated using pymatgen
data_Tb4Ho(In2Pt)2
_symmetry_space_group_name_H-M   'P 1'
_cell_length_a   3.65644100
_cell_length_b   8.17334489
_cell_length_c   18.27313575
_cell_angle_alpha   89.88798780
_cell_angle_beta   90.00000000
_cell_angle_gamma   90.00000000
_symmetry_Int_Tables_number   1
_chemical_formula_structural   Tb4Ho(In2Pt)2
_chemical_formula_sum   'Tb8 Ho2 In8 Pt4'
_cell_volume   546.09807574
_cell_formula_units_Z   2
loop_
 _symmetry_equiv_pos_site_id
 _symmetry_equiv_pos_as_xyz
  1  'x, y, z'
loop_
 _atom_site_type_symbol
 _atom_site_label
 _atom_site_symmetry_multiplicity
 _atom_site_fract_x
 _atom_site_fract_y
 _atom_site_fract_z
 _atom_site_occupancy
  Tb  Tb0  1  0.000000  0.383309  0.914890  1
  Tb  Tb1  1  0.000000  0.616691  0.085110  1
  Tb  Tb2  1  0.000000  0.243118  0.220026  1
  Tb  Tb3  1  0.000000  0.756882  0.779974  1
  Tb  Tb4  1  0.000000  0.256960  0.719488  1
  Tb  Tb5  1  0.000000  0.743040  0.280512  1
  Tb  Tb6  1  0.000000  0.000000  0.000000  1
  Tb  Tb7  1  0.000000  0.500000  0.500000  1
  Ho  Ho8  1  0.000000  0.116209  0.414439  1
  Ho  Ho9  1  0.000000  0.883791  0.585561  1
  In  In10  1  0.500000  0.421756  0.351617  1
  In  In11  1  0.500000  0.578244  0.648383  1
  In  In12  1  0.500000  0.076362  0.850819  1
  In  In13  1  0.500000  0.923638  0.149181  1
  In  In14  1  0.500000  0.292256  0.066829  1
  In  In15  1  0.500000  0.707744  0.933171  1
  In  In16  1  0.500000  0.205398  0.565850  1
  In  In17  1  0.500000  0.794602  0.434150  1
  Pt  Pt18  1  0.500000  0.025800  0.304010  1
  Pt  Pt19  1  0.500000  0.974200  0.695990  1
  Pt  Pt20  1  0.500000  0.474648  0.802930  1
  Pt  Pt21  1  0.500000  0.525352  0.197070  1
