# generated using pymatgen
data_Er5Mo3P12Ru9Rh7
_symmetry_space_group_name_H-M   'P 1'
_cell_length_a   12.61207700
_cell_length_b   12.61207718
_cell_length_c   3.94679400
_cell_angle_alpha   90.00000000
_cell_angle_beta   90.00000000
_cell_angle_gamma   120.00000214
_symmetry_Int_Tables_number   1
_chemical_formula_structural   Er5Mo3P12Ru9Rh7
_chemical_formula_sum   'Er5 Mo3 P12 Ru9 Rh7'
_cell_volume   543.68620668
_cell_formula_units_Z   1
loop_
 _symmetry_equiv_pos_site_id
 _symmetry_equiv_pos_as_xyz
  1  'x, y, z'
loop_
 _atom_site_type_symbol
 _atom_site_label
 _atom_site_symmetry_multiplicity
 _atom_site_fract_x
 _atom_site_fract_y
 _atom_site_fract_z
 _atom_site_occupancy
  Er  Er0  1  0.188412  0.188412  0.500000  1
  Er  Er1  1  0.811588  0.000000  0.500000  1
  Er  Er2  1  0.000000  0.811588  0.500000  1
  Er  Er3  1  0.333333  0.666667  0.000000  1
  Er  Er4  1  0.666667  0.333333  0.000000  1
  Mo  Mo5  1  0.557171  0.557171  0.000000  1
  Mo  Mo6  1  0.442829  0.000000  0.000000  1
  Mo  Mo7  1  0.000000  0.442829  0.000000  1
  P  P8  1  0.818891  0.818891  0.000000  1
  P  P9  1  0.181109  0.000000  0.000000  1
  P  P10  1  0.000000  0.181109  0.000000  1
  P  P11  1  0.166251  0.481688  0.500000  1
  P  P12  1  0.518312  0.684563  0.500000  1
  P  P13  1  0.315437  0.833749  0.500000  1
  P  P14  1  0.684563  0.518312  0.500000  1
  P  P15  1  0.833749  0.315437  0.500000  1
  P  P16  1  0.481688  0.166251  0.500000  1
  P  P17  1  0.371189  0.371189  0.000000  1
  P  P18  1  0.628811  0.000000  0.000000  1
  P  P19  1  0.000000  0.628811  0.000000  1
  Ru  Ru20  1  0.719754  0.719754  0.500000  1
  Ru  Ru21  1  0.280246  0.000000  0.500000  1
  Ru  Ru22  1  0.000000  0.280246  0.500000  1
  Ru  Ru23  1  0.358609  0.487203  0.500000  1
  Ru  Ru24  1  0.512797  0.871406  0.500000  1
  Ru  Ru25  1  0.128594  0.641391  0.500000  1
  Ru  Ru26  1  0.871406  0.512797  0.500000  1
  Ru  Ru27  1  0.641391  0.128594  0.500000  1
  Ru  Ru28  1  0.487203  0.358609  0.500000  1
  Rh  Rh29  1  0.181624  0.372142  0.000000  1
  Rh  Rh30  1  0.627858  0.809481  0.000000  1
  Rh  Rh31  1  0.190519  0.818376  0.000000  1
  Rh  Rh32  1  0.809481  0.627858  0.000000  1
  Rh  Rh33  1  0.818376  0.190519  0.000000  1
  Rh  Rh34  1  0.372142  0.181624  0.000000  1
  Rh  Rh35  1  0.000000  0.000000  0.000000  1
