# generated using pymatgen
data_Be11Nb6Co6(Si2Ni)2
_symmetry_space_group_name_H-M   'P 1'
_cell_length_a   7.65595803
_cell_length_b   7.66827315
_cell_length_c   7.69221408
_cell_angle_alpha   60.16303009
_cell_angle_beta   59.89745701
_cell_angle_gamma   60.18729365
_symmetry_Int_Tables_number   1
_chemical_formula_structural   Be11Nb6Co6(Si2Ni)2
_chemical_formula_sum   'Be11 Nb6 Co6 Si4 Ni2'
_cell_volume   319.91805355
_cell_formula_units_Z   1
loop_
 _symmetry_equiv_pos_site_id
 _symmetry_equiv_pos_as_xyz
  1  'x, y, z'
loop_
 _atom_site_type_symbol
 _atom_site_label
 _atom_site_symmetry_multiplicity
 _atom_site_fract_x
 _atom_site_fract_y
 _atom_site_fract_z
 _atom_site_occupancy
  Be  Be0  1  0.319669  0.337557  0.323179  1
  Be  Be1  1  0.680331  0.662443  0.676821  1
  Be  Be2  1  0.330004  0.333273  0.020840  1
  Be  Be3  1  0.313192  0.021728  0.332849  1
  Be  Be4  1  0.669996  0.666727  0.979160  1
  Be  Be5  1  0.686808  0.978272  0.667151  1
  Be  Be6  1  0.020853  0.322024  0.335839  1
  Be  Be7  1  0.979147  0.677976  0.664161  1
  Be  Be8  1  0.000000  0.500000  0.500000  1
  Be  Be9  1  0.000000  0.000000  0.500000  1
  Be  Be10  1  0.500000  0.500000  0.000000  1
  Nb  Nb11  1  0.707464  0.295784  0.296182  1
  Nb  Nb12  1  0.292536  0.704216  0.703818  1
  Nb  Nb13  1  0.286989  0.706725  0.296605  1
  Nb  Nb14  1  0.713011  0.293275  0.703395  1
  Nb  Nb15  1  0.295295  0.303759  0.699017  1
  Nb  Nb16  1  0.704705  0.696241  0.300983  1
  Co  Co17  1  0.123978  0.123195  0.123323  1
  Co  Co18  1  0.876022  0.876805  0.876677  1
  Co  Co19  1  0.123238  0.123681  0.630790  1
  Co  Co20  1  0.123563  0.630954  0.123743  1
  Co  Co21  1  0.876762  0.876319  0.369210  1
  Co  Co22  1  0.876437  0.369046  0.876257  1
  Si  Si23  1  0.500000  0.000000  0.000000  1
  Si  Si24  1  0.000000  0.500000  0.000000  1
  Si  Si25  1  0.500000  0.000000  0.500000  1
  Si  Si26  1  0.000000  0.000000  0.000000  1
  Ni  Ni27  1  0.626723  0.126048  0.124078  1
  Ni  Ni28  1  0.373277  0.873952  0.875922  1
