# generated using pymatgen
data_Er2ThCoSn3Ir2
_symmetry_space_group_name_H-M   'P 1'
_cell_length_a   7.43694288
_cell_length_b   7.43694220
_cell_length_c   3.94262600
_cell_angle_alpha   90.00000000
_cell_angle_beta   90.00000000
_cell_angle_gamma   119.52448557
_symmetry_Int_Tables_number   1
_chemical_formula_structural   Er2ThCoSn3Ir2
_chemical_formula_sum   'Er2 Th1 Co1 Sn3 Ir2'
_cell_volume   189.74316985
_cell_formula_units_Z   1
loop_
 _symmetry_equiv_pos_site_id
 _symmetry_equiv_pos_as_xyz
  1  'x, y, z'
loop_
 _atom_site_type_symbol
 _atom_site_label
 _atom_site_symmetry_multiplicity
 _atom_site_fract_x
 _atom_site_fract_y
 _atom_site_fract_z
 _atom_site_occupancy
  Er  Er0  1  0.593263  0.999411  0.500000  1
  Er  Er1  1  0.999411  0.593263  0.500000  1
  Th  Th2  1  0.412309  0.412309  0.500000  1
  Co  Co3  1  0.006346  0.006346  0.500000  1
  Sn  Sn4  1  0.762896  0.762896  0.000000  1
  Sn  Sn5  1  0.246605  0.988852  0.000000  1
  Sn  Sn6  1  0.988852  0.246605  0.000000  1
  Ir  Ir7  1  0.657113  0.333207  0.000000  1
  Ir  Ir8  1  0.333207  0.657113  0.000000  1
