# generated using pymatgen
data_Ho3Zn2Cd3Ir
_symmetry_space_group_name_H-M   'P 1'
_cell_length_a   7.82745900
_cell_length_b   7.82745945
_cell_length_c   3.72538200
_cell_angle_alpha   90.00000000
_cell_angle_beta   90.00000000
_cell_angle_gamma   120.00001076
_symmetry_Int_Tables_number   1
_chemical_formula_structural   Ho3Zn2Cd3Ir
_chemical_formula_sum   'Ho3 Zn2 Cd3 Ir1'
_cell_volume   197.67102972
_cell_formula_units_Z   1
loop_
 _symmetry_equiv_pos_site_id
 _symmetry_equiv_pos_as_xyz
  1  'x, y, z'
loop_
 _atom_site_type_symbol
 _atom_site_label
 _atom_site_symmetry_multiplicity
 _atom_site_fract_x
 _atom_site_fract_y
 _atom_site_fract_z
 _atom_site_occupancy
  Ho  Ho0  1  0.031969  0.425013  0.500000  1
  Ho  Ho1  1  0.574987  0.606956  0.500000  1
  Ho  Ho2  1  0.393044  0.968031  0.500000  1
  Zn  Zn3  1  0.666667  0.333333  0.000000  1
  Zn  Zn4  1  0.000000  0.000000  0.500000  1
  Cd  Cd5  1  0.988384  0.730879  0.000000  1
  Cd  Cd6  1  0.269121  0.257506  0.000000  1
  Cd  Cd7  1  0.742494  0.011616  0.000000  1
  Ir  Ir8  1  0.333333  0.666667  0.000000  1
