# generated using pymatgen
data_Yb4Cu3Ni17Sn4
_symmetry_space_group_name_H-M   'P 1'
_cell_length_a   4.82508900
_cell_length_b   8.05110768
_cell_length_c   10.21265589
_cell_angle_alpha   89.95255992
_cell_angle_beta   90.00000000
_cell_angle_gamma   90.00000000
_symmetry_Int_Tables_number   1
_chemical_formula_structural   Yb4Cu3Ni17Sn4
_chemical_formula_sum   'Yb4 Cu3 Ni17 Sn4'
_cell_volume   396.73408449
_cell_formula_units_Z   1
loop_
 _symmetry_equiv_pos_site_id
 _symmetry_equiv_pos_as_xyz
  1  'x, y, z'
loop_
 _atom_site_type_symbol
 _atom_site_label
 _atom_site_symmetry_multiplicity
 _atom_site_fract_x
 _atom_site_fract_y
 _atom_site_fract_z
 _atom_site_occupancy
  Yb  Yb0  1  0.750000  0.249850  0.560037  1
  Yb  Yb1  1  0.250000  0.247575  0.062167  1
  Yb  Yb2  1  0.750000  0.751843  0.938951  1
  Yb  Yb3  1  0.250000  0.750629  0.439527  1
  Cu  Cu4  1  0.750000  0.919224  0.481978  1
  Cu  Cu5  1  0.250000  0.580441  0.982197  1
  Cu  Cu6  1  0.750000  0.419188  0.018532  1
  Ni  Ni7  1  0.250000  0.084743  0.516641  1
  Ni  Ni8  1  0.250000  0.187515  0.741757  1
  Ni  Ni9  1  0.750000  0.311916  0.243808  1
  Ni  Ni10  1  0.250000  0.687825  0.756909  1
  Ni  Ni11  1  0.750000  0.812063  0.256594  1
  Ni  Ni12  1  0.750000  0.548628  0.400657  1
  Ni  Ni13  1  0.250000  0.951884  0.899827  1
  Ni  Ni14  1  0.750000  0.047851  0.099544  1
  Ni  Ni15  1  0.250000  0.451489  0.599844  1
  Ni  Ni16  1  0.497323  0.067355  0.308121  1
  Ni  Ni17  1  0.502341  0.431837  0.807344  1
  Ni  Ni18  1  0.002986  0.567121  0.193588  1
  Ni  Ni19  1  0.999406  0.933425  0.690641  1
  Ni  Ni20  1  0.500594  0.933425  0.690641  1
  Ni  Ni21  1  0.497014  0.567121  0.193588  1
  Ni  Ni22  1  0.997659  0.431837  0.807344  1
  Ni  Ni23  1  0.002677  0.067355  0.308121  1
  Sn  Sn24  1  0.750000  0.637983  0.640342  1
  Sn  Sn25  1  0.250000  0.862438  0.139910  1
  Sn  Sn26  1  0.750000  0.137664  0.859609  1
  Sn  Sn27  1  0.250000  0.359774  0.361779  1
