# generated using pymatgen
data_TbSmY2(B4Mo)4
_symmetry_space_group_name_H-M   'P 1'
_cell_length_a   3.64299200
_cell_length_b   6.05029213
_cell_length_c   11.69557110
_cell_angle_alpha   90.07489481
_cell_angle_beta   90.00000000
_cell_angle_gamma   90.00000000
_symmetry_Int_Tables_number   1
_chemical_formula_structural   TbSmY2(B4Mo)4
_chemical_formula_sum   'Tb1 Sm1 Y2 B16 Mo4'
_cell_volume   257.78380180
_cell_formula_units_Z   1
loop_
 _symmetry_equiv_pos_site_id
 _symmetry_equiv_pos_as_xyz
  1  'x, y, z'
loop_
 _atom_site_type_symbol
 _atom_site_label
 _atom_site_symmetry_multiplicity
 _atom_site_fract_x
 _atom_site_fract_y
 _atom_site_fract_z
 _atom_site_occupancy
  Tb  Tb0  1  0.000000  0.873386  0.849813  1
  Sm  Sm1  1  0.000000  0.126550  0.150195  1
  Y  Y2  1  0.000000  0.626498  0.350502  1
  Y  Y3  1  0.000000  0.373598  0.649863  1
  B  B4  1  0.500000  0.784305  0.186299  1
  B  B5  1  0.500000  0.213957  0.813492  1
  B  B6  1  0.500000  0.286541  0.314846  1
  B  B7  1  0.500000  0.713975  0.686129  1
  B  B8  1  0.500000  0.865500  0.031055  1
  B  B9  1  0.500000  0.134214  0.967016  1
  B  B10  1  0.500000  0.366573  0.468562  1
  B  B11  1  0.500000  0.633646  0.532247  1
  B  B12  1  0.500000  0.885650  0.453169  1
  B  B13  1  0.500000  0.113826  0.547746  1
  B  B14  1  0.500000  0.387632  0.046326  1
  B  B15  1  0.500000  0.614206  0.952073  1
  B  B16  1  0.500000  0.974397  0.307868  1
  B  B17  1  0.500000  0.024293  0.693336  1
  B  B18  1  0.500000  0.476650  0.193166  1
  B  B19  1  0.500000  0.524463  0.806337  1
  Mo  Mo20  1  0.000000  0.629261  0.083126  1
  Mo  Mo21  1  0.000000  0.371173  0.915692  1
  Mo  Mo22  1  0.000000  0.129172  0.417333  1
  Mo  Mo23  1  0.000000  0.870531  0.583807  1
