# generated using pymatgen
data_Tb11YIrPt3
_symmetry_space_group_name_H-M   'P 1'
_cell_length_a   6.47270141
_cell_length_b   7.10540998
_cell_length_c   9.60909700
_cell_angle_alpha   90.00000000
_cell_angle_beta   90.00000000
_cell_angle_gamma   89.89810937
_symmetry_Int_Tables_number   1
_chemical_formula_structural   Tb11YIrPt3
_chemical_formula_sum   'Tb11 Y1 Ir1 Pt3'
_cell_volume   441.93317603
_cell_formula_units_Z   1
loop_
 _symmetry_equiv_pos_site_id
 _symmetry_equiv_pos_as_xyz
  1  'x, y, z'
loop_
 _atom_site_type_symbol
 _atom_site_label
 _atom_site_symmetry_multiplicity
 _atom_site_fract_x
 _atom_site_fract_y
 _atom_site_fract_z
 _atom_site_occupancy
  Tb  Tb0  1  0.325619  0.680419  0.059439  1
  Tb  Tb1  1  0.173860  0.179146  0.439147  1
  Tb  Tb2  1  0.674198  0.323504  0.563503  1
  Tb  Tb3  1  0.822159  0.817986  0.937103  1
  Tb  Tb4  1  0.674198  0.323504  0.936497  1
  Tb  Tb5  1  0.822159  0.817986  0.562897  1
  Tb  Tb6  1  0.325619  0.680419  0.440561  1
  Tb  Tb7  1  0.173860  0.179146  0.060853  1
  Tb  Tb8  1  0.634667  0.029757  0.250000  1
  Tb  Tb9  1  0.137930  0.471812  0.750000  1
  Tb  Tb10  1  0.369670  0.965383  0.750000  1
  Y  Y11  1  0.866107  0.527733  0.250000  1
  Ir  Ir12  1  0.553080  0.615385  0.750000  1
  Pt  Pt13  1  0.056695  0.886696  0.250000  1
  Pt  Pt14  1  0.442572  0.387324  0.250000  1
  Pt  Pt15  1  0.947606  0.113799  0.750000  1
