# generated using pymatgen
data_Tm10Ag3Ir
_symmetry_space_group_name_H-M   'P 1'
_cell_length_a   9.40906100
_cell_length_b   9.40906088
_cell_length_c   9.48298100
_cell_angle_alpha   90.00000000
_cell_angle_beta   90.00000000
_cell_angle_gamma   119.99999691
_symmetry_Int_Tables_number   1
_chemical_formula_structural   Tm10Ag3Ir
_chemical_formula_sum   'Tm20 Ag6 Ir2'
_cell_volume   727.05637745
_cell_formula_units_Z   2
loop_
 _symmetry_equiv_pos_site_id
 _symmetry_equiv_pos_as_xyz
  1  'x, y, z'
loop_
 _atom_site_type_symbol
 _atom_site_label
 _atom_site_symmetry_multiplicity
 _atom_site_fract_x
 _atom_site_fract_y
 _atom_site_fract_z
 _atom_site_occupancy
  Tm  Tm0  1  0.000000  0.000000  0.500000  1
  Tm  Tm1  1  0.000000  0.000000  0.000000  1
  Tm  Tm2  1  0.208330  0.791670  0.443454  1
  Tm  Tm3  1  0.208330  0.416659  0.443454  1
  Tm  Tm4  1  0.583341  0.791670  0.443454  1
  Tm  Tm5  1  0.791670  0.208330  0.556546  1
  Tm  Tm6  1  0.791670  0.583341  0.556546  1
  Tm  Tm7  1  0.416659  0.208330  0.556546  1
  Tm  Tm8  1  0.791670  0.208330  0.943454  1
  Tm  Tm9  1  0.791670  0.583341  0.943454  1
  Tm  Tm10  1  0.416659  0.208330  0.943454  1
  Tm  Tm11  1  0.208330  0.791670  0.056546  1
  Tm  Tm12  1  0.208330  0.416659  0.056546  1
  Tm  Tm13  1  0.583341  0.791670  0.056546  1
  Tm  Tm14  1  0.541223  0.458777  0.250000  1
  Tm  Tm15  1  0.541223  0.082447  0.250000  1
  Tm  Tm16  1  0.917553  0.458777  0.250000  1
  Tm  Tm17  1  0.458777  0.541223  0.750000  1
  Tm  Tm18  1  0.458777  0.917553  0.750000  1
  Tm  Tm19  1  0.082447  0.541223  0.750000  1
  Ag  Ag20  1  0.883406  0.116594  0.250000  1
  Ag  Ag21  1  0.883406  0.766815  0.250000  1
  Ag  Ag22  1  0.233185  0.116594  0.250000  1
  Ag  Ag23  1  0.116594  0.883406  0.750000  1
  Ag  Ag24  1  0.116594  0.233185  0.750000  1
  Ag  Ag25  1  0.766815  0.883406  0.750000  1
  Ir  Ir26  1  0.333333  0.666667  0.250000  1
  Ir  Ir27  1  0.666667  0.333333  0.750000  1
