# generated using pymatgen
data_Sc12Co4BiRu
_symmetry_space_group_name_H-M   'P 1'
_cell_length_a   7.76181234
_cell_length_b   7.76181182
_cell_length_c   7.76181237
_cell_angle_alpha   110.91436429
_cell_angle_beta   111.48474425
_cell_angle_gamma   106.06777850
_symmetry_Int_Tables_number   1
_chemical_formula_structural   Sc12Co4BiRu
_chemical_formula_sum   'Sc12 Co4 Bi1 Ru1'
_cell_volume   359.01614806
_cell_formula_units_Z   1
loop_
 _symmetry_equiv_pos_site_id
 _symmetry_equiv_pos_as_xyz
  1  'x, y, z'
loop_
 _atom_site_type_symbol
 _atom_site_label
 _atom_site_symmetry_multiplicity
 _atom_site_fract_x
 _atom_site_fract_y
 _atom_site_fract_z
 _atom_site_occupancy
  Sc  Sc0  1  0.278084  0.183637  0.461721  1
  Sc  Sc1  1  0.721916  0.816363  0.538279  1
  Sc  Sc2  1  0.278084  0.816363  0.094446  1
  Sc  Sc3  1  0.721916  0.183637  0.905554  1
  Sc  Sc4  1  0.616590  0.310594  0.305996  1
  Sc  Sc5  1  0.383410  0.689406  0.694004  1
  Sc  Sc6  1  0.004599  0.310594  0.694004  1
  Sc  Sc7  1  0.995401  0.689406  0.305996  1
  Sc  Sc8  1  0.217550  0.416640  0.199092  1
  Sc  Sc9  1  0.782450  0.583360  0.800908  1
  Sc  Sc10  1  0.217550  0.018459  0.800908  1
  Sc  Sc11  1  0.782450  0.981541  0.199092  1
  Co  Co12  1  0.000000  0.365358  0.365358  1
  Co  Co13  1  0.000000  0.634642  0.634642  1
  Co  Co14  1  0.382827  0.882827  0.500000  1
  Co  Co15  1  0.617173  0.117173  0.500000  1
  Bi  Bi16  1  0.500000  0.500000  0.000000  1
  Ru  Ru17  1  0.000000  0.000000  0.000000  1
