# generated using pymatgen
data_Dy3Ho3(Si3Pt2)4
_symmetry_space_group_name_H-M   'P 1'
_cell_length_a   4.24465800
_cell_length_b   8.55698335
_cell_length_c   12.92227912
_cell_angle_alpha   80.23719473
_cell_angle_beta   90.00000000
_cell_angle_gamma   90.00000000
_symmetry_Int_Tables_number   1
_chemical_formula_structural   Dy3Ho3(Si3Pt2)4
_chemical_formula_sum   'Dy3 Ho3 Si12 Pt8'
_cell_volume   462.55901672
_cell_formula_units_Z   1
loop_
 _symmetry_equiv_pos_site_id
 _symmetry_equiv_pos_as_xyz
  1  'x, y, z'
loop_
 _atom_site_type_symbol
 _atom_site_label
 _atom_site_symmetry_multiplicity
 _atom_site_fract_x
 _atom_site_fract_y
 _atom_site_fract_z
 _atom_site_occupancy
  Dy  Dy0  1  0.250000  0.766252  0.439414  1
  Dy  Dy1  1  0.250000  0.583511  0.186326  1
  Dy  Dy2  1  0.750000  0.233771  0.560613  1
  Ho  Ho3  1  0.750000  0.416365  0.813638  1
  Ho  Ho4  1  0.750000  0.926417  0.815853  1
  Ho  Ho5  1  0.250000  0.073630  0.184187  1
  Si  Si6  1  0.750000  0.588448  0.571780  1
  Si  Si7  1  0.750000  0.126982  0.004592  1
  Si  Si8  1  0.750000  0.872918  0.573949  1
  Si  Si9  1  0.250000  0.696385  0.713696  1
  Si  Si10  1  0.750000  0.303556  0.286307  1
  Si  Si11  1  0.750000  0.805936  0.276763  1
  Si  Si12  1  0.250000  0.873099  0.995306  1
  Si  Si13  1  0.250000  0.194175  0.723267  1
  Si  Si14  1  0.250000  0.378395  0.001322  1
  Si  Si15  1  0.250000  0.127107  0.426054  1
  Si  Si16  1  0.750000  0.621552  0.998590  1
  Si  Si17  1  0.250000  0.411507  0.428274  1
  Pt  Pt18  1  0.750000  0.351838  0.099191  1
  Pt  Pt19  1  0.250000  0.970861  0.624386  1
  Pt  Pt20  1  0.750000  0.849535  0.088981  1
  Pt  Pt21  1  0.750000  0.029131  0.375621  1
  Pt  Pt22  1  0.250000  0.648028  0.900783  1
  Pt  Pt23  1  0.250000  0.150605  0.910988  1
  Pt  Pt24  1  0.750000  0.533104  0.375894  1
  Pt  Pt25  1  0.250000  0.466891  0.624225  1
