# generated using pymatgen
data_Ca5Cd4Ga
_symmetry_space_group_name_H-M   'P 1'
_cell_length_a   3.83416600
_cell_length_b   3.83416600
_cell_length_c   18.90554900
_cell_angle_alpha   90.00000000
_cell_angle_beta   90.00000000
_cell_angle_gamma   90.00000000
_symmetry_Int_Tables_number   1
_chemical_formula_structural   Ca5Cd4Ga
_chemical_formula_sum   'Ca5 Cd4 Ga1'
_cell_volume   277.92724140
_cell_formula_units_Z   1
loop_
 _symmetry_equiv_pos_site_id
 _symmetry_equiv_pos_as_xyz
  1  'x, y, z'
loop_
 _atom_site_type_symbol
 _atom_site_label
 _atom_site_symmetry_multiplicity
 _atom_site_fract_x
 _atom_site_fract_y
 _atom_site_fract_z
 _atom_site_occupancy
  Ca  Ca0  1  0.500000  0.500000  0.096377  1
  Ca  Ca1  1  0.500000  0.500000  0.298818  1
  Ca  Ca2  1  0.500000  0.500000  0.500000  1
  Ca  Ca3  1  0.500000  0.500000  0.701182  1
  Ca  Ca4  1  0.500000  0.500000  0.903623  1
  Cd  Cd5  1  0.000000  0.000000  0.200143  1
  Cd  Cd6  1  0.000000  0.000000  0.400715  1
  Cd  Cd7  1  0.000000  0.000000  0.599285  1
  Cd  Cd8  1  0.000000  0.000000  0.799857  1
  Ga  Ga9  1  0.000000  0.000000  0.000000  1
