# generated using pymatgen
data_YTh3(HgAu2)2
_symmetry_space_group_name_H-M   'P 1'
_cell_length_a   8.07593248
_cell_length_b   8.07593201
_cell_length_c   3.89957200
_cell_angle_alpha   90.00000000
_cell_angle_beta   90.00000000
_cell_angle_gamma   89.93088407
_symmetry_Int_Tables_number   1
_chemical_formula_structural   YTh3(HgAu2)2
_chemical_formula_sum   'Y1 Th3 Hg2 Au4'
_cell_volume   254.33255871
_cell_formula_units_Z   1
loop_
 _symmetry_equiv_pos_site_id
 _symmetry_equiv_pos_as_xyz
  1  'x, y, z'
loop_
 _atom_site_type_symbol
 _atom_site_label
 _atom_site_symmetry_multiplicity
 _atom_site_fract_x
 _atom_site_fract_y
 _atom_site_fract_z
 _atom_site_occupancy
  Y  Y0  1  0.824948  0.675052  0.500000  1
  Th  Th1  1  0.676528  0.172124  0.500000  1
  Th  Th2  1  0.327876  0.823472  0.500000  1
  Th  Th3  1  0.171501  0.328499  0.500000  1
  Hg  Hg4  1  0.503503  0.502022  0.000000  1
  Hg  Hg5  1  0.997978  0.996497  0.000000  1
  Au  Au6  1  0.123803  0.628413  0.000000  1
  Au  Au7  1  0.871587  0.376197  0.000000  1
  Au  Au8  1  0.629015  0.870985  0.000000  1
  Au  Au9  1  0.373260  0.126740  0.000000  1
