# generated using pymatgen
data_Nd16CdCo2Ni2Hg3
_symmetry_space_group_name_H-M   'P 1'
_cell_length_a   9.82903421
_cell_length_b   9.84745152
_cell_length_c   9.85763700
_cell_angle_alpha   59.96577549
_cell_angle_beta   59.90368680
_cell_angle_gamma   59.90922741
_symmetry_Int_Tables_number   1
_chemical_formula_structural   Nd16CdCo2Ni2Hg3
_chemical_formula_sum   'Nd16 Cd1 Co2 Ni2 Hg3'
_cell_volume   673.54231127
_cell_formula_units_Z   1
loop_
 _symmetry_equiv_pos_site_id
 _symmetry_equiv_pos_as_xyz
  1  'x, y, z'
loop_
 _atom_site_type_symbol
 _atom_site_label
 _atom_site_symmetry_multiplicity
 _atom_site_fract_x
 _atom_site_fract_y
 _atom_site_fract_z
 _atom_site_occupancy
  Nd  Nd0  1  0.596782  0.596618  0.600253  1
  Nd  Nd1  1  0.596782  0.596618  0.206348  1
  Nd  Nd2  1  0.595515  0.207371  0.598557  1
  Nd  Nd3  1  0.205038  0.596192  0.599385  1
  Nd  Nd4  1  0.063325  0.439294  0.441513  1
  Nd  Nd5  1  0.437763  0.064565  0.056908  1
  Nd  Nd6  1  0.437763  0.064565  0.440765  1
  Nd  Nd7  1  0.063325  0.439294  0.055869  1
  Nd  Nd8  1  0.438283  0.439079  0.061320  1
  Nd  Nd9  1  0.058362  0.058439  0.441600  1
  Nd  Nd10  1  0.188161  0.811030  0.813826  1
  Nd  Nd11  1  0.809959  0.188829  0.187614  1
  Nd  Nd12  1  0.809959  0.188829  0.813599  1
  Nd  Nd13  1  0.188161  0.811030  0.186984  1
  Nd  Nd14  1  0.810909  0.811993  0.188549  1
  Nd  Nd15  1  0.187316  0.187641  0.812521  1
  Cd  Cd16  1  0.513579  0.829153  0.828633  1
  Co  Co17  1  0.392157  0.392666  0.390778  1
  Co  Co18  1  0.392157  0.392666  0.824399  1
  Ni  Ni19  1  0.392613  0.824528  0.391429  1
  Ni  Ni20  1  0.824534  0.392958  0.391255  1
  Hg  Hg21  1  0.832220  0.833811  0.833554  1
  Hg  Hg22  1  0.832220  0.833811  0.500416  1
  Hg  Hg23  1  0.833122  0.499026  0.833926  1
