# generated using pymatgen
data_Sc8Cr3CoB24
_symmetry_space_group_name_H-M   'P 1'
_cell_length_a   3.35491100
_cell_length_b   8.86840831
_cell_length_c   11.16860463
_cell_angle_alpha   89.87491261
_cell_angle_beta   90.00000000
_cell_angle_gamma   90.00000000
_symmetry_Int_Tables_number   1
_chemical_formula_structural   Sc8Cr3CoB24
_chemical_formula_sum   'Sc8 Cr3 Co1 B24'
_cell_volume   332.29558078
_cell_formula_units_Z   1
loop_
 _symmetry_equiv_pos_site_id
 _symmetry_equiv_pos_as_xyz
  1  'x, y, z'
loop_
 _atom_site_type_symbol
 _atom_site_label
 _atom_site_symmetry_multiplicity
 _atom_site_fract_x
 _atom_site_fract_y
 _atom_site_fract_z
 _atom_site_occupancy
  Sc  Sc0  1  0.000000  0.818451  0.084414  1
  Sc  Sc1  1  0.000000  0.178767  0.912052  1
  Sc  Sc2  1  0.000000  0.323765  0.417021  1
  Sc  Sc3  1  0.000000  0.678223  0.586053  1
  Sc  Sc4  1  0.000000  0.442492  0.130255  1
  Sc  Sc5  1  0.000000  0.556082  0.870842  1
  Sc  Sc6  1  0.000000  0.943025  0.369826  1
  Sc  Sc7  1  0.000000  0.056883  0.629029  1
  Cr  Cr8  1  0.000000  0.860945  0.820525  1
  Cr  Cr9  1  0.000000  0.639497  0.318725  1
  Cr  Cr10  1  0.000000  0.360033  0.680595  1
  Co  Co11  1  0.000000  0.140021  0.180373  1
  B  B12  1  0.500000  0.054506  0.065816  1
  B  B13  1  0.500000  0.947083  0.935737  1
  B  B14  1  0.500000  0.553475  0.434598  1
  B  B15  1  0.500000  0.447800  0.565932  1
  B  B16  1  0.500000  0.249362  0.080063  1
  B  B17  1  0.500000  0.748168  0.920767  1
  B  B18  1  0.500000  0.751739  0.420067  1
  B  B19  1  0.500000  0.249226  0.579383  1
  B  B20  1  0.500000  0.292197  0.236296  1
  B  B21  1  0.500000  0.705957  0.764000  1
  B  B22  1  0.500000  0.795423  0.262078  1
  B  B23  1  0.500000  0.205627  0.736213  1
  B  B24  1  0.500000  0.131245  0.316939  1
  B  B25  1  0.500000  0.869969  0.683169  1
  B  B26  1  0.500000  0.630338  0.182290  1
  B  B27  1  0.500000  0.368802  0.817217  1
  B  B28  1  0.500000  0.479243  0.288192  1
  B  B29  1  0.500000  0.520207  0.712413  1
  B  B30  1  0.500000  0.983278  0.211408  1
  B  B31  1  0.500000  0.020443  0.788454  1
  B  B32  1  0.500000  0.100665  0.471671  1
  B  B33  1  0.500000  0.900602  0.526833  1
  B  B34  1  0.500000  0.598547  0.027561  1
  B  B35  1  0.500000  0.397913  0.973194  1
