# generated using pymatgen
data_MnAlInF6
_symmetry_space_group_name_H-M   'P 1'
_cell_length_a   7.24039100
_cell_length_b   7.35603300
_cell_length_c   10.06411000
_cell_angle_alpha   90.00000000
_cell_angle_beta   90.00000000
_cell_angle_gamma   90.00000000
_symmetry_Int_Tables_number   1
_chemical_formula_structural   MnAlInF6
_chemical_formula_sum   'Mn4 Al4 In4 F24'
_cell_volume   536.02008548
_cell_formula_units_Z   4
loop_
 _symmetry_equiv_pos_site_id
 _symmetry_equiv_pos_as_xyz
  1  'x, y, z'
loop_
 _atom_site_type_symbol
 _atom_site_label
 _atom_site_symmetry_multiplicity
 _atom_site_fract_x
 _atom_site_fract_y
 _atom_site_fract_z
 _atom_site_occupancy
  Mn  Mn0  1  0.750000  0.209527  0.735515  1
  Mn  Mn1  1  0.750000  0.709527  0.764485  1
  Mn  Mn2  1  0.250000  0.290473  0.235515  1
  Mn  Mn3  1  0.250000  0.790473  0.264485  1
  Al  Al4  1  0.000000  0.500000  0.500000  1
  Al  Al5  1  0.500000  0.500000  0.500000  1
  Al  Al6  1  0.500000  0.000000  0.000000  1
  Al  Al7  1  0.000000  0.000000  0.000000  1
  In  In8  1  0.250000  0.514387  0.889285  1
  In  In9  1  0.750000  0.985613  0.389285  1
  In  In10  1  0.750000  0.485613  0.110715  1
  In  In11  1  0.250000  0.014387  0.610715  1
  F  F12  1  0.550733  0.785629  0.916203  1
  F  F13  1  0.050733  0.214371  0.083797  1
  F  F14  1  0.949267  0.285629  0.583797  1
  F  F15  1  0.449267  0.714371  0.416203  1
  F  F16  1  0.449267  0.214371  0.083797  1
  F  F17  1  0.949267  0.785629  0.916203  1
  F  F18  1  0.050733  0.714371  0.416203  1
  F  F19  1  0.550733  0.285629  0.583797  1
  F  F20  1  0.992534  0.617661  0.658314  1
  F  F21  1  0.492534  0.382339  0.341686  1
  F  F22  1  0.507466  0.117661  0.841686  1
  F  F23  1  0.007466  0.882339  0.158314  1
  F  F24  1  0.750000  0.945585  0.644567  1
  F  F25  1  0.250000  0.054415  0.355433  1
  F  F26  1  0.750000  0.445585  0.855433  1
  F  F27  1  0.250000  0.554415  0.144567  1
  F  F28  1  0.750000  0.047435  0.022107  1
  F  F29  1  0.250000  0.952565  0.977893  1
  F  F30  1  0.750000  0.547435  0.477893  1
  F  F31  1  0.250000  0.452565  0.522107  1
  F  F32  1  0.992534  0.117661  0.841686  1
  F  F33  1  0.492534  0.882339  0.158314  1
  F  F34  1  0.507466  0.617661  0.658314  1
  F  F35  1  0.007466  0.382339  0.341686  1
