# generated using pymatgen
data_Dy(NbSe2)5
_symmetry_space_group_name_H-M   'P 1'
_cell_length_a   6.10432982
_cell_length_b   8.14228261
_cell_length_c   8.90786104
_cell_angle_alpha   114.01956734
_cell_angle_beta   96.73348779
_cell_angle_gamma   104.27655768
_symmetry_Int_Tables_number   1
_chemical_formula_structural   Dy(NbSe2)5
_chemical_formula_sum   'Dy1 Nb5 Se10'
_cell_volume   379.89093408
_cell_formula_units_Z   1
loop_
 _symmetry_equiv_pos_site_id
 _symmetry_equiv_pos_as_xyz
  1  'x, y, z'
loop_
 _atom_site_type_symbol
 _atom_site_label
 _atom_site_symmetry_multiplicity
 _atom_site_fract_x
 _atom_site_fract_y
 _atom_site_fract_z
 _atom_site_occupancy
  Dy  Dy0  1  0.667573  0.508027  0.993967  1
  Nb  Nb1  1  0.002587  0.996671  0.000766  1
  Nb  Nb2  1  0.599281  0.204805  0.201902  1
  Nb  Nb3  1  0.197692  0.399681  0.398749  1
  Nb  Nb4  1  0.798263  0.599524  0.602763  1
  Nb  Nb5  1  0.401414  0.795756  0.798428  1
  Se  Se6  1  0.236342  0.060114  0.294428  1
  Se  Se7  1  0.048273  0.655289  0.895386  1
  Se  Se8  1  0.834160  0.258416  0.492299  1
  Se  Se9  1  0.635393  0.868162  0.104276  1
  Se  Se10  1  0.424323  0.444941  0.684352  1
  Se  Se11  1  0.901483  0.549626  0.311790  1
  Se  Se12  1  0.699358  0.135977  0.902519  1
  Se  Se13  1  0.497714  0.740737  0.507706  1
  Se  Se14  1  0.289981  0.341526  0.104112  1
  Se  Se15  1  0.098965  0.938345  0.708156  1
