# generated using pymatgen
data_TmGaPRh4
_symmetry_space_group_name_H-M   'P 1'
_cell_length_a   4.18567600
_cell_length_b   8.98584400
_cell_length_c   11.37885100
_cell_angle_alpha   90.00000000
_cell_angle_beta   90.00000000
_cell_angle_gamma   90.00000000
_symmetry_Int_Tables_number   1
_chemical_formula_structural   TmGaPRh4
_chemical_formula_sum   'Tm4 Ga4 P4 Rh16'
_cell_volume   427.97942728
_cell_formula_units_Z   4
loop_
 _symmetry_equiv_pos_site_id
 _symmetry_equiv_pos_as_xyz
  1  'x, y, z'
loop_
 _atom_site_type_symbol
 _atom_site_label
 _atom_site_symmetry_multiplicity
 _atom_site_fract_x
 _atom_site_fract_y
 _atom_site_fract_z
 _atom_site_occupancy
  Tm  Tm0  1  0.250000  0.149306  0.823256  1
  Tm  Tm1  1  0.250000  0.350694  0.323256  1
  Tm  Tm2  1  0.750000  0.850694  0.176744  1
  Tm  Tm3  1  0.750000  0.649306  0.676744  1
  Ga  Ga4  1  0.250000  0.614380  0.057995  1
  Ga  Ga5  1  0.250000  0.885620  0.557995  1
  Ga  Ga6  1  0.750000  0.385620  0.942005  1
  Ga  Ga7  1  0.750000  0.114380  0.442005  1
  P  P8  1  0.250000  0.417102  0.644682  1
  P  P9  1  0.250000  0.082898  0.144682  1
  P  P10  1  0.750000  0.582898  0.355318  1
  P  P11  1  0.750000  0.917102  0.855318  1
  Rh  Rh12  1  0.250000  0.604693  0.507882  1
  Rh  Rh13  1  0.250000  0.895307  0.007882  1
  Rh  Rh14  1  0.750000  0.395307  0.492118  1
  Rh  Rh15  1  0.750000  0.104693  0.992118  1
  Rh  Rh16  1  0.250000  0.679208  0.278574  1
  Rh  Rh17  1  0.250000  0.820792  0.778574  1
  Rh  Rh18  1  0.750000  0.320792  0.721426  1
  Rh  Rh19  1  0.750000  0.179208  0.221426  1
  Rh  Rh20  1  0.250000  0.187672  0.565630  1
  Rh  Rh21  1  0.250000  0.312328  0.065630  1
  Rh  Rh22  1  0.750000  0.812328  0.434370  1
  Rh  Rh23  1  0.750000  0.687672  0.934370  1
  Rh  Rh24  1  0.250000  0.003367  0.338026  1
  Rh  Rh25  1  0.250000  0.496633  0.838026  1
  Rh  Rh26  1  0.750000  0.996633  0.661974  1
  Rh  Rh27  1  0.750000  0.503367  0.161974  1
