# generated using pymatgen
data_Nd4Y2OsI10
_symmetry_space_group_name_H-M   'P 1'
_cell_length_a   7.90245733
_cell_length_b   9.97280428
_cell_length_c   9.96218249
_cell_angle_alpha   107.30547308
_cell_angle_beta   96.23136479
_cell_angle_gamma   104.56131530
_symmetry_Int_Tables_number   1
_chemical_formula_structural   Nd4Y2OsI10
_chemical_formula_sum   'Nd4 Y2 Os1 I10'
_cell_volume   711.07729895
_cell_formula_units_Z   1
loop_
 _symmetry_equiv_pos_site_id
 _symmetry_equiv_pos_as_xyz
  1  'x, y, z'
loop_
 _atom_site_type_symbol
 _atom_site_label
 _atom_site_symmetry_multiplicity
 _atom_site_fract_x
 _atom_site_fract_y
 _atom_site_fract_z
 _atom_site_occupancy
  Nd  Nd0  1  0.116516  0.041825  0.759296  1
  Nd  Nd1  1  0.883484  0.958175  0.240704  1
  Nd  Nd2  1  0.967505  0.282053  0.084027  1
  Nd  Nd3  1  0.032495  0.717947  0.915973  1
  Y  Y4  1  0.351411  0.125837  0.167327  1
  Y  Y5  1  0.648589  0.874163  0.832673  1
  Os  Os6  1  0.000000  0.000000  0.000000  1
  I  I7  1  0.353912  0.443841  0.270950  1
  I  I8  1  0.646088  0.556159  0.729050  1
  I  I9  1  0.263260  0.088054  0.453693  1
  I  I10  1  0.736740  0.911946  0.546307  1
  I  I11  1  0.087590  0.369438  0.816826  1
  I  I12  1  0.912410  0.630562  0.183174  1
  I  I13  1  0.455282  0.821392  0.089058  1
  I  I14  1  0.544718  0.178608  0.910942  1
  I  I15  1  0.770566  0.255645  0.346352  1
  I  I16  1  0.229434  0.744355  0.653648  1
