# generated using pymatgen
data_LiTb15TmIn3Rh4
_symmetry_space_group_name_H-M   'P 1'
_cell_length_a   9.69859506
_cell_length_b   9.69859480
_cell_length_c   9.69382607
_cell_angle_alpha   59.87720841
_cell_angle_beta   59.87720641
_cell_angle_gamma   59.83102194
_symmetry_Int_Tables_number   1
_chemical_formula_structural   LiTb15TmIn3Rh4
_chemical_formula_sum   'Li1 Tb15 Tm1 In3 Rh4'
_cell_volume   642.73757375
_cell_formula_units_Z   1
loop_
 _symmetry_equiv_pos_site_id
 _symmetry_equiv_pos_as_xyz
  1  'x, y, z'
loop_
 _atom_site_type_symbol
 _atom_site_label
 _atom_site_symmetry_multiplicity
 _atom_site_fract_x
 _atom_site_fract_y
 _atom_site_fract_z
 _atom_site_occupancy
  Li  Li0  1  0.428088  0.428088  0.428336  1
  Tb  Tb1  1  0.808291  0.190505  0.809589  1
  Tb  Tb2  1  0.187442  0.187442  0.813478  1
  Tb  Tb3  1  0.650764  0.046906  0.650017  1
  Tb  Tb4  1  0.061911  0.061911  0.437668  1
  Tb  Tb5  1  0.437118  0.437118  0.062866  1
  Tb  Tb6  1  0.650874  0.650874  0.649094  1
  Tb  Tb7  1  0.813752  0.186281  0.187117  1
  Tb  Tb8  1  0.190505  0.808291  0.809589  1
  Tb  Tb9  1  0.046906  0.650764  0.650017  1
  Tb  Tb10  1  0.438820  0.060804  0.062045  1
  Tb  Tb11  1  0.437572  0.062437  0.435993  1
  Tb  Tb12  1  0.060804  0.438820  0.062045  1
  Tb  Tb13  1  0.650336  0.650336  0.048337  1
  Tb  Tb14  1  0.186281  0.813752  0.187117  1
  Tb  Tb15  1  0.062437  0.437572  0.435993  1
  Tm  Tm16  1  0.808376  0.808376  0.191286  1
  In  In17  1  0.417846  0.417846  0.745563  1
  In  In18  1  0.417944  0.745665  0.417805  1
  In  In19  1  0.745665  0.417944  0.417805  1
  Rh  Rh20  1  0.857642  0.427028  0.857176  1
  Rh  Rh21  1  0.856565  0.856565  0.858812  1
  Rh  Rh22  1  0.857034  0.857034  0.425074  1
  Rh  Rh23  1  0.427028  0.857642  0.857176  1
