# generated using pymatgen
data_LaTbPr2Nd2OsI10
_symmetry_space_group_name_H-M   'P 1'
_cell_length_a   8.00922937
_cell_length_b   10.12408098
_cell_length_c   9.96998442
_cell_angle_alpha   107.22138701
_cell_angle_beta   96.28937382
_cell_angle_gamma   105.33892603
_symmetry_Int_Tables_number   1
_chemical_formula_structural   LaTbPr2Nd2OsI10
_chemical_formula_sum   'La1 Tb1 Pr2 Nd2 Os1 I10'
_cell_volume   729.02457953
_cell_formula_units_Z   1
loop_
 _symmetry_equiv_pos_site_id
 _symmetry_equiv_pos_as_xyz
  1  'x, y, z'
loop_
 _atom_site_type_symbol
 _atom_site_label
 _atom_site_symmetry_multiplicity
 _atom_site_fract_x
 _atom_site_fract_y
 _atom_site_fract_z
 _atom_site_occupancy
  La  La0  1  0.615895  0.042510  0.271301  1
  Tb  Tb1  1  0.850270  0.127907  0.668721  1
  Pr  Pr2  1  0.139654  0.867463  0.324261  1
  Pr  Pr3  1  0.388499  0.959619  0.731166  1
  Nd  Nd4  1  0.471206  0.294419  0.591605  1
  Nd  Nd5  1  0.533900  0.707804  0.412849  1
  Os  Os6  1  0.504501  0.002297  0.494466  1
  I  I7  1  0.415010  0.632545  0.682383  1
  I  I8  1  0.585882  0.372930  0.323045  1
  I  I9  1  0.274589  0.254841  0.844769  1
  I  I10  1  0.709257  0.734666  0.147762  1
  I  I11  1  0.857294  0.446053  0.772130  1
  I  I12  1  0.149896  0.544630  0.230738  1
  I  I13  1  0.046562  0.183117  0.417200  1
  I  I14  1  0.240192  0.914779  0.040102  1
  I  I15  1  0.762072  0.088143  0.951905  1
  I  I16  1  0.955323  0.826274  0.595598  1
