# generated using pymatgen
data_Sc4Fe4Co16As11P
_symmetry_space_group_name_H-M   'P 1'
_cell_length_a   3.71514900
_cell_length_b   10.55174185
_cell_length_c   12.06479329
_cell_angle_alpha   90.08447407
_cell_angle_beta   90.00000000
_cell_angle_gamma   90.00000000
_symmetry_Int_Tables_number   1
_chemical_formula_structural   Sc4Fe4Co16As11P
_chemical_formula_sum   'Sc4 Fe4 Co16 As11 P1'
_cell_volume   472.95498521
_cell_formula_units_Z   1
loop_
 _symmetry_equiv_pos_site_id
 _symmetry_equiv_pos_as_xyz
  1  'x, y, z'
loop_
 _atom_site_type_symbol
 _atom_site_label
 _atom_site_symmetry_multiplicity
 _atom_site_fract_x
 _atom_site_fract_y
 _atom_site_fract_z
 _atom_site_occupancy
  Sc  Sc0  1  0.250000  0.576780  0.702707  1
  Sc  Sc1  1  0.250000  0.930007  0.197562  1
  Sc  Sc2  1  0.750000  0.422812  0.297564  1
  Sc  Sc3  1  0.750000  0.077238  0.798208  1
  Fe  Fe4  1  0.250000  0.709235  0.989626  1
  Fe  Fe5  1  0.250000  0.791936  0.489010  1
  Fe  Fe6  1  0.750000  0.285136  0.015386  1
  Fe  Fe7  1  0.750000  0.208334  0.509051  1
  Co  Co8  1  0.250000  0.406541  0.484893  1
  Co  Co9  1  0.250000  0.092770  0.991998  1
  Co  Co10  1  0.750000  0.592149  0.515267  1
  Co  Co11  1  0.750000  0.915157  0.018525  1
  Co  Co12  1  0.250000  0.211111  0.173476  1
  Co  Co13  1  0.250000  0.283175  0.677940  1
  Co  Co14  1  0.750000  0.784867  0.824466  1
  Co  Co15  1  0.750000  0.715578  0.322951  1
  Co  Co16  1  0.250000  0.883998  0.698611  1
  Co  Co17  1  0.250000  0.616572  0.197766  1
  Co  Co18  1  0.750000  0.114557  0.294439  1
  Co  Co19  1  0.750000  0.381966  0.803349  1
  Co  Co20  1  0.250000  0.465712  0.932953  1
  Co  Co21  1  0.250000  0.034083  0.430026  1
  Co  Co22  1  0.750000  0.533225  0.068432  1
  Co  Co23  1  0.750000  0.966205  0.566434  1
  As  As24  1  0.250000  0.415049  0.118294  1
  As  As25  1  0.250000  0.083523  0.616783  1
  As  As26  1  0.750000  0.583347  0.882660  1
  As  As27  1  0.750000  0.916658  0.380112  1
  As  As28  1  0.250000  0.261576  0.868934  1
  As  As29  1  0.250000  0.236386  0.364574  1
  As  As30  1  0.750000  0.738343  0.132842  1
  As  As31  1  0.750000  0.763331  0.633610  1
  As  As32  1  0.250000  0.598254  0.390269  1
  As  As33  1  0.250000  0.903425  0.891900  1
  As  As34  1  0.750000  0.400525  0.610372  1
  P  P35  1  0.750000  0.100442  0.109012  1
