# generated using pymatgen
data_La10Ir2OsPt3
_symmetry_space_group_name_H-M   'P 1'
_cell_length_a   11.53660170
_cell_length_b   11.57998300
_cell_length_c   6.66052137
_cell_angle_alpha   90.00000000
_cell_angle_beta   90.34621530
_cell_angle_gamma   90.00000000
_symmetry_Int_Tables_number   1
_chemical_formula_structural   La10Ir2OsPt3
_chemical_formula_sum   'La20 Ir4 Os2 Pt6'
_cell_volume   889.78712692
_cell_formula_units_Z   2
loop_
 _symmetry_equiv_pos_site_id
 _symmetry_equiv_pos_as_xyz
  1  'x, y, z'
loop_
 _atom_site_type_symbol
 _atom_site_label
 _atom_site_symmetry_multiplicity
 _atom_site_fract_x
 _atom_site_fract_y
 _atom_site_fract_z
 _atom_site_occupancy
  La  La0  1  0.299309  0.090883  0.380649  1
  La  La1  1  0.299309  0.909117  0.880649  1
  La  La2  1  0.699398  0.087380  0.877654  1
  La  La3  1  0.699398  0.912620  0.377654  1
  La  La4  1  0.584973  0.795814  0.880190  1
  La  La5  1  0.584973  0.204186  0.380190  1
  La  La6  1  0.408804  0.797115  0.386309  1
  La  La7  1  0.408804  0.202885  0.886309  1
  La  La8  1  0.209451  0.410483  0.613596  1
  La  La9  1  0.209451  0.589517  0.113596  1
  La  La10  1  0.795984  0.409187  0.120504  1
  La  La11  1  0.795984  0.590813  0.620504  1
  La  La12  1  0.912009  0.704954  0.121964  1
  La  La13  1  0.912009  0.295046  0.621964  1
  La  La14  1  0.097273  0.702699  0.622177  1
  La  La15  1  0.097273  0.297301  0.122177  1
  La  La16  1  0.999905  0.998413  0.496538  1
  La  La17  1  0.999905  0.001587  0.996538  1
  La  La18  1  0.495082  0.499309  0.994828  1
  La  La19  1  0.495082  0.500691  0.494828  1
  Ir  Ir20  1  0.344670  0.348519  0.248094  1
  Ir  Ir21  1  0.344670  0.651481  0.748094  1
  Ir  Ir22  1  0.998345  0.500281  0.883069  1
  Ir  Ir23  1  0.998345  0.499719  0.383069  1
  Os  Os24  1  0.500193  0.999311  0.127941  1
  Os  Os25  1  0.500193  0.000689  0.627941  1
  Pt  Pt26  1  0.846984  0.155131  0.249585  1
  Pt  Pt27  1  0.846984  0.844869  0.749585  1
  Pt  Pt28  1  0.151470  0.155959  0.748465  1
  Pt  Pt29  1  0.151470  0.844041  0.248465  1
  Pt  Pt30  1  0.656150  0.348358  0.748433  1
  Pt  Pt31  1  0.656150  0.651642  0.248433  1
