# generated using pymatgen
data_Lu5Sc(WO6)3
_symmetry_space_group_name_H-M   'P 1'
_cell_length_a   8.99522753
_cell_length_b   8.99522688
_cell_length_c   5.01973240
_cell_angle_alpha   90.32100580
_cell_angle_beta   89.67899665
_cell_angle_gamma   119.98684572
_symmetry_Int_Tables_number   1
_chemical_formula_structural   Lu5Sc(WO6)3
_chemical_formula_sum   'Lu5 Sc1 W3 O18'
_cell_volume   351.79035994
_cell_formula_units_Z   1
loop_
 _symmetry_equiv_pos_site_id
 _symmetry_equiv_pos_as_xyz
  1  'x, y, z'
loop_
 _atom_site_type_symbol
 _atom_site_label
 _atom_site_symmetry_multiplicity
 _atom_site_fract_x
 _atom_site_fract_y
 _atom_site_fract_z
 _atom_site_occupancy
  Lu  Lu0  1  0.627664  0.998756  0.998720  1
  Lu  Lu1  1  0.372218  0.372217  0.000000  1
  Lu  Lu2  1  0.998756  0.627664  0.001280  1
  Lu  Lu3  1  0.289824  0.000774  0.499601  1
  Lu  Lu4  1  0.000774  0.289823  0.500401  1
  Sc  Sc5  1  0.702878  0.702878  0.500001  1
  W  W6  1  0.996422  0.996422  0.000000  1
  W  W7  1  0.667630  0.336049  0.501013  1
  W  W8  1  0.336049  0.667630  0.498986  1
  O  O9  1  0.877039  0.087205  0.207765  1
  O  O10  1  0.202169  0.120624  0.218663  1
  O  O11  1  0.908273  0.793534  0.225964  1
  O  O12  1  0.237375  0.460342  0.278523  1
  O  O13  1  0.226340  0.763710  0.277151  1
  O  O14  1  0.545837  0.775423  0.282628  1
  O  O15  1  0.543648  0.130365  0.279883  1
  O  O16  1  0.873138  0.416004  0.283500  1
  O  O17  1  0.586215  0.460548  0.283597  1
  O  O18  1  0.130365  0.543648  0.720116  1
  O  O19  1  0.460547  0.586215  0.716402  1
  O  O20  1  0.416004  0.873139  0.716499  1
  O  O21  1  0.763711  0.226341  0.722848  1
  O  O22  1  0.460341  0.237374  0.721476  1
  O  O23  1  0.775423  0.545838  0.717371  1
  O  O24  1  0.120623  0.202170  0.781337  1
  O  O25  1  0.087206  0.877040  0.792235  1
  O  O26  1  0.793534  0.908274  0.774036  1
