# generated using pymatgen
data_Sr10Si4SnGe
_symmetry_space_group_name_H-M   'P 1'
_cell_length_a   9.90732997
_cell_length_b   9.90732998
_cell_length_c   9.90733034
_cell_angle_alpha   131.41103885
_cell_angle_beta   131.41103984
_cell_angle_gamma   71.16083279
_symmetry_Int_Tables_number   1
_chemical_formula_structural   Sr10Si4SnGe
_chemical_formula_sum   'Sr10 Si4 Sn1 Ge1'
_cell_volume   535.50697621
_cell_formula_units_Z   1
loop_
 _symmetry_equiv_pos_site_id
 _symmetry_equiv_pos_as_xyz
  1  'x, y, z'
loop_
 _atom_site_type_symbol
 _atom_site_label
 _atom_site_symmetry_multiplicity
 _atom_site_fract_x
 _atom_site_fract_y
 _atom_site_fract_z
 _atom_site_occupancy
  Sr  Sr0  1  0.047431  0.188980  0.513502  1
  Sr  Sr1  1  0.533929  0.047431  0.858451  1
  Sr  Sr2  1  0.188980  0.675478  0.141549  1
  Sr  Sr3  1  0.452569  0.966071  0.141549  1
  Sr  Sr4  1  0.675478  0.533929  0.486498  1
  Sr  Sr5  1  0.966071  0.824522  0.513502  1
  Sr  Sr6  1  0.311020  0.452569  0.486498  1
  Sr  Sr7  1  0.824522  0.311020  0.858451  1
  Sr  Sr8  1  0.509720  0.509720  0.000000  1
  Sr  Sr9  1  0.990280  0.990280  0.000000  1
  Si  Si10  1  0.107854  0.607854  0.715708  1
  Si  Si11  1  0.607854  0.892146  0.500000  1
  Si  Si12  1  0.392146  0.107854  0.500000  1
  Si  Si13  1  0.892146  0.392146  0.284292  1
  Sn  Sn14  1  0.750000  0.750000  0.000000  1
  Ge  Ge15  1  0.250000  0.250000  0.000000  1
