# generated using pymatgen
data_CeSm4Mn2O12
_symmetry_space_group_name_H-M   'P 1'
_cell_length_a   6.93856230
_cell_length_b   6.93856296
_cell_length_c   7.37820262
_cell_angle_alpha   74.56004405
_cell_angle_beta   74.56004379
_cell_angle_gamma   50.22129833
_symmetry_Int_Tables_number   1
_chemical_formula_structural   CeSm4Mn2O12
_chemical_formula_sum   'Ce1 Sm4 Mn2 O12'
_cell_volume   260.92329440
_cell_formula_units_Z   1
loop_
 _symmetry_equiv_pos_site_id
 _symmetry_equiv_pos_as_xyz
  1  'x, y, z'
loop_
 _atom_site_type_symbol
 _atom_site_label
 _atom_site_symmetry_multiplicity
 _atom_site_fract_x
 _atom_site_fract_y
 _atom_site_fract_z
 _atom_site_occupancy
  Ce  Ce0  1  0.307450  0.307450  0.353656  1
  Sm  Sm1  1  0.692250  0.692250  0.647511  1
  Sm  Sm2  1  0.694572  0.694572  0.159009  1
  Sm  Sm3  1  0.304455  0.304455  0.841839  1
  Sm  Sm4  1  0.000450  0.000450  0.497992  1
  Mn  Mn5  1  0.757866  0.243424  0.000049  1
  Mn  Mn6  1  0.243424  0.757866  0.000049  1
  O  O7  1  0.100067  0.591785  0.568854  1
  O  O8  1  0.000201  0.000201  0.175037  1
  O  O9  1  0.399325  0.912908  0.422737  1
  O  O10  1  0.499897  0.499897  0.178095  1
  O  O11  1  0.102168  0.576796  0.086089  1
  O  O12  1  0.912908  0.399325  0.422737  1
  O  O13  1  0.998018  0.998018  0.826124  1
  O  O14  1  0.591785  0.100066  0.568854  1
  O  O15  1  0.498870  0.498870  0.825288  1
  O  O16  1  0.576796  0.102168  0.086089  1
  O  O17  1  0.419262  0.900237  0.919995  1
  O  O18  1  0.900237  0.419262  0.919995  1
