# generated using pymatgen
data_YSc2Fe8Co
_symmetry_space_group_name_H-M   'P 1'
_cell_length_a   5.00253900
_cell_length_b   5.00253974
_cell_length_c   15.90410300
_cell_angle_alpha   90.00000000
_cell_angle_beta   90.00000000
_cell_angle_gamma   119.99998850
_symmetry_Int_Tables_number   1
_chemical_formula_structural   YSc2Fe8Co
_chemical_formula_sum   'Y2 Sc4 Fe16 Co2'
_cell_volume   344.68381579
_cell_formula_units_Z   2
loop_
 _symmetry_equiv_pos_site_id
 _symmetry_equiv_pos_as_xyz
  1  'x, y, z'
loop_
 _atom_site_type_symbol
 _atom_site_label
 _atom_site_symmetry_multiplicity
 _atom_site_fract_x
 _atom_site_fract_y
 _atom_site_fract_z
 _atom_site_occupancy
  Y  Y0  1  0.333333  0.666667  0.750000  1
  Y  Y1  1  0.666667  0.333333  0.250000  1
  Sc  Sc2  1  0.333333  0.666667  0.964917  1
  Sc  Sc3  1  0.666667  0.333333  0.035083  1
  Sc  Sc4  1  0.666667  0.333333  0.464917  1
  Sc  Sc5  1  0.333333  0.666667  0.535083  1
  Fe  Fe6  1  0.167853  0.832147  0.376839  1
  Fe  Fe7  1  0.167853  0.335705  0.376839  1
  Fe  Fe8  1  0.664295  0.832147  0.376839  1
  Fe  Fe9  1  0.832147  0.167853  0.623161  1
  Fe  Fe10  1  0.832147  0.664295  0.623161  1
  Fe  Fe11  1  0.335705  0.167853  0.623161  1
  Fe  Fe12  1  0.832147  0.167853  0.876839  1
  Fe  Fe13  1  0.832147  0.664295  0.876839  1
  Fe  Fe14  1  0.335705  0.167853  0.876839  1
  Fe  Fe15  1  0.167853  0.832147  0.123161  1
  Fe  Fe16  1  0.167853  0.335705  0.123161  1
  Fe  Fe17  1  0.664295  0.832147  0.123161  1
  Fe  Fe18  1  0.333333  0.666667  0.250000  1
  Fe  Fe19  1  0.666667  0.333333  0.750000  1
  Fe  Fe20  1  0.000000  0.000000  0.250000  1
  Fe  Fe21  1  0.000000  0.000000  0.750000  1
  Co  Co22  1  0.000000  0.000000  0.500000  1
  Co  Co23  1  0.000000  0.000000  0.000000  1
