# generated using pymatgen
data_Ta3(MnAl2)2
_symmetry_space_group_name_H-M   'P 1'
_cell_length_a   8.68681215
_cell_length_b   8.76891233
_cell_length_c   8.18025900
_cell_angle_alpha   90.00000000
_cell_angle_beta   90.00000000
_cell_angle_gamma   120.69473547
_symmetry_Int_Tables_number   1
_chemical_formula_structural   Ta3(MnAl2)2
_chemical_formula_sum   'Ta12 Mn8 Al16'
_cell_volume   535.82225354
_cell_formula_units_Z   4
loop_
 _symmetry_equiv_pos_site_id
 _symmetry_equiv_pos_as_xyz
  1  'x, y, z'
loop_
 _atom_site_type_symbol
 _atom_site_label
 _atom_site_symmetry_multiplicity
 _atom_site_fract_x
 _atom_site_fract_y
 _atom_site_fract_z
 _atom_site_occupancy
  Ta  Ta0  1  0.332120  0.003491  0.060165  1
  Ta  Ta1  1  0.667880  0.996509  0.939835  1
  Ta  Ta2  1  0.000769  0.328327  0.057366  1
  Ta  Ta3  1  0.667880  0.996509  0.560165  1
  Ta  Ta4  1  0.000769  0.328327  0.442634  1
  Ta  Ta5  1  0.999231  0.671673  0.942634  1
  Ta  Ta6  1  0.332120  0.003491  0.439835  1
  Ta  Ta7  1  0.999231  0.671673  0.557366  1
  Ta  Ta8  1  0.668018  0.672746  0.062390  1
  Ta  Ta9  1  0.331982  0.327254  0.937610  1
  Ta  Ta10  1  0.331982  0.327254  0.562390  1
  Ta  Ta11  1  0.668018  0.672746  0.437610  1
  Mn  Mn12  1  0.175644  0.502862  0.750000  1
  Mn  Mn13  1  0.824356  0.497138  0.250000  1
  Mn  Mn14  1  0.484387  0.652207  0.750000  1
  Mn  Mn15  1  0.498277  0.166550  0.750000  1
  Mn  Mn16  1  0.515613  0.347793  0.250000  1
  Mn  Mn17  1  0.501723  0.833450  0.250000  1
  Mn  Mn18  1  0.000000  0.000000  0.500000  1
  Mn  Mn19  1  0.000000  0.000000  0.000000  1
  Al  Al20  1  0.341243  0.843338  0.750000  1
  Al  Al21  1  0.653667  0.501561  0.750000  1
  Al  Al22  1  0.658757  0.156662  0.250000  1
  Al  Al23  1  0.346333  0.498439  0.250000  1
  Al  Al24  1  0.843434  0.339502  0.750000  1
  Al  Al25  1  0.156566  0.660498  0.250000  1
  Al  Al26  1  0.338074  0.670042  0.500149  1
  Al  Al27  1  0.661926  0.329958  0.499851  1
  Al  Al28  1  0.661926  0.329958  0.000149  1
  Al  Al29  1  0.338074  0.670042  0.999851  1
  Al  Al30  1  0.171749  0.002713  0.750000  1
  Al  Al31  1  0.828251  0.997287  0.250000  1
  Al  Al32  1  0.008411  0.176352  0.750000  1
  Al  Al33  1  0.991589  0.823648  0.250000  1
  Al  Al34  1  0.820228  0.832191  0.750000  1
  Al  Al35  1  0.179772  0.167809  0.250000  1
