# generated using pymatgen
data_Ta5Bi2WO18
_symmetry_space_group_name_H-M   'P 1'
_cell_length_a   7.60890745
_cell_length_b   5.44118143
_cell_length_c   8.36167437
_cell_angle_alpha   87.46976144
_cell_angle_beta   90.23634667
_cell_angle_gamma   89.86700753
_symmetry_Int_Tables_number   1
_chemical_formula_structural   Ta5Bi2WO18
_chemical_formula_sum   'Ta5 Bi2 W1 O18'
_cell_volume   345.84387196
_cell_formula_units_Z   1
loop_
 _symmetry_equiv_pos_site_id
 _symmetry_equiv_pos_as_xyz
  1  'x, y, z'
loop_
 _atom_site_type_symbol
 _atom_site_label
 _atom_site_symmetry_multiplicity
 _atom_site_fract_x
 _atom_site_fract_y
 _atom_site_fract_z
 _atom_site_occupancy
  Ta  Ta0  1  0.500000  0.000000  0.000000  1
  Ta  Ta1  1  0.007203  0.528782  0.699351  1
  Ta  Ta2  1  0.495116  0.526668  0.696839  1
  Ta  Ta3  1  0.992797  0.471218  0.300649  1
  Ta  Ta4  1  0.504884  0.473332  0.303161  1
  Bi  Bi5  1  0.245058  0.960339  0.436414  1
  Bi  Bi6  1  0.754942  0.039661  0.563586  1
  W  W7  1  0.000000  0.000000  0.000000  1
  O  O8  1  0.246004  0.919785  0.982697  1
  O  O9  1  0.939616  0.845487  0.785005  1
  O  O10  1  0.555171  0.839538  0.792557  1
  O  O11  1  0.963311  0.735197  0.468841  1
  O  O12  1  0.539090  0.732378  0.469715  1
  O  O13  1  0.250282  0.648560  0.661616  1
  O  O14  1  0.950672  0.679875  0.124741  1
  O  O15  1  0.545360  0.685809  0.125029  1
  O  O16  1  0.249213  0.565934  0.313116  1
  O  O17  1  0.750787  0.434066  0.686884  1
  O  O18  1  0.049328  0.320125  0.875259  1
  O  O19  1  0.454640  0.314191  0.874971  1
  O  O20  1  0.749718  0.351440  0.338384  1
  O  O21  1  0.036689  0.264803  0.531159  1
  O  O22  1  0.460910  0.267622  0.530285  1
  O  O23  1  0.060384  0.154513  0.214995  1
  O  O24  1  0.444829  0.160462  0.207443  1
  O  O25  1  0.753996  0.080215  0.017303  1
