# generated using pymatgen
data_K4(CO3)3
_symmetry_space_group_name_H-M   'P 1'
_cell_length_a   5.66178400
_cell_length_b   7.46591112
_cell_length_c   7.44620242
_cell_angle_alpha   115.33559438
_cell_angle_beta   90.00000000
_cell_angle_gamma   90.00000000
_symmetry_Int_Tables_number   1
_chemical_formula_structural   K4(CO3)3
_chemical_formula_sum   'K4 C3 O9'
_cell_volume   284.47977792
_cell_formula_units_Z   1
loop_
 _symmetry_equiv_pos_site_id
 _symmetry_equiv_pos_as_xyz
  1  'x, y, z'
loop_
 _atom_site_type_symbol
 _atom_site_label
 _atom_site_symmetry_multiplicity
 _atom_site_fract_x
 _atom_site_fract_y
 _atom_site_fract_z
 _atom_site_occupancy
  K  K0  1  0.499999  0.800611  0.248584  1
  K  K1  1  0.499999  0.248142  0.800258  1
  K  K2  1  0.000000  0.028901  0.028857  1
  K  K3  1  0.499999  0.383480  0.383619  1
  C  C4  1  0.000000  0.525458  0.127830  1
  C  C5  1  0.000000  0.127875  0.525388  1
  C  C6  1  0.499999  0.786314  0.786375  1
  O  O7  1  0.000000  0.693538  0.119521  1
  O  O8  1  0.197486  0.440921  0.133070  1
  O  O9  1  0.802512  0.440921  0.133070  1
  O  O10  1  0.197412  0.133054  0.440679  1
  O  O11  1  0.802586  0.133054  0.440679  1
  O  O12  1  0.499999  0.794558  0.617520  1
  O  O13  1  0.000000  0.119634  0.693974  1
  O  O14  1  0.499999  0.617977  0.794668  1
  O  O15  1  0.499999  0.949468  0.949813  1
