# generated using pymatgen
data_NbRh(SeO3)4
_symmetry_space_group_name_H-M   'P 1'
_cell_length_a   8.27003300
_cell_length_b   8.25446289
_cell_length_c   8.35357318
_cell_angle_alpha   88.86289460
_cell_angle_beta   90.00000000
_cell_angle_gamma   90.00000000
_symmetry_Int_Tables_number   1
_chemical_formula_structural   NbRh(SeO3)4
_chemical_formula_sum   'Nb2 Rh2 Se8 O24'
_cell_volume   570.14170384
_cell_formula_units_Z   2
loop_
 _symmetry_equiv_pos_site_id
 _symmetry_equiv_pos_as_xyz
  1  'x, y, z'
loop_
 _atom_site_type_symbol
 _atom_site_label
 _atom_site_symmetry_multiplicity
 _atom_site_fract_x
 _atom_site_fract_y
 _atom_site_fract_z
 _atom_site_occupancy
  Nb  Nb0  1  0.000000  0.000000  0.500000  1
  Nb  Nb1  1  0.500000  0.000000  0.000000  1
  Rh  Rh2  1  0.000000  0.500000  0.000000  1
  Rh  Rh3  1  0.500000  0.500000  0.500000  1
  Se  Se4  1  0.316744  0.645919  0.181019  1
  Se  Se5  1  0.816744  0.354081  0.318981  1
  Se  Se6  1  0.664499  0.803094  0.664439  1
  Se  Se7  1  0.164499  0.196906  0.835561  1
  Se  Se8  1  0.683256  0.354081  0.818981  1
  Se  Se9  1  0.183256  0.645919  0.681019  1
  Se  Se10  1  0.335501  0.196906  0.335561  1
  Se  Se11  1  0.835501  0.803094  0.164439  1
  O  O12  1  0.245228  0.522832  0.032157  1
  O  O13  1  0.745228  0.477168  0.467843  1
  O  O14  1  0.766597  0.954832  0.554408  1
  O  O15  1  0.266597  0.045168  0.945592  1
  O  O16  1  0.541065  0.933359  0.772255  1
  O  O17  1  0.465285  0.517916  0.257110  1
  O  O18  1  0.965285  0.482084  0.242890  1
  O  O19  1  0.041065  0.066641  0.727745  1
  O  O20  1  0.943422  0.226970  0.439535  1
  O  O21  1  0.528665  0.745552  0.521312  1
  O  O22  1  0.443422  0.773030  0.060465  1
  O  O23  1  0.028665  0.254448  0.978688  1
  O  O24  1  0.754772  0.477168  0.967843  1
  O  O25  1  0.254772  0.522832  0.532157  1
  O  O26  1  0.233403  0.045168  0.445592  1
  O  O27  1  0.733403  0.954832  0.054408  1
  O  O28  1  0.458935  0.066641  0.227745  1
  O  O29  1  0.534715  0.482084  0.742890  1
  O  O30  1  0.034715  0.517916  0.757110  1
  O  O31  1  0.958935  0.933359  0.272255  1
  O  O32  1  0.056578  0.773030  0.560465  1
  O  O33  1  0.471335  0.254448  0.478688  1
  O  O34  1  0.556578  0.226970  0.939535  1
  O  O35  1  0.971335  0.745552  0.021312  1
