# generated using pymatgen
data_Sc10In8PtRh3
_symmetry_space_group_name_H-M   'P 1'
_cell_length_a   17.64664364
_cell_length_b   7.73489758
_cell_length_c   3.37066700
_cell_angle_alpha   90.00000000
_cell_angle_beta   90.00000000
_cell_angle_gamma   89.92656589
_symmetry_Int_Tables_number   1
_chemical_formula_structural   Sc10In8PtRh3
_chemical_formula_sum   'Sc10 In8 Pt1 Rh3'
_cell_volume   460.07875093
_cell_formula_units_Z   1
loop_
 _symmetry_equiv_pos_site_id
 _symmetry_equiv_pos_as_xyz
  1  'x, y, z'
loop_
 _atom_site_type_symbol
 _atom_site_label
 _atom_site_symmetry_multiplicity
 _atom_site_fract_x
 _atom_site_fract_y
 _atom_site_fract_z
 _atom_site_occupancy
  Sc  Sc0  1  0.999893  0.000413  0.000000  1
  Sc  Sc1  1  0.416490  0.125862  0.000000  1
  Sc  Sc2  1  0.721147  0.245418  0.000000  1
  Sc  Sc3  1  0.220330  0.257905  0.000000  1
  Sc  Sc4  1  0.914385  0.375602  0.000000  1
  Sc  Sc5  1  0.499939  0.499691  0.000000  1
  Sc  Sc6  1  0.085214  0.624022  0.000000  1
  Sc  Sc7  1  0.778897  0.745337  0.000000  1
  Sc  Sc8  1  0.278240  0.749798  0.000000  1
  Sc  Sc9  1  0.585758  0.875828  0.000000  1
  In  In10  1  0.850755  0.068571  0.500001  1
  In  In11  1  0.566517  0.203419  0.500001  1
  In  In12  1  0.066637  0.296860  0.500001  1
  In  In13  1  0.350842  0.432326  0.500001  1
  In  In14  1  0.649260  0.569028  0.500001  1
  In  In15  1  0.933748  0.703410  0.500001  1
  In  In16  1  0.434306  0.795785  0.500001  1
  In  In17  1  0.148233  0.928715  0.500001  1
  Pt  Pt18  1  0.305313  0.038154  0.500001  1
  Rh  Rh19  1  0.805837  0.462973  0.500001  1
  Rh  Rh20  1  0.194015  0.538218  0.500001  1
  Rh  Rh21  1  0.694245  0.962665  0.500001  1
