# generated using pymatgen
data_Nb6Al4FeCoC2
_symmetry_space_group_name_H-M   'P 1'
_cell_length_a   8.25804050
_cell_length_b   8.24750364
_cell_length_c   8.24750472
_cell_angle_alpha   59.93530369
_cell_angle_beta   59.95773112
_cell_angle_gamma   59.95772858
_symmetry_Int_Tables_number   1
_chemical_formula_structural   Nb6Al4FeCoC2
_chemical_formula_sum   'Nb12 Al8 Fe2 Co2 C4'
_cell_volume   396.74987915
_cell_formula_units_Z   2
loop_
 _symmetry_equiv_pos_site_id
 _symmetry_equiv_pos_as_xyz
  1  'x, y, z'
loop_
 _atom_site_type_symbol
 _atom_site_label
 _atom_site_symmetry_multiplicity
 _atom_site_fract_x
 _atom_site_fract_y
 _atom_site_fract_z
 _atom_site_occupancy
  Nb  Nb0  1  0.688374  0.306775  0.696678  1
  Nb  Nb1  1  0.939890  0.560110  0.560110  1
  Nb  Nb2  1  0.554930  0.945070  0.945070  1
  Nb  Nb3  1  0.941827  0.553322  0.943225  1
  Nb  Nb4  1  0.561626  0.553322  0.943225  1
  Nb  Nb5  1  0.941827  0.943225  0.553322  1
  Nb  Nb6  1  0.688374  0.696678  0.306775  1
  Nb  Nb7  1  0.310110  0.689890  0.689890  1
  Nb  Nb8  1  0.695070  0.304930  0.304930  1
  Nb  Nb9  1  0.308173  0.306775  0.696678  1
  Nb  Nb10  1  0.561626  0.943225  0.553322  1
  Nb  Nb11  1  0.308173  0.696678  0.306775  1
  Al  Al12  1  0.331016  0.333354  0.333354  1
  Al  Al13  1  0.247722  0.916646  0.916646  1
  Al  Al14  1  0.919455  0.244182  0.916905  1
  Al  Al15  1  0.919455  0.916905  0.244182  1
  Al  Al16  1  0.330545  0.005818  0.333095  1
  Al  Al17  1  0.330545  0.333095  0.005818  1
  Al  Al18  1  0.002278  0.333354  0.333354  1
  Al  Al19  1  0.918984  0.916646  0.916646  1
  Fe  Fe20  1  0.125000  0.125000  0.125000  1
  Fe  Fe21  1  0.625000  0.125000  0.125000  1
  Co  Co22  1  0.125000  0.625000  0.125000  1
  Co  Co23  1  0.125000  0.125000  0.625000  1
  C  C24  1  0.625000  0.625000  0.625000  1
  C  C25  1  0.125000  0.625000  0.625000  1
  C  C26  1  0.625000  0.125000  0.625000  1
  C  C27  1  0.625000  0.625000  0.125000  1
