# generated using pymatgen
data_Tb2NdEr2(In2Pd)2
_symmetry_space_group_name_H-M   'P 1'
_cell_length_a   3.63771800
_cell_length_b   8.20607600
_cell_length_c   18.37268400
_cell_angle_alpha   90.00000000
_cell_angle_beta   90.00000000
_cell_angle_gamma   90.00000000
_symmetry_Int_Tables_number   1
_chemical_formula_structural   Tb2NdEr2(In2Pd)2
_chemical_formula_sum   'Tb4 Nd2 Er4 In8 Pd4'
_cell_volume   548.45016231
_cell_formula_units_Z   2
loop_
 _symmetry_equiv_pos_site_id
 _symmetry_equiv_pos_as_xyz
  1  'x, y, z'
loop_
 _atom_site_type_symbol
 _atom_site_label
 _atom_site_symmetry_multiplicity
 _atom_site_fract_x
 _atom_site_fract_y
 _atom_site_fract_z
 _atom_site_occupancy
  Tb  Tb0  1  0.000000  0.738285  0.281362  1
  Tb  Tb1  1  0.000000  0.261715  0.718638  1
  Tb  Tb2  1  0.000000  0.761715  0.781362  1
  Tb  Tb3  1  0.000000  0.238285  0.218638  1
  Nd  Nd4  1  0.000000  0.500000  0.500000  1
  Nd  Nd5  1  0.000000  0.000000  0.000000  1
  Er  Er6  1  0.000000  0.619479  0.084176  1
  Er  Er7  1  0.000000  0.380521  0.915824  1
  Er  Er8  1  0.000000  0.880521  0.584176  1
  Er  Er9  1  0.000000  0.119479  0.415824  1
  In  In10  1  0.500000  0.700920  0.931618  1
  In  In11  1  0.500000  0.299080  0.068382  1
  In  In12  1  0.500000  0.799080  0.431618  1
  In  In13  1  0.500000  0.200920  0.568382  1
  In  In14  1  0.500000  0.583398  0.652885  1
  In  In15  1  0.500000  0.416602  0.347115  1
  In  In16  1  0.500000  0.916602  0.152885  1
  In  In17  1  0.500000  0.083398  0.847115  1
  Pd  Pd18  1  0.500000  0.523630  0.195197  1
  Pd  Pd19  1  0.500000  0.476370  0.804803  1
  Pd  Pd20  1  0.500000  0.976370  0.695197  1
  Pd  Pd21  1  0.500000  0.023630  0.304803  1
