# generated using pymatgen
data_Zr4Cd2Ni3Au
_symmetry_space_group_name_H-M   'P 1'
_cell_length_a   7.40811466
_cell_length_b   7.40811466
_cell_length_c   3.32384600
_cell_angle_alpha   90.00000000
_cell_angle_beta   90.00000000
_cell_angle_gamma   88.70143234
_symmetry_Int_Tables_number   1
_chemical_formula_structural   Zr4Cd2Ni3Au
_chemical_formula_sum   'Zr4 Cd2 Ni3 Au1'
_cell_volume   182.36636161
_cell_formula_units_Z   1
loop_
 _symmetry_equiv_pos_site_id
 _symmetry_equiv_pos_as_xyz
  1  'x, y, z'
loop_
 _atom_site_type_symbol
 _atom_site_label
 _atom_site_symmetry_multiplicity
 _atom_site_fract_x
 _atom_site_fract_y
 _atom_site_fract_z
 _atom_site_occupancy
  Zr  Zr0  1  0.309576  0.165568  0.499999  1
  Zr  Zr1  1  0.849737  0.349737  0.499999  1
  Zr  Zr2  1  0.171864  0.671864  0.499999  1
  Zr  Zr3  1  0.665568  0.809576  0.499999  1
  Cd  Cd4  1  0.001761  0.995697  0.000000  1
  Cd  Cd5  1  0.495697  0.501761  0.000000  1
  Ni  Ni6  1  0.127184  0.379876  0.000000  1
  Ni  Ni7  1  0.879876  0.627185  0.000000  1
  Ni  Ni8  1  0.371992  0.871992  0.000000  1
  Au  Au9  1  0.626749  0.126748  0.000000  1
