# generated using pymatgen
data_Sm7Tm(Sc3Sn4)4
_symmetry_space_group_name_H-M   'P 1'
_cell_length_a   7.75744946
_cell_length_b   7.99640503
_cell_length_c   14.92022334
_cell_angle_alpha   89.98226731
_cell_angle_beta   89.95492156
_cell_angle_gamma   90.07959242
_symmetry_Int_Tables_number   1
_chemical_formula_structural   Sm7Tm(Sc3Sn4)4
_chemical_formula_sum   'Sm7 Tm1 Sc12 Sn16'
_cell_volume   925.52571209
_cell_formula_units_Z   1
loop_
 _symmetry_equiv_pos_site_id
 _symmetry_equiv_pos_as_xyz
  1  'x, y, z'
loop_
 _atom_site_type_symbol
 _atom_site_label
 _atom_site_symmetry_multiplicity
 _atom_site_fract_x
 _atom_site_fract_y
 _atom_site_fract_z
 _atom_site_occupancy
  Sm  Sm0  1  0.994147  0.176685  0.094097  1
  Sm  Sm1  1  0.005841  0.822956  0.905191  1
  Sm  Sm2  1  0.505434  0.676870  0.906378  1
  Sm  Sm3  1  0.005715  0.822691  0.594151  1
  Sm  Sm4  1  0.494304  0.323207  0.094064  1
  Sm  Sm5  1  0.994589  0.176792  0.406391  1
  Sm  Sm6  1  0.493876  0.323441  0.406399  1
  Tm  Tm7  1  0.506685  0.678210  0.594640  1
  Sc  Sc8  1  0.165473  0.495890  0.749690  1
  Sc  Sc9  1  0.834726  0.504753  0.250047  1
  Sc  Sc10  1  0.334839  0.995246  0.250112  1
  Sc  Sc11  1  0.664987  0.004444  0.749667  1
  Sc  Sc12  1  0.337106  0.161155  0.627817  1
  Sc  Sc13  1  0.662547  0.838168  0.372500  1
  Sc  Sc14  1  0.163054  0.661226  0.372539  1
  Sc  Sc15  1  0.663040  0.838904  0.127690  1
  Sc  Sc16  1  0.836472  0.339390  0.627535  1
  Sc  Sc17  1  0.336986  0.160986  0.871848  1
  Sc  Sc18  1  0.836759  0.338746  0.872041  1
  Sc  Sc19  1  0.163065  0.661290  0.127701  1
  Sn  Sn20  1  0.027707  0.125698  0.749740  1
  Sn  Sn21  1  0.972074  0.874365  0.250331  1
  Sn  Sn22  1  0.472121  0.625541  0.250206  1
  Sn  Sn23  1  0.527661  0.375709  0.749516  1
  Sn  Sn24  1  0.309666  0.849911  0.748364  1
  Sn  Sn25  1  0.692348  0.147993  0.250169  1
  Sn  Sn26  1  0.192293  0.352048  0.250142  1
  Sn  Sn27  1  0.805827  0.648293  0.748985  1
  Sn  Sn28  1  0.182856  0.458568  0.543458  1
  Sn  Sn29  1  0.818318  0.543965  0.458004  1
  Sn  Sn30  1  0.321787  0.955555  0.457664  1
  Sn  Sn31  1  0.821130  0.543121  0.042826  1
  Sn  Sn32  1  0.678043  0.041298  0.543444  1
  Sn  Sn33  1  0.178469  0.456704  0.956933  1
  Sn  Sn34  1  0.679025  0.043110  0.956901  1
  Sn  Sn35  1  0.321029  0.957073  0.042820  1
