# generated using pymatgen
data_Mg4ZnGePd10
_symmetry_space_group_name_H-M   'P 1'
_cell_length_a   4.15917600
_cell_length_b   5.51424153
_cell_length_c   10.79722685
_cell_angle_alpha   89.95222593
_cell_angle_beta   90.00000000
_cell_angle_gamma   90.00000000
_symmetry_Int_Tables_number   1
_chemical_formula_structural   Mg4ZnGePd10
_chemical_formula_sum   'Mg4 Zn1 Ge1 Pd10'
_cell_volume   247.63108352
_cell_formula_units_Z   1
loop_
 _symmetry_equiv_pos_site_id
 _symmetry_equiv_pos_as_xyz
  1  'x, y, z'
loop_
 _atom_site_type_symbol
 _atom_site_label
 _atom_site_symmetry_multiplicity
 _atom_site_fract_x
 _atom_site_fract_y
 _atom_site_fract_z
 _atom_site_occupancy
  Mg  Mg0  1  0.500000  0.161763  0.143330  1
  Mg  Mg1  1  0.500000  0.838237  0.856670  1
  Mg  Mg2  1  0.500000  0.330511  0.638355  1
  Mg  Mg3  1  0.500000  0.669489  0.361645  1
  Zn  Zn4  1  0.000000  0.000000  0.500000  1
  Ge  Ge5  1  0.000000  0.500000  0.000000  1
  Pd  Pd6  1  0.500000  0.182739  0.391372  1
  Pd  Pd7  1  0.500000  0.817261  0.608628  1
  Pd  Pd8  1  0.500000  0.321908  0.895795  1
  Pd  Pd9  1  0.500000  0.678092  0.104205  1
  Pd  Pd10  1  0.000000  0.416204  0.236447  1
  Pd  Pd11  1  0.000000  0.583796  0.763553  1
  Pd  Pd12  1  0.000000  0.086819  0.739928  1
  Pd  Pd13  1  0.000000  0.913181  0.260072  1
  Pd  Pd14  1  0.000000  0.000000  0.000000  1
  Pd  Pd15  1  0.000000  0.500000  0.500000  1
