# generated using pymatgen
data_Na2Co3Ni7P6
_symmetry_space_group_name_H-M   'P 1'
_cell_length_a   3.61425300
_cell_length_b   10.29484000
_cell_length_c   11.83620600
_cell_angle_alpha   90.00000000
_cell_angle_beta   90.00000000
_cell_angle_gamma   90.00000000
_symmetry_Int_Tables_number   1
_chemical_formula_structural   Na2Co3Ni7P6
_chemical_formula_sum   'Na4 Co6 Ni14 P12'
_cell_volume   440.40340349
_cell_formula_units_Z   2
loop_
 _symmetry_equiv_pos_site_id
 _symmetry_equiv_pos_as_xyz
  1  'x, y, z'
loop_
 _atom_site_type_symbol
 _atom_site_label
 _atom_site_symmetry_multiplicity
 _atom_site_fract_x
 _atom_site_fract_y
 _atom_site_fract_z
 _atom_site_occupancy
  Na  Na0  1  0.250000  0.577327  0.704333  1
  Na  Na1  1  0.250000  0.922673  0.204333  1
  Na  Na2  1  0.750000  0.420366  0.294891  1
  Na  Na3  1  0.750000  0.079634  0.794891  1
  Co  Co4  1  0.750000  0.123738  0.300044  1
  Co  Co5  1  0.750000  0.376262  0.800044  1
  Co  Co6  1  0.250000  0.464884  0.932393  1
  Co  Co7  1  0.250000  0.035116  0.432393  1
  Co  Co8  1  0.750000  0.538340  0.067526  1
  Co  Co9  1  0.750000  0.961660  0.567526  1
  Ni  Ni10  1  0.250000  0.714865  0.995185  1
  Ni  Ni11  1  0.250000  0.785135  0.495185  1
  Ni  Ni12  1  0.750000  0.290085  0.010176  1
  Ni  Ni13  1  0.750000  0.209915  0.510176  1
  Ni  Ni14  1  0.250000  0.405229  0.484628  1
  Ni  Ni15  1  0.250000  0.094771  0.984628  1
  Ni  Ni16  1  0.750000  0.590663  0.513715  1
  Ni  Ni17  1  0.750000  0.909337  0.013715  1
  Ni  Ni18  1  0.250000  0.223260  0.173050  1
  Ni  Ni19  1  0.250000  0.276740  0.673050  1
  Ni  Ni20  1  0.750000  0.775860  0.825608  1
  Ni  Ni21  1  0.750000  0.724140  0.325608  1
  Ni  Ni22  1  0.250000  0.877574  0.701268  1
  Ni  Ni23  1  0.250000  0.622426  0.201268  1
  P  P24  1  0.250000  0.424358  0.112714  1
  P  P25  1  0.250000  0.075642  0.612714  1
  P  P26  1  0.750000  0.573294  0.884361  1
  P  P27  1  0.750000  0.926706  0.384361  1
  P  P28  1  0.250000  0.268087  0.864802  1
  P  P29  1  0.250000  0.231913  0.364802  1
  P  P30  1  0.750000  0.736397  0.132349  1
  P  P31  1  0.750000  0.763603  0.632349  1
  P  P32  1  0.250000  0.601159  0.392870  1
  P  P33  1  0.250000  0.898841  0.892870  1
  P  P34  1  0.750000  0.396500  0.610089  1
  P  P35  1  0.750000  0.103500  0.110089  1
