# generated using pymatgen
data_Tb9Er(SiBi2)2
_symmetry_space_group_name_H-M   'P 1'
_cell_length_a   12.14224000
_cell_length_b   9.21651500
_cell_length_c   8.09046400
_cell_angle_alpha   90.00000000
_cell_angle_beta   90.00000000
_cell_angle_gamma   90.00000000
_symmetry_Int_Tables_number   1
_chemical_formula_structural   Tb9Er(SiBi2)2
_chemical_formula_sum   'Tb18 Er2 Si4 Bi8'
_cell_volume   905.39684493
_cell_formula_units_Z   2
loop_
 _symmetry_equiv_pos_site_id
 _symmetry_equiv_pos_as_xyz
  1  'x, y, z'
loop_
 _atom_site_type_symbol
 _atom_site_label
 _atom_site_symmetry_multiplicity
 _atom_site_fract_x
 _atom_site_fract_y
 _atom_site_fract_z
 _atom_site_occupancy
  Tb  Tb0  1  0.063392  0.551996  0.819714  1
  Tb  Tb1  1  0.563392  0.948004  0.680286  1
  Tb  Tb2  1  0.936614  0.051521  0.180286  1
  Tb  Tb3  1  0.436614  0.448479  0.319714  1
  Tb  Tb4  1  0.936614  0.448479  0.180286  1
  Tb  Tb5  1  0.436614  0.051521  0.319714  1
  Tb  Tb6  1  0.063392  0.948004  0.819714  1
  Tb  Tb7  1  0.563392  0.551996  0.680286  1
  Tb  Tb8  1  0.998990  0.250000  0.540032  1
  Tb  Tb9  1  0.498990  0.250000  0.959968  1
  Tb  Tb10  1  0.211510  0.750000  0.165108  1
  Tb  Tb11  1  0.711510  0.750000  0.334892  1
  Tb  Tb12  1  0.788393  0.250000  0.834964  1
  Tb  Tb13  1  0.288393  0.250000  0.665036  1
  Tb  Tb14  1  0.295256  0.750000  0.635338  1
  Tb  Tb15  1  0.795256  0.750000  0.864662  1
  Tb  Tb16  1  0.704659  0.250000  0.364652  1
  Tb  Tb17  1  0.204659  0.250000  0.135348  1
  Er  Er18  1  0.001118  0.750000  0.459873  1
  Er  Er19  1  0.501118  0.750000  0.040127  1
  Si  Si20  1  0.479913  0.750000  0.413168  1
  Si  Si21  1  0.979913  0.750000  0.086832  1
  Si  Si22  1  0.520103  0.250000  0.585667  1
  Si  Si23  1  0.020103  0.250000  0.914333  1
  Bi  Bi24  1  0.326268  0.511470  0.932109  1
  Bi  Bi25  1  0.826268  0.988530  0.567891  1
  Bi  Bi26  1  0.673754  0.010338  0.068241  1
  Bi  Bi27  1  0.173754  0.489662  0.431759  1
  Bi  Bi28  1  0.673754  0.489662  0.068241  1
  Bi  Bi29  1  0.173754  0.010338  0.431759  1
  Bi  Bi30  1  0.326268  0.988530  0.932109  1
  Bi  Bi31  1  0.826268  0.511470  0.567891  1
