# generated using pymatgen
data_Pr2Be3SiIr6
_symmetry_space_group_name_H-M   'P 1'
_cell_length_a   6.55519409
_cell_length_b   6.56758316
_cell_length_c   6.55519422
_cell_angle_alpha   130.12752448
_cell_angle_beta   115.01638382
_cell_angle_gamma   86.07462399
_symmetry_Int_Tables_number   1
_chemical_formula_structural   Pr2Be3SiIr6
_chemical_formula_sum   'Pr2 Be3 Si1 Ir6'
_cell_volume   186.86544243
_cell_formula_units_Z   1
loop_
 _symmetry_equiv_pos_site_id
 _symmetry_equiv_pos_as_xyz
  1  'x, y, z'
loop_
 _atom_site_type_symbol
 _atom_site_label
 _atom_site_symmetry_multiplicity
 _atom_site_fract_x
 _atom_site_fract_y
 _atom_site_fract_z
 _atom_site_occupancy
  Pr  Pr0  1  0.245142  0.993208  0.748066  1
  Pr  Pr1  1  0.755187  0.015194  0.260006  1
  Be  Be2  1  0.081041  0.310257  0.229215  1
  Be  Be3  1  0.908523  0.674789  0.766266  1
  Be  Be4  1  0.425472  0.653451  0.227979  1
  Si  Si5  1  0.584726  0.351322  0.766595  1
  Ir  Ir6  1  0.492698  0.504194  0.493279  1
  Ir  Ir7  1  0.010915  0.504194  0.011495  1
  Ir  Ir8  1  0.254080  0.994445  0.251910  1
  Ir  Ir9  1  0.742535  0.994445  0.740365  1
  Ir  Ir10  1  0.233972  0.502251  0.736544  1
  Ir  Ir11  1  0.765708  0.502251  0.268279  1
