# generated using pymatgen
data_Nb8FeCoTe8
_symmetry_space_group_name_H-M   'P 1'
_cell_length_a   4.87295200
_cell_length_b   11.28589700
_cell_length_c   19.95126200
_cell_angle_alpha   90.00000000
_cell_angle_beta   90.00000000
_cell_angle_gamma   90.00000000
_symmetry_Int_Tables_number   1
_chemical_formula_structural   Nb8FeCoTe8
_chemical_formula_sum   'Nb16 Fe2 Co2 Te16'
_cell_volume   1097.23230993
_cell_formula_units_Z   2
loop_
 _symmetry_equiv_pos_site_id
 _symmetry_equiv_pos_as_xyz
  1  'x, y, z'
loop_
 _atom_site_type_symbol
 _atom_site_label
 _atom_site_symmetry_multiplicity
 _atom_site_fract_x
 _atom_site_fract_y
 _atom_site_fract_z
 _atom_site_occupancy
  Nb  Nb0  1  0.499776  0.562455  0.389026  1
  Nb  Nb1  1  0.499776  0.437545  0.610974  1
  Nb  Nb2  1  0.500224  0.062455  0.110974  1
  Nb  Nb3  1  0.500224  0.937545  0.889026  1
  Nb  Nb4  1  0.499350  0.696432  0.534739  1
  Nb  Nb5  1  0.499350  0.303568  0.465261  1
  Nb  Nb6  1  0.500650  0.196432  0.965261  1
  Nb  Nb7  1  0.500650  0.803568  0.034739  1
  Nb  Nb8  1  0.001782  0.683025  0.446116  1
  Nb  Nb9  1  0.001782  0.316975  0.553884  1
  Nb  Nb10  1  0.998218  0.183025  0.053884  1
  Nb  Nb11  1  0.998218  0.816975  0.946116  1
  Nb  Nb12  1  0.000528  0.405532  0.396860  1
  Nb  Nb13  1  0.000528  0.594468  0.603140  1
  Nb  Nb14  1  0.999472  0.905532  0.103140  1
  Nb  Nb15  1  0.999472  0.094468  0.896860  1
  Fe  Fe16  1  0.749342  0.500000  0.500000  1
  Fe  Fe17  1  0.250658  0.000000  0.000000  1
  Co  Co18  1  0.249400  0.500000  0.500000  1
  Co  Co19  1  0.750600  0.000000  0.000000  1
  Te  Te20  1  0.001751  0.835594  0.560267  1
  Te  Te21  1  0.001751  0.164406  0.439733  1
  Te  Te22  1  0.998249  0.335594  0.939733  1
  Te  Te23  1  0.998249  0.664406  0.060267  1
  Te  Te24  1  0.498250  0.337515  0.323788  1
  Te  Te25  1  0.498250  0.662485  0.676212  1
  Te  Te26  1  0.501750  0.837515  0.176212  1
  Te  Te27  1  0.501750  0.162485  0.823788  1
  Te  Te28  1  0.499452  0.813418  0.407931  1
  Te  Te29  1  0.499452  0.186582  0.592069  1
  Te  Te30  1  0.500548  0.313418  0.092069  1
  Te  Te31  1  0.500548  0.686582  0.907931  1
  Te  Te32  1  0.002288  0.606231  0.309887  1
  Te  Te33  1  0.002288  0.393769  0.690113  1
  Te  Te34  1  0.997712  0.106231  0.190113  1
  Te  Te35  1  0.997712  0.893769  0.809887  1
