# generated using pymatgen
data_Hf2Ti3TcOs
_symmetry_space_group_name_H-M   'P 1'
_cell_length_a   7.16083831
_cell_length_b   7.16083792
_cell_length_c   7.16083652
_cell_angle_alpha   37.34592993
_cell_angle_beta   37.34593087
_cell_angle_gamma   37.34592833
_symmetry_Int_Tables_number   1
_chemical_formula_structural   Hf2Ti3TcOs
_chemical_formula_sum   'Hf2 Ti3 Tc1 Os1'
_cell_volume   121.14896136
_cell_formula_units_Z   1
loop_
 _symmetry_equiv_pos_site_id
 _symmetry_equiv_pos_as_xyz
  1  'x, y, z'
loop_
 _atom_site_type_symbol
 _atom_site_label
 _atom_site_symmetry_multiplicity
 _atom_site_fract_x
 _atom_site_fract_y
 _atom_site_fract_z
 _atom_site_occupancy
  Hf  Hf0  1  0.193327  0.193327  0.193327  1
  Hf  Hf1  1  0.765874  0.765874  0.765874  1
  Ti  Ti2  1  0.342803  0.342803  0.342803  1
  Ti  Ti3  1  0.612848  0.612848  0.612848  1
  Ti  Ti4  1  0.927073  0.927073  0.927073  1
  Tc  Tc5  1  0.050835  0.050835  0.050835  1
  Os  Os6  1  0.482241  0.482241  0.482241  1
