# generated using pymatgen
data_Y4RuPt3F28
_symmetry_space_group_name_H-M   'P 1'
_cell_length_a   5.54903540
_cell_length_b   8.92963853
_cell_length_c   12.00411391
_cell_angle_alpha   62.50375838
_cell_angle_beta   90.15430324
_cell_angle_gamma   89.95867213
_symmetry_Int_Tables_number   1
_chemical_formula_structural   Y4RuPt3F28
_chemical_formula_sum   'Y4 Ru1 Pt3 F28'
_cell_volume   527.62163406
_cell_formula_units_Z   1
loop_
 _symmetry_equiv_pos_site_id
 _symmetry_equiv_pos_as_xyz
  1  'x, y, z'
loop_
 _atom_site_type_symbol
 _atom_site_label
 _atom_site_symmetry_multiplicity
 _atom_site_fract_x
 _atom_site_fract_y
 _atom_site_fract_z
 _atom_site_occupancy
  Y  Y0  1  0.260055  0.811562  0.264490  1
  Y  Y1  1  0.738855  0.188064  0.733856  1
  Y  Y2  1  0.761089  0.182570  0.236880  1
  Y  Y3  1  0.240248  0.813002  0.766391  1
  Ru  Ru4  1  0.756710  0.725925  0.043905  1
  Pt  Pt5  1  0.241815  0.272296  0.957666  1
  Pt  Pt6  1  0.258948  0.272671  0.456208  1
  Pt  Pt7  1  0.741194  0.726837  0.543772  1
  F  F8  1  0.935050  0.703075  0.415989  1
  F  F9  1  0.064558  0.297280  0.583452  1
  F  F10  1  0.439035  0.296925  0.084432  1
  F  F11  1  0.557413  0.708916  0.914897  1
  F  F12  1  0.468292  0.728599  0.137426  1
  F  F13  1  0.534467  0.269870  0.866496  1
  F  F14  1  0.965666  0.274621  0.363061  1
  F  F15  1  0.034529  0.726448  0.636094  1
  F  F16  1  0.951744  0.745522  0.174140  1
  F  F17  1  0.049558  0.252987  0.826627  1
  F  F18  1  0.449546  0.256395  0.323793  1
  F  F19  1  0.552319  0.744418  0.675925  1
  F  F20  1  0.768887  0.484788  0.138559  1
  F  F21  1  0.229970  0.519631  0.858309  1
  F  F22  1  0.271464  0.520285  0.357981  1
  F  F23  1  0.727932  0.478948  0.642391  1
  F  F24  1  0.943293  0.282034  0.043259  1
  F  F25  1  0.052799  0.721418  0.954327  1
  F  F26  1  0.441065  0.719316  0.458199  1
  F  F27  1  0.559549  0.280540  0.541102  1
  F  F28  1  0.743503  0.974644  0.450374  1
  F  F29  1  0.257409  0.025155  0.549584  1
  F  F30  1  0.242225  0.024520  0.050528  1
  F  F31  1  0.756870  0.966113  0.951367  1
  F  F32  1  0.585978  0.969154  0.232096  1
  F  F33  1  0.415138  0.032609  0.767199  1
  F  F34  1  0.087013  0.029835  0.268229  1
  F  F35  1  0.915815  0.973027  0.730994  1
