# generated using pymatgen
data_Ho4Si4IrRu
_symmetry_space_group_name_H-M   'P 1'
_cell_length_a   5.68836730
_cell_length_b   5.68836824
_cell_length_c   10.05775069
_cell_angle_alpha   63.14397063
_cell_angle_beta   63.14396648
_cell_angle_gamma   43.45577964
_symmetry_Int_Tables_number   1
_chemical_formula_structural   Ho4Si4IrRu
_chemical_formula_sum   'Ho4 Si4 Ir1 Ru1'
_cell_volume   195.58824788
_cell_formula_units_Z   1
loop_
 _symmetry_equiv_pos_site_id
 _symmetry_equiv_pos_as_xyz
  1  'x, y, z'
loop_
 _atom_site_type_symbol
 _atom_site_label
 _atom_site_symmetry_multiplicity
 _atom_site_fract_x
 _atom_site_fract_y
 _atom_site_fract_z
 _atom_site_occupancy
  Ho  Ho0  1  0.004955  0.004955  0.322451  1
  Ho  Ho1  1  0.994851  0.994851  0.676963  1
  Ho  Ho2  1  0.815060  0.815060  0.106725  1
  Ho  Ho3  1  0.184562  0.184562  0.890139  1
  Si  Si4  1  0.645799  0.645799  0.434649  1
  Si  Si5  1  0.359251  0.359251  0.563107  1
  Si  Si6  1  0.505431  0.505431  0.123701  1
  Si  Si7  1  0.489579  0.489579  0.877420  1
  Ir  Ir8  1  0.727714  0.727714  0.627275  1
  Ru  Ru9  1  0.272797  0.272797  0.377570  1
