# generated using pymatgen
data_HoPa3Ge4Ir3Rh
_symmetry_space_group_name_H-M   'P 1'
_cell_length_a   4.34156000
_cell_length_b   6.94233182
_cell_length_c   7.66388240
_cell_angle_alpha   90.50465786
_cell_angle_beta   90.00000000
_cell_angle_gamma   90.00000000
_symmetry_Int_Tables_number   1
_chemical_formula_structural   HoPa3Ge4Ir3Rh
_chemical_formula_sum   'Ho1 Pa3 Ge4 Ir3 Rh1'
_cell_volume   230.98467169
_cell_formula_units_Z   1
loop_
 _symmetry_equiv_pos_site_id
 _symmetry_equiv_pos_as_xyz
  1  'x, y, z'
loop_
 _atom_site_type_symbol
 _atom_site_label
 _atom_site_symmetry_multiplicity
 _atom_site_fract_x
 _atom_site_fract_y
 _atom_site_fract_z
 _atom_site_occupancy
  Ho  Ho0  1  0.750000  0.508724  0.797385  1
  Pa  Pa1  1  0.250000  0.994155  0.297971  1
  Pa  Pa2  1  0.250000  0.494980  0.204161  1
  Pa  Pa3  1  0.750000  0.007030  0.699689  1
  Ge  Ge4  1  0.250000  0.320841  0.591358  1
  Ge  Ge5  1  0.250000  0.812301  0.913540  1
  Ge  Ge6  1  0.750000  0.678442  0.418211  1
  Ge  Ge7  1  0.750000  0.189562  0.079829  1
  Ir  Ir8  1  0.250000  0.732585  0.581478  1
  Ir  Ir9  1  0.750000  0.779574  0.092343  1
  Ir  Ir10  1  0.750000  0.271482  0.410902  1
  Rh  Rh11  1  0.250000  0.210324  0.913133  1
