# generated using pymatgen
data_Ba3NaUSe6
_symmetry_space_group_name_H-M   'P 1'
_cell_length_a   8.91690086
_cell_length_b   8.91690126
_cell_length_c   8.91690137
_cell_angle_alpha   91.26286639
_cell_angle_beta   91.26286395
_cell_angle_gamma   91.26287338
_symmetry_Int_Tables_number   1
_chemical_formula_structural   Ba3NaUSe6
_chemical_formula_sum   'Ba6 Na2 U2 Se12'
_cell_volume   708.46849607
_cell_formula_units_Z   2
loop_
 _symmetry_equiv_pos_site_id
 _symmetry_equiv_pos_as_xyz
  1  'x, y, z'
loop_
 _atom_site_type_symbol
 _atom_site_label
 _atom_site_symmetry_multiplicity
 _atom_site_fract_x
 _atom_site_fract_y
 _atom_site_fract_z
 _atom_site_occupancy
  Ba  Ba0  1  0.876428  0.623572  0.250000  1
  Ba  Ba1  1  0.250000  0.876428  0.623572  1
  Ba  Ba2  1  0.623572  0.250000  0.876428  1
  Ba  Ba3  1  0.750000  0.123572  0.376428  1
  Ba  Ba4  1  0.376428  0.750000  0.123572  1
  Ba  Ba5  1  0.123572  0.376428  0.750000  1
  Na  Na6  1  0.250000  0.250000  0.250000  1
  Na  Na7  1  0.750000  0.750000  0.750000  1
  U  U8  1  0.500000  0.500000  0.500000  1
  U  U9  1  0.000000  0.000000  0.000000  1
  Se  Se10  1  0.204652  0.553653  0.420252  1
  Se  Se11  1  0.420252  0.204652  0.553653  1
  Se  Se12  1  0.553653  0.420252  0.204652  1
  Se  Se13  1  0.920252  0.053653  0.704652  1
  Se  Se14  1  0.704652  0.920252  0.053653  1
  Se  Se15  1  0.053653  0.704652  0.920252  1
  Se  Se16  1  0.795348  0.446347  0.579748  1
  Se  Se17  1  0.579748  0.795348  0.446347  1
  Se  Se18  1  0.446347  0.579748  0.795348  1
  Se  Se19  1  0.079748  0.946347  0.295348  1
  Se  Se20  1  0.295348  0.079748  0.946347  1
  Se  Se21  1  0.946347  0.295348  0.079748  1
