# generated using pymatgen
data_Zr10InSnBi5
_symmetry_space_group_name_H-M   'P 1'
_cell_length_a   6.03594312
_cell_length_b   8.80901611
_cell_length_c   8.79049573
_cell_angle_alpha   119.94513557
_cell_angle_beta   89.96636273
_cell_angle_gamma   89.97634763
_symmetry_Int_Tables_number   1
_chemical_formula_structural   Zr10InSnBi5
_chemical_formula_sum   'Zr10 In1 Sn1 Bi5'
_cell_volume   405.00105783
_cell_formula_units_Z   1
loop_
 _symmetry_equiv_pos_site_id
 _symmetry_equiv_pos_as_xyz
  1  'x, y, z'
loop_
 _atom_site_type_symbol
 _atom_site_label
 _atom_site_symmetry_multiplicity
 _atom_site_fract_x
 _atom_site_fract_y
 _atom_site_fract_z
 _atom_site_occupancy
  Zr  Zr0  1  0.497261  0.331164  0.665065  1
  Zr  Zr1  1  0.497370  0.670458  0.333917  1
  Zr  Zr2  1  0.003774  0.669302  0.335783  1
  Zr  Zr3  1  0.003850  0.332312  0.664005  1
  Zr  Zr4  1  0.781462  0.266791  0.999708  1
  Zr  Zr5  1  0.786907  0.734722  0.733006  1
  Zr  Zr6  1  0.784629  0.001278  0.267185  1
  Zr  Zr7  1  0.216621  0.733429  0.000592  1
  Zr  Zr8  1  0.219378  0.266723  0.273799  1
  Zr  Zr9  1  0.218101  0.993123  0.726387  1
  In  In10  1  0.261042  0.613571  0.614716  1
  Sn  Sn11  1  0.257929  0.999072  0.385925  1
  Bi  Bi12  1  0.739092  0.613688  0.999334  1
  Bi  Bi13  1  0.738170  0.390875  0.389567  1
  Bi  Bi14  1  0.738809  0.000617  0.611813  1
  Bi  Bi15  1  0.258513  0.383848  0.999953  1
  Bi  Bi16  1  0.497091  0.999030  0.999244  1
