# generated using pymatgen
data_Ti12Tc6Os5Pt
_symmetry_space_group_name_H-M   'P 1'
_cell_length_a   4.38685200
_cell_length_b   6.20848800
_cell_length_c   13.20739900
_cell_angle_alpha   90.00000000
_cell_angle_beta   89.99976532
_cell_angle_gamma   90.00000000
_symmetry_Int_Tables_number   1
_chemical_formula_structural   Ti12Tc6Os5Pt
_chemical_formula_sum   'Ti12 Tc6 Os5 Pt1'
_cell_volume   359.71299467
_cell_formula_units_Z   1
loop_
 _symmetry_equiv_pos_site_id
 _symmetry_equiv_pos_as_xyz
  1  'x, y, z'
loop_
 _atom_site_type_symbol
 _atom_site_label
 _atom_site_symmetry_multiplicity
 _atom_site_fract_x
 _atom_site_fract_y
 _atom_site_fract_z
 _atom_site_occupancy
  Ti  Ti0  1  0.500000  0.243298  0.000000  1
  Ti  Ti1  1  0.500000  0.756703  0.000000  1
  Ti  Ti2  1  0.000042  0.246871  0.169979  1
  Ti  Ti3  1  0.000042  0.753128  0.169979  1
  Ti  Ti4  1  0.500037  0.250574  0.333917  1
  Ti  Ti5  1  0.500037  0.749426  0.333917  1
  Ti  Ti6  1  0.000000  0.250360  0.500000  1
  Ti  Ti7  1  0.000000  0.749640  0.500000  1
  Ti  Ti8  1  0.499964  0.250574  0.666083  1
  Ti  Ti9  1  0.499964  0.749426  0.666083  1
  Ti  Ti10  1  0.999958  0.246871  0.830022  1
  Ti  Ti11  1  0.999958  0.753128  0.830022  1
  Tc  Tc12  1  0.000000  0.000000  0.000000  1
  Tc  Tc13  1  0.500045  0.499999  0.164846  1
  Tc  Tc14  1  0.000038  0.000000  0.333000  1
  Tc  Tc15  1  0.500001  0.499999  0.500000  1
  Tc  Tc16  1  0.999961  0.000000  0.667000  1
  Tc  Tc17  1  0.499956  0.499999  0.835154  1
  Os  Os18  1  0.500045  0.000000  0.166041  1
  Os  Os19  1  0.000042  0.499999  0.332759  1
  Os  Os20  1  0.500001  0.000000  0.500000  1
  Os  Os21  1  0.999960  0.499999  0.667242  1
  Os  Os22  1  0.499954  0.000000  0.833960  1
  Pt  Pt23  1  0.000000  0.499999  0.000000  1
