# generated using pymatgen
data_HoTm2Zn3Cu2Pt
_symmetry_space_group_name_H-M   'P 1'
_cell_length_a   7.26231060
_cell_length_b   7.25718769
_cell_length_c   3.68684300
_cell_angle_alpha   90.00000000
_cell_angle_beta   90.00000000
_cell_angle_gamma   119.89426425
_symmetry_Int_Tables_number   1
_chemical_formula_structural   HoTm2Zn3Cu2Pt
_chemical_formula_sum   'Ho1 Tm2 Zn3 Cu2 Pt1'
_cell_volume   168.45743754
_cell_formula_units_Z   1
loop_
 _symmetry_equiv_pos_site_id
 _symmetry_equiv_pos_as_xyz
  1  'x, y, z'
loop_
 _atom_site_type_symbol
 _atom_site_label
 _atom_site_symmetry_multiplicity
 _atom_site_fract_x
 _atom_site_fract_y
 _atom_site_fract_z
 _atom_site_occupancy
  Ho  Ho0  1  0.997931  0.591452  0.000000  1
  Tm  Tm1  1  0.408578  0.406324  0.000000  1
  Tm  Tm2  1  0.593803  0.002402  0.000000  1
  Zn  Zn3  1  0.748192  0.754103  0.500000  1
  Zn  Zn4  1  0.246680  0.995564  0.500000  1
  Zn  Zn5  1  0.005197  0.250536  0.500000  1
  Cu  Cu6  1  0.000054  0.000807  0.000000  1
  Cu  Cu7  1  0.335026  0.667116  0.500000  1
  Pt  Pt8  1  0.664540  0.331695  0.500000  1
