# generated using pymatgen
data_Tb16Nd4Si15Os
_symmetry_space_group_name_H-M   'P 1'
_cell_length_a   7.52775130
_cell_length_b   7.78145922
_cell_length_c   14.82733700
_cell_angle_alpha   90.16464684
_cell_angle_beta   89.32505465
_cell_angle_gamma   89.78248183
_symmetry_Int_Tables_number   1
_chemical_formula_structural   Tb16Nd4Si15Os
_chemical_formula_sum   'Tb16 Nd4 Si15 Os1'
_cell_volume   868.46906504
_cell_formula_units_Z   1
loop_
 _symmetry_equiv_pos_site_id
 _symmetry_equiv_pos_as_xyz
  1  'x, y, z'
loop_
 _atom_site_type_symbol
 _atom_site_label
 _atom_site_symmetry_multiplicity
 _atom_site_fract_x
 _atom_site_fract_y
 _atom_site_fract_z
 _atom_site_occupancy
  Tb  Tb0  1  0.935449  0.692001  0.632646  1
  Tb  Tb1  1  0.428135  0.818488  0.372419  1
  Tb  Tb2  1  0.566181  0.322675  0.125433  1
  Tb  Tb3  1  0.070147  0.163914  0.869143  1
  Tb  Tb4  1  0.572970  0.319507  0.872912  1
  Tb  Tb5  1  0.070400  0.182191  0.128393  1
  Tb  Tb6  1  0.930768  0.682440  0.370740  1
  Tb  Tb7  1  0.420775  0.823500  0.629555  1
  Tb  Tb8  1  0.095488  0.011000  0.509867  1
  Tb  Tb9  1  0.599384  0.489858  0.503733  1
  Tb  Tb10  1  0.400743  0.988301  0.997388  1
  Tb  Tb11  1  0.903318  0.505543  0.997471  1
  Tb  Tb12  1  0.280908  0.315392  0.351959  1
  Tb  Tb13  1  0.778679  0.175133  0.650319  1
  Tb  Tb14  1  0.224240  0.687881  0.847362  1
  Tb  Tb15  1  0.719684  0.815958  0.148940  1
  Nd  Nd16  1  0.223918  0.680948  0.152862  1
  Nd  Nd17  1  0.733818  0.821717  0.845990  1
  Nd  Nd18  1  0.270534  0.314035  0.654819  1
  Nd  Nd19  1  0.777189  0.181680  0.347419  1
  Si  Si20  1  0.601989  0.531539  0.287913  1
  Si  Si21  1  0.398847  0.033339  0.211734  1
  Si  Si22  1  0.898322  0.467824  0.788942  1
  Si  Si23  1  0.400893  0.025618  0.791251  1
  Si  Si24  1  0.887232  0.475123  0.207957  1
  Si  Si25  1  0.111304  0.975370  0.290339  1
  Si  Si26  1  0.606380  0.529077  0.711328  1
  Si  Si27  1  0.980632  0.380708  0.496735  1
  Si  Si28  1  0.484642  0.122990  0.497263  1
  Si  Si29  1  0.518921  0.623840  0.000317  1
  Si  Si30  1  0.016142  0.873362  0.003331  1
  Si  Si31  1  0.221673  0.603903  0.496938  1
  Si  Si32  1  0.717570  0.891135  0.495669  1
  Si  Si33  1  0.274465  0.390584  0.998607  1
  Si  Si34  1  0.776202  0.104636  0.003026  1
  Os  Os35  1  0.102061  0.978788  0.709283  1
