# generated using pymatgen
data_Sm8TaPd11Pt13
_symmetry_space_group_name_H-M   'P 1'
_cell_length_a   8.45976800
_cell_length_b   8.44244700
_cell_length_c   8.49408100
_cell_angle_alpha   90.00000000
_cell_angle_beta   90.00000000
_cell_angle_gamma   90.00000000
_symmetry_Int_Tables_number   1
_chemical_formula_structural   Sm8TaPd11Pt13
_chemical_formula_sum   'Sm8 Ta1 Pd11 Pt13'
_cell_volume   606.65697352
_cell_formula_units_Z   1
loop_
 _symmetry_equiv_pos_site_id
 _symmetry_equiv_pos_as_xyz
  1  'x, y, z'
loop_
 _atom_site_type_symbol
 _atom_site_label
 _atom_site_symmetry_multiplicity
 _atom_site_fract_x
 _atom_site_fract_y
 _atom_site_fract_z
 _atom_site_occupancy
  Sm  Sm0  1  0.250564  0.250959  0.250805  1
  Sm  Sm1  1  0.749554  0.749486  0.749408  1
  Sm  Sm2  1  0.749554  0.749486  0.250592  1
  Sm  Sm3  1  0.749554  0.250514  0.749408  1
  Sm  Sm4  1  0.250564  0.250959  0.749195  1
  Sm  Sm5  1  0.250564  0.749041  0.250805  1
  Sm  Sm6  1  0.250564  0.749041  0.749195  1
  Sm  Sm7  1  0.749554  0.250514  0.250592  1
  Ta  Ta8  1  0.000190  0.000000  0.000000  1
  Pd  Pd9  1  0.500044  0.000000  0.266370  1
  Pd  Pd10  1  0.266489  0.000000  0.500000  1
  Pd  Pd11  1  0.500044  0.000000  0.733630  1
  Pd  Pd12  1  0.733221  0.000000  0.500000  1
  Pd  Pd13  1  0.999877  0.500000  0.266285  1
  Pd  Pd14  1  0.999877  0.500000  0.733715  1
  Pd  Pd15  1  0.745480  0.500000  0.500000  1
  Pd  Pd16  1  0.499728  0.255443  0.500000  1
  Pd  Pd17  1  0.499728  0.744557  0.500000  1
  Pd  Pd18  1  0.499893  0.500000  0.255827  1
  Pd  Pd19  1  0.499893  0.500000  0.744173  1
  Pt  Pt20  1  0.265749  0.500000  0.000000  1
  Pt  Pt21  1  0.733931  0.500000  0.000000  1
  Pt  Pt22  1  0.000351  0.265223  0.500000  1
  Pt  Pt23  1  0.500049  0.265531  0.000000  1
  Pt  Pt24  1  0.000351  0.734777  0.500000  1
  Pt  Pt25  1  0.500049  0.734469  0.000000  1
  Pt  Pt26  1  0.254485  0.500000  0.500000  1
  Pt  Pt27  1  0.306921  0.000000  0.000000  1
  Pt  Pt28  1  0.693509  0.000000  0.000000  1
  Pt  Pt29  1  0.999940  0.306872  0.000000  1
  Pt  Pt30  1  0.999940  0.693128  0.000000  1
  Pt  Pt31  1  0.999894  0.000000  0.305876  1
  Pt  Pt32  1  0.999894  0.000000  0.694124  1
