# generated using pymatgen
data_Nd3Mg2CdSi2Au
_symmetry_space_group_name_H-M   'P 1'
_cell_length_a   7.45764000
_cell_length_b   7.40237710
_cell_length_c   4.42583100
_cell_angle_alpha   90.00000000
_cell_angle_beta   90.00000000
_cell_angle_gamma   120.24726758
_symmetry_Int_Tables_number   1
_chemical_formula_structural   Nd3Mg2CdSi2Au
_chemical_formula_sum   'Nd3 Mg2 Cd1 Si2 Au1'
_cell_volume   211.06225583
_cell_formula_units_Z   1
loop_
 _symmetry_equiv_pos_site_id
 _symmetry_equiv_pos_as_xyz
  1  'x, y, z'
loop_
 _atom_site_type_symbol
 _atom_site_label
 _atom_site_symmetry_multiplicity
 _atom_site_fract_x
 _atom_site_fract_y
 _atom_site_fract_z
 _atom_site_occupancy
  Nd  Nd0  1  0.580729  0.000000  0.000000  1
  Nd  Nd1  1  0.001850  0.584899  0.000000  1
  Nd  Nd2  1  0.416951  0.415101  0.000000  1
  Mg  Mg3  1  0.001031  0.243438  0.500000  1
  Mg  Mg4  1  0.757592  0.756562  0.500000  1
  Cd  Cd5  1  0.250655  0.000000  0.500000  1
  Si  Si6  1  0.333262  0.663525  0.500000  1
  Si  Si7  1  0.669739  0.336475  0.500000  1
  Au  Au8  1  0.988190  0.000000  0.000000  1
