# generated using pymatgen
data_TmLuMn3Ni9P7
_symmetry_space_group_name_H-M   'P 1'
_cell_length_a   9.10565500
_cell_length_b   9.10565564
_cell_length_c   3.65043500
_cell_angle_alpha   90.00000000
_cell_angle_beta   90.00000000
_cell_angle_gamma   120.00000130
_symmetry_Int_Tables_number   1
_chemical_formula_structural   TmLuMn3Ni9P7
_chemical_formula_sum   'Tm1 Lu1 Mn3 Ni9 P7'
_cell_volume   262.11849115
_cell_formula_units_Z   1
loop_
 _symmetry_equiv_pos_site_id
 _symmetry_equiv_pos_as_xyz
  1  'x, y, z'
loop_
 _atom_site_type_symbol
 _atom_site_label
 _atom_site_symmetry_multiplicity
 _atom_site_fract_x
 _atom_site_fract_y
 _atom_site_fract_z
 _atom_site_occupancy
  Tm  Tm0  1  0.000000  0.000000  0.000000  1
  Lu  Lu1  1  0.666667  0.333333  0.500000  1
  Mn  Mn2  1  0.456477  0.568608  0.500000  1
  Mn  Mn3  1  0.431392  0.887869  0.500000  1
  Mn  Mn4  1  0.112131  0.543523  0.500000  1
  Ni  Ni5  1  0.706151  0.604576  0.000000  1
  Ni  Ni6  1  0.395424  0.101575  0.000000  1
  Ni  Ni7  1  0.898425  0.293849  0.000000  1
  Ni  Ni8  1  0.210406  0.388447  0.000000  1
  Ni  Ni9  1  0.611553  0.821959  0.000000  1
  Ni  Ni10  1  0.178041  0.789594  0.000000  1
  Ni  Ni11  1  0.280829  0.229990  0.500000  1
  Ni  Ni12  1  0.770010  0.050838  0.500000  1
  Ni  Ni13  1  0.949162  0.719171  0.500000  1
  P  P14  1  0.448684  0.372705  0.000000  1
  P  P15  1  0.627295  0.075981  0.000000  1
  P  P16  1  0.924019  0.551316  0.000000  1
  P  P17  1  0.041700  0.259860  0.500000  1
  P  P18  1  0.740140  0.781841  0.500000  1
  P  P19  1  0.218159  0.958300  0.500000  1
  P  P20  1  0.333333  0.666667  0.000000  1
