# generated using pymatgen
data_Mn12V5Si6Mo
_symmetry_space_group_name_H-M   'P 1'
_cell_length_a   4.02527700
_cell_length_b   5.67696800
_cell_length_c   12.07358600
_cell_angle_alpha   89.99951575
_cell_angle_beta   90.00005694
_cell_angle_gamma   90.00005875
_symmetry_Int_Tables_number   1
_chemical_formula_structural   Mn12V5Si6Mo
_chemical_formula_sum   'Mn12 V5 Si6 Mo1'
_cell_volume   275.89796546
_cell_formula_units_Z   1
loop_
 _symmetry_equiv_pos_site_id
 _symmetry_equiv_pos_as_xyz
  1  'x, y, z'
loop_
 _atom_site_type_symbol
 _atom_site_label
 _atom_site_symmetry_multiplicity
 _atom_site_fract_x
 _atom_site_fract_y
 _atom_site_fract_z
 _atom_site_occupancy
  Mn  Mn0  1  0.500000  0.254601  0.000005  1
  Mn  Mn1  1  0.500000  0.745389  0.999991  1
  Mn  Mn2  1  0.999898  0.252035  0.168993  1
  Mn  Mn3  1  0.999898  0.747952  0.168991  1
  Mn  Mn4  1  0.499898  0.249965  0.334080  1
  Mn  Mn5  1  0.499897  0.750038  0.334085  1
  Mn  Mn6  1  0.000000  0.249858  0.500003  1
  Mn  Mn7  1  0.999999  0.750144  0.500000  1
  Mn  Mn8  1  0.500102  0.249968  0.665909  1
  Mn  Mn9  1  0.500102  0.750034  0.665915  1
  Mn  Mn10  1  0.000102  0.252034  0.831009  1
  Mn  Mn11  1  0.000102  0.747979  0.831010  1
  V  V12  1  0.499884  0.499947  0.169243  1
  V  V13  1  0.999886  0.000032  0.335241  1
  V  V14  1  0.499999  0.500010  0.500000  1
  V  V15  1  0.000114  0.999959  0.664794  1
  V  V16  1  0.500116  0.500051  0.830749  1
  Si  Si17  1  0.000000  0.499999  0.999960  1
  Si  Si18  1  0.499904  0.000001  0.169290  1
  Si  Si19  1  0.999895  0.499981  0.334790  1
  Si  Si20  1  0.500000  0.999999  0.500008  1
  Si  Si21  1  0.000104  0.500023  0.665247  1
  Si  Si22  1  0.500097  0.999995  0.830699  1
  Mo  Mo23  1  0.000000  0.000008  0.999988  1
