# generated using pymatgen
data_Sr4ScMn(FeO5)2
_symmetry_space_group_name_H-M   'P 1'
_cell_length_a   5.60819200
_cell_length_b   5.79479873
_cell_length_c   17.07998593
_cell_angle_alpha   69.64854946
_cell_angle_beta   90.00000000
_cell_angle_gamma   90.00000000
_symmetry_Int_Tables_number   1
_chemical_formula_structural   Sr4ScMn(FeO5)2
_chemical_formula_sum   'Sr8 Sc2 Mn2 Fe4 O20'
_cell_volume   520.42205137
_cell_formula_units_Z   2
loop_
 _symmetry_equiv_pos_site_id
 _symmetry_equiv_pos_as_xyz
  1  'x, y, z'
loop_
 _atom_site_type_symbol
 _atom_site_label
 _atom_site_symmetry_multiplicity
 _atom_site_fract_x
 _atom_site_fract_y
 _atom_site_fract_z
 _atom_site_occupancy
  Sr  Sr0  1  0.508965  0.131574  0.888789  1
  Sr  Sr1  1  0.008965  0.868426  0.611211  1
  Sr  Sr2  1  0.495270  0.592269  0.389154  1
  Sr  Sr3  1  0.995270  0.407731  0.110846  1
  Sr  Sr4  1  0.491035  0.868426  0.111211  1
  Sr  Sr5  1  0.991035  0.131574  0.388789  1
  Sr  Sr6  1  0.504730  0.407731  0.610846  1
  Sr  Sr7  1  0.004730  0.592269  0.889154  1
  Sc  Sc8  1  0.500000  0.500000  0.000000  1
  Sc  Sc9  1  0.000000  0.500000  0.500000  1
  Mn  Mn10  1  0.500000  0.000000  0.500000  1
  Mn  Mn11  1  0.000000  0.000000  0.000000  1
  Fe  Fe12  1  0.541400  0.814826  0.753600  1
  Fe  Fe13  1  0.041400  0.185174  0.746400  1
  Fe  Fe14  1  0.458600  0.185174  0.246400  1
  Fe  Fe15  1  0.958600  0.814826  0.253600  1
  O  O16  1  0.488783  0.591896  0.864331  1
  O  O17  1  0.988783  0.408104  0.635669  1
  O  O18  1  0.529220  0.225196  0.347065  1
  O  O19  1  0.029220  0.774804  0.152935  1
  O  O20  1  0.511217  0.408104  0.135669  1
  O  O21  1  0.011217  0.591896  0.364331  1
  O  O22  1  0.470780  0.774804  0.652935  1
  O  O23  1  0.970780  0.225196  0.847065  1
  O  O24  1  0.242672  0.231268  0.008355  1
  O  O25  1  0.742672  0.768732  0.491645  1
  O  O26  1  0.741649  0.231642  0.509068  1
  O  O27  1  0.241649  0.768358  0.990932  1
  O  O28  1  0.757328  0.768732  0.991645  1
  O  O29  1  0.257328  0.231268  0.508355  1
  O  O30  1  0.258351  0.768358  0.490932  1
  O  O31  1  0.758351  0.231642  0.009068  1
  O  O32  1  0.383002  0.115641  0.750575  1
  O  O33  1  0.883002  0.884359  0.749425  1
  O  O34  1  0.616998  0.884359  0.249425  1
  O  O35  1  0.116998  0.115641  0.250575  1
