# generated using pymatgen
data_Ce2As4RuRh3
_symmetry_space_group_name_H-M   'P 1'
_cell_length_a   4.28950900
_cell_length_b   4.28950900
_cell_length_c   9.92633100
_cell_angle_alpha   90.00000000
_cell_angle_beta   90.00000000
_cell_angle_gamma   90.00000000
_symmetry_Int_Tables_number   1
_chemical_formula_structural   Ce2As4RuRh3
_chemical_formula_sum   'Ce2 As4 Ru1 Rh3'
_cell_volume   182.64337330
_cell_formula_units_Z   1
loop_
 _symmetry_equiv_pos_site_id
 _symmetry_equiv_pos_as_xyz
  1  'x, y, z'
loop_
 _atom_site_type_symbol
 _atom_site_label
 _atom_site_symmetry_multiplicity
 _atom_site_fract_x
 _atom_site_fract_y
 _atom_site_fract_z
 _atom_site_occupancy
  Ce  Ce0  1  0.000000  0.500000  0.252328  1
  Ce  Ce1  1  0.500000  0.000000  0.747672  1
  As  As2  1  0.000000  0.000000  0.500000  1
  As  As3  1  0.500000  0.500000  0.500000  1
  As  As4  1  0.000000  0.500000  0.865166  1
  As  As5  1  0.500000  0.000000  0.134834  1
  Ru  Ru6  1  0.000000  0.000000  0.000000  1
  Rh  Rh7  1  0.500000  0.500000  0.000000  1
  Rh  Rh8  1  0.000000  0.500000  0.620237  1
  Rh  Rh9  1  0.500000  0.000000  0.379763  1
