# generated using pymatgen
data_Zr4GaSi4Rh3
_symmetry_space_group_name_H-M   'P 1'
_cell_length_a   3.92633800
_cell_length_b   6.60341954
_cell_length_c   7.61373008
_cell_angle_alpha   91.06971891
_cell_angle_beta   90.00000000
_cell_angle_gamma   90.00000000
_symmetry_Int_Tables_number   1
_chemical_formula_structural   Zr4GaSi4Rh3
_chemical_formula_sum   'Zr4 Ga1 Si4 Rh3'
_cell_volume   197.36873329
_cell_formula_units_Z   1
loop_
 _symmetry_equiv_pos_site_id
 _symmetry_equiv_pos_as_xyz
  1  'x, y, z'
loop_
 _atom_site_type_symbol
 _atom_site_label
 _atom_site_symmetry_multiplicity
 _atom_site_fract_x
 _atom_site_fract_y
 _atom_site_fract_z
 _atom_site_occupancy
  Zr  Zr0  1  0.250000  0.518398  0.673887  1
  Zr  Zr1  1  0.750000  0.470768  0.321850  1
  Zr  Zr2  1  0.250000  0.023632  0.818827  1
  Zr  Zr3  1  0.750000  0.973202  0.182325  1
  Ga  Ga4  1  0.250000  0.649506  0.061803  1
  Si  Si5  1  0.250000  0.252977  0.124697  1
  Si  Si6  1  0.750000  0.734838  0.860435  1
  Si  Si7  1  0.250000  0.775128  0.392608  1
  Si  Si8  1  0.750000  0.228149  0.620067  1
  Rh  Rh9  1  0.750000  0.857366  0.561167  1
  Rh  Rh10  1  0.250000  0.147027  0.437306  1
  Rh  Rh11  1  0.750000  0.369006  0.945030  1
