# generated using pymatgen
data_VTcBr4
_symmetry_space_group_name_H-M   'P 1'
_cell_length_a   9.82986008
_cell_length_b   9.82986007
_cell_length_c   11.96782200
_cell_angle_alpha   90.00000000
_cell_angle_beta   90.00000000
_cell_angle_gamma   105.51063391
_symmetry_Int_Tables_number   1
_chemical_formula_structural   VTcBr4
_chemical_formula_sum   'V6 Tc6 Br24'
_cell_volume   1114.28926778
_cell_formula_units_Z   6
loop_
 _symmetry_equiv_pos_site_id
 _symmetry_equiv_pos_as_xyz
  1  'x, y, z'
loop_
 _atom_site_type_symbol
 _atom_site_label
 _atom_site_symmetry_multiplicity
 _atom_site_fract_x
 _atom_site_fract_y
 _atom_site_fract_z
 _atom_site_occupancy
  V  V0  1  0.365885  0.365885  0.568087  1
  V  V1  1  0.134115  0.134115  0.068087  1
  V  V2  1  0.383676  0.613483  0.500290  1
  V  V3  1  0.116324  0.886517  0.000290  1
  V  V4  1  0.613483  0.383676  0.500290  1
  V  V5  1  0.886517  0.116324  0.000290  1
  Tc  Tc6  1  0.071981  0.071981  0.861843  1
  Tc  Tc7  1  0.428019  0.428019  0.361843  1
  Tc  Tc8  1  0.569843  0.569843  0.638187  1
  Tc  Tc9  1  0.930157  0.930157  0.138187  1
  Tc  Tc10  1  0.861360  0.861360  0.929689  1
  Tc  Tc11  1  0.638640  0.638640  0.429689  1
  Br  Br12  1  0.653072  0.653072  0.846056  1
  Br  Br13  1  0.846928  0.846928  0.346056  1
  Br  Br14  1  0.162706  0.162706  0.658760  1
  Br  Br15  1  0.337294  0.337294  0.158760  1
  Br  Br16  1  0.223154  0.771783  0.501715  1
  Br  Br17  1  0.276846  0.728217  0.001715  1
  Br  Br18  1  0.771783  0.223154  0.501715  1
  Br  Br19  1  0.728217  0.276846  0.001715  1
  Br  Br20  1  0.319119  0.090916  0.932616  1
  Br  Br21  1  0.180881  0.409084  0.432616  1
  Br  Br22  1  0.593756  0.821067  0.566811  1
  Br  Br23  1  0.906244  0.678933  0.066811  1
  Br  Br24  1  0.951565  0.180471  0.203478  1
  Br  Br25  1  0.548435  0.319529  0.703478  1
  Br  Br26  1  0.681776  0.454655  0.293778  1
  Br  Br27  1  0.818224  0.045345  0.793778  1
  Br  Br28  1  0.045345  0.818224  0.793778  1
  Br  Br29  1  0.454655  0.681776  0.293778  1
  Br  Br30  1  0.319529  0.548435  0.703478  1
  Br  Br31  1  0.180471  0.951565  0.203478  1
  Br  Br32  1  0.090916  0.319119  0.932616  1
  Br  Br33  1  0.409084  0.180881  0.432616  1
  Br  Br34  1  0.821067  0.593756  0.566811  1
  Br  Br35  1  0.678933  0.906244  0.066811  1
