# generated using pymatgen
data_Np3GaSn2Ru3
_symmetry_space_group_name_H-M   'P 1'
_cell_length_a   7.25923448
_cell_length_b   7.24020486
_cell_length_c   4.00128100
_cell_angle_alpha   90.00000000
_cell_angle_beta   90.00000000
_cell_angle_gamma   119.91332080
_symmetry_Int_Tables_number   1
_chemical_formula_structural   Np3GaSn2Ru3
_chemical_formula_sum   'Np3 Ga1 Sn2 Ru3'
_cell_volume   182.28462087
_cell_formula_units_Z   1
loop_
 _symmetry_equiv_pos_site_id
 _symmetry_equiv_pos_as_xyz
  1  'x, y, z'
loop_
 _atom_site_type_symbol
 _atom_site_label
 _atom_site_symmetry_multiplicity
 _atom_site_fract_x
 _atom_site_fract_y
 _atom_site_fract_z
 _atom_site_occupancy
  Np  Np0  1  0.000000  0.562312  0.500000  1
  Np  Np1  1  0.595680  0.012064  0.500000  1
  Np  Np2  1  0.404320  0.416384  0.500000  1
  Ga  Ga3  1  0.000000  0.249156  0.000000  1
  Sn  Sn4  1  0.751110  0.749813  0.000000  1
  Sn  Sn5  1  0.248890  0.998703  0.000000  1
  Ru  Ru6  1  0.325426  0.657943  0.000000  1
  Ru  Ru7  1  0.000000  0.021106  0.500000  1
  Ru  Ru8  1  0.674574  0.332517  0.000000  1
