# generated using pymatgen
data_Hf4Fe4Si3P
_symmetry_space_group_name_H-M   'P 1'
_cell_length_a   3.89610900
_cell_length_b   6.32143756
_cell_length_c   6.99512062
_cell_angle_alpha   90.04836864
_cell_angle_beta   90.00000000
_cell_angle_gamma   90.00000000
_symmetry_Int_Tables_number   1
_chemical_formula_structural   Hf4Fe4Si3P
_chemical_formula_sum   'Hf4 Fe4 Si3 P1'
_cell_volume   172.28283287
_cell_formula_units_Z   1
loop_
 _symmetry_equiv_pos_site_id
 _symmetry_equiv_pos_as_xyz
  1  'x, y, z'
loop_
 _atom_site_type_symbol
 _atom_site_label
 _atom_site_symmetry_multiplicity
 _atom_site_fract_x
 _atom_site_fract_y
 _atom_site_fract_z
 _atom_site_occupancy
  Hf  Hf0  1  0.250000  0.003138  0.305242  1
  Hf  Hf1  1  0.250000  0.502666  0.194838  1
  Hf  Hf2  1  0.750000  0.002343  0.696730  1
  Hf  Hf3  1  0.750000  0.499490  0.802037  1
  Fe  Fe4  1  0.250000  0.157439  0.930036  1
  Fe  Fe5  1  0.250000  0.648073  0.565357  1
  Fe  Fe6  1  0.750000  0.845541  0.065889  1
  Fe  Fe7  1  0.750000  0.341513  0.438492  1
  Si  Si8  1  0.250000  0.788315  0.892174  1
  Si  Si9  1  0.750000  0.711757  0.393071  1
  Si  Si10  1  0.750000  0.212876  0.107072  1
  P  P11  1  0.250000  0.286848  0.609061  1
