# generated using pymatgen
data_Hf20In5Sn3Sb4
_symmetry_space_group_name_H-M   'P 1'
_cell_length_a   7.41588872
_cell_length_b   8.94750783
_cell_length_c   10.82060693
_cell_angle_alpha   89.91972804
_cell_angle_beta   90.02465889
_cell_angle_gamma   89.95592707
_symmetry_Int_Tables_number   1
_chemical_formula_structural   Hf20In5Sn3Sb4
_chemical_formula_sum   'Hf20 In5 Sn3 Sb4'
_cell_volume   717.98656512
_cell_formula_units_Z   1
loop_
 _symmetry_equiv_pos_site_id
 _symmetry_equiv_pos_as_xyz
  1  'x, y, z'
loop_
 _atom_site_type_symbol
 _atom_site_label
 _atom_site_symmetry_multiplicity
 _atom_site_fract_x
 _atom_site_fract_y
 _atom_site_fract_z
 _atom_site_occupancy
  Hf  Hf0  1  0.815291  0.439729  0.557079  1
  Hf  Hf1  1  0.313877  0.062116  0.943792  1
  Hf  Hf2  1  0.184381  0.938074  0.441417  1
  Hf  Hf3  1  0.685160  0.560505  0.057550  1
  Hf  Hf4  1  0.150429  0.250050  0.725516  1
  Hf  Hf5  1  0.648334  0.251097  0.775181  1
  Hf  Hf6  1  0.851018  0.749493  0.275596  1
  Hf  Hf7  1  0.351179  0.751252  0.223646  1
  Hf  Hf8  1  0.315294  0.435698  0.942197  1
  Hf  Hf9  1  0.815448  0.066002  0.557849  1
  Hf  Hf10  1  0.684690  0.934911  0.058304  1
  Hf  Hf11  1  0.184296  0.564725  0.441294  1
  Hf  Hf12  1  0.185314  0.747601  0.713705  1
  Hf  Hf13  1  0.686058  0.748513  0.785111  1
  Hf  Hf14  1  0.815253  0.249162  0.285449  1
  Hf  Hf15  1  0.314952  0.250892  0.215122  1
  Hf  Hf16  1  0.006466  0.750306  0.992230  1
  Hf  Hf17  1  0.505681  0.749266  0.508209  1
  Hf  Hf18  1  0.992855  0.250609  0.008073  1
  Hf  Hf19  1  0.494302  0.250609  0.492546  1
  In  In20  1  0.565730  0.997021  0.326711  1
  In  In21  1  0.066445  0.503096  0.174210  1
  In  In22  1  0.433509  0.496601  0.674142  1
  In  In23  1  0.933957  0.002925  0.825062  1
  In  In24  1  0.433996  0.002561  0.674644  1
  Sn  Sn25  1  0.933564  0.495817  0.825841  1
  Sn  Sn26  1  0.566748  0.504067  0.325926  1
  Sn  Sn27  1  0.066179  0.996360  0.173945  1
  Sb  Sb28  1  0.393825  0.748828  0.956708  1
  Sb  Sb29  1  0.893009  0.752691  0.542280  1
  Sb  Sb30  1  0.605670  0.247874  0.042201  1
  Sb  Sb31  1  0.107089  0.251551  0.458467  1
