# generated using pymatgen
data_LiNd4Mn3O12
_symmetry_space_group_name_H-M   'P 1'
_cell_length_a   5.45305819
_cell_length_b   5.61371738
_cell_length_c   7.75453659
_cell_angle_alpha   90.16092432
_cell_angle_beta   89.52025574
_cell_angle_gamma   89.59928897
_symmetry_Int_Tables_number   1
_chemical_formula_structural   LiNd4Mn3O12
_chemical_formula_sum   'Li1 Nd4 Mn3 O12'
_cell_volume   237.36621024
_cell_formula_units_Z   1
loop_
 _symmetry_equiv_pos_site_id
 _symmetry_equiv_pos_as_xyz
  1  'x, y, z'
loop_
 _atom_site_type_symbol
 _atom_site_label
 _atom_site_symmetry_multiplicity
 _atom_site_fract_x
 _atom_site_fract_y
 _atom_site_fract_z
 _atom_site_occupancy
  Li  Li0  1  0.500000  0.000000  0.500000  1
  Nd  Nd1  1  0.010207  0.951685  0.738556  1
  Nd  Nd2  1  0.515982  0.560285  0.263388  1
  Nd  Nd3  1  0.484018  0.439715  0.736612  1
  Nd  Nd4  1  0.989793  0.048315  0.261444  1
  Mn  Mn5  1  0.000000  0.500000  0.500000  1
  Mn  Mn6  1  0.000000  0.500000  0.000000  1
  Mn  Mn7  1  0.500000  0.000000  0.000000  1
  O  O8  1  0.719572  0.306634  0.460855  1
  O  O9  1  0.193615  0.218266  0.540115  1
  O  O10  1  0.792728  0.784140  0.050109  1
  O  O11  1  0.283031  0.708740  0.946997  1
  O  O12  1  0.280428  0.693366  0.539145  1
  O  O13  1  0.806385  0.781734  0.459885  1
  O  O14  1  0.207272  0.215860  0.949891  1
  O  O15  1  0.716969  0.291260  0.053003  1
  O  O16  1  0.086993  0.478720  0.249913  1
  O  O17  1  0.584647  0.022252  0.763422  1
  O  O18  1  0.415353  0.977748  0.236578  1
  O  O19  1  0.913007  0.521280  0.750087  1
