# generated using pymatgen
data_Er10Ga5PbO2
_symmetry_space_group_name_H-M   'P 1'
_cell_length_a   8.83115298
_cell_length_b   8.83115313
_cell_length_c   8.83115225
_cell_angle_alpha   127.77785153
_cell_angle_beta   127.77784105
_cell_angle_gamma   76.98518706
_symmetry_Int_Tables_number   1
_chemical_formula_structural   Er10Ga5PbO2
_chemical_formula_sum   'Er10 Ga5 Pb1 O2'
_cell_volume   417.66603227
_cell_formula_units_Z   1
loop_
 _symmetry_equiv_pos_site_id
 _symmetry_equiv_pos_as_xyz
  1  'x, y, z'
loop_
 _atom_site_type_symbol
 _atom_site_label
 _atom_site_symmetry_multiplicity
 _atom_site_fract_x
 _atom_site_fract_y
 _atom_site_fract_z
 _atom_site_occupancy
  Er  Er0  1  0.002481  0.193617  0.490866  1
  Er  Er1  1  0.797249  0.306383  0.808865  1
  Er  Er2  1  0.511615  0.002481  0.808865  1
  Er  Er3  1  0.497519  0.988385  0.191135  1
  Er  Er4  1  0.988385  0.797249  0.490866  1
  Er  Er5  1  0.504423  0.504423  0.000000  1
  Er  Er6  1  0.193617  0.702751  0.191135  1
  Er  Er7  1  0.702751  0.511615  0.509134  1
  Er  Er8  1  0.306383  0.497519  0.509134  1
  Er  Er9  1  0.995577  0.995577  0.000000  1
  Ga  Ga10  1  0.868732  0.368732  0.237464  1
  Ga  Ga11  1  0.131268  0.631268  0.762536  1
  Ga  Ga12  1  0.368732  0.131268  0.500000  1
  Ga  Ga13  1  0.750000  0.750000  0.000000  1
  Ga  Ga14  1  0.631268  0.868732  0.500000  1
  Pb  Pb15  1  0.250000  0.250000  0.000000  1
  O  O16  1  0.750000  0.250000  0.500000  1
  O  O17  1  0.250000  0.750000  0.500000  1
