# generated using pymatgen
data_Dy3(YRh)2
_symmetry_space_group_name_H-M   'P 1'
_cell_length_a   6.45776593
_cell_length_b   7.18238235
_cell_length_c   8.66337710
_cell_angle_alpha   96.89256748
_cell_angle_beta   111.88253441
_cell_angle_gamma   89.99999713
_symmetry_Int_Tables_number   1
_chemical_formula_structural   Dy3(YRh)2
_chemical_formula_sum   'Dy6 Y4 Rh4'
_cell_volume   369.74305462
_cell_formula_units_Z   2
loop_
 _symmetry_equiv_pos_site_id
 _symmetry_equiv_pos_as_xyz
  1  'x, y, z'
loop_
 _atom_site_type_symbol
 _atom_site_label
 _atom_site_symmetry_multiplicity
 _atom_site_fract_x
 _atom_site_fract_y
 _atom_site_fract_z
 _atom_site_occupancy
  Dy  Dy0  1  0.210719  0.185492  0.561596  1
  Dy  Dy1  1  0.649123  0.314508  0.438404  1
  Dy  Dy2  1  0.789281  0.814508  0.438404  1
  Dy  Dy3  1  0.350877  0.685492  0.561596  1
  Dy  Dy4  1  0.425399  0.250000  0.000000  1
  Dy  Dy5  1  0.574601  0.750000  0.000000  1
  Y  Y6  1  0.791181  0.082389  0.811774  1
  Y  Y7  1  0.979407  0.417611  0.188226  1
  Y  Y8  1  0.208819  0.917611  0.188226  1
  Y  Y9  1  0.020593  0.582389  0.811774  1
  Rh  Rh10  1  0.594583  0.427309  0.777989  1
  Rh  Rh11  1  0.816594  0.072691  0.222011  1
  Rh  Rh12  1  0.405417  0.572691  0.222011  1
  Rh  Rh13  1  0.183406  0.927309  0.777989  1
