# generated using pymatgen
data_La2Ho4Ir7Rh11
_symmetry_space_group_name_H-M   'P 1'
_cell_length_a   5.32385839
_cell_length_b   5.31735567
_cell_length_c   17.54047032
_cell_angle_alpha   89.99999859
_cell_angle_beta   89.98117282
_cell_angle_gamma   119.95961150
_symmetry_Int_Tables_number   1
_chemical_formula_structural   La2Ho4Ir7Rh11
_chemical_formula_sum   'La2 Ho4 Ir7 Rh11'
_cell_volume   430.20023840
_cell_formula_units_Z   1
loop_
 _symmetry_equiv_pos_site_id
 _symmetry_equiv_pos_as_xyz
  1  'x, y, z'
loop_
 _atom_site_type_symbol
 _atom_site_label
 _atom_site_symmetry_multiplicity
 _atom_site_fract_x
 _atom_site_fract_y
 _atom_site_fract_z
 _atom_site_occupancy
  La  La0  1  0.333613  0.666807  0.749814  1
  La  La1  1  0.666607  0.333303  0.249591  1
  Ho  Ho2  1  0.332273  0.666137  0.540794  1
  Ho  Ho3  1  0.666847  0.333423  0.040781  1
  Ho  Ho4  1  0.666830  0.333414  0.459547  1
  Ho  Ho5  1  0.333100  0.666550  0.959732  1
  Ir  Ir6  1  0.167531  0.335144  0.124336  1
  Ir  Ir7  1  0.834253  0.665502  0.624081  1
  Ir  Ir8  1  0.664753  0.832377  0.124221  1
  Ir  Ir9  1  0.167531  0.832388  0.124336  1
  Ir  Ir10  1  0.834253  0.168750  0.624081  1
  Ir  Ir11  1  0.999977  0.999989  0.999449  1
  Ir  Ir12  1  0.997568  0.998784  0.499526  1
  Rh  Rh13  1  0.335714  0.167856  0.624043  1
  Rh  Rh14  1  0.832824  0.665094  0.876233  1
  Rh  Rh15  1  0.832824  0.167729  0.876233  1
  Rh  Rh16  1  0.334966  0.167483  0.875914  1
  Rh  Rh17  1  0.665096  0.832548  0.376308  1
  Rh  Rh18  1  0.167457  0.832416  0.376194  1
  Rh  Rh19  1  0.167457  0.335042  0.376194  1
  Rh  Rh20  1  0.000098  0.000049  0.249694  1
  Rh  Rh21  1  0.997464  0.998732  0.749733  1
  Rh  Rh22  1  0.333680  0.666840  0.249723  1
  Rh  Rh23  1  0.667284  0.333642  0.749444  1
