# generated using pymatgen
data_SrCe(Si2Ni9)2
_symmetry_space_group_name_H-M   'P 1'
_cell_length_a   7.59049285
_cell_length_b   7.59049308
_cell_length_c   7.59049291
_cell_angle_alpha   99.58911938
_cell_angle_beta   99.58912128
_cell_angle_gamma   131.82339921
_symmetry_Int_Tables_number   1
_chemical_formula_structural   SrCe(Si2Ni9)2
_chemical_formula_sum   'Sr1 Ce1 Si4 Ni18'
_cell_volume   297.52025688
_cell_formula_units_Z   1
loop_
 _symmetry_equiv_pos_site_id
 _symmetry_equiv_pos_as_xyz
  1  'x, y, z'
loop_
 _atom_site_type_symbol
 _atom_site_label
 _atom_site_symmetry_multiplicity
 _atom_site_fract_x
 _atom_site_fract_y
 _atom_site_fract_z
 _atom_site_occupancy
  Sr  Sr0  1  0.500000  0.500000  0.000000  1
  Ce  Ce1  1  0.750000  0.250000  0.500000  1
  Si  Si2  1  0.624566  0.874156  0.750410  1
  Si  Si3  1  0.125844  0.375434  0.249590  1
  Si  Si4  1  0.125844  0.876254  0.750410  1
  Si  Si5  1  0.123746  0.874156  0.249590  1
  Ni  Ni6  1  0.250000  0.750000  0.500000  1
  Ni  Ni7  1  0.000000  0.000000  0.000000  1
  Ni  Ni8  1  0.688531  0.018192  0.080338  1
  Ni  Ni9  1  0.688531  0.608194  0.670338  1
  Ni  Ni10  1  0.262763  0.437257  0.577398  1
  Ni  Ni11  1  0.262763  0.685365  0.825506  1
  Ni  Ni12  1  0.937855  0.018192  0.329662  1
  Ni  Ni13  1  0.937855  0.608194  0.919662  1
  Ni  Ni14  1  0.859860  0.437257  0.174494  1
  Ni  Ni15  1  0.859860  0.685365  0.422602  1
  Ni  Ni16  1  0.562743  0.737237  0.422602  1
  Ni  Ni17  1  0.562743  0.140140  0.825506  1
  Ni  Ni18  1  0.981808  0.311469  0.919662  1
  Ni  Ni19  1  0.981808  0.062145  0.670338  1
  Ni  Ni20  1  0.314635  0.737237  0.174494  1
  Ni  Ni21  1  0.314635  0.140140  0.577398  1
  Ni  Ni22  1  0.391806  0.311469  0.329662  1
  Ni  Ni23  1  0.391806  0.062145  0.080338  1
