# generated using pymatgen
data_Hf4AlSi5Ir7
_symmetry_space_group_name_H-M   'P 1'
_cell_length_a   7.01819526
_cell_length_b   7.01819560
_cell_length_c   7.01819410
_cell_angle_alpha   108.88416021
_cell_angle_beta   109.76553634
_cell_angle_gamma   109.76554629
_symmetry_Int_Tables_number   1
_chemical_formula_structural   Hf4AlSi5Ir7
_chemical_formula_sum   'Hf4 Al1 Si5 Ir7'
_cell_volume   266.08493963
_cell_formula_units_Z   1
loop_
 _symmetry_equiv_pos_site_id
 _symmetry_equiv_pos_as_xyz
  1  'x, y, z'
loop_
 _atom_site_type_symbol
 _atom_site_label
 _atom_site_symmetry_multiplicity
 _atom_site_fract_x
 _atom_site_fract_y
 _atom_site_fract_z
 _atom_site_occupancy
  Hf  Hf0  1  0.528436  0.526478  0.526478  1
  Hf  Hf1  1  0.000000  0.998042  0.526478  1
  Hf  Hf2  1  0.000000  0.526478  0.998042  1
  Hf  Hf3  1  0.471564  0.998042  0.998042  1
  Al  Al4  1  0.000000  0.298693  0.298693  1
  Si  Si5  1  0.317362  0.007976  0.325338  1
  Si  Si6  1  0.317362  0.325338  0.007976  1
  Si  Si7  1  0.000000  0.660186  0.660186  1
  Si  Si8  1  0.682638  0.007976  0.690614  1
  Si  Si9  1  0.682638  0.690614  0.007976  1
  Ir  Ir10  1  0.500000  0.750750  0.250750  1
  Ir  Ir11  1  0.252778  0.497701  0.750479  1
  Ir  Ir12  1  0.747222  0.244923  0.497701  1
  Ir  Ir13  1  0.747222  0.497701  0.244923  1
  Ir  Ir14  1  0.500000  0.250750  0.750750  1
  Ir  Ir15  1  0.252778  0.750479  0.497701  1
  Ir  Ir16  1  0.000000  0.967870  0.967870  1
