# generated using pymatgen
data_Tb8Hf4Zr5Si16Mo3
_symmetry_space_group_name_H-M   'P 1'
_cell_length_a   7.23922183
_cell_length_b   7.23553235
_cell_length_c   13.24584925
_cell_angle_alpha   90.10025187
_cell_angle_beta   90.13165541
_cell_angle_gamma   90.06634624
_symmetry_Int_Tables_number   1
_chemical_formula_structural   Tb8Hf4Zr5Si16Mo3
_chemical_formula_sum   'Tb8 Hf4 Zr5 Si16 Mo3'
_cell_volume   693.80923797
_cell_formula_units_Z   1
loop_
 _symmetry_equiv_pos_site_id
 _symmetry_equiv_pos_as_xyz
  1  'x, y, z'
loop_
 _atom_site_type_symbol
 _atom_site_label
 _atom_site_symmetry_multiplicity
 _atom_site_fract_x
 _atom_site_fract_y
 _atom_site_fract_z
 _atom_site_occupancy
  Tb  Tb0  1  0.999714  0.345187  0.214908  1
  Tb  Tb1  1  0.002849  0.656092  0.713903  1
  Tb  Tb2  1  0.154532  0.500788  0.463083  1
  Tb  Tb3  1  0.499694  0.845479  0.037025  1
  Tb  Tb4  1  0.847475  0.501094  0.967672  1
  Tb  Tb5  1  0.498458  0.152222  0.532462  1
  Tb  Tb6  1  0.344398  0.996576  0.786013  1
  Tb  Tb7  1  0.654401  0.000516  0.285108  1
  Hf  Hf8  1  0.492322  0.353430  0.126113  1
  Hf  Hf9  1  0.647025  0.507880  0.373925  1
  Hf  Hf10  1  0.994426  0.144284  0.622762  1
  Hf  Hf11  1  0.007659  0.853787  0.126665  1
  Zr  Zr12  1  0.676038  0.323769  0.749844  1
  Zr  Zr13  1  0.146239  0.993355  0.373410  1
  Zr  Zr14  1  0.855523  0.005066  0.877191  1
  Zr  Zr15  1  0.505504  0.647742  0.621427  1
  Zr  Zr16  1  0.351705  0.494409  0.878604  1
  Si  Si17  1  0.361721  0.298689  0.316158  1
  Si  Si18  1  0.638973  0.706997  0.817112  1
  Si  Si19  1  0.202942  0.861745  0.565757  1
  Si  Si20  1  0.139209  0.796302  0.935446  1
  Si  Si21  1  0.795924  0.138450  0.068031  1
  Si  Si22  1  0.860743  0.204908  0.433022  1
  Si  Si23  1  0.291491  0.360147  0.682357  1
  Si  Si24  1  0.703039  0.638656  0.183393  1
  Si  Si25  1  0.295408  0.052359  0.183854  1
  Si  Si26  1  0.705832  0.945908  0.681940  1
  Si  Si27  1  0.448599  0.794403  0.432113  1
  Si  Si28  1  0.205153  0.552587  0.068089  1
  Si  Si29  1  0.547542  0.202962  0.938251  1
  Si  Si30  1  0.797480  0.451292  0.562040  1
  Si  Si31  1  0.054583  0.294616  0.817040  1
  Si  Si32  1  0.947345  0.704569  0.315290  1
  Mo  Mo33  1  0.177248  0.175292  0.002499  1
  Mo  Mo34  1  0.824235  0.823149  0.497927  1
  Mo  Mo35  1  0.324578  0.675294  0.249565  1
