# generated using pymatgen
data_Nd11Dy(Si7Br3)2
_symmetry_space_group_name_H-M   'P 1'
_cell_length_a   4.08408200
_cell_length_b   11.69901928
_cell_length_c   16.51425086
_cell_angle_alpha   89.63634554
_cell_angle_beta   90.00000000
_cell_angle_gamma   90.00000000
_symmetry_Int_Tables_number   1
_chemical_formula_structural   Nd11Dy(Si7Br3)2
_chemical_formula_sum   'Nd11 Dy1 Si14 Br6'
_cell_volume   789.03095169
_cell_formula_units_Z   1
loop_
 _symmetry_equiv_pos_site_id
 _symmetry_equiv_pos_as_xyz
  1  'x, y, z'
loop_
 _atom_site_type_symbol
 _atom_site_label
 _atom_site_symmetry_multiplicity
 _atom_site_fract_x
 _atom_site_fract_y
 _atom_site_fract_z
 _atom_site_occupancy
  Nd  Nd0  1  0.500000  0.341276  0.500242  1
  Nd  Nd1  1  0.000000  0.658060  0.999327  1
  Nd  Nd2  1  0.500000  0.359059  0.756887  1
  Nd  Nd3  1  0.000000  0.641693  0.742289  1
  Nd  Nd4  1  0.500000  0.357589  0.244094  1
  Nd  Nd5  1  0.000000  0.642250  0.256526  1
  Nd  Nd6  1  0.500000  0.064438  0.880411  1
  Nd  Nd7  1  0.000000  0.936178  0.618572  1
  Nd  Nd8  1  0.500000  0.064007  0.120658  1
  Nd  Nd9  1  0.500000  0.355312  0.000314  1
  Nd  Nd10  1  0.000000  0.646413  0.499092  1
  Dy  Dy11  1  0.000000  0.932476  0.381560  1
  Si  Si12  1  0.000000  0.148991  0.000391  1
  Si  Si13  1  0.500000  0.853817  0.498195  1
  Si  Si14  1  0.500000  0.568503  0.876118  1
  Si  Si15  1  0.000000  0.432041  0.622973  1
  Si  Si16  1  0.500000  0.568278  0.123873  1
  Si  Si17  1  0.000000  0.432568  0.376562  1
  Si  Si18  1  0.000000  0.252222  0.873620  1
  Si  Si19  1  0.500000  0.748729  0.625282  1
  Si  Si20  1  0.000000  0.252053  0.127051  1
  Si  Si21  1  0.500000  0.750890  0.372371  1
  Si  Si22  1  0.000000  0.458266  0.876952  1
  Si  Si23  1  0.500000  0.542462  0.622552  1
  Si  Si24  1  0.500000  0.543153  0.376577  1
  Si  Si25  1  0.000000  0.457925  0.123594  1
  Br  Br26  1  0.500000  0.109912  0.692473  1
  Br  Br27  1  0.000000  0.890245  0.807047  1
  Br  Br28  1  0.000000  0.136618  0.496480  1
  Br  Br29  1  0.500000  0.860554  0.000958  1
  Br  Br30  1  0.500000  0.101064  0.310388  1
  Br  Br31  1  0.000000  0.892953  0.196571  1
