# generated using pymatgen
data_TbHoCu2Ni5
_symmetry_space_group_name_H-M   'P 1'
_cell_length_a   4.96981317
_cell_length_b   4.96981431
_cell_length_c   12.39632374
_cell_angle_alpha   78.43642913
_cell_angle_beta   78.43642789
_cell_angle_gamma   59.99999820
_symmetry_Int_Tables_number   1
_chemical_formula_structural   TbHoCu2Ni5
_chemical_formula_sum   'Tb2 Ho2 Cu4 Ni10'
_cell_volume   257.95654948
_cell_formula_units_Z   2
loop_
 _symmetry_equiv_pos_site_id
 _symmetry_equiv_pos_as_xyz
  1  'x, y, z'
loop_
 _atom_site_type_symbol
 _atom_site_label
 _atom_site_symmetry_multiplicity
 _atom_site_fract_x
 _atom_site_fract_y
 _atom_site_fract_z
 _atom_site_occupancy
  Tb  Tb0  1  0.950060  0.950060  0.149818  1
  Tb  Tb1  1  0.049940  0.049940  0.850182  1
  Ho  Ho2  1  0.852771  0.852771  0.441689  1
  Ho  Ho3  1  0.147229  0.147229  0.558311  1
  Cu  Cu4  1  0.722147  0.722147  0.833562  1
  Cu  Cu5  1  0.277853  0.277853  0.166438  1
  Cu  Cu6  1  0.610934  0.610934  0.167200  1
  Cu  Cu7  1  0.389066  0.389066  0.832800  1
  Ni  Ni8  1  0.500000  0.500000  0.500000  1
  Ni  Ni9  1  0.000000  0.500000  0.000000  1
  Ni  Ni10  1  0.500000  0.000000  0.000000  1
  Ni  Ni11  1  0.500000  0.500000  0.000000  1
  Ni  Ni12  1  0.387903  0.387903  0.332869  1
  Ni  Ni13  1  0.891324  0.387903  0.332869  1
  Ni  Ni14  1  0.387903  0.891324  0.332869  1
  Ni  Ni15  1  0.612097  0.612097  0.667131  1
  Ni  Ni16  1  0.108676  0.612097  0.667131  1
  Ni  Ni17  1  0.612097  0.108676  0.667131  1
