# generated using pymatgen
data_Er6Al24Ir5Os3
_symmetry_space_group_name_H-M   'P 1'
_cell_length_a   8.81339887
_cell_length_b   8.76160927
_cell_length_c   9.52547968
_cell_angle_alpha   89.99999770
_cell_angle_beta   89.83582303
_cell_angle_gamma   119.80580924
_symmetry_Int_Tables_number   1
_chemical_formula_structural   Er6Al24Ir5Os3
_chemical_formula_sum   'Er6 Al24 Ir5 Os3'
_cell_volume   638.24721630
_cell_formula_units_Z   1
loop_
 _symmetry_equiv_pos_site_id
 _symmetry_equiv_pos_as_xyz
  1  'x, y, z'
loop_
 _atom_site_type_symbol
 _atom_site_label
 _atom_site_symmetry_multiplicity
 _atom_site_fract_x
 _atom_site_fract_y
 _atom_site_fract_z
 _atom_site_occupancy
  Er  Er0  1  0.191578  0.388641  0.251183  1
  Er  Er1  1  0.808422  0.611359  0.748817  1
  Er  Er2  1  0.612427  0.806214  0.250053  1
  Er  Er3  1  0.387573  0.193786  0.749947  1
  Er  Er4  1  0.191578  0.802938  0.251183  1
  Er  Er5  1  0.808422  0.197062  0.748817  1
  Al  Al6  1  0.333055  0.666528  0.029574  1
  Al  Al7  1  0.666945  0.333472  0.970426  1
  Al  Al8  1  0.668260  0.334129  0.528287  1
  Al  Al9  1  0.331740  0.665871  0.471713  1
  Al  Al10  1  0.163296  0.327889  0.576823  1
  Al  Al11  1  0.836704  0.672111  0.423177  1
  Al  Al12  1  0.673303  0.836651  0.576512  1
  Al  Al13  1  0.834876  0.672336  0.076974  1
  Al  Al14  1  0.326697  0.163349  0.423488  1
  Al  Al15  1  0.165124  0.327664  0.923026  1
  Al  Al16  1  0.163296  0.835407  0.576823  1
  Al  Al17  1  0.326350  0.163175  0.077095  1
  Al  Al18  1  0.836704  0.164593  0.423177  1
  Al  Al19  1  0.673650  0.836825  0.922905  1
  Al  Al20  1  0.834876  0.162540  0.076974  1
  Al  Al21  1  0.165124  0.837460  0.923026  1
  Al  Al22  1  0.561380  0.124043  0.249725  1
  Al  Al23  1  0.438620  0.875957  0.750275  1
  Al  Al24  1  0.874546  0.437273  0.250485  1
  Al  Al25  1  0.125454  0.562727  0.749515  1
  Al  Al26  1  0.561380  0.437337  0.249725  1
  Al  Al27  1  0.438620  0.562663  0.750275  1
  Al  Al28  1  0.998311  0.999155  0.249985  1
  Al  Al29  1  0.001689  0.000845  0.750015  1
  Ir  Ir30  1  0.500000  0.000000  0.000000  1
  Ir  Ir31  1  0.000000  0.500000  0.000000  1
  Ir  Ir32  1  0.500000  0.000000  0.500000  1
  Ir  Ir33  1  0.500000  0.500000  0.000000  1
  Ir  Ir34  1  0.500000  0.500000  0.500000  1
  Os  Os35  1  0.000000  0.500000  0.500000  1
  Os  Os36  1  0.000000  0.000000  0.000000  1
  Os  Os37  1  0.000000  0.000000  0.500000  1
