# generated using pymatgen
data_NdLu2Mg(Co4P3)2
_symmetry_space_group_name_H-M   'P 1'
_cell_length_a   3.72463100
_cell_length_b   10.61300400
_cell_length_c   12.25992500
_cell_angle_alpha   90.00000000
_cell_angle_beta   90.00000000
_cell_angle_gamma   90.00000000
_symmetry_Int_Tables_number   1
_chemical_formula_structural   NdLu2Mg(Co4P3)2
_chemical_formula_sum   'Nd2 Lu4 Mg2 Co16 P12'
_cell_volume   484.62899587
_cell_formula_units_Z   2
loop_
 _symmetry_equiv_pos_site_id
 _symmetry_equiv_pos_as_xyz
  1  'x, y, z'
loop_
 _atom_site_type_symbol
 _atom_site_label
 _atom_site_symmetry_multiplicity
 _atom_site_fract_x
 _atom_site_fract_y
 _atom_site_fract_z
 _atom_site_occupancy
  Nd  Nd0  1  0.000000  0.500000  0.527216  1
  Nd  Nd1  1  0.500000  0.000000  0.472784  1
  Lu  Lu2  1  0.500000  0.822311  0.205230  1
  Lu  Lu3  1  0.500000  0.177689  0.205230  1
  Lu  Lu4  1  0.000000  0.677689  0.794770  1
  Lu  Lu5  1  0.000000  0.322311  0.794770  1
  Mg  Mg6  1  0.500000  0.500000  0.154130  1
  Mg  Mg7  1  0.000000  0.000000  0.845870  1
  Co  Co8  1  0.500000  0.500000  0.709799  1
  Co  Co9  1  0.000000  0.000000  0.290201  1
  Co  Co10  1  0.000000  0.500000  0.988362  1
  Co  Co11  1  0.500000  0.000000  0.011638  1
  Co  Co12  1  0.500000  0.332376  0.996616  1
  Co  Co13  1  0.500000  0.667624  0.996616  1
  Co  Co14  1  0.000000  0.167624  0.003384  1
  Co  Co15  1  0.000000  0.832376  0.003384  1
  Co  Co16  1  0.500000  0.295766  0.430279  1
  Co  Co17  1  0.500000  0.704234  0.430279  1
  Co  Co18  1  0.000000  0.204234  0.569721  1
  Co  Co19  1  0.000000  0.795766  0.569721  1
  Co  Co20  1  0.500000  0.877232  0.709418  1
  Co  Co21  1  0.500000  0.122768  0.709418  1
  Co  Co22  1  0.000000  0.622768  0.290582  1
  Co  Co23  1  0.000000  0.377232  0.290582  1
  P  P24  1  0.500000  0.500000  0.885556  1
  P  P25  1  0.000000  0.000000  0.114444  1
  P  P26  1  0.500000  0.500000  0.351783  1
  P  P27  1  0.000000  0.000000  0.648217  1
  P  P28  1  0.500000  0.307151  0.618347  1
  P  P29  1  0.500000  0.692849  0.618347  1
  P  P30  1  0.000000  0.192849  0.381653  1
  P  P31  1  0.000000  0.807151  0.381653  1
  P  P32  1  0.500000  0.837546  0.892526  1
  P  P33  1  0.500000  0.162454  0.892526  1
  P  P34  1  0.000000  0.662454  0.107474  1
  P  P35  1  0.000000  0.337546  0.107474  1
