# generated using pymatgen
data_Be6Co2Tc3Mo
_symmetry_space_group_name_H-M   'P 1'
_cell_length_a   4.48975000
_cell_length_b   4.48975038
_cell_length_c   7.07715100
_cell_angle_alpha   90.00000000
_cell_angle_beta   90.00000000
_cell_angle_gamma   119.99999717
_symmetry_Int_Tables_number   1
_chemical_formula_structural   Be6Co2Tc3Mo
_chemical_formula_sum   'Be6 Co2 Tc3 Mo1'
_cell_volume   123.54735764
_cell_formula_units_Z   1
loop_
 _symmetry_equiv_pos_site_id
 _symmetry_equiv_pos_as_xyz
  1  'x, y, z'
loop_
 _atom_site_type_symbol
 _atom_site_label
 _atom_site_symmetry_multiplicity
 _atom_site_fract_x
 _atom_site_fract_y
 _atom_site_fract_z
 _atom_site_occupancy
  Be  Be0  1  0.830844  0.169156  0.252038  1
  Be  Be1  1  0.830844  0.661687  0.252038  1
  Be  Be2  1  0.338313  0.169156  0.252038  1
  Be  Be3  1  0.168194  0.831806  0.748749  1
  Be  Be4  1  0.168194  0.336389  0.748749  1
  Be  Be5  1  0.663611  0.831806  0.748749  1
  Co  Co6  1  0.000000  0.000000  0.502034  1
  Co  Co7  1  0.000000  0.000000  0.999822  1
  Tc  Tc8  1  0.333333  0.666667  0.429068  1
  Tc  Tc9  1  0.666667  0.333333  0.570923  1
  Tc  Tc10  1  0.666667  0.333333  0.927422  1
  Mo  Mo11  1  0.333333  0.666667  0.068370  1
