# generated using pymatgen
data_PrY19Sn16
_symmetry_space_group_name_H-M   'P 1'
_cell_length_a   8.06679117
_cell_length_b   8.21978803
_cell_length_c   15.53847377
_cell_angle_alpha   90.01067763
_cell_angle_beta   89.80846223
_cell_angle_gamma   89.87370648
_symmetry_Int_Tables_number   1
_chemical_formula_structural   PrY19Sn16
_chemical_formula_sum   'Pr1 Y19 Sn16'
_cell_volume   1030.30617243
_cell_formula_units_Z   1
loop_
 _symmetry_equiv_pos_site_id
 _symmetry_equiv_pos_as_xyz
  1  'x, y, z'
loop_
 _atom_site_type_symbol
 _atom_site_label
 _atom_site_symmetry_multiplicity
 _atom_site_fract_x
 _atom_site_fract_y
 _atom_site_fract_z
 _atom_site_occupancy
  Pr  Pr0  1  0.017102  0.180129  0.903568  1
  Y  Y1  1  0.366491  0.836432  0.877542  1
  Y  Y2  1  0.867574  0.663561  0.620928  1
  Y  Y3  1  0.632117  0.163025  0.377970  1
  Y  Y4  1  0.134055  0.337153  0.122410  1
  Y  Y5  1  0.633845  0.163538  0.122710  1
  Y  Y6  1  0.132330  0.336921  0.378137  1
  Y  Y7  1  0.368012  0.836568  0.621408  1
  Y  Y8  1  0.866862  0.663042  0.878042  1
  Y  Y9  1  0.520322  0.321852  0.902183  1
  Y  Y10  1  0.021354  0.179588  0.598257  1
  Y  Y11  1  0.479187  0.679110  0.401920  1
  Y  Y12  1  0.980518  0.819526  0.098207  1
  Y  Y13  1  0.480127  0.679631  0.098099  1
  Y  Y14  1  0.979247  0.820763  0.401983  1
  Y  Y15  1  0.520690  0.321084  0.596814  1
  Y  Y16  1  0.199102  0.502293  0.749347  1
  Y  Y17  1  0.698751  0.997229  0.749072  1
  Y  Y18  1  0.801159  0.497864  0.250287  1
  Y  Y19  1  0.301400  0.002107  0.250445  1
  Sn  Sn20  1  0.296660  0.033594  0.043656  1
  Sn  Sn21  1  0.791735  0.464179  0.457926  1
  Sn  Sn22  1  0.708603  0.965400  0.541654  1
  Sn  Sn23  1  0.208959  0.538779  0.959041  1
  Sn  Sn24  1  0.701977  0.959719  0.959714  1
  Sn  Sn25  1  0.208059  0.535724  0.541536  1
  Sn  Sn26  1  0.291823  0.035458  0.458100  1
  Sn  Sn27  1  0.792324  0.464464  0.042129  1
  Sn  Sn28  1  0.565050  0.619681  0.749781  1
  Sn  Sn29  1  0.065350  0.878835  0.749441  1
  Sn  Sn30  1  0.435130  0.380854  0.250259  1
  Sn  Sn31  1  0.935345  0.119741  0.250204  1
  Sn  Sn32  1  0.330841  0.146337  0.749044  1
  Sn  Sn33  1  0.825675  0.355808  0.747963  1
  Sn  Sn34  1  0.671236  0.853533  0.250070  1
  Sn  Sn35  1  0.170985  0.646476  0.250154  1
