# generated using pymatgen
data_Ho3Zr2SnSb2
_symmetry_space_group_name_H-M   'P 1'
_cell_length_a   8.79176710
_cell_length_b   8.79403277
_cell_length_c   6.01216300
_cell_angle_alpha   90.00000000
_cell_angle_beta   90.00000000
_cell_angle_gamma   120.00852132
_symmetry_Int_Tables_number   1
_chemical_formula_structural   Ho3Zr2SnSb2
_chemical_formula_sum   'Ho6 Zr4 Sn2 Sb4'
_cell_volume   402.52080695
_cell_formula_units_Z   2
loop_
 _symmetry_equiv_pos_site_id
 _symmetry_equiv_pos_as_xyz
  1  'x, y, z'
loop_
 _atom_site_type_symbol
 _atom_site_label
 _atom_site_symmetry_multiplicity
 _atom_site_fract_x
 _atom_site_fract_y
 _atom_site_fract_z
 _atom_site_occupancy
  Ho  Ho0  1  0.000067  0.754458  0.750000  1
  Ho  Ho1  1  0.000067  0.245609  0.250000  1
  Ho  Ho2  1  0.755900  0.757056  0.250000  1
  Ho  Ho3  1  0.755900  0.998844  0.750000  1
  Ho  Ho4  1  0.245524  0.244690  0.750000  1
  Ho  Ho5  1  0.245524  0.000834  0.250000  1
  Zr  Zr6  1  0.331888  0.665944  0.500000  1
  Zr  Zr7  1  0.667650  0.333825  0.000000  1
  Zr  Zr8  1  0.667650  0.333825  0.500000  1
  Zr  Zr9  1  0.331888  0.665944  0.000000  1
  Sn  Sn10  1  0.602158  0.602082  0.750000  1
  Sn  Sn11  1  0.602158  0.000077  0.250000  1
  Sb  Sb12  1  0.397150  0.999993  0.750000  1
  Sb  Sb13  1  0.397150  0.397157  0.250000  1
  Sb  Sb14  1  0.999662  0.604818  0.250000  1
  Sb  Sb15  1  0.999662  0.394844  0.750000  1
