# generated using pymatgen
data_Zr9Sc(CoP3)2
_symmetry_space_group_name_H-M   'P 1'
_cell_length_a   3.66409000
_cell_length_b   10.24209892
_cell_length_c   17.23240741
_cell_angle_alpha   89.60586223
_cell_angle_beta   90.00000000
_cell_angle_gamma   90.00000000
_symmetry_Int_Tables_number   1
_chemical_formula_structural   Zr9Sc(CoP3)2
_chemical_formula_sum   'Zr18 Sc2 Co4 P12'
_cell_volume   646.68200583
_cell_formula_units_Z   2
loop_
 _symmetry_equiv_pos_site_id
 _symmetry_equiv_pos_as_xyz
  1  'x, y, z'
loop_
 _atom_site_type_symbol
 _atom_site_label
 _atom_site_symmetry_multiplicity
 _atom_site_fract_x
 _atom_site_fract_y
 _atom_site_fract_z
 _atom_site_occupancy
  Zr  Zr0  1  0.750000  0.622014  0.023841  1
  Zr  Zr1  1  0.250000  0.377986  0.976159  1
  Zr  Zr2  1  0.250000  0.061013  0.076405  1
  Zr  Zr3  1  0.750000  0.938987  0.923595  1
  Zr  Zr4  1  0.750000  0.559047  0.423823  1
  Zr  Zr5  1  0.250000  0.440953  0.576177  1
  Zr  Zr6  1  0.250000  0.486358  0.270574  1
  Zr  Zr7  1  0.750000  0.513642  0.729426  1
  Zr  Zr8  1  0.750000  0.988609  0.229668  1
  Zr  Zr9  1  0.250000  0.011391  0.770332  1
  Zr  Zr10  1  0.250000  0.811819  0.367091  1
  Zr  Zr11  1  0.750000  0.188181  0.632909  1
  Zr  Zr12  1  0.750000  0.314574  0.131608  1
  Zr  Zr13  1  0.250000  0.685426  0.868392  1
  Zr  Zr14  1  0.250000  0.752306  0.167481  1
  Zr  Zr15  1  0.750000  0.247694  0.832519  1
  Zr  Zr16  1  0.750000  0.252091  0.333626  1
  Zr  Zr17  1  0.250000  0.747909  0.666374  1
  Sc  Sc18  1  0.250000  0.122705  0.475248  1
  Sc  Sc19  1  0.750000  0.877295  0.524752  1
  Co  Co20  1  0.250000  0.360531  0.412798  1
  Co  Co21  1  0.750000  0.639469  0.587202  1
  Co  Co22  1  0.750000  0.865459  0.087660  1
  Co  Co23  1  0.250000  0.134541  0.912340  1
  P  P24  1  0.250000  0.813618  0.010273  1
  P  P25  1  0.750000  0.186382  0.989727  1
  P  P26  1  0.750000  0.312563  0.492088  1
  P  P27  1  0.250000  0.687437  0.507912  1
  P  P28  1  0.250000  0.504090  0.114937  1
  P  P29  1  0.750000  0.495910  0.885063  1
  P  P30  1  0.750000  0.999626  0.386413  1
  P  P31  1  0.250000  0.000374  0.613587  1
  P  P32  1  0.250000  0.186807  0.218690  1
  P  P33  1  0.750000  0.813193  0.781310  1
  P  P34  1  0.750000  0.684590  0.281816  1
  P  P35  1  0.250000  0.315410  0.718184  1
