# generated using pymatgen
data_Sr4TiMnO8
_symmetry_space_group_name_H-M   'P 1'
_cell_length_a   6.90176737
_cell_length_b   6.90176648
_cell_length_c   5.48915700
_cell_angle_alpha   90.00000000
_cell_angle_beta   90.00000000
_cell_angle_gamma   133.12293699
_symmetry_Int_Tables_number   1
_chemical_formula_structural   Sr4TiMnO8
_chemical_formula_sum   'Sr4 Ti1 Mn1 O8'
_cell_volume   190.84591204
_cell_formula_units_Z   1
loop_
 _symmetry_equiv_pos_site_id
 _symmetry_equiv_pos_as_xyz
  1  'x, y, z'
loop_
 _atom_site_type_symbol
 _atom_site_label
 _atom_site_symmetry_multiplicity
 _atom_site_fract_x
 _atom_site_fract_y
 _atom_site_fract_z
 _atom_site_occupancy
  Sr  Sr0  1  0.645340  0.354660  0.000000  1
  Sr  Sr1  1  0.144518  0.855482  0.500000  1
  Sr  Sr2  1  0.855482  0.144518  0.500000  1
  Sr  Sr3  1  0.354660  0.645340  0.000000  1
  Ti  Ti4  1  0.500000  0.500000  0.500000  1
  Mn  Mn5  1  0.000000  0.000000  0.000000  1
  O  O6  1  0.843479  0.156521  0.000000  1
  O  O7  1  0.341806  0.658194  0.500000  1
  O  O8  1  0.658194  0.341806  0.500000  1
  O  O9  1  0.156521  0.843479  0.000000  1
  O  O10  1  0.752684  0.752684  0.753123  1
  O  O11  1  0.247316  0.247316  0.246877  1
  O  O12  1  0.247316  0.247316  0.753123  1
  O  O13  1  0.752684  0.752684  0.246877  1
