# generated using pymatgen
data_Er7LuCd2IrRu
_symmetry_space_group_name_H-M   'P 1'
_cell_length_a   9.53836444
_cell_length_b   9.53836465
_cell_length_c   9.58247900
_cell_angle_alpha   59.84689344
_cell_angle_beta   59.84689270
_cell_angle_gamma   59.65485745
_symmetry_Int_Tables_number   1
_chemical_formula_structural   Er7LuCd2IrRu
_chemical_formula_sum   'Er14 Lu2 Cd4 Ir2 Ru2'
_cell_volume   613.42486716
_cell_formula_units_Z   2
loop_
 _symmetry_equiv_pos_site_id
 _symmetry_equiv_pos_as_xyz
  1  'x, y, z'
loop_
 _atom_site_type_symbol
 _atom_site_label
 _atom_site_symmetry_multiplicity
 _atom_site_fract_x
 _atom_site_fract_y
 _atom_site_fract_z
 _atom_site_occupancy
  Er  Er0  1  0.596699  0.209585  0.596858  1
  Er  Er1  1  0.209585  0.596699  0.596858  1
  Er  Er2  1  0.061364  0.438049  0.440521  1
  Er  Er3  1  0.438049  0.061364  0.060066  1
  Er  Er4  1  0.438049  0.061364  0.440521  1
  Er  Er5  1  0.061364  0.438049  0.060066  1
  Er  Er6  1  0.438640  0.438640  0.061360  1
  Er  Er7  1  0.059453  0.059453  0.440547  1
  Er  Er8  1  0.188584  0.809454  0.813207  1
  Er  Er9  1  0.809454  0.188584  0.188756  1
  Er  Er10  1  0.809454  0.188584  0.813207  1
  Er  Er11  1  0.188584  0.809454  0.188756  1
  Er  Er12  1  0.810404  0.810404  0.189596  1
  Er  Er13  1  0.188022  0.188022  0.811978  1
  Lu  Lu14  1  0.597858  0.597858  0.597642  1
  Lu  Lu15  1  0.597858  0.597858  0.206640  1
  Cd  Cd16  1  0.830446  0.830446  0.831003  1
  Cd  Cd17  1  0.830446  0.830446  0.508104  1
  Cd  Cd18  1  0.830641  0.507203  0.831078  1
  Cd  Cd19  1  0.507203  0.830641  0.831078  1
  Ir  Ir20  1  0.396084  0.825794  0.389061  1
  Ir  Ir21  1  0.825794  0.396084  0.389061  1
  Ru  Ru22  1  0.392983  0.392983  0.386036  1
  Ru  Ru23  1  0.392983  0.392983  0.827996  1
