# generated using pymatgen
data_Dy8Sc12Sn15Ru
_symmetry_space_group_name_H-M   'P 1'
_cell_length_a   7.63011359
_cell_length_b   7.97220645
_cell_length_c   14.75046800
_cell_angle_alpha   90.00000000
_cell_angle_beta   90.00000000
_cell_angle_gamma   89.63065470
_symmetry_Int_Tables_number   1
_chemical_formula_structural   Dy8Sc12Sn15Ru
_chemical_formula_sum   'Dy8 Sc12 Sn15 Ru1'
_cell_volume   897.23522749
_cell_formula_units_Z   1
loop_
 _symmetry_equiv_pos_site_id
 _symmetry_equiv_pos_as_xyz
  1  'x, y, z'
loop_
 _atom_site_type_symbol
 _atom_site_label
 _atom_site_symmetry_multiplicity
 _atom_site_fract_x
 _atom_site_fract_y
 _atom_site_fract_z
 _atom_site_occupancy
  Dy  Dy0  1  0.992485  0.180183  0.093030  1
  Dy  Dy1  1  0.005322  0.832683  0.903598  1
  Dy  Dy2  1  0.508123  0.682062  0.905230  1
  Dy  Dy3  1  0.005322  0.832683  0.596402  1
  Dy  Dy4  1  0.494242  0.323946  0.093487  1
  Dy  Dy5  1  0.992485  0.180183  0.406970  1
  Dy  Dy6  1  0.494242  0.323946  0.406513  1
  Dy  Dy7  1  0.508123  0.682062  0.594770  1
  Sc  Sc8  1  0.173695  0.495110  0.750000  1
  Sc  Sc9  1  0.832057  0.503252  0.250000  1
  Sc  Sc10  1  0.332333  0.998731  0.250000  1
  Sc  Sc11  1  0.689320  0.006627  0.750000  1
  Sc  Sc12  1  0.301340  0.159074  0.634827  1
  Sc  Sc13  1  0.663767  0.839369  0.373774  1
  Sc  Sc14  1  0.162121  0.664146  0.373160  1
  Sc  Sc15  1  0.663767  0.839369  0.126226  1
  Sc  Sc16  1  0.866703  0.316871  0.637228  1
  Sc  Sc17  1  0.301340  0.159074  0.865173  1
  Sc  Sc18  1  0.866703  0.316871  0.862772  1
  Sc  Sc19  1  0.162121  0.664146  0.126840  1
  Sn  Sn20  1  0.969095  0.876540  0.250000  1
  Sn  Sn21  1  0.471280  0.624110  0.250000  1
  Sn  Sn22  1  0.532321  0.374036  0.750000  1
  Sn  Sn23  1  0.303307  0.854468  0.750000  1
  Sn  Sn24  1  0.689775  0.151280  0.250000  1
  Sn  Sn25  1  0.189602  0.350501  0.250000  1
  Sn  Sn26  1  0.806492  0.643236  0.750000  1
  Sn  Sn27  1  0.183877  0.464799  0.541751  1
  Sn  Sn28  1  0.820240  0.541013  0.462411  1
  Sn  Sn29  1  0.320927  0.960417  0.458661  1
  Sn  Sn30  1  0.820240  0.541013  0.037589  1
  Sn  Sn31  1  0.673939  0.046328  0.543328  1
  Sn  Sn32  1  0.183877  0.464799  0.958249  1
  Sn  Sn33  1  0.673939  0.046328  0.956672  1
  Sn  Sn34  1  0.320927  0.960417  0.041339  1
  Ru  Ru35  1  0.024549  0.100328  0.750000  1
