# generated using pymatgen
data_Dy12TcNi4Bi
_symmetry_space_group_name_H-M   'P 1'
_cell_length_a   8.34857320
_cell_length_b   8.34882814
_cell_length_c   8.34857202
_cell_angle_alpha   111.93127253
_cell_angle_beta   109.73204860
_cell_angle_gamma   106.78995219
_symmetry_Int_Tables_number   1
_chemical_formula_structural   Dy12TcNi4Bi
_chemical_formula_sum   'Dy12 Tc1 Ni4 Bi1'
_cell_volume   447.05083501
_cell_formula_units_Z   1
loop_
 _symmetry_equiv_pos_site_id
 _symmetry_equiv_pos_as_xyz
  1  'x, y, z'
loop_
 _atom_site_type_symbol
 _atom_site_label
 _atom_site_symmetry_multiplicity
 _atom_site_fract_x
 _atom_site_fract_y
 _atom_site_fract_z
 _atom_site_occupancy
  Dy  Dy0  1  0.820112  0.713027  0.533141  1
  Dy  Dy1  1  0.179888  0.286973  0.466859  1
  Dy  Dy2  1  0.179886  0.713027  0.892915  1
  Dy  Dy3  1  0.820114  0.286973  0.107085  1
  Dy  Dy4  1  0.683313  0.375324  0.692011  1
  Dy  Dy5  1  0.316687  0.624676  0.307989  1
  Dy  Dy6  1  0.683285  0.991318  0.308033  1
  Dy  Dy7  1  0.316715  0.008682  0.691967  1
  Dy  Dy8  1  0.593604  0.786378  0.807255  1
  Dy  Dy9  1  0.406396  0.213622  0.192745  1
  Dy  Dy10  1  0.979123  0.786378  0.192775  1
  Dy  Dy11  1  0.020877  0.213622  0.807225  1
  Tc  Tc12  1  0.000000  0.000000  0.000000  1
  Ni  Ni13  1  0.636566  0.000000  0.636566  1
  Ni  Ni14  1  0.363434  0.000000  0.363434  1
  Ni  Ni15  1  0.120989  0.620993  0.500004  1
  Ni  Ni16  1  0.879011  0.379007  0.499996  1
  Bi  Bi17  1  0.500000  0.500000  0.000000  1
