# generated using pymatgen
data_Sc8Al5Si11Tc12
_symmetry_space_group_name_H-M   'P 1'
_cell_length_a   6.66310790
_cell_length_b   6.73231162
_cell_length_c   12.47742568
_cell_angle_alpha   89.87348710
_cell_angle_beta   89.98851312
_cell_angle_gamma   89.26519111
_symmetry_Int_Tables_number   1
_chemical_formula_structural   Sc8Al5Si11Tc12
_chemical_formula_sum   'Sc8 Al5 Si11 Tc12'
_cell_volume   559.66644094
_cell_formula_units_Z   1
loop_
 _symmetry_equiv_pos_site_id
 _symmetry_equiv_pos_as_xyz
  1  'x, y, z'
loop_
 _atom_site_type_symbol
 _atom_site_label
 _atom_site_symmetry_multiplicity
 _atom_site_fract_x
 _atom_site_fract_y
 _atom_site_fract_z
 _atom_site_occupancy
  Sc  Sc0  1  0.489720  0.326190  0.090218  1
  Sc  Sc1  1  0.996266  0.174251  0.409355  1
  Sc  Sc2  1  0.512125  0.668256  0.590703  1
  Sc  Sc3  1  0.008463  0.826158  0.911556  1
  Sc  Sc4  1  0.509656  0.669248  0.909626  1
  Sc  Sc5  1  0.014532  0.824309  0.589921  1
  Sc  Sc6  1  0.488393  0.333886  0.406110  1
  Sc  Sc7  1  0.991758  0.172658  0.089551  1
  Al  Al8  1  0.660629  0.056870  0.554182  1
  Al  Al9  1  0.521978  0.351331  0.746383  1
  Al  Al10  1  0.009241  0.128274  0.751141  1
  Al  Al11  1  0.476466  0.645474  0.243980  1
  Al  Al12  1  0.987058  0.867506  0.250805  1
  Si  Si13  1  0.161589  0.451456  0.948991  1
  Si  Si14  1  0.341145  0.944655  0.052911  1
  Si  Si15  1  0.838077  0.547970  0.450618  1
  Si  Si16  1  0.344396  0.948734  0.448591  1
  Si  Si17  1  0.831977  0.547652  0.050311  1
  Si  Si18  1  0.657289  0.053807  0.948553  1
  Si  Si19  1  0.167482  0.451529  0.549733  1
  Si  Si20  1  0.802442  0.643081  0.751047  1
  Si  Si21  1  0.303168  0.851396  0.750400  1
  Si  Si22  1  0.196182  0.362505  0.248320  1
  Si  Si23  1  0.699596  0.146995  0.250981  1
  Tc  Tc24  1  0.836937  0.366318  0.622089  1
  Tc  Tc25  1  0.308532  0.139550  0.881683  1
  Tc  Tc26  1  0.165660  0.642598  0.115959  1
  Tc  Tc27  1  0.685056  0.853553  0.377589  1
  Tc  Tc28  1  0.176377  0.643979  0.381956  1
  Tc  Tc29  1  0.693855  0.863071  0.118557  1
  Tc  Tc30  1  0.826295  0.357123  0.881688  1
  Tc  Tc31  1  0.298230  0.138006  0.620580  1
  Tc  Tc32  1  0.654736  0.978356  0.755556  1
  Tc  Tc33  1  0.166628  0.514653  0.750644  1
  Tc  Tc34  1  0.343624  0.022990  0.249297  1
  Tc  Tc35  1  0.834440  0.485614  0.250413  1
