# generated using pymatgen
data_Ca3La8Er9Ge16
_symmetry_space_group_name_H-M   'P 1'
_cell_length_a   7.89917364
_cell_length_b   7.89917350
_cell_length_c   14.55220800
_cell_angle_alpha   89.85982086
_cell_angle_beta   90.14017914
_cell_angle_gamma   89.94369415
_symmetry_Int_Tables_number   1
_chemical_formula_structural   Ca3La8Er9Ge16
_chemical_formula_sum   'Ca3 La8 Er9 Ge16'
_cell_volume   908.00741584
_cell_formula_units_Z   1
loop_
 _symmetry_equiv_pos_site_id
 _symmetry_equiv_pos_as_xyz
  1  'x, y, z'
loop_
 _atom_site_type_symbol
 _atom_site_label
 _atom_site_symmetry_multiplicity
 _atom_site_fract_x
 _atom_site_fract_y
 _atom_site_fract_z
 _atom_site_occupancy
  Ca  Ca0  1  0.683669  0.683669  0.500000  1
  Ca  Ca1  1  0.817432  0.183392  0.750629  1
  Ca  Ca2  1  0.183392  0.817432  0.249371  1
  La  La3  1  0.990835  0.641808  0.039697  1
  La  La4  1  0.008380  0.358615  0.539645  1
  La  La5  1  0.641808  0.990835  0.960303  1
  La  La6  1  0.142165  0.506826  0.789602  1
  La  La7  1  0.859492  0.492009  0.290073  1
  La  La8  1  0.506826  0.142165  0.210398  1
  La  La9  1  0.492009  0.859492  0.709927  1
  La  La10  1  0.358615  0.008380  0.460355  1
  Er  Er11  1  0.358706  0.493775  0.375229  1
  Er  Er12  1  0.860461  0.006818  0.373939  1
  Er  Er13  1  0.991778  0.141751  0.126459  1
  Er  Er14  1  0.006818  0.860461  0.626061  1
  Er  Er15  1  0.640058  0.505928  0.876082  1
  Er  Er16  1  0.493775  0.358706  0.624771  1
  Er  Er17  1  0.505928  0.640058  0.123918  1
  Er  Er18  1  0.141751  0.991778  0.873541  1
  Er  Er19  1  0.314950  0.314950  0.000000  1
  Ge  Ge20  1  0.066071  0.712202  0.437215  1
  Ge  Ge21  1  0.944691  0.288710  0.937599  1
  Ge  Ge22  1  0.712202  0.066071  0.562785  1
  Ge  Ge23  1  0.212627  0.435086  0.183698  1
  Ge  Ge24  1  0.786801  0.565955  0.686898  1
  Ge  Ge25  1  0.435086  0.212627  0.816302  1
  Ge  Ge26  1  0.565955  0.786801  0.313102  1
  Ge  Ge27  1  0.288710  0.944691  0.062401  1
  Ge  Ge28  1  0.852367  0.793336  0.816338  1
  Ge  Ge29  1  0.146991  0.206695  0.316859  1
  Ge  Ge30  1  0.793336  0.852367  0.183662  1
  Ge  Ge31  1  0.294622  0.648510  0.565494  1
  Ge  Ge32  1  0.697237  0.349250  0.064225  1
  Ge  Ge33  1  0.648510  0.294622  0.434506  1
  Ge  Ge34  1  0.349250  0.697237  0.935775  1
  Ge  Ge35  1  0.206695  0.146991  0.683141  1
