# generated using pymatgen
data_MgFeBi3Sb3O14
_symmetry_space_group_name_H-M   'P 1'
_cell_length_a   7.35550994
_cell_length_b   7.33227640
_cell_length_c   7.33695953
_cell_angle_alpha   61.53203259
_cell_angle_beta   61.69706903
_cell_angle_gamma   61.66279158
_symmetry_Int_Tables_number   1
_chemical_formula_structural   MgFeBi3Sb3O14
_chemical_formula_sum   'Mg1 Fe1 Bi3 Sb3 O14'
_cell_volume   290.03432535
_cell_formula_units_Z   1
loop_
 _symmetry_equiv_pos_site_id
 _symmetry_equiv_pos_as_xyz
  1  'x, y, z'
loop_
 _atom_site_type_symbol
 _atom_site_label
 _atom_site_symmetry_multiplicity
 _atom_site_fract_x
 _atom_site_fract_y
 _atom_site_fract_z
 _atom_site_occupancy
  Mg  Mg0  1  0.000040  0.499997  0.999962  1
  Fe  Fe1  1  0.499968  0.000006  0.500061  1
  Bi  Bi2  1  0.000003  0.000007  0.499984  1
  Bi  Bi3  1  0.500020  0.999996  0.000021  1
  Bi  Bi4  1  0.499983  0.499995  0.499987  1
  Sb  Sb5  1  0.500006  0.500014  0.999975  1
  Sb  Sb6  1  0.999971  0.500013  0.500008  1
  Sb  Sb7  1  0.000011  0.999983  0.000007  1
  O  O8  1  0.613495  0.111021  0.611493  1
  O  O9  1  0.386495  0.888951  0.388547  1
  O  O10  1  0.072020  0.179542  0.679769  1
  O  O11  1  0.678590  0.177287  0.081257  1
  O  O12  1  0.678247  0.582906  0.677164  1
  O  O13  1  0.927982  0.820457  0.320230  1
  O  O14  1  0.321414  0.822718  0.918692  1
  O  O15  1  0.321743  0.417146  0.322827  1
  O  O16  1  0.656081  0.586155  0.086631  1
  O  O17  1  0.086815  0.584243  0.657927  1
  O  O18  1  0.086374  0.158324  0.084306  1
  O  O19  1  0.343931  0.413830  0.913379  1
  O  O20  1  0.913192  0.415741  0.342063  1
  O  O21  1  0.913617  0.841665  0.915709  1
