# generated using pymatgen
data_Hf3V2TeBr26
_symmetry_space_group_name_H-M   'P 1'
_cell_length_a   12.04005900
_cell_length_b   10.25719990
_cell_length_c   11.12111700
_cell_angle_alpha   80.15629121
_cell_angle_beta   90.00000000
_cell_angle_gamma   90.00000000
_symmetry_Int_Tables_number   1
_chemical_formula_structural   Hf3V2TeBr26
_chemical_formula_sum   'Hf3 V2 Te1 Br26'
_cell_volume   1353.20790686
_cell_formula_units_Z   1
loop_
 _symmetry_equiv_pos_site_id
 _symmetry_equiv_pos_as_xyz
  1  'x, y, z'
loop_
 _atom_site_type_symbol
 _atom_site_label
 _atom_site_symmetry_multiplicity
 _atom_site_fract_x
 _atom_site_fract_y
 _atom_site_fract_z
 _atom_site_occupancy
  Hf  Hf0  1  0.750000  0.157527  0.885285  1
  Hf  Hf1  1  0.250000  0.667847  0.840447  1
  Hf  Hf2  1  0.750000  0.329079  0.154702  1
  V  V3  1  0.250000  0.264791  0.504976  1
  V  V4  1  0.750000  0.733130  0.498191  1
  Te  Te5  1  0.250000  0.845977  0.117024  1
  Br  Br6  1  0.597424  0.804137  0.583739  1
  Br  Br7  1  0.097304  0.194159  0.419128  1
  Br  Br8  1  0.750000  0.422474  0.908890  1
  Br  Br9  1  0.250000  0.568160  0.084512  1
  Br  Br10  1  0.896552  0.152916  0.076236  1
  Br  Br11  1  0.399305  0.844629  0.913227  1
  Br  Br12  1  0.100695  0.844629  0.913227  1
  Br  Br13  1  0.603448  0.152916  0.076236  1
  Br  Br14  1  0.750000  0.189718  0.367568  1
  Br  Br15  1  0.250000  0.805131  0.626194  1
  Br  Br16  1  0.908018  0.479186  0.187778  1
  Br  Br17  1  0.408038  0.517844  0.804783  1
  Br  Br18  1  0.091962  0.517844  0.804783  1
  Br  Br19  1  0.591982  0.479186  0.187778  1
  Br  Br20  1  0.750000  0.909301  0.914774  1
  Br  Br21  1  0.250000  0.101359  0.094401  1
  Br  Br22  1  0.906513  0.200217  0.732017  1
  Br  Br23  1  0.408031  0.811529  0.280402  1
  Br  Br24  1  0.091969  0.811529  0.280402  1
  Br  Br25  1  0.593487  0.200217  0.732017  1
  Br  Br26  1  0.750000  0.809392  0.296983  1
  Br  Br27  1  0.250000  0.188775  0.705972  1
  Br  Br28  1  0.750000  0.511434  0.529371  1
  Br  Br29  1  0.250000  0.486670  0.476089  1
  Br  Br30  1  0.902576  0.804137  0.583739  1
  Br  Br31  1  0.402696  0.194159  0.419128  1
