# generated using pymatgen
data_Li2TbNdBi2
_symmetry_space_group_name_H-M   'P 1'
_cell_length_a   4.91451800
_cell_length_b   4.91451899
_cell_length_c   7.22872300
_cell_angle_alpha   90.00000000
_cell_angle_beta   90.00000000
_cell_angle_gamma   120.00000681
_symmetry_Int_Tables_number   1
_chemical_formula_structural   Li2TbNdBi2
_chemical_formula_sum   'Li2 Tb1 Nd1 Bi2'
_cell_volume   151.20081518
_cell_formula_units_Z   1
loop_
 _symmetry_equiv_pos_site_id
 _symmetry_equiv_pos_as_xyz
  1  'x, y, z'
loop_
 _atom_site_type_symbol
 _atom_site_label
 _atom_site_symmetry_multiplicity
 _atom_site_fract_x
 _atom_site_fract_y
 _atom_site_fract_z
 _atom_site_occupancy
  Li  Li0  1  0.666667  0.333333  0.268717  1
  Li  Li1  1  0.333333  0.666667  0.731283  1
  Tb  Tb2  1  0.000000  0.000000  0.500000  1
  Nd  Nd3  1  0.000000  0.000000  0.000000  1
  Bi  Bi4  1  0.666667  0.333333  0.740879  1
  Bi  Bi5  1  0.333333  0.666667  0.259121  1
