# generated using pymatgen
data_V6Si6MoOs11
_symmetry_space_group_name_H-M   'P 1'
_cell_length_a   4.23058600
_cell_length_b   5.98477600
_cell_length_c   12.69713200
_cell_angle_alpha   90.00003720
_cell_angle_beta   90.00068153
_cell_angle_gamma   90.00000000
_symmetry_Int_Tables_number   1
_chemical_formula_structural   V6Si6MoOs11
_chemical_formula_sum   'V6 Si6 Mo1 Os11'
_cell_volume   321.48007618
_cell_formula_units_Z   1
loop_
 _symmetry_equiv_pos_site_id
 _symmetry_equiv_pos_as_xyz
  1  'x, y, z'
loop_
 _atom_site_type_symbol
 _atom_site_label
 _atom_site_symmetry_multiplicity
 _atom_site_fract_x
 _atom_site_fract_y
 _atom_site_fract_z
 _atom_site_occupancy
  V  V0  1  0.000000  0.492780  0.000001  1
  V  V1  1  0.499767  0.004982  0.162975  1
  V  V2  1  0.999776  0.499332  0.332756  1
  V  V3  1  0.500000  0.000485  0.499999  1
  V  V4  1  0.000225  0.499331  0.667245  1
  V  V5  1  0.500232  0.004980  0.837026  1
  Si  Si6  1  0.000000  0.996963  0.000001  1
  Si  Si7  1  0.499719  0.501918  0.167250  1
  Si  Si8  1  0.999734  0.998491  0.333850  1
  Si  Si9  1  0.500000  0.501713  0.500001  1
  Si  Si10  1  0.000267  0.998490  0.666149  1
  Si  Si11  1  0.500281  0.501919  0.832749  1
  Mo  Mo12  1  0.500000  0.250974  0.000002  1
  Os  Os13  1  0.500000  0.750185  0.000000  1
  Os  Os14  1  0.999800  0.248516  0.170107  1
  Os  Os15  1  0.999795  0.749846  0.167583  1
  Os  Os16  1  0.499811  0.250104  0.335316  1
  Os  Os17  1  0.499806  0.750085  0.333745  1
  Os  Os18  1  0.000000  0.249789  0.500001  1
  Os  Os19  1  0.000000  0.750573  0.500001  1
  Os  Os20  1  0.500191  0.250110  0.664683  1
  Os  Os21  1  0.500194  0.750078  0.666253  1
  Os  Os22  1  0.000200  0.248519  0.829892  1
  Os  Os23  1  0.000204  0.749843  0.832415  1
