# generated using pymatgen
data_Er12InCoTcNi3
_symmetry_space_group_name_H-M   'P 1'
_cell_length_a   8.22921854
_cell_length_b   8.22921759
_cell_length_c   8.22921778
_cell_angle_alpha   110.35875982
_cell_angle_beta   111.36426279
_cell_angle_gamma   106.72669052
_symmetry_Int_Tables_number   1
_chemical_formula_structural   Er12InCoTcNi3
_chemical_formula_sum   'Er12 In1 Co1 Tc1 Ni3'
_cell_volume   428.22805109
_cell_formula_units_Z   1
loop_
 _symmetry_equiv_pos_site_id
 _symmetry_equiv_pos_as_xyz
  1  'x, y, z'
loop_
 _atom_site_type_symbol
 _atom_site_label
 _atom_site_symmetry_multiplicity
 _atom_site_fract_x
 _atom_site_fract_y
 _atom_site_fract_z
 _atom_site_occupancy
  Er  Er0  1  0.283478  0.182115  0.462102  1
  Er  Er1  1  0.720012  0.821376  0.537898  1
  Er  Er2  1  0.283478  0.821376  0.101364  1
  Er  Er3  1  0.720012  0.182115  0.898636  1
  Er  Er4  1  0.623431  0.316068  0.307363  1
  Er  Er5  1  0.374368  0.678675  0.695693  1
  Er  Er6  1  0.008706  0.316068  0.692637  1
  Er  Er7  1  0.982978  0.678675  0.304307  1
  Er  Er8  1  0.224877  0.416020  0.191142  1
  Er  Er9  1  0.777093  0.586403  0.809311  1
  Er  Er10  1  0.224877  0.033735  0.808858  1
  Er  Er11  1  0.777093  0.967781  0.190689  1
  In  In12  1  0.499989  0.499989  0.000000  1
  Co  Co13  1  0.614080  0.114080  0.500000  1
  Tc  Tc14  1  0.002418  0.002418  0.000000  1
  Ni  Ni15  1  0.001207  0.359324  0.358117  1
  Ni  Ni16  1  0.001207  0.643090  0.641883  1
  Ni  Ni17  1  0.380696  0.880696  0.500000  1
