# generated using pymatgen
data_Pa3NbF20
_symmetry_space_group_name_H-M   'P 1'
_cell_length_a   9.44826947
_cell_length_b   9.44825758
_cell_length_c   5.46680160
_cell_angle_alpha   85.46112751
_cell_angle_beta   85.46143040
_cell_angle_gamma   112.45945028
_symmetry_Int_Tables_number   1
_chemical_formula_structural   Pa3NbF20
_chemical_formula_sum   'Pa3 Nb1 F20'
_cell_volume   446.40993864
_cell_formula_units_Z   1
loop_
 _symmetry_equiv_pos_site_id
 _symmetry_equiv_pos_as_xyz
  1  'x, y, z'
loop_
 _atom_site_type_symbol
 _atom_site_label
 _atom_site_symmetry_multiplicity
 _atom_site_fract_x
 _atom_site_fract_y
 _atom_site_fract_z
 _atom_site_occupancy
  Pa  Pa0  1  0.739312  0.750310  0.754736  1
  Pa  Pa1  1  0.249688  0.260682  0.245271  1
  Pa  Pa2  1  0.206282  0.793719  0.999998  1
  Nb  Nb3  1  0.797387  0.202617  0.999994  1
  F  F4  1  0.419335  0.837657  0.115485  1
  F  F5  1  0.162340  0.580664  0.884513  1
  F  F6  1  0.606512  0.169054  0.889299  1
  F  F7  1  0.830950  0.393490  0.110692  1
  F  F8  1  0.140100  0.138932  0.582738  1
  F  F9  1  0.861059  0.859898  0.417269  1
  F  F10  1  0.352588  0.360265  0.895462  1
  F  F11  1  0.639745  0.647410  0.104545  1
  F  F12  1  0.261422  0.468591  0.349197  1
  F  F13  1  0.531401  0.738572  0.650819  1
  F  F14  1  0.726250  0.541289  0.654146  1
  F  F15  1  0.458712  0.273752  0.345861  1
  F  F16  1  0.012420  0.216579  0.113292  1
  F  F17  1  0.783412  0.987583  0.886690  1
  F  F18  1  0.973958  0.782847  0.883344  1
  F  F19  1  0.217155  0.026041  0.116654  1
  F  F20  1  0.917212  0.280212  0.688159  1
  F  F21  1  0.719793  0.082796  0.311833  1
  F  F22  1  0.089328  0.696365  0.342888  1
  F  F23  1  0.303638  0.910676  0.657116  1
