# generated using pymatgen
data_Dy8HoTm(BiAu2)2
_symmetry_space_group_name_H-M   'P 1'
_cell_length_a   8.72209340
_cell_length_b   8.72209329
_cell_length_c   8.72209355
_cell_angle_alpha   124.33171756
_cell_angle_beta   124.33171943
_cell_angle_gamma   82.64789652
_symmetry_Int_Tables_number   1
_chemical_formula_structural   Dy8HoTm(BiAu2)2
_chemical_formula_sum   'Dy8 Ho1 Tm1 Bi2 Au4'
_cell_volume   434.53869034
_cell_formula_units_Z   1
loop_
 _symmetry_equiv_pos_site_id
 _symmetry_equiv_pos_as_xyz
  1  'x, y, z'
loop_
 _atom_site_type_symbol
 _atom_site_label
 _atom_site_symmetry_multiplicity
 _atom_site_fract_x
 _atom_site_fract_y
 _atom_site_fract_z
 _atom_site_occupancy
  Dy  Dy0  1  0.516088  0.015072  0.811237  1
  Dy  Dy1  1  0.203835  0.704852  0.188763  1
  Dy  Dy2  1  0.015072  0.203835  0.498984  1
  Dy  Dy3  1  0.704852  0.516088  0.501016  1
  Dy  Dy4  1  0.483912  0.984928  0.188763  1
  Dy  Dy5  1  0.796165  0.295148  0.811237  1
  Dy  Dy6  1  0.984928  0.796165  0.501016  1
  Dy  Dy7  1  0.295148  0.483912  0.498984  1
  Ho  Ho8  1  0.500000  0.500000  0.000000  1
  Tm  Tm9  1  0.000000  0.000000  0.000000  1
  Bi  Bi10  1  0.249487  0.249487  0.000000  1
  Bi  Bi11  1  0.750513  0.750513  0.000000  1
  Au  Au12  1  0.137588  0.638649  0.776239  1
  Au  Au13  1  0.862412  0.361351  0.223761  1
  Au  Au14  1  0.638649  0.862412  0.501061  1
  Au  Au15  1  0.361351  0.137588  0.498939  1
