# generated using pymatgen
data_Sr5YbPr2(Si3Pd)4
_symmetry_space_group_name_H-M   'P 1'
_cell_length_a   8.38905600
_cell_length_b   8.38932444
_cell_length_c   8.77710600
_cell_angle_alpha   90.00000000
_cell_angle_beta   90.00000000
_cell_angle_gamma   119.99894941
_symmetry_Int_Tables_number   1
_chemical_formula_structural   Sr5YbPr2(Si3Pd)4
_chemical_formula_sum   'Sr5 Yb1 Pr2 Si12 Pd4'
_cell_volume   534.96658528
_cell_formula_units_Z   1
loop_
 _symmetry_equiv_pos_site_id
 _symmetry_equiv_pos_as_xyz
  1  'x, y, z'
loop_
 _atom_site_type_symbol
 _atom_site_label
 _atom_site_symmetry_multiplicity
 _atom_site_fract_x
 _atom_site_fract_y
 _atom_site_fract_z
 _atom_site_occupancy
  Sr  Sr0  1  0.499407  0.500438  0.750000  1
  Sr  Sr1  1  0.500609  0.499495  0.250000  1
  Sr  Sr2  1  0.001032  0.500438  0.750000  1
  Sr  Sr3  1  0.998886  0.499495  0.250000  1
  Sr  Sr4  1  0.499490  0.998979  0.750000  1
  Yb  Yb5  1  0.500447  0.000895  0.250000  1
  Pr  Pr6  1  0.000011  0.000021  0.750000  1
  Pr  Pr7  1  0.999992  0.999984  0.250000  1
  Si  Si8  1  0.835438  0.162724  0.003596  1
  Si  Si9  1  0.164526  0.837252  0.003532  1
  Si  Si10  1  0.327286  0.162724  0.003596  1
  Si  Si11  1  0.164526  0.837252  0.496468  1
  Si  Si12  1  0.672726  0.837252  0.003532  1
  Si  Si13  1  0.835438  0.162724  0.496404  1
  Si  Si14  1  0.836412  0.672825  0.000910  1
  Si  Si15  1  0.672726  0.837252  0.496468  1
  Si  Si16  1  0.163624  0.327248  0.001238  1
  Si  Si17  1  0.327286  0.162724  0.496404  1
  Si  Si18  1  0.163624  0.327248  0.498762  1
  Si  Si19  1  0.836412  0.672825  0.499090  1
  Pd  Pd20  1  0.665247  0.330492  0.003376  1
  Pd  Pd21  1  0.334803  0.669608  0.006433  1
  Pd  Pd22  1  0.334803  0.669608  0.493567  1
  Pd  Pd23  1  0.665247  0.330492  0.496624  1
