# generated using pymatgen
data_ErTiMn3FeP3
_symmetry_space_group_name_H-M   'P 1'
_cell_length_a   3.60037100
_cell_length_b   10.71596500
_cell_length_c   12.35586200
_cell_angle_alpha   90.00000000
_cell_angle_beta   90.00000000
_cell_angle_gamma   90.00000000
_symmetry_Int_Tables_number   1
_chemical_formula_structural   ErTiMn3FeP3
_chemical_formula_sum   'Er4 Ti4 Mn12 Fe4 P12'
_cell_volume   476.70706730
_cell_formula_units_Z   4
loop_
 _symmetry_equiv_pos_site_id
 _symmetry_equiv_pos_as_xyz
  1  'x, y, z'
loop_
 _atom_site_type_symbol
 _atom_site_label
 _atom_site_symmetry_multiplicity
 _atom_site_fract_x
 _atom_site_fract_y
 _atom_site_fract_z
 _atom_site_occupancy
  Er  Er0  1  0.250000  0.583788  0.710013  1
  Er  Er1  1  0.250000  0.916212  0.210013  1
  Er  Er2  1  0.750000  0.416212  0.289987  1
  Er  Er3  1  0.750000  0.083788  0.789987  1
  Ti  Ti4  1  0.250000  0.702900  0.985363  1
  Ti  Ti5  1  0.250000  0.797100  0.485363  1
  Ti  Ti6  1  0.750000  0.297100  0.014637  1
  Ti  Ti7  1  0.750000  0.202900  0.514637  1
  Mn  Mn8  1  0.250000  0.409908  0.492727  1
  Mn  Mn9  1  0.250000  0.090093  0.992727  1
  Mn  Mn10  1  0.750000  0.590092  0.507273  1
  Mn  Mn11  1  0.750000  0.909908  0.007273  1
  Mn  Mn12  1  0.250000  0.216356  0.176029  1
  Mn  Mn13  1  0.250000  0.283644  0.676029  1
  Mn  Mn14  1  0.750000  0.783644  0.823971  1
  Mn  Mn15  1  0.750000  0.716356  0.323971  1
  Mn  Mn16  1  0.250000  0.878582  0.697742  1
  Mn  Mn17  1  0.250000  0.621418  0.197742  1
  Mn  Mn18  1  0.750000  0.121418  0.302258  1
  Mn  Mn19  1  0.750000  0.378582  0.802258  1
  Fe  Fe20  1  0.250000  0.462884  0.931785  1
  Fe  Fe21  1  0.250000  0.037116  0.431785  1
  Fe  Fe22  1  0.750000  0.537116  0.068215  1
  Fe  Fe23  1  0.750000  0.962884  0.568215  1
  P  P24  1  0.250000  0.425256  0.112416  1
  P  P25  1  0.250000  0.074744  0.612416  1
  P  P26  1  0.750000  0.574744  0.887584  1
  P  P27  1  0.750000  0.925256  0.387584  1
  P  P28  1  0.250000  0.263815  0.868647  1
  P  P29  1  0.250000  0.236185  0.368647  1
  P  P30  1  0.750000  0.736185  0.131353  1
  P  P31  1  0.750000  0.763815  0.631353  1
  P  P32  1  0.250000  0.589364  0.383918  1
  P  P33  1  0.250000  0.910636  0.883918  1
  P  P34  1  0.750000  0.410636  0.616082  1
  P  P35  1  0.750000  0.089364  0.116082  1
