# generated using pymatgen
data_Er5Tm5(GePb3)2
_symmetry_space_group_name_H-M   'P 1'
_cell_length_a   9.25447100
_cell_length_b   9.25726397
_cell_length_c   6.46933100
_cell_angle_alpha   90.00000000
_cell_angle_beta   90.00000000
_cell_angle_gamma   119.99003088
_symmetry_Int_Tables_number   1
_chemical_formula_structural   Er5Tm5(GePb3)2
_chemical_formula_sum   'Er5 Tm5 Ge2 Pb6'
_cell_volume   480.02943521
_cell_formula_units_Z   1
loop_
 _symmetry_equiv_pos_site_id
 _symmetry_equiv_pos_as_xyz
  1  'x, y, z'
loop_
 _atom_site_type_symbol
 _atom_site_label
 _atom_site_symmetry_multiplicity
 _atom_site_fract_x
 _atom_site_fract_y
 _atom_site_fract_z
 _atom_site_occupancy
  Er  Er0  1  0.748353  0.000000  0.750000  1
  Er  Er1  1  0.000042  0.251789  0.250000  1
  Er  Er2  1  0.000074  0.748284  0.750000  1
  Er  Er3  1  0.748252  0.748211  0.250000  1
  Er  Er4  1  0.251790  0.251716  0.750000  1
  Tm  Tm5  1  0.251471  0.000000  0.250000  1
  Tm  Tm6  1  0.333337  0.666703  0.000021  1
  Tm  Tm7  1  0.666636  0.333297  0.000021  1
  Tm  Tm8  1  0.666636  0.333297  0.499979  1
  Tm  Tm9  1  0.333337  0.666703  0.499979  1
  Ge  Ge10  1  0.000065  0.000000  0.000052  1
  Ge  Ge11  1  0.000065  0.000000  0.499948  1
  Pb  Pb12  1  0.607011  0.000000  0.250000  1
  Pb  Pb13  1  0.392764  0.000000  0.750000  1
  Pb  Pb14  1  0.000213  0.607600  0.250000  1
  Pb  Pb15  1  0.000013  0.392684  0.750000  1
  Pb  Pb16  1  0.392613  0.392400  0.250000  1
  Pb  Pb17  1  0.607329  0.607316  0.750000  1
