# generated using pymatgen
data_NdNbCrB6
_symmetry_space_group_name_H-M   'P 1'
_cell_length_a   3.47966800
_cell_length_b   9.01474600
_cell_length_c   11.44810800
_cell_angle_alpha   90.00000000
_cell_angle_beta   90.00000000
_cell_angle_gamma   90.00000000
_symmetry_Int_Tables_number   1
_chemical_formula_structural   NdNbCrB6
_chemical_formula_sum   'Nd4 Nb4 Cr4 B24'
_cell_volume   359.10795159
_cell_formula_units_Z   4
loop_
 _symmetry_equiv_pos_site_id
 _symmetry_equiv_pos_as_xyz
  1  'x, y, z'
loop_
 _atom_site_type_symbol
 _atom_site_label
 _atom_site_symmetry_multiplicity
 _atom_site_fract_x
 _atom_site_fract_y
 _atom_site_fract_z
 _atom_site_occupancy
  Nd  Nd0  1  0.000000  0.822436  0.085141  1
  Nd  Nd1  1  0.000000  0.177564  0.914859  1
  Nd  Nd2  1  0.000000  0.322436  0.414859  1
  Nd  Nd3  1  0.000000  0.677564  0.585141  1
  Nb  Nb4  1  0.000000  0.445224  0.127970  1
  Nb  Nb5  1  0.000000  0.554776  0.872030  1
  Nb  Nb6  1  0.000000  0.945224  0.372030  1
  Nb  Nb7  1  0.000000  0.054776  0.627970  1
  Cr  Cr8  1  0.000000  0.144402  0.184874  1
  Cr  Cr9  1  0.000000  0.855598  0.815126  1
  Cr  Cr10  1  0.000000  0.644402  0.315126  1
  Cr  Cr11  1  0.000000  0.355598  0.684874  1
  B  B12  1  0.500000  0.056594  0.070563  1
  B  B13  1  0.500000  0.943406  0.929437  1
  B  B14  1  0.500000  0.556594  0.429437  1
  B  B15  1  0.500000  0.443406  0.570563  1
  B  B16  1  0.500000  0.254968  0.085017  1
  B  B17  1  0.500000  0.745032  0.914983  1
  B  B18  1  0.500000  0.754968  0.414983  1
  B  B19  1  0.500000  0.245032  0.585017  1
  B  B20  1  0.500000  0.296699  0.235156  1
  B  B21  1  0.500000  0.703301  0.764844  1
  B  B22  1  0.500000  0.796699  0.264844  1
  B  B23  1  0.500000  0.203301  0.735156  1
  B  B24  1  0.500000  0.128800  0.317057  1
  B  B25  1  0.500000  0.871200  0.682943  1
  B  B26  1  0.500000  0.628800  0.182943  1
  B  B27  1  0.500000  0.371200  0.817057  1
  B  B28  1  0.500000  0.483608  0.284793  1
  B  B29  1  0.500000  0.516392  0.715207  1
  B  B30  1  0.500000  0.983608  0.215207  1
  B  B31  1  0.500000  0.016392  0.784793  1
  B  B32  1  0.500000  0.096877  0.474716  1
  B  B33  1  0.500000  0.903123  0.525284  1
  B  B34  1  0.500000  0.596877  0.025284  1
  B  B35  1  0.500000  0.403123  0.974716  1
