# generated using pymatgen
data_Ho10Os3Rh
_symmetry_space_group_name_H-M   'P 1'
_cell_length_a   6.35348828
_cell_length_b   7.34253938
_cell_length_c   8.40489649
_cell_angle_alpha   96.81866813
_cell_angle_beta   112.31240577
_cell_angle_gamma   90.16600592
_symmetry_Int_Tables_number   1
_chemical_formula_structural   Ho10Os3Rh
_chemical_formula_sum   'Ho10 Os3 Rh1'
_cell_volume   359.68033510
_cell_formula_units_Z   1
loop_
 _symmetry_equiv_pos_site_id
 _symmetry_equiv_pos_as_xyz
  1  'x, y, z'
loop_
 _atom_site_type_symbol
 _atom_site_label
 _atom_site_symmetry_multiplicity
 _atom_site_fract_x
 _atom_site_fract_y
 _atom_site_fract_z
 _atom_site_occupancy
  Ho  Ho0  1  0.975434  0.917748  0.182075  1
  Ho  Ho1  1  0.790712  0.583917  0.810938  1
  Ho  Ho2  1  0.024506  0.084154  0.816240  1
  Ho  Ho3  1  0.208113  0.413989  0.182034  1
  Ho  Ho4  1  0.640395  0.818831  0.438439  1
  Ho  Ho5  1  0.210386  0.685446  0.567376  1
  Ho  Ho6  1  0.355999  0.183834  0.563631  1
  Ho  Ho7  1  0.794484  0.313560  0.437326  1
  Ho  Ho8  1  0.420356  0.751491  0.999166  1
  Ho  Ho9  1  0.575390  0.247008  0.997368  1
  Os  Os10  1  0.605587  0.922206  0.782214  1
  Os  Os11  1  0.177472  0.425006  0.781075  1
  Os  Os12  1  0.396890  0.076946  0.218951  1
  Rh  Rh13  1  0.824275  0.575864  0.223169  1
