# generated using pymatgen
data_LiHo16Tl2InRh4
_symmetry_space_group_name_H-M   'P 1'
_cell_length_a   9.61681974
_cell_length_b   9.61790549
_cell_length_c   9.61681995
_cell_angle_alpha   59.86630957
_cell_angle_beta   59.90308582
_cell_angle_gamma   59.86630964
_symmetry_Int_Tables_number   1
_chemical_formula_structural   LiHo16Tl2InRh4
_chemical_formula_sum   'Li1 Ho16 Tl2 In1 Rh4'
_cell_volume   627.23474010
_cell_formula_units_Z   1
loop_
 _symmetry_equiv_pos_site_id
 _symmetry_equiv_pos_as_xyz
  1  'x, y, z'
loop_
 _atom_site_type_symbol
 _atom_site_label
 _atom_site_symmetry_multiplicity
 _atom_site_fract_x
 _atom_site_fract_y
 _atom_site_fract_z
 _atom_site_occupancy
  Li  Li0  1  0.821632  0.821855  0.821632  1
  Ho  Ho1  1  0.187712  0.188335  0.812311  1
  Ho  Ho2  1  0.600119  0.599490  0.202412  1
  Ho  Ho3  1  0.440436  0.059874  0.440436  1
  Ho  Ho4  1  0.441234  0.440173  0.059640  1
  Ho  Ho5  1  0.813352  0.186133  0.813352  1
  Ho  Ho6  1  0.188305  0.811904  0.188305  1
  Ho  Ho7  1  0.436484  0.063624  0.063766  1
  Ho  Ho8  1  0.185727  0.812911  0.813014  1
  Ho  Ho9  1  0.063154  0.436406  0.063154  1
  Ho  Ho10  1  0.813014  0.812911  0.185727  1
  Ho  Ho11  1  0.202412  0.599490  0.600119  1
  Ho  Ho12  1  0.059640  0.440173  0.441234  1
  Ho  Ho13  1  0.063766  0.063624  0.436484  1
  Ho  Ho14  1  0.812311  0.188335  0.187712  1
  Ho  Ho15  1  0.599776  0.202650  0.599776  1
  Ho  Ho16  1  0.600113  0.599440  0.600113  1
  Tl  Tl17  1  0.836294  0.834818  0.498309  1
  Tl  Tl18  1  0.498309  0.834818  0.836294  1
  In  In19  1  0.834015  0.501043  0.834015  1
  Rh  Rh20  1  0.392933  0.823112  0.392933  1
  Rh  Rh21  1  0.393164  0.393166  0.393164  1
  Rh  Rh22  1  0.823262  0.392859  0.392839  1
  Rh  Rh23  1  0.392839  0.392859  0.823262  1
