# generated using pymatgen
data_La2Al20IrOs3
_symmetry_space_group_name_H-M   'P 1'
_cell_length_a   6.92458736
_cell_length_b   6.92100658
_cell_length_c   9.22862308
_cell_angle_alpha   90.13412681
_cell_angle_beta   90.05539406
_cell_angle_gamma   96.91228973
_symmetry_Int_Tables_number   1
_chemical_formula_structural   La2Al20IrOs3
_chemical_formula_sum   'La2 Al20 Ir1 Os3'
_cell_volume   439.06655850
_cell_formula_units_Z   1
loop_
 _symmetry_equiv_pos_site_id
 _symmetry_equiv_pos_as_xyz
  1  'x, y, z'
loop_
 _atom_site_type_symbol
 _atom_site_label
 _atom_site_symmetry_multiplicity
 _atom_site_fract_x
 _atom_site_fract_y
 _atom_site_fract_z
 _atom_site_occupancy
  La  La0  1  0.626226  0.376071  0.750025  1
  La  La1  1  0.373774  0.623929  0.249975  1
  Al  Al2  1  0.279677  0.016077  0.747780  1
  Al  Al3  1  0.015614  0.280709  0.249452  1
  Al  Al4  1  0.720323  0.983923  0.252220  1
  Al  Al5  1  0.984386  0.719291  0.750548  1
  Al  Al6  1  0.879239  0.123498  0.950656  1
  Al  Al7  1  0.120761  0.876502  0.049344  1
  Al  Al8  1  0.877247  0.123153  0.547697  1
  Al  Al9  1  0.122753  0.876847  0.452303  1
  Al  Al10  1  0.646275  0.914091  0.749236  1
  Al  Al11  1  0.913348  0.644925  0.250283  1
  Al  Al12  1  0.353725  0.085909  0.250764  1
  Al  Al13  1  0.086652  0.355075  0.749717  1
  Al  Al14  1  0.338426  0.659911  0.895635  1
  Al  Al15  1  0.661574  0.340089  0.104365  1
  Al  Al16  1  0.340164  0.660735  0.602798  1
  Al  Al17  1  0.659836  0.339265  0.397202  1
  Al  Al18  1  0.727441  0.725918  0.999034  1
  Al  Al19  1  0.726183  0.725815  0.500367  1
  Al  Al20  1  0.272559  0.274082  0.000966  1
  Al  Al21  1  0.273817  0.274185  0.499633  1
  Ir  Ir22  1  0.500000  0.000000  0.000000  1
  Os  Os23  1  0.000000  0.500000  0.000000  1
  Os  Os24  1  0.500000  0.000000  0.500000  1
  Os  Os25  1  0.000000  0.500000  0.500000  1
