# generated using pymatgen
data_Mg2Zn3Co
_symmetry_space_group_name_H-M   'P 1'
_cell_length_a   5.08975377
_cell_length_b   5.08975328
_cell_length_c   5.06735481
_cell_angle_alpha   59.85367300
_cell_angle_beta   59.85367404
_cell_angle_gamma   59.99999954
_symmetry_Int_Tables_number   1
_chemical_formula_structural   Mg2Zn3Co
_chemical_formula_sum   'Mg2 Zn3 Co1'
_cell_volume   92.61807050
_cell_formula_units_Z   1
loop_
 _symmetry_equiv_pos_site_id
 _symmetry_equiv_pos_as_xyz
  1  'x, y, z'
loop_
 _atom_site_type_symbol
 _atom_site_label
 _atom_site_symmetry_multiplicity
 _atom_site_fract_x
 _atom_site_fract_y
 _atom_site_fract_z
 _atom_site_occupancy
  Mg  Mg0  1  0.756072  0.756072  0.731785  1
  Mg  Mg1  1  0.493928  0.493928  0.518215  1
  Zn  Zn2  1  0.125000  0.125000  0.125000  1
  Zn  Zn3  1  0.625000  0.125000  0.125000  1
  Zn  Zn4  1  0.125000  0.625000  0.125000  1
  Co  Co5  1  0.125000  0.125000  0.625000  1
