# generated using pymatgen
data_LaPr(GaAu)6
_symmetry_space_group_name_H-M   'P 1'
_cell_length_a   4.63612800
_cell_length_b   7.00152900
_cell_length_c   8.77940400
_cell_angle_alpha   90.00000000
_cell_angle_beta   90.00000000
_cell_angle_gamma   90.00000000
_symmetry_Int_Tables_number   1
_chemical_formula_structural   LaPr(GaAu)6
_chemical_formula_sum   'La1 Pr1 Ga6 Au6'
_cell_volume   284.97931899
_cell_formula_units_Z   1
loop_
 _symmetry_equiv_pos_site_id
 _symmetry_equiv_pos_as_xyz
  1  'x, y, z'
loop_
 _atom_site_type_symbol
 _atom_site_label
 _atom_site_symmetry_multiplicity
 _atom_site_fract_x
 _atom_site_fract_y
 _atom_site_fract_z
 _atom_site_occupancy
  La  La0  1  0.000000  0.500000  0.246342  1
  Pr  Pr1  1  0.500000  0.000000  0.754177  1
  Ga  Ga2  1  0.000000  0.301838  0.889793  1
  Ga  Ga3  1  0.500000  0.198080  0.109702  1
  Ga  Ga4  1  0.000000  0.698162  0.889793  1
  Ga  Ga5  1  0.000000  0.000000  0.374702  1
  Ga  Ga6  1  0.500000  0.801920  0.109702  1
  Ga  Ga7  1  0.500000  0.500000  0.624369  1
  Au  Au8  1  0.000000  0.737796  0.598623  1
  Au  Au9  1  0.500000  0.765596  0.402819  1
  Au  Au10  1  0.500000  0.500000  0.928825  1
  Au  Au11  1  0.000000  0.000000  0.069713  1
  Au  Au12  1  0.500000  0.234404  0.402819  1
  Au  Au13  1  0.000000  0.262204  0.598623  1
