# generated using pymatgen
data_NdZnInCu4
_symmetry_space_group_name_H-M   'P 1'
_cell_length_a   5.13713200
_cell_length_b   8.35220800
_cell_length_c   10.76632500
_cell_angle_alpha   90.00000000
_cell_angle_beta   90.00000000
_cell_angle_gamma   90.00000000
_symmetry_Int_Tables_number   1
_chemical_formula_structural   NdZnInCu4
_chemical_formula_sum   'Nd4 Zn4 In4 Cu16'
_cell_volume   461.94419301
_cell_formula_units_Z   4
loop_
 _symmetry_equiv_pos_site_id
 _symmetry_equiv_pos_as_xyz
  1  'x, y, z'
loop_
 _atom_site_type_symbol
 _atom_site_label
 _atom_site_symmetry_multiplicity
 _atom_site_fract_x
 _atom_site_fract_y
 _atom_site_fract_z
 _atom_site_occupancy
  Nd  Nd0  1  0.250000  0.754075  0.057966  1
  Nd  Nd1  1  0.750000  0.245925  0.942034  1
  Nd  Nd2  1  0.750000  0.745925  0.557966  1
  Nd  Nd3  1  0.250000  0.254075  0.442034  1
  Zn  Zn4  1  0.250000  0.814668  0.741084  1
  Zn  Zn5  1  0.750000  0.185332  0.258916  1
  Zn  Zn6  1  0.750000  0.685332  0.241084  1
  Zn  Zn7  1  0.250000  0.314668  0.758916  1
  In  In8  1  0.250000  0.637968  0.363367  1
  In  In9  1  0.750000  0.362032  0.636633  1
  In  In10  1  0.750000  0.862032  0.863367  1
  In  In11  1  0.250000  0.137968  0.136633  1
  Cu  Cu12  1  0.503183  0.566438  0.812461  1
  Cu  Cu13  1  0.496817  0.433562  0.187539  1
  Cu  Cu14  1  0.496817  0.933562  0.312461  1
  Cu  Cu15  1  0.003183  0.433562  0.187539  1
  Cu  Cu16  1  0.503183  0.066438  0.687539  1
  Cu  Cu17  1  0.996817  0.566438  0.812461  1
  Cu  Cu18  1  0.996817  0.066438  0.687539  1
  Cu  Cu19  1  0.003183  0.933562  0.312461  1
  Cu  Cu20  1  0.250000  0.556354  0.605217  1
  Cu  Cu21  1  0.750000  0.443646  0.394783  1
  Cu  Cu22  1  0.750000  0.943646  0.105217  1
  Cu  Cu23  1  0.250000  0.056354  0.894783  1
  Cu  Cu24  1  0.250000  0.917808  0.515006  1
  Cu  Cu25  1  0.750000  0.082192  0.484994  1
  Cu  Cu26  1  0.750000  0.582192  0.015006  1
  Cu  Cu27  1  0.250000  0.417808  0.984994  1
