# generated using pymatgen
data_Ba3Sr3NbCo4O15
_symmetry_space_group_name_H-M   'P 1'
_cell_length_a   7.09735858
_cell_length_b   7.09735760
_cell_length_c   7.09735716
_cell_angle_alpha   88.38401529
_cell_angle_beta   88.38400789
_cell_angle_gamma   88.38399176
_symmetry_Int_Tables_number   1
_chemical_formula_structural   Ba3Sr3NbCo4O15
_chemical_formula_sum   'Ba3 Sr3 Nb1 Co4 O15'
_cell_volume   357.09285642
_cell_formula_units_Z   1
loop_
 _symmetry_equiv_pos_site_id
 _symmetry_equiv_pos_as_xyz
  1  'x, y, z'
loop_
 _atom_site_type_symbol
 _atom_site_label
 _atom_site_symmetry_multiplicity
 _atom_site_fract_x
 _atom_site_fract_y
 _atom_site_fract_z
 _atom_site_occupancy
  Ba  Ba0  1  0.000000  0.673516  0.326484  1
  Ba  Ba1  1  0.326484  0.000000  0.673516  1
  Ba  Ba2  1  0.673516  0.326484  0.000000  1
  Sr  Sr3  1  0.500000  0.863634  0.136366  1
  Sr  Sr4  1  0.136366  0.500000  0.863634  1
  Sr  Sr5  1  0.863634  0.136366  0.500000  1
  Nb  Nb6  1  0.500000  0.500000  0.500000  1
  Co  Co7  1  0.709633  0.709633  0.709633  1
  Co  Co8  1  0.290367  0.290367  0.290367  1
  Co  Co9  1  0.907807  0.907807  0.907807  1
  Co  Co10  1  0.092193  0.092193  0.092193  1
  O  O11  1  0.386591  0.547123  0.242500  1
  O  O12  1  0.242500  0.386591  0.547123  1
  O  O13  1  0.547123  0.242500  0.386591  1
  O  O14  1  0.613409  0.757500  0.452877  1
  O  O15  1  0.452877  0.613409  0.757500  1
  O  O16  1  0.757500  0.452877  0.613409  1
  O  O17  1  0.195774  0.037726  0.334510  1
  O  O18  1  0.334510  0.195774  0.037726  1
  O  O19  1  0.037726  0.334510  0.195774  1
  O  O20  1  0.804226  0.665490  0.962274  1
  O  O21  1  0.962274  0.804226  0.665490  1
  O  O22  1  0.153784  0.846216  0.000000  1
  O  O23  1  0.846216  0.000000  0.153784  1
  O  O24  1  0.000000  0.153784  0.846216  1
  O  O25  1  0.665490  0.962274  0.804226  1
