# generated using pymatgen
data_Dy2Ti(AlPt2)2
_symmetry_space_group_name_H-M   'P 1'
_cell_length_a   8.17867646
_cell_length_b   8.17867753
_cell_length_c   7.68956800
_cell_angle_alpha   90.00000000
_cell_angle_beta   90.00000000
_cell_angle_gamma   140.12457655
_symmetry_Int_Tables_number   1
_chemical_formula_structural   Dy2Ti(AlPt2)2
_chemical_formula_sum   'Dy4 Ti2 Al4 Pt8'
_cell_volume   329.76740089
_cell_formula_units_Z   2
loop_
 _symmetry_equiv_pos_site_id
 _symmetry_equiv_pos_as_xyz
  1  'x, y, z'
loop_
 _atom_site_type_symbol
 _atom_site_label
 _atom_site_symmetry_multiplicity
 _atom_site_fract_x
 _atom_site_fract_y
 _atom_site_fract_z
 _atom_site_occupancy
  Dy  Dy0  1  0.606871  0.393129  0.907696  1
  Dy  Dy1  1  0.393129  0.606871  0.092304  1
  Dy  Dy2  1  0.893129  0.106871  0.407696  1
  Dy  Dy3  1  0.106871  0.893129  0.592304  1
  Ti  Ti4  1  0.500000  0.500000  0.500000  1
  Ti  Ti5  1  0.000000  0.000000  0.000000  1
  Al  Al6  1  0.521015  0.978985  0.750000  1
  Al  Al7  1  0.978985  0.521015  0.250000  1
  Al  Al8  1  0.478985  0.021015  0.250000  1
  Al  Al9  1  0.021015  0.478985  0.750000  1
  Pt  Pt10  1  0.687620  0.812380  0.750000  1
  Pt  Pt11  1  0.812380  0.687620  0.250000  1
  Pt  Pt12  1  0.312380  0.187620  0.250000  1
  Pt  Pt13  1  0.187620  0.312380  0.750000  1
  Pt  Pt14  1  0.680187  0.319813  0.526209  1
  Pt  Pt15  1  0.319813  0.680187  0.473791  1
  Pt  Pt16  1  0.819813  0.180187  0.026209  1
  Pt  Pt17  1  0.180187  0.819813  0.973791  1
