# generated using pymatgen
data_Tm6Fe5Co18
_symmetry_space_group_name_H-M   'P 1'
_cell_length_a   8.30552610
_cell_length_b   8.30552567
_cell_length_c   8.32563312
_cell_angle_alpha   59.93877233
_cell_angle_beta   59.93878322
_cell_angle_gamma   60.15001772
_symmetry_Int_Tables_number   1
_chemical_formula_structural   Tm6Fe5Co18
_chemical_formula_sum   'Tm6 Fe5 Co18'
_cell_volume   406.18425919
_cell_formula_units_Z   1
loop_
 _symmetry_equiv_pos_site_id
 _symmetry_equiv_pos_as_xyz
  1  'x, y, z'
loop_
 _atom_site_type_symbol
 _atom_site_label
 _atom_site_symmetry_multiplicity
 _atom_site_fract_x
 _atom_site_fract_y
 _atom_site_fract_z
 _atom_site_occupancy
  Tm  Tm0  1  0.786991  0.211268  0.212759  1
  Tm  Tm1  1  0.786448  0.786448  0.215225  1
  Tm  Tm2  1  0.213552  0.213552  0.784775  1
  Tm  Tm3  1  0.788732  0.213009  0.787241  1
  Tm  Tm4  1  0.211268  0.786991  0.212759  1
  Tm  Tm5  1  0.213009  0.788732  0.787241  1
  Fe  Fe6  1  0.500000  0.500000  0.500000  1
  Fe  Fe7  1  0.500000  0.000000  0.000000  1
  Fe  Fe8  1  0.000000  0.000000  0.500000  1
  Fe  Fe9  1  0.500000  0.500000  0.000000  1
  Fe  Fe10  1  0.000000  0.500000  0.000000  1
  Co  Co11  1  0.000000  0.500000  0.500000  1
  Co  Co12  1  0.500000  0.000000  0.500000  1
  Co  Co13  1  0.376143  0.376143  0.376525  1
  Co  Co14  1  0.621865  0.621865  0.133669  1
  Co  Co15  1  0.131142  0.622991  0.622247  1
  Co  Co16  1  0.622991  0.131142  0.622247  1
  Co  Co17  1  0.868858  0.377009  0.377753  1
  Co  Co18  1  0.377009  0.868858  0.377753  1
  Co  Co19  1  0.378135  0.378135  0.866331  1
  Co  Co20  1  0.623857  0.623857  0.623475  1
  Co  Co21  1  0.176546  0.176546  0.175438  1
  Co  Co22  1  0.822866  0.822866  0.530263  1
  Co  Co23  1  0.529709  0.824293  0.822667  1
  Co  Co24  1  0.824293  0.529709  0.822667  1
  Co  Co25  1  0.470291  0.175707  0.177333  1
  Co  Co26  1  0.175707  0.470291  0.177333  1
  Co  Co27  1  0.177134  0.177134  0.469737  1
  Co  Co28  1  0.823454  0.823454  0.824562  1
