# generated using pymatgen
data_Ho2Tm3V2Co17P12
_symmetry_space_group_name_H-M   'P 1'
_cell_length_a   11.98814222
_cell_length_b   11.94757892
_cell_length_c   3.65025400
_cell_angle_alpha   90.00000000
_cell_angle_beta   90.00000000
_cell_angle_gamma   119.88812981
_symmetry_Int_Tables_number   1
_chemical_formula_structural   Ho2Tm3V2Co17P12
_chemical_formula_sum   'Ho2 Tm3 V2 Co17 P12'
_cell_volume   453.28774667
_cell_formula_units_Z   1
loop_
 _symmetry_equiv_pos_site_id
 _symmetry_equiv_pos_as_xyz
  1  'x, y, z'
loop_
 _atom_site_type_symbol
 _atom_site_label
 _atom_site_symmetry_multiplicity
 _atom_site_fract_x
 _atom_site_fract_y
 _atom_site_fract_z
 _atom_site_occupancy
  Ho  Ho0  1  0.665011  0.332815  0.000000  1
  Ho  Ho1  1  0.334989  0.667804  0.000000  1
  Tm  Tm2  1  0.813901  0.814881  0.500000  1
  Tm  Tm3  1  0.186099  0.000981  0.500000  1
  Tm  Tm4  1  0.000000  0.187750  0.500000  1
  V  V5  1  0.442793  0.443199  0.000000  1
  V  V6  1  0.557207  0.000405  0.000000  1
  Co  Co7  1  0.873731  0.357359  0.500000  1
  Co  Co8  1  0.644345  0.519391  0.500000  1
  Co  Co9  1  0.481646  0.126628  0.500000  1
  Co  Co10  1  0.355655  0.875046  0.500000  1
  Co  Co11  1  0.518354  0.644981  0.500000  1
  Co  Co12  1  0.126269  0.483627  0.500000  1
  Co  Co13  1  0.000000  0.550899  0.000000  1
  Co  Co14  1  0.802294  0.178695  0.000000  1
  Co  Co15  1  0.823962  0.622526  0.000000  1
  Co  Co16  1  0.374141  0.197460  0.000000  1
  Co  Co17  1  0.176038  0.798565  0.000000  1
  Co  Co18  1  0.625859  0.823320  0.000000  1
  Co  Co19  1  0.197706  0.376402  0.000000  1
  Co  Co20  1  0.280483  0.281001  0.500000  1
  Co  Co21  1  0.719517  0.000518  0.500000  1
  Co  Co22  1  0.000000  0.715630  0.500000  1
  Co  Co23  1  0.000000  0.998106  0.000000  1
  P  P24  1  0.684624  0.165199  0.500000  1
  P  P25  1  0.835138  0.519584  0.500000  1
  P  P26  1  0.479313  0.315900  0.500000  1
  P  P27  1  0.164862  0.684447  0.500000  1
  P  P28  1  0.520687  0.836587  0.500000  1
  P  P29  1  0.315376  0.480575  0.500000  1
  P  P30  1  0.177456  0.178488  0.000000  1
  P  P31  1  0.822544  0.001033  0.000000  1
  P  P32  1  0.000000  0.819378  0.000000  1
  P  P33  1  0.637737  0.636202  0.000000  1
  P  P34  1  0.362263  0.998465  0.000000  1
  P  P35  1  0.000000  0.366152  0.000000  1
