# generated using pymatgen
data_Y3HoMn4(CuO5)4
_symmetry_space_group_name_H-M   'P 1'
_cell_length_a   5.65800900
_cell_length_b   7.52622415
_cell_length_c   8.46683117
_cell_angle_alpha   89.97685764
_cell_angle_beta   90.00000000
_cell_angle_gamma   90.00000000
_symmetry_Int_Tables_number   1
_chemical_formula_structural   Y3HoMn4(CuO5)4
_chemical_formula_sum   'Y3 Ho1 Mn4 Cu4 O20'
_cell_volume   360.54680166
_cell_formula_units_Z   1
loop_
 _symmetry_equiv_pos_site_id
 _symmetry_equiv_pos_as_xyz
  1  'x, y, z'
loop_
 _atom_site_type_symbol
 _atom_site_label
 _atom_site_symmetry_multiplicity
 _atom_site_fract_x
 _atom_site_fract_y
 _atom_site_fract_z
 _atom_site_occupancy
  Y  Y0  1  0.500000  0.648232  0.674073  1
  Y  Y1  1  0.500000  0.148372  0.825818  1
  Y  Y2  1  0.500000  0.851666  0.174206  1
  Ho  Ho3  1  0.500000  0.351313  0.325760  1
  Mn  Mn4  1  0.240382  0.000169  0.499950  1
  Mn  Mn5  1  0.759618  0.000169  0.499950  1
  Mn  Mn6  1  0.759638  0.499915  0.000159  1
  Mn  Mn7  1  0.240362  0.499915  0.000159  1
  Cu  Cu8  1  0.000000  0.072141  0.150317  1
  Cu  Cu9  1  0.000000  0.928035  0.849755  1
  Cu  Cu10  1  0.000000  0.427943  0.650109  1
  Cu  Cu11  1  0.000000  0.571714  0.349703  1
  O  O12  1  0.226913  0.999970  0.000016  1
  O  O13  1  0.773087  0.999970  0.000016  1
  O  O14  1  0.772020  0.499323  0.499282  1
  O  O15  1  0.227980  0.499323  0.499282  1
  O  O16  1  0.000000  0.347735  0.062454  1
  O  O17  1  0.000000  0.652266  0.937537  1
  O  O18  1  0.000000  0.152247  0.562485  1
  O  O19  1  0.000000  0.847752  0.437471  1
  O  O20  1  0.258643  0.097202  0.287218  1
  O  O21  1  0.742359  0.904068  0.712898  1
  O  O22  1  0.257641  0.904068  0.712898  1
  O  O23  1  0.742329  0.404072  0.787110  1
  O  O24  1  0.741357  0.097202  0.287218  1
  O  O25  1  0.258344  0.595146  0.213270  1
  O  O26  1  0.741656  0.595146  0.213270  1
  O  O27  1  0.257671  0.404072  0.787110  1
  O  O28  1  0.500000  0.335594  0.053290  1
  O  O29  1  0.500000  0.664416  0.948145  1
  O  O30  1  0.500000  0.165240  0.550917  1
  O  O31  1  0.500000  0.835605  0.448154  1
