# generated using pymatgen
data_YMgZn3Ir
_symmetry_space_group_name_H-M   'P 1'
_cell_length_a   5.31506459
_cell_length_b   5.31506492
_cell_length_c   5.31506620
_cell_angle_alpha   59.43826850
_cell_angle_beta   59.43827004
_cell_angle_gamma   59.43827168
_symmetry_Int_Tables_number   1
_chemical_formula_structural   YMgZn3Ir
_chemical_formula_sum   'Y1 Mg1 Zn3 Ir1'
_cell_volume   104.81531320
_cell_formula_units_Z   1
loop_
 _symmetry_equiv_pos_site_id
 _symmetry_equiv_pos_as_xyz
  1  'x, y, z'
loop_
 _atom_site_type_symbol
 _atom_site_label
 _atom_site_symmetry_multiplicity
 _atom_site_fract_x
 _atom_site_fract_y
 _atom_site_fract_z
 _atom_site_occupancy
  Y  Y0  1  0.253299  0.253299  0.253299  1
  Mg  Mg1  1  0.997972  0.997972  0.997972  1
  Zn  Zn2  1  0.625854  0.625854  0.122291  1
  Zn  Zn3  1  0.625854  0.122291  0.625854  1
  Zn  Zn4  1  0.122291  0.625854  0.625854  1
  Ir  Ir5  1  0.624730  0.624730  0.624730  1
