# generated using pymatgen
data_CsRb3(Er3Se5)4
_symmetry_space_group_name_H-M   'P 1'
_cell_length_a   4.11827200
_cell_length_b   12.30171273
_cell_length_c   22.01448077
_cell_angle_alpha   90.18262723
_cell_angle_beta   90.00000000
_cell_angle_gamma   90.00000000
_symmetry_Int_Tables_number   1
_chemical_formula_structural   CsRb3(Er3Se5)4
_chemical_formula_sum   'Cs1 Rb3 Er12 Se20'
_cell_volume   1115.28753605
_cell_formula_units_Z   1
loop_
 _symmetry_equiv_pos_site_id
 _symmetry_equiv_pos_as_xyz
  1  'x, y, z'
loop_
 _atom_site_type_symbol
 _atom_site_label
 _atom_site_symmetry_multiplicity
 _atom_site_fract_x
 _atom_site_fract_y
 _atom_site_fract_z
 _atom_site_occupancy
  Cs  Cs0  1  0.250000  0.645041  0.590955  1
  Rb  Rb1  1  0.250000  0.850039  0.094332  1
  Rb  Rb2  1  0.750000  0.149749  0.905745  1
  Rb  Rb3  1  0.750000  0.349837  0.405509  1
  Er  Er4  1  0.750000  0.799615  0.826900  1
  Er  Er5  1  0.250000  0.200918  0.173551  1
  Er  Er6  1  0.250000  0.297455  0.674416  1
  Er  Er7  1  0.750000  0.701049  0.325848  1
  Er  Er8  1  0.250000  0.957455  0.698729  1
  Er  Er9  1  0.750000  0.043526  0.301671  1
  Er  Er10  1  0.750000  0.455883  0.802481  1
  Er  Er11  1  0.250000  0.543428  0.198008  1
  Er  Er12  1  0.750000  0.390705  0.053723  1
  Er  Er13  1  0.250000  0.609405  0.946406  1
  Er  Er14  1  0.250000  0.892149  0.445804  1
  Er  Er15  1  0.750000  0.109821  0.553659  1
  Se  Se16  1  0.250000  0.948456  0.569248  1
  Se  Se17  1  0.750000  0.053512  0.430573  1
  Se  Se18  1  0.750000  0.447387  0.930969  1
  Se  Se19  1  0.250000  0.552741  0.069337  1
  Se  Se20  1  0.750000  0.766847  0.954405  1
  Se  Se21  1  0.250000  0.233227  0.045978  1
  Se  Se22  1  0.250000  0.267380  0.546230  1
  Se  Se23  1  0.750000  0.735030  0.452685  1
  Se  Se24  1  0.250000  0.953958  0.827336  1
  Se  Se25  1  0.750000  0.046652  0.173161  1
  Se  Se26  1  0.750000  0.450471  0.674604  1
  Se  Se27  1  0.250000  0.546677  0.326589  1
  Se  Se28  1  0.750000  0.126676  0.684640  1
  Se  Se29  1  0.250000  0.873577  0.315089  1
  Se  Se30  1  0.250000  0.626918  0.815588  1
  Se  Se31  1  0.750000  0.373183  0.184538  1
  Se  Se32  1  0.750000  0.696084  0.197571  1
  Se  Se33  1  0.250000  0.303318  0.802857  1
  Se  Se34  1  0.250000  0.196216  0.302206  1
  Se  Se35  1  0.750000  0.805616  0.698657  1
