# generated using pymatgen
data_Er4Co17Ni(P6Os)2
_symmetry_space_group_name_H-M   'P 1'
_cell_length_a   3.66925900
_cell_length_b   10.30776513
_cell_length_c   11.70942914
_cell_angle_alpha   89.98212150
_cell_angle_beta   90.00000000
_cell_angle_gamma   90.00000000
_symmetry_Int_Tables_number   1
_chemical_formula_structural   Er4Co17Ni(P6Os)2
_chemical_formula_sum   'Er4 Co17 Ni1 P12 Os2'
_cell_volume   442.87236764
_cell_formula_units_Z   1
loop_
 _symmetry_equiv_pos_site_id
 _symmetry_equiv_pos_as_xyz
  1  'x, y, z'
loop_
 _atom_site_type_symbol
 _atom_site_label
 _atom_site_symmetry_multiplicity
 _atom_site_fract_x
 _atom_site_fract_y
 _atom_site_fract_z
 _atom_site_occupancy
  Er  Er0  1  0.250000  0.582454  0.701876  1
  Er  Er1  1  0.250000  0.917894  0.201729  1
  Er  Er2  1  0.750000  0.413683  0.295373  1
  Er  Er3  1  0.750000  0.086405  0.795133  1
  Co  Co4  1  0.750000  0.216939  0.508626  1
  Co  Co5  1  0.250000  0.406356  0.487644  1
  Co  Co6  1  0.250000  0.092998  0.987092  1
  Co  Co7  1  0.750000  0.591385  0.510496  1
  Co  Co8  1  0.750000  0.908443  0.010611  1
  Co  Co9  1  0.250000  0.220498  0.178068  1
  Co  Co10  1  0.250000  0.280027  0.676871  1
  Co  Co11  1  0.750000  0.777618  0.822685  1
  Co  Co12  1  0.750000  0.722570  0.322726  1
  Co  Co13  1  0.250000  0.887449  0.702142  1
  Co  Co14  1  0.250000  0.612829  0.202069  1
  Co  Co15  1  0.750000  0.115514  0.300906  1
  Co  Co16  1  0.750000  0.383846  0.800752  1
  Co  Co17  1  0.250000  0.465483  0.931753  1
  Co  Co18  1  0.250000  0.034783  0.432529  1
  Co  Co19  1  0.750000  0.533587  0.069404  1
  Co  Co20  1  0.750000  0.966476  0.569077  1
  Ni  Ni21  1  0.750000  0.283032  0.008840  1
  P  P22  1  0.250000  0.416384  0.112567  1
  P  P23  1  0.250000  0.083894  0.612838  1
  P  P24  1  0.750000  0.578504  0.886280  1
  P  P25  1  0.750000  0.921531  0.386138  1
  P  P26  1  0.250000  0.270022  0.869054  1
  P  P27  1  0.250000  0.230051  0.369423  1
  P  P28  1  0.750000  0.729991  0.132466  1
  P  P29  1  0.750000  0.769995  0.632661  1
  P  P30  1  0.250000  0.593223  0.389836  1
  P  P31  1  0.250000  0.906728  0.890020  1
  P  P32  1  0.750000  0.397741  0.609025  1
  P  P33  1  0.750000  0.101965  0.109125  1
  Os  Os34  1  0.250000  0.715207  0.992288  1
  Os  Os35  1  0.250000  0.784492  0.491878  1
