# generated using pymatgen
data_NaP4(WO7)2
_symmetry_space_group_name_H-M   'P 1'
_cell_length_a   5.01312377
_cell_length_b   7.08423175
_cell_length_c   8.57051626
_cell_angle_alpha   91.94803211
_cell_angle_beta   92.57216867
_cell_angle_gamma   106.36402484
_symmetry_Int_Tables_number   1
_chemical_formula_structural   NaP4(WO7)2
_chemical_formula_sum   'Na1 P4 W2 O14'
_cell_volume   291.40477636
_cell_formula_units_Z   1
loop_
 _symmetry_equiv_pos_site_id
 _symmetry_equiv_pos_as_xyz
  1  'x, y, z'
loop_
 _atom_site_type_symbol
 _atom_site_label
 _atom_site_symmetry_multiplicity
 _atom_site_fract_x
 _atom_site_fract_y
 _atom_site_fract_z
 _atom_site_occupancy
  Na  Na0  1  0.637519  0.988231  0.033387  1
  P  P1  1  0.485245  0.366158  0.239556  1
  P  P2  1  0.514571  0.633233  0.758654  1
  P  P3  1  0.877884  0.757730  0.305038  1
  P  P4  1  0.113134  0.240065  0.696609  1
  W  W5  1  0.496312  0.001053  0.500786  1
  W  W6  1  0.001148  0.503173  0.998314  1
  O  O7  1  0.687431  0.895549  0.321218  1
  O  O8  1  0.303521  0.104517  0.676757  1
  O  O9  1  0.869937  0.191690  0.572829  1
  O  O10  1  0.123704  0.808522  0.426009  1
  O  O11  1  0.245756  0.445065  0.190808  1
  O  O12  1  0.759124  0.557376  0.803356  1
  O  O13  1  0.025589  0.240384  0.865197  1
  O  O14  1  0.954745  0.758018  0.134173  1
  O  O15  1  0.285441  0.458859  0.656861  1
  O  O16  1  0.707248  0.540290  0.347168  1
  O  O17  1  0.642602  0.312095  0.102347  1
  O  O18  1  0.370517  0.690206  0.900920  1
  O  O19  1  0.597379  0.801185  0.648921  1
  O  O20  1  0.396093  0.196802  0.347396  1
