# generated using pymatgen
data_Pr16Cd3InOs4
_symmetry_space_group_name_H-M   'P 1'
_cell_length_a   10.06931514
_cell_length_b   10.06930788
_cell_length_c   10.06940579
_cell_angle_alpha   59.58526753
_cell_angle_beta   59.58510279
_cell_angle_gamma   59.58512114
_symmetry_Int_Tables_number   1
_chemical_formula_structural   Pr16Cd3InOs4
_chemical_formula_sum   'Pr16 Cd3 In1 Os4'
_cell_volume   715.11147217
_cell_formula_units_Z   1
loop_
 _symmetry_equiv_pos_site_id
 _symmetry_equiv_pos_as_xyz
  1  'x, y, z'
loop_
 _atom_site_type_symbol
 _atom_site_label
 _atom_site_symmetry_multiplicity
 _atom_site_fract_x
 _atom_site_fract_y
 _atom_site_fract_z
 _atom_site_occupancy
  Pr  Pr0  1  0.345135  0.345135  0.345127  1
  Pr  Pr1  1  0.346121  0.346121  0.961917  1
  Pr  Pr2  1  0.346118  0.961918  0.346116  1
  Pr  Pr3  1  0.961918  0.346119  0.346116  1
  Pr  Pr4  1  0.808467  0.190996  0.191001  1
  Pr  Pr5  1  0.192302  0.808344  0.808349  1
  Pr  Pr6  1  0.190995  0.808467  0.191001  1
  Pr  Pr7  1  0.808345  0.192302  0.808349  1
  Pr  Pr8  1  0.190998  0.190999  0.808465  1
  Pr  Pr9  1  0.808347  0.808347  0.192306  1
  Pr  Pr10  1  0.940904  0.560188  0.560186  1
  Pr  Pr11  1  0.557733  0.943028  0.943035  1
  Pr  Pr12  1  0.560187  0.940904  0.560186  1
  Pr  Pr13  1  0.943027  0.557734  0.943035  1
  Pr  Pr14  1  0.560199  0.560199  0.940889  1
  Pr  Pr15  1  0.943024  0.943024  0.557747  1
  Cd  Cd16  1  0.578131  0.578132  0.262160  1
  Cd  Cd17  1  0.578132  0.262157  0.578133  1
  Cd  Cd18  1  0.262157  0.578132  0.578134  1
  In  In19  1  0.579290  0.579289  0.579289  1
  Os  Os20  1  0.138150  0.138151  0.138137  1
  Os  Os21  1  0.137388  0.137388  0.585545  1
  Os  Os22  1  0.137388  0.585540  0.137387  1
  Os  Os23  1  0.585540  0.137388  0.137387  1
