# generated using pymatgen
data_Er20(OsPt3)3
_symmetry_space_group_name_H-M   'P 1'
_cell_length_a   10.93647400
_cell_length_b   10.93647400
_cell_length_c   6.33610500
_cell_angle_alpha   90.00000000
_cell_angle_beta   90.00000000
_cell_angle_gamma   90.00000000
_symmetry_Int_Tables_number   1
_chemical_formula_structural   Er20(OsPt3)3
_chemical_formula_sum   'Er20 Os3 Pt9'
_cell_volume   757.83911175
_cell_formula_units_Z   1
loop_
 _symmetry_equiv_pos_site_id
 _symmetry_equiv_pos_as_xyz
  1  'x, y, z'
loop_
 _atom_site_type_symbol
 _atom_site_label
 _atom_site_symmetry_multiplicity
 _atom_site_fract_x
 _atom_site_fract_y
 _atom_site_fract_z
 _atom_site_occupancy
  Er  Er0  1  0.294156  0.088004  0.376907  1
  Er  Er1  1  0.292952  0.911860  0.867204  1
  Er  Er2  1  0.707048  0.088140  0.867204  1
  Er  Er3  1  0.705844  0.911996  0.376907  1
  Er  Er4  1  0.588140  0.792952  0.867204  1
  Er  Er5  1  0.588004  0.205844  0.376907  1
  Er  Er6  1  0.411996  0.794156  0.376907  1
  Er  Er7  1  0.411860  0.207048  0.867204  1
  Er  Er8  1  0.202422  0.414774  0.627921  1
  Er  Er9  1  0.202673  0.586108  0.128375  1
  Er  Er10  1  0.797327  0.413892  0.128375  1
  Er  Er11  1  0.797578  0.585226  0.627921  1
  Er  Er12  1  0.913892  0.702673  0.128375  1
  Er  Er13  1  0.914774  0.297578  0.627921  1
  Er  Er14  1  0.085226  0.702422  0.627921  1
  Er  Er15  1  0.086108  0.297327  0.128375  1
  Er  Er16  1  0.000000  0.000000  0.500921  1
  Er  Er17  1  0.000000  0.000000  0.001360  1
  Er  Er18  1  0.500000  0.500000  0.001360  1
  Er  Er19  1  0.500000  0.500000  0.500921  1
  Os  Os20  1  0.500000  0.000000  0.622775  1
  Os  Os21  1  0.000000  0.500000  0.876112  1
  Os  Os22  1  0.000000  0.500000  0.375847  1
  Pt  Pt23  1  0.845525  0.152311  0.249774  1
  Pt  Pt24  1  0.846113  0.847370  0.750331  1
  Pt  Pt25  1  0.153887  0.152630  0.750331  1
  Pt  Pt26  1  0.154475  0.847689  0.249774  1
  Pt  Pt27  1  0.652630  0.346113  0.750331  1
  Pt  Pt28  1  0.652311  0.654475  0.249774  1
  Pt  Pt29  1  0.347689  0.345525  0.249774  1
  Pt  Pt30  1  0.347370  0.653887  0.750331  1
  Pt  Pt31  1  0.500000  0.000000  0.118656  1
