# generated using pymatgen
data_Tb8Ta11Si16Pd
_symmetry_space_group_name_H-M   'P 1'
_cell_length_a   6.84729576
_cell_length_b   7.07752727
_cell_length_c   13.37611500
_cell_angle_alpha   90.00000000
_cell_angle_beta   90.00000000
_cell_angle_gamma   89.53828176
_symmetry_Int_Tables_number   1
_chemical_formula_structural   Tb8Ta11Si16Pd
_chemical_formula_sum   'Tb8 Ta11 Si16 Pd1'
_cell_volume   648.21120004
_cell_formula_units_Z   1
loop_
 _symmetry_equiv_pos_site_id
 _symmetry_equiv_pos_as_xyz
  1  'x, y, z'
loop_
 _atom_site_type_symbol
 _atom_site_label
 _atom_site_symmetry_multiplicity
 _atom_site_fract_x
 _atom_site_fract_y
 _atom_site_fract_z
 _atom_site_occupancy
  Tb  Tb0  1  0.995700  0.170773  0.404319  1
  Tb  Tb1  1  0.498440  0.330290  0.097387  1
  Tb  Tb2  1  0.502385  0.671467  0.595906  1
  Tb  Tb3  1  0.003345  0.828440  0.904512  1
  Tb  Tb4  1  0.003345  0.828440  0.595488  1
  Tb  Tb5  1  0.502385  0.671467  0.904094  1
  Tb  Tb6  1  0.498440  0.330290  0.402613  1
  Tb  Tb7  1  0.995700  0.170773  0.095681  1
  Ta  Ta8  1  0.336696  0.825186  0.124923  1
  Ta  Ta9  1  0.836745  0.674910  0.374249  1
  Ta  Ta10  1  0.659341  0.176644  0.626487  1
  Ta  Ta11  1  0.167237  0.324237  0.873678  1
  Ta  Ta12  1  0.167237  0.324237  0.626322  1
  Ta  Ta13  1  0.659341  0.176644  0.873513  1
  Ta  Ta14  1  0.836745  0.674910  0.125751  1
  Ta  Ta15  1  0.662238  0.988537  0.250000  1
  Ta  Ta16  1  0.162734  0.509485  0.250000  1
  Ta  Ta17  1  0.837295  0.493734  0.750000  1
  Ta  Ta18  1  0.336696  0.825186  0.375077  1
  Si  Si19  1  0.337333  0.040942  0.536254  1
  Si  Si20  1  0.837799  0.463054  0.957712  1
  Si  Si21  1  0.663713  0.962207  0.040346  1
  Si  Si22  1  0.163697  0.537150  0.458845  1
  Si  Si23  1  0.163697  0.537150  0.041155  1
  Si  Si24  1  0.663713  0.962207  0.459654  1
  Si  Si25  1  0.837799  0.463054  0.542288  1
  Si  Si26  1  0.337333  0.040942  0.963746  1
  Si  Si27  1  0.797777  0.373903  0.250000  1
  Si  Si28  1  0.294898  0.125936  0.250000  1
  Si  Si29  1  0.705424  0.880687  0.750000  1
  Si  Si30  1  0.202080  0.619975  0.750000  1
  Si  Si31  1  0.039948  0.877586  0.250000  1
  Si  Si32  1  0.540232  0.622301  0.250000  1
  Si  Si33  1  0.459860  0.379477  0.750000  1
  Si  Si34  1  0.960802  0.126184  0.750000  1
  Pd  Pd35  1  0.331854  0.991594  0.750000  1
