# generated using pymatgen
data_Er2FeSi5Rh2
_symmetry_space_group_name_H-M   'P 1'
_cell_length_a   8.01808113
_cell_length_b   8.01808041
_cell_length_c   5.60262748
_cell_angle_alpha   71.08807266
_cell_angle_beta   71.08807284
_cell_angle_gamma   93.71035973
_symmetry_Int_Tables_number   1
_chemical_formula_structural   Er2FeSi5Rh2
_chemical_formula_sum   'Er4 Fe2 Si10 Rh4'
_cell_volume   316.50009035
_cell_formula_units_Z   2
loop_
 _symmetry_equiv_pos_site_id
 _symmetry_equiv_pos_as_xyz
  1  'x, y, z'
loop_
 _atom_site_type_symbol
 _atom_site_label
 _atom_site_symmetry_multiplicity
 _atom_site_fract_x
 _atom_site_fract_y
 _atom_site_fract_z
 _atom_site_occupancy
  Er  Er0  1  0.863807  0.595849  0.767454  1
  Er  Er1  1  0.128895  0.402183  0.242990  1
  Er  Er2  1  0.404151  0.136193  0.732546  1
  Er  Er3  1  0.597817  0.871105  0.257010  1
  Fe  Fe4  1  0.544408  0.260303  0.129637  1
  Fe  Fe5  1  0.739697  0.455592  0.370363  1
  Si  Si6  1  0.763146  0.236854  0.750000  1
  Si  Si7  1  0.220541  0.779459  0.250000  1
  Si  Si8  1  0.522617  0.477383  0.750000  1
  Si  Si9  1  0.498057  0.501943  0.250000  1
  Si  Si10  1  0.208760  0.791240  0.750000  1
  Si  Si11  1  0.784322  0.215678  0.250000  1
  Si  Si12  1  0.278533  0.070680  0.325473  1
  Si  Si13  1  0.733741  0.940279  0.664355  1
  Si  Si14  1  0.929320  0.721467  0.174527  1
  Si  Si15  1  0.059721  0.266259  0.835645  1
  Rh  Rh16  1  0.458586  0.737580  0.876117  1
  Rh  Rh17  1  0.262420  0.541414  0.623883  1
  Rh  Rh18  1  0.998492  0.001508  0.250000  1
  Rh  Rh19  1  0.002971  0.997029  0.750000  1
