# generated using pymatgen
data_DyLu2Th(Al3Rh)6
_symmetry_space_group_name_H-M   'P 1'
_cell_length_a   7.55879894
_cell_length_b   7.57204829
_cell_length_c   9.44922100
_cell_angle_alpha   90.00000000
_cell_angle_beta   90.00000000
_cell_angle_gamma   119.35083213
_symmetry_Int_Tables_number   1
_chemical_formula_structural   DyLu2Th(Al3Rh)6
_chemical_formula_sum   'Dy1 Lu2 Th1 Al18 Rh6'
_cell_volume   471.40774514
_cell_formula_units_Z   1
loop_
 _symmetry_equiv_pos_site_id
 _symmetry_equiv_pos_as_xyz
  1  'x, y, z'
loop_
 _atom_site_type_symbol
 _atom_site_label
 _atom_site_symmetry_multiplicity
 _atom_site_fract_x
 _atom_site_fract_y
 _atom_site_fract_z
 _atom_site_occupancy
  Dy  Dy0  1  0.672315  0.994368  0.750000  1
  Lu  Lu1  1  0.004364  0.327370  0.250000  1
  Lu  Lu2  1  0.327153  0.005254  0.250000  1
  Th  Th3  1  0.994532  0.671460  0.750000  1
  Al  Al4  1  0.131286  0.132818  0.750000  1
  Al  Al5  1  0.873082  0.875312  0.250000  1
  Al  Al6  1  0.001405  0.331327  0.571225  1
  Al  Al7  1  0.000408  0.663941  0.416218  1
  Al  Al8  1  0.000408  0.663941  0.083782  1
  Al  Al9  1  0.340153  0.005206  0.928637  1
  Al  Al10  1  0.001405  0.331327  0.928775  1
  Al  Al11  1  0.664286  0.001591  0.078480  1
  Al  Al12  1  0.664286  0.001591  0.421520  1
  Al  Al13  1  0.340153  0.005206  0.571363  1
  Al  Al14  1  0.331374  0.331495  0.056505  1
  Al  Al15  1  0.663172  0.666518  0.957312  1
  Al  Al16  1  0.663172  0.666518  0.542688  1
  Al  Al17  1  0.331374  0.331495  0.443495  1
  Al  Al18  1  0.343990  0.548833  0.750000  1
  Al  Al19  1  0.657989  0.446908  0.250000  1
  Al  Al20  1  0.545292  0.336505  0.750000  1
  Al  Al21  1  0.447637  0.660524  0.250000  1
  Rh  Rh22  1  0.672867  0.328919  0.499361  1
  Rh  Rh23  1  0.326292  0.671716  0.499465  1
  Rh  Rh24  1  0.326292  0.671716  0.000535  1
  Rh  Rh25  1  0.672867  0.328919  0.000639  1
  Rh  Rh26  1  0.001223  0.999610  0.499226  1
  Rh  Rh27  1  0.001223  0.999610  0.000774  1
