# generated using pymatgen
data_Er16Sc4Ir11Pt
_symmetry_space_group_name_H-M   'P 1'
_cell_length_a   10.73727350
_cell_length_b   10.73727350
_cell_length_c   6.22926931
_cell_angle_alpha   90.02572096
_cell_angle_beta   90.02572096
_cell_angle_gamma   89.80703090
_symmetry_Int_Tables_number   1
_chemical_formula_structural   Er16Sc4Ir11Pt
_chemical_formula_sum   'Er16 Sc4 Ir11 Pt1'
_cell_volume   718.16227465
_cell_formula_units_Z   1
loop_
 _symmetry_equiv_pos_site_id
 _symmetry_equiv_pos_as_xyz
  1  'x, y, z'
loop_
 _atom_site_type_symbol
 _atom_site_label
 _atom_site_symmetry_multiplicity
 _atom_site_fract_x
 _atom_site_fract_y
 _atom_site_fract_z
 _atom_site_occupancy
  Er  Er0  1  0.287927  0.085288  0.375430  1
  Er  Er1  1  0.289038  0.914245  0.874757  1
  Er  Er2  1  0.709367  0.084196  0.872792  1
  Er  Er3  1  0.709905  0.911207  0.377337  1
  Er  Er4  1  0.585407  0.788445  0.876666  1
  Er  Er5  1  0.582857  0.211781  0.375801  1
  Er  Er6  1  0.413902  0.788352  0.375925  1
  Er  Er7  1  0.413644  0.211497  0.876030  1
  Er  Er8  1  0.211555  0.414593  0.623334  1
  Er  Er9  1  0.211648  0.586098  0.124075  1
  Er  Er10  1  0.788219  0.417143  0.124199  1
  Er  Er11  1  0.788503  0.586356  0.623970  1
  Er  Er12  1  0.914712  0.712073  0.124570  1
  Er  Er13  1  0.915804  0.290633  0.627208  1
  Er  Er14  1  0.085755  0.710962  0.625243  1
  Er  Er15  1  0.088793  0.290095  0.122663  1
  Sc  Sc16  1  0.001894  0.997318  0.502151  1
  Sc  Sc17  1  0.002682  0.998106  0.997849  1
  Sc  Sc18  1  0.499575  0.499962  0.999998  1
  Sc  Sc19  1  0.500038  0.500425  0.500002  1
  Ir  Ir20  1  0.851688  0.852705  0.750405  1
  Ir  Ir21  1  0.147295  0.148312  0.749595  1
  Ir  Ir22  1  0.148427  0.851573  0.250000  1
  Ir  Ir23  1  0.649068  0.350932  0.750000  1
  Ir  Ir24  1  0.648531  0.648377  0.249941  1
  Ir  Ir25  1  0.351623  0.351469  0.250059  1
  Ir  Ir26  1  0.351559  0.648441  0.750000  1
  Ir  Ir27  1  0.500097  0.999900  0.121070  1
  Ir  Ir28  1  0.500073  0.000190  0.619241  1
  Ir  Ir29  1  0.999810  0.499927  0.880759  1
  Ir  Ir30  1  0.000100  0.499903  0.378930  1
  Pt  Pt31  1  0.850504  0.149496  0.250000  1
