# generated using pymatgen
data_Zn3Cd12CuNi8
_symmetry_space_group_name_H-M   'P 1'
_cell_length_a   8.17810687
_cell_length_b   8.17810667
_cell_length_c   8.17560908
_cell_angle_alpha   59.98989345
_cell_angle_beta   59.98989042
_cell_angle_gamma   60.00000436
_symmetry_Int_Tables_number   1
_chemical_formula_structural   Zn3Cd12CuNi8
_chemical_formula_sum   'Zn3 Cd12 Cu1 Ni8'
_cell_volume   386.58439214
_cell_formula_units_Z   1
loop_
 _symmetry_equiv_pos_site_id
 _symmetry_equiv_pos_as_xyz
  1  'x, y, z'
loop_
 _atom_site_type_symbol
 _atom_site_label
 _atom_site_symmetry_multiplicity
 _atom_site_fract_x
 _atom_site_fract_y
 _atom_site_fract_z
 _atom_site_occupancy
  Zn  Zn0  1  0.125000  0.625000  0.625000  1
  Zn  Zn1  1  0.625000  0.125000  0.625000  1
  Zn  Zn2  1  0.625000  0.625000  0.625000  1
  Cd  Cd3  1  0.804887  0.804887  0.192595  1
  Cd  Cd4  1  0.193088  0.193088  0.806999  1
  Cd  Cd5  1  0.806825  0.193088  0.806999  1
  Cd  Cd6  1  0.197632  0.804887  0.192595  1
  Cd  Cd7  1  0.193088  0.806825  0.806999  1
  Cd  Cd8  1  0.804887  0.197632  0.192595  1
  Cd  Cd9  1  0.445113  0.445113  0.057405  1
  Cd  Cd10  1  0.056912  0.056912  0.443001  1
  Cd  Cd11  1  0.443175  0.056912  0.443001  1
  Cd  Cd12  1  0.052368  0.445113  0.057405  1
  Cd  Cd13  1  0.056912  0.443175  0.443001  1
  Cd  Cd14  1  0.445113  0.052368  0.057405  1
  Cu  Cu15  1  0.625000  0.625000  0.125000  1
  Ni  Ni16  1  0.738095  0.420857  0.420191  1
  Ni  Ni17  1  0.420857  0.738095  0.420191  1
  Ni  Ni18  1  0.420214  0.420214  0.739360  1
  Ni  Ni19  1  0.420857  0.420857  0.420191  1
  Ni  Ni20  1  0.511905  0.829143  0.829809  1
  Ni  Ni21  1  0.829143  0.511905  0.829809  1
  Ni  Ni22  1  0.829786  0.829786  0.510640  1
  Ni  Ni23  1  0.829143  0.829143  0.829809  1
