# generated using pymatgen
data_Na2Sm(B3Rh4)2
_symmetry_space_group_name_H-M   'P 1'
_cell_length_a   9.81410401
_cell_length_b   8.95487054
_cell_length_c   5.61109779
_cell_angle_alpha   81.20956346
_cell_angle_beta   64.38660326
_cell_angle_gamma   34.40384743
_symmetry_Int_Tables_number   1
_chemical_formula_structural   Na2Sm(B3Rh4)2
_chemical_formula_sum   'Na2 Sm1 B6 Rh8'
_cell_volume   230.25929765
_cell_formula_units_Z   1
loop_
 _symmetry_equiv_pos_site_id
 _symmetry_equiv_pos_as_xyz
  1  'x, y, z'
loop_
 _atom_site_type_symbol
 _atom_site_label
 _atom_site_symmetry_multiplicity
 _atom_site_fract_x
 _atom_site_fract_y
 _atom_site_fract_z
 _atom_site_occupancy
  Na  Na0  1  0.310602  0.310602  0.689398  1
  Na  Na1  1  0.689398  0.689398  0.310602  1
  Sm  Sm2  1  0.500000  0.500000  0.500000  1
  B  B3  1  0.830868  0.169132  0.830868  1
  B  B4  1  0.667541  0.987060  0.012940  1
  B  B5  1  0.987060  0.667541  0.332459  1
  B  B6  1  0.012940  0.332459  0.667541  1
  B  B7  1  0.332459  0.012940  0.987060  1
  B  B8  1  0.169132  0.830868  0.169132  1
  Rh  Rh9  1  0.914460  0.914460  0.585540  1
  Rh  Rh10  1  0.085540  0.085540  0.414460  1
  Rh  Rh11  1  0.750000  0.750000  0.750000  1
  Rh  Rh12  1  0.087660  0.087660  0.912340  1
  Rh  Rh13  1  0.912340  0.912340  0.087660  1
  Rh  Rh14  1  0.414460  0.414460  0.085540  1
  Rh  Rh15  1  0.585540  0.585540  0.914460  1
  Rh  Rh16  1  0.250000  0.250000  0.250000  1
