# generated using pymatgen
data_CePrP7Ru12
_symmetry_space_group_name_H-M   'P 1'
_cell_length_a   9.49056700
_cell_length_b   9.49056528
_cell_length_c   3.96868900
_cell_angle_alpha   90.00000000
_cell_angle_beta   90.00000000
_cell_angle_gamma   120.00000157
_symmetry_Int_Tables_number   1
_chemical_formula_structural   CePrP7Ru12
_chemical_formula_sum   'Ce1 Pr1 P7 Ru12'
_cell_volume   309.57218508
_cell_formula_units_Z   1
loop_
 _symmetry_equiv_pos_site_id
 _symmetry_equiv_pos_as_xyz
  1  'x, y, z'
loop_
 _atom_site_type_symbol
 _atom_site_label
 _atom_site_symmetry_multiplicity
 _atom_site_fract_x
 _atom_site_fract_y
 _atom_site_fract_z
 _atom_site_occupancy
  Ce  Ce0  1  0.666667  0.333333  0.500000  1
  Pr  Pr1  1  0.333333  0.666667  0.000000  1
  P  P2  1  0.605218  0.717440  0.500000  1
  P  P3  1  0.000000  0.000000  0.000000  1
  P  P4  1  0.282560  0.887778  0.500000  1
  P  P5  1  0.112222  0.394782  0.500000  1
  P  P6  1  0.890431  0.576625  0.000000  1
  P  P7  1  0.423375  0.313807  0.000000  1
  P  P8  1  0.686193  0.109569  0.000000  1
  Ru  Ru9  1  0.560549  0.954653  0.500000  1
  Ru  Ru10  1  0.394106  0.439451  0.500000  1
  Ru  Ru11  1  0.913379  0.120138  0.500000  1
  Ru  Ru12  1  0.206759  0.086621  0.500000  1
  Ru  Ru13  1  0.879862  0.793241  0.500000  1
  Ru  Ru14  1  0.729435  0.891259  0.000000  1
  Ru  Ru15  1  0.108741  0.838175  0.000000  1
  Ru  Ru16  1  0.161825  0.270565  0.000000  1
  Ru  Ru17  1  0.423761  0.069625  0.000000  1
  Ru  Ru18  1  0.930375  0.354137  0.000000  1
  Ru  Ru19  1  0.645863  0.576239  0.000000  1
  Ru  Ru20  1  0.045347  0.605894  0.500000  1
