# generated using pymatgen
data_LiY9Tl3Pt
_symmetry_space_group_name_H-M   'P 1'
_cell_length_a   9.57810100
_cell_length_b   9.57810094
_cell_length_c   9.72048500
_cell_angle_alpha   90.00000000
_cell_angle_beta   90.00000000
_cell_angle_gamma   119.99999677
_symmetry_Int_Tables_number   1
_chemical_formula_structural   LiY9Tl3Pt
_chemical_formula_sum   'Li2 Y18 Tl6 Pt2'
_cell_volume   772.28464843
_cell_formula_units_Z   2
loop_
 _symmetry_equiv_pos_site_id
 _symmetry_equiv_pos_as_xyz
  1  'x, y, z'
loop_
 _atom_site_type_symbol
 _atom_site_label
 _atom_site_symmetry_multiplicity
 _atom_site_fract_x
 _atom_site_fract_y
 _atom_site_fract_z
 _atom_site_occupancy
  Li  Li0  1  0.000000  0.000000  0.000000  1
  Li  Li1  1  0.000000  0.000000  0.500000  1
  Y  Y2  1  0.204035  0.795965  0.937466  1
  Y  Y3  1  0.204035  0.408069  0.937466  1
  Y  Y4  1  0.591931  0.795965  0.937466  1
  Y  Y5  1  0.795965  0.204035  0.062534  1
  Y  Y6  1  0.795965  0.591931  0.062534  1
  Y  Y7  1  0.408069  0.204035  0.062534  1
  Y  Y8  1  0.795965  0.204035  0.437466  1
  Y  Y9  1  0.795965  0.591931  0.437466  1
  Y  Y10  1  0.408069  0.204035  0.437466  1
  Y  Y11  1  0.204035  0.795965  0.562534  1
  Y  Y12  1  0.204035  0.408069  0.562534  1
  Y  Y13  1  0.591931  0.795965  0.562534  1
  Y  Y14  1  0.540858  0.459142  0.750000  1
  Y  Y15  1  0.540858  0.081716  0.750000  1
  Y  Y16  1  0.918284  0.459142  0.750000  1
  Y  Y17  1  0.459142  0.540858  0.250000  1
  Y  Y18  1  0.459142  0.918284  0.250000  1
  Y  Y19  1  0.081716  0.540858  0.250000  1
  Tl  Tl20  1  0.886892  0.113108  0.750000  1
  Tl  Tl21  1  0.886892  0.773784  0.750000  1
  Tl  Tl22  1  0.226216  0.113108  0.750000  1
  Tl  Tl23  1  0.113108  0.886892  0.250000  1
  Tl  Tl24  1  0.113108  0.226216  0.250000  1
  Tl  Tl25  1  0.773784  0.886892  0.250000  1
  Pt  Pt26  1  0.333333  0.666667  0.750000  1
  Pt  Pt27  1  0.666667  0.333333  0.250000  1
