# generated using pymatgen
data_PrSm7(Si3Au)4
_symmetry_space_group_name_H-M   'P 1'
_cell_length_a   8.26587200
_cell_length_b   8.26587188
_cell_length_c   8.53486300
_cell_angle_alpha   90.00000000
_cell_angle_beta   90.00000000
_cell_angle_gamma   120.00000047
_symmetry_Int_Tables_number   1
_chemical_formula_structural   PrSm7(Si3Au)4
_chemical_formula_sum   'Pr1 Sm7 Si12 Au4'
_cell_volume   505.01529249
_cell_formula_units_Z   1
loop_
 _symmetry_equiv_pos_site_id
 _symmetry_equiv_pos_as_xyz
  1  'x, y, z'
loop_
 _atom_site_type_symbol
 _atom_site_label
 _atom_site_symmetry_multiplicity
 _atom_site_fract_x
 _atom_site_fract_y
 _atom_site_fract_z
 _atom_site_occupancy
  Pr  Pr0  1  0.000000  0.000000  0.250000  1
  Sm  Sm1  1  0.499434  0.500566  0.750000  1
  Sm  Sm2  1  0.500574  0.499426  0.250000  1
  Sm  Sm3  1  0.001133  0.500566  0.750000  1
  Sm  Sm4  1  0.998851  0.499426  0.250000  1
  Sm  Sm5  1  0.499434  0.998867  0.750000  1
  Sm  Sm6  1  0.500574  0.001149  0.250000  1
  Sm  Sm7  1  0.000000  0.000000  0.750000  1
  Si  Si8  1  0.835778  0.164222  0.998437  1
  Si  Si9  1  0.164224  0.835776  0.997913  1
  Si  Si10  1  0.328445  0.164222  0.998437  1
  Si  Si11  1  0.164224  0.835776  0.502087  1
  Si  Si12  1  0.671553  0.835776  0.997913  1
  Si  Si13  1  0.835778  0.164222  0.501563  1
  Si  Si14  1  0.835778  0.671555  0.998437  1
  Si  Si15  1  0.671553  0.835776  0.502087  1
  Si  Si16  1  0.164224  0.328447  0.997913  1
  Si  Si17  1  0.328445  0.164222  0.501563  1
  Si  Si18  1  0.164224  0.328447  0.502087  1
  Si  Si19  1  0.835778  0.671555  0.501563  1
  Au  Au20  1  0.666667  0.333333  0.998101  1
  Au  Au21  1  0.333333  0.666667  0.002272  1
  Au  Au22  1  0.333333  0.666667  0.497728  1
  Au  Au23  1  0.666667  0.333333  0.501899  1
