# generated using pymatgen
data_Gd2Ga4Pt3
_symmetry_space_group_name_H-M   'P 1'
_cell_length_a   6.64386228
_cell_length_b   6.64386260
_cell_length_c   4.20022300
_cell_angle_alpha   90.00000000
_cell_angle_beta   90.00000000
_cell_angle_gamma   114.55421272
_symmetry_Int_Tables_number   1
_chemical_formula_structural   Gd2Ga4Pt3
_chemical_formula_sum   'Gd2 Ga4 Pt3'
_cell_volume   168.63550465
_cell_formula_units_Z   1
loop_
 _symmetry_equiv_pos_site_id
 _symmetry_equiv_pos_as_xyz
  1  'x, y, z'
loop_
 _atom_site_type_symbol
 _atom_site_label
 _atom_site_symmetry_multiplicity
 _atom_site_fract_x
 _atom_site_fract_y
 _atom_site_fract_z
 _atom_site_occupancy
  Gd  Gd0  1  0.425092  0.005629  0.500000  1
  Gd  Gd1  1  0.005629  0.425092  0.500000  1
  Ga  Ga2  1  0.598953  0.598953  0.500000  1
  Ga  Ga3  1  0.752064  0.019233  0.000000  1
  Ga  Ga4  1  0.019233  0.752064  0.000000  1
  Ga  Ga5  1  0.215291  0.215291  0.000000  1
  Pt  Pt6  1  0.370083  0.646030  0.000000  1
  Pt  Pt7  1  0.646030  0.370083  0.000000  1
  Pt  Pt8  1  0.967626  0.967626  0.500000  1
