# generated using pymatgen
data_Pr16MgZn(InIr2)2
_symmetry_space_group_name_H-M   'P 1'
_cell_length_a   10.04162754
_cell_length_b   10.03163564
_cell_length_c   10.06532400
_cell_angle_alpha   59.88884894
_cell_angle_beta   59.92190694
_cell_angle_gamma   59.85088993
_symmetry_Int_Tables_number   1
_chemical_formula_structural   Pr16MgZn(InIr2)2
_chemical_formula_sum   'Pr16 Mg1 Zn1 In2 Ir4'
_cell_volume   715.11441977
_cell_formula_units_Z   1
loop_
 _symmetry_equiv_pos_site_id
 _symmetry_equiv_pos_as_xyz
  1  'x, y, z'
loop_
 _atom_site_type_symbol
 _atom_site_label
 _atom_site_symmetry_multiplicity
 _atom_site_fract_x
 _atom_site_fract_y
 _atom_site_fract_z
 _atom_site_occupancy
  Pr  Pr0  1  0.348615  0.347845  0.346941  1
  Pr  Pr1  1  0.348615  0.347845  0.956601  1
  Pr  Pr2  1  0.350704  0.955009  0.347144  1
  Pr  Pr3  1  0.951484  0.350384  0.349067  1
  Pr  Pr4  1  0.807115  0.191649  0.193239  1
  Pr  Pr5  1  0.189075  0.809531  0.809959  1
  Pr  Pr6  1  0.189075  0.809531  0.191435  1
  Pr  Pr7  1  0.807115  0.191649  0.807997  1
  Pr  Pr8  1  0.186143  0.188628  0.812615  1
  Pr  Pr9  1  0.804520  0.806302  0.194589  1
  Pr  Pr10  1  0.940344  0.561517  0.561786  1
  Pr  Pr11  1  0.559403  0.948084  0.930853  1
  Pr  Pr12  1  0.559403  0.948084  0.561661  1
  Pr  Pr13  1  0.940344  0.561517  0.936354  1
  Pr  Pr14  1  0.560910  0.561903  0.938594  1
  Pr  Pr15  1  0.936062  0.943765  0.560087  1
  Mg  Mg16  1  0.278910  0.568042  0.576523  1
  Zn  Zn17  1  0.580250  0.252517  0.583616  1
  In  In18  1  0.581691  0.577883  0.582618  1
  In  In19  1  0.581691  0.577883  0.257808  1
  Ir  Ir20  1  0.141093  0.141013  0.142480  1
  Ir  Ir21  1  0.141093  0.141013  0.575414  1
  Ir  Ir22  1  0.141377  0.575600  0.141511  1
  Ir  Ir23  1  0.574971  0.142808  0.141111  1
