# generated using pymatgen
data_Li(HfTe2)5
_symmetry_space_group_name_H-M   'P 1'
_cell_length_a   6.89642187
_cell_length_b   8.13184046
_cell_length_c   9.89142994
_cell_angle_alpha   109.05100353
_cell_angle_beta   110.38322009
_cell_angle_gamma   90.01720040
_symmetry_Int_Tables_number   1
_chemical_formula_structural   Li(HfTe2)5
_chemical_formula_sum   'Li1 Hf5 Te10'
_cell_volume   487.41861102
_cell_formula_units_Z   1
loop_
 _symmetry_equiv_pos_site_id
 _symmetry_equiv_pos_as_xyz
  1  'x, y, z'
loop_
 _atom_site_type_symbol
 _atom_site_label
 _atom_site_symmetry_multiplicity
 _atom_site_fract_x
 _atom_site_fract_y
 _atom_site_fract_z
 _atom_site_occupancy
  Li  Li0  1  0.000000  0.500000  0.000000  1
  Hf  Hf1  1  0.704212  0.398792  0.400473  1
  Hf  Hf2  1  0.295788  0.601208  0.599527  1
  Hf  Hf3  1  0.500000  0.000000  0.000000  1
  Hf  Hf4  1  0.896406  0.798849  0.797545  1
  Hf  Hf5  1  0.103594  0.201151  0.202455  1
  Te  Te6  1  0.286630  0.650375  0.899998  1
  Te  Te7  1  0.483263  0.050670  0.299580  1
  Te  Te8  1  0.679280  0.447754  0.696964  1
  Te  Te9  1  0.883619  0.853092  0.102340  1
  Te  Te10  1  0.083657  0.249806  0.499706  1
  Te  Te11  1  0.116381  0.146908  0.897660  1
  Te  Te12  1  0.320720  0.552246  0.303036  1
  Te  Te13  1  0.516737  0.949330  0.700420  1
  Te  Te14  1  0.713370  0.349625  0.100002  1
  Te  Te15  1  0.916343  0.750194  0.500294  1
