# generated using pymatgen
data_TbTh3Al18(RePd2)2
_symmetry_space_group_name_H-M   'P 1'
_cell_length_a   7.65774700
_cell_length_b   7.66942692
_cell_length_c   9.63716500
_cell_angle_alpha   90.00000000
_cell_angle_beta   90.00000000
_cell_angle_gamma   118.62457469
_symmetry_Int_Tables_number   1
_chemical_formula_structural   TbTh3Al18(RePd2)2
_chemical_formula_sum   'Tb1 Th3 Al18 Re2 Pd4'
_cell_volume   496.81843899
_cell_formula_units_Z   1
loop_
 _symmetry_equiv_pos_site_id
 _symmetry_equiv_pos_as_xyz
  1  'x, y, z'
loop_
 _atom_site_type_symbol
 _atom_site_label
 _atom_site_symmetry_multiplicity
 _atom_site_fract_x
 _atom_site_fract_y
 _atom_site_fract_z
 _atom_site_occupancy
  Tb  Tb0  1  0.321604  0.005205  0.750000  1
  Th  Th1  1  0.994911  0.684006  0.250000  1
  Th  Th2  1  0.003666  0.317644  0.750000  1
  Th  Th3  1  0.682559  0.994617  0.250000  1
  Al  Al4  1  0.143351  0.142042  0.250000  1
  Al  Al5  1  0.864537  0.862408  0.750000  1
  Al  Al6  1  0.006973  0.338392  0.076700  1
  Al  Al7  1  0.998873  0.668265  0.921233  1
  Al  Al8  1  0.998873  0.668265  0.578767  1
  Al  Al9  1  0.335993  0.005310  0.428138  1
  Al  Al10  1  0.006973  0.338392  0.423300  1
  Al  Al11  1  0.659287  0.993374  0.578338  1
  Al  Al12  1  0.659287  0.993374  0.921662  1
  Al  Al13  1  0.335993  0.005310  0.071862  1
  Al  Al14  1  0.331459  0.328198  0.549419  1
  Al  Al15  1  0.665809  0.665621  0.457714  1
  Al  Al16  1  0.665809  0.665621  0.042286  1
  Al  Al17  1  0.331459  0.328198  0.950581  1
  Al  Al18  1  0.347484  0.550525  0.250000  1
  Al  Al19  1  0.652921  0.447027  0.750000  1
  Al  Al20  1  0.550741  0.344883  0.250000  1
  Al  Al21  1  0.448509  0.655590  0.750000  1
  Re  Re22  1  0.996791  0.999599  0.001961  1
  Re  Re23  1  0.996791  0.999599  0.498039  1
  Pd  Pd24  1  0.672123  0.328316  0.999452  1
  Pd  Pd25  1  0.327552  0.670951  0.999644  1
  Pd  Pd26  1  0.327552  0.670951  0.500356  1
  Pd  Pd27  1  0.672123  0.328316  0.500548  1
