# generated using pymatgen
data_TaAg(OF)2
_symmetry_space_group_name_H-M   'P 1'
_cell_length_a   5.67120100
_cell_length_b   7.68571944
_cell_length_c   8.57472019
_cell_angle_alpha   76.42031522
_cell_angle_beta   90.00000000
_cell_angle_gamma   90.00000000
_symmetry_Int_Tables_number   1
_chemical_formula_structural   TaAg(OF)2
_chemical_formula_sum   'Ta4 Ag4 O8 F8'
_cell_volume   363.30015909
_cell_formula_units_Z   4
loop_
 _symmetry_equiv_pos_site_id
 _symmetry_equiv_pos_as_xyz
  1  'x, y, z'
loop_
 _atom_site_type_symbol
 _atom_site_label
 _atom_site_symmetry_multiplicity
 _atom_site_fract_x
 _atom_site_fract_y
 _atom_site_fract_z
 _atom_site_occupancy
  Ta  Ta0  1  0.742774  0.703008  0.150977  1
  Ta  Ta1  1  0.242774  0.796992  0.849023  1
  Ta  Ta2  1  0.257226  0.296992  0.849023  1
  Ta  Ta3  1  0.757226  0.203008  0.150977  1
  Ag  Ag4  1  0.797424  0.102913  0.635700  1
  Ag  Ag5  1  0.202576  0.897087  0.364300  1
  Ag  Ag6  1  0.702576  0.602913  0.635700  1
  Ag  Ag7  1  0.297424  0.397087  0.364300  1
  O  O8  1  0.470209  0.777951  0.018247  1
  O  O9  1  0.970209  0.722049  0.981753  1
  O  O10  1  0.812752  0.948815  0.178117  1
  O  O11  1  0.687248  0.448815  0.178117  1
  O  O12  1  0.529791  0.222049  0.981753  1
  O  O13  1  0.029791  0.277951  0.018247  1
  O  O14  1  0.187248  0.051185  0.821883  1
  O  O15  1  0.312752  0.551185  0.821883  1
  F  F16  1  0.463551  0.315861  0.646667  1
  F  F17  1  0.504193  0.870890  0.681337  1
  F  F18  1  0.963551  0.184139  0.353333  1
  F  F19  1  0.495807  0.129110  0.318663  1
  F  F20  1  0.004193  0.629110  0.318663  1
  F  F21  1  0.995807  0.370890  0.681337  1
  F  F22  1  0.536449  0.684139  0.353333  1
  F  F23  1  0.036449  0.815861  0.646667  1
