# generated using pymatgen
data_La5Pr(SnAu2)6
_symmetry_space_group_name_H-M   'P 1'
_cell_length_a   5.15635600
_cell_length_b   7.15635500
_cell_length_c   15.64224000
_cell_angle_alpha   90.00000000
_cell_angle_beta   89.99807373
_cell_angle_gamma   90.00000000
_symmetry_Int_Tables_number   1
_chemical_formula_structural   La5Pr(SnAu2)6
_chemical_formula_sum   'La5 Pr1 Sn6 Au12'
_cell_volume   577.20982506
_cell_formula_units_Z   1
loop_
 _symmetry_equiv_pos_site_id
 _symmetry_equiv_pos_as_xyz
  1  'x, y, z'
loop_
 _atom_site_type_symbol
 _atom_site_label
 _atom_site_symmetry_multiplicity
 _atom_site_fract_x
 _atom_site_fract_y
 _atom_site_fract_z
 _atom_site_occupancy
  La  La0  1  0.500094  0.000000  0.166694  1
  La  La1  1  0.000099  0.500000  0.333175  1
  La  La2  1  0.499999  0.000000  0.500000  1
  La  La3  1  0.999899  0.500000  0.666824  1
  La  La4  1  0.499906  0.000000  0.833306  1
  Pr  Pr5  1  0.000000  0.500000  0.000000  1
  Sn  Sn6  1  0.000000  0.000000  0.000000  1
  Sn  Sn7  1  0.500034  0.500000  0.165880  1
  Sn  Sn8  1  0.000044  0.000000  0.332883  1
  Sn  Sn9  1  0.499999  0.500000  0.500000  1
  Sn  Sn10  1  0.999956  0.000000  0.667117  1
  Sn  Sn11  1  0.499967  0.500000  0.834121  1
  Au  Au12  1  0.499999  0.252270  0.000000  1
  Au  Au13  1  0.499999  0.747730  0.000000  1
  Au  Au14  1  0.000075  0.250499  0.165956  1
  Au  Au15  1  0.000075  0.749499  0.165956  1
  Au  Au16  1  0.500077  0.249827  0.333433  1
  Au  Au17  1  0.500077  0.750173  0.333433  1
  Au  Au18  1  0.000000  0.250127  0.500000  1
  Au  Au19  1  0.000000  0.749873  0.500000  1
  Au  Au20  1  0.499923  0.249827  0.666568  1
  Au  Au21  1  0.499923  0.750173  0.666568  1
  Au  Au22  1  0.999925  0.250499  0.834044  1
  Au  Au23  1  0.999925  0.749499  0.834044  1
