# generated using pymatgen
data_Dy4Tm4B24Rh3W
_symmetry_space_group_name_H-M   'P 1'
_cell_length_a   3.64798500
_cell_length_b   9.15437923
_cell_length_c   11.53519323
_cell_angle_alpha   90.22705621
_cell_angle_beta   90.00000000
_cell_angle_gamma   90.00000000
_symmetry_Int_Tables_number   1
_chemical_formula_structural   Dy4Tm4B24Rh3W
_chemical_formula_sum   'Dy4 Tm4 B24 Rh3 W1'
_cell_volume   385.21519267
_cell_formula_units_Z   1
loop_
 _symmetry_equiv_pos_site_id
 _symmetry_equiv_pos_as_xyz
  1  'x, y, z'
loop_
 _atom_site_type_symbol
 _atom_site_label
 _atom_site_symmetry_multiplicity
 _atom_site_fract_x
 _atom_site_fract_y
 _atom_site_fract_z
 _atom_site_occupancy
  Dy  Dy0  1  0.500000  0.319128  0.411073  1
  Dy  Dy1  1  0.500000  0.676840  0.584798  1
  Dy  Dy2  1  0.500000  0.178970  0.916499  1
  Dy  Dy3  1  0.500000  0.823168  0.086577  1
  Tm  Tm4  1  0.500000  0.445610  0.125614  1
  Tm  Tm5  1  0.500000  0.557395  0.871378  1
  Tm  Tm6  1  0.500000  0.055873  0.629218  1
  Tm  Tm7  1  0.500000  0.944430  0.374478  1
  B  B8  1  0.000000  0.104591  0.473525  1
  B  B9  1  0.000000  0.893867  0.530058  1
  B  B10  1  0.000000  0.397551  0.969653  1
  B  B11  1  0.000000  0.606665  0.027625  1
  B  B12  1  0.000000  0.131445  0.317717  1
  B  B13  1  0.000000  0.867255  0.683545  1
  B  B14  1  0.000000  0.369221  0.816260  1
  B  B15  1  0.000000  0.632472  0.183436  1
  B  B16  1  0.000000  0.051927  0.064807  1
  B  B17  1  0.000000  0.946114  0.932824  1
  B  B18  1  0.000000  0.444498  0.565742  1
  B  B19  1  0.000000  0.553055  0.433483  1
  B  B20  1  0.000000  0.483475  0.286917  1
  B  B21  1  0.000000  0.517029  0.712248  1
  B  B22  1  0.000000  0.017144  0.787263  1
  B  B23  1  0.000000  0.979557  0.214609  1
  B  B24  1  0.000000  0.252409  0.078688  1
  B  B25  1  0.000000  0.750757  0.918996  1
  B  B26  1  0.000000  0.249194  0.579986  1
  B  B27  1  0.000000  0.749127  0.420646  1
  B  B28  1  0.000000  0.295981  0.235959  1
  B  B29  1  0.000000  0.706315  0.763491  1
  B  B30  1  0.000000  0.207917  0.736017  1
  B  B31  1  0.000000  0.791900  0.266247  1
  Rh  Rh32  1  0.500000  0.860666  0.819997  1
  Rh  Rh33  1  0.500000  0.360848  0.680008  1
  Rh  Rh34  1  0.500000  0.639026  0.321000  1
  W  W35  1  0.500000  0.138582  0.179619  1
