# generated using pymatgen
data_Ti6Re5Si2Ge4Ru
_symmetry_space_group_name_H-M   'P 1'
_cell_length_a   7.62479655
_cell_length_b   7.62128413
_cell_length_c   7.62769995
_cell_angle_alpha   126.28969108
_cell_angle_beta   129.50294143
_cell_angle_gamma   76.82567084
_symmetry_Int_Tables_number   1
_chemical_formula_structural   Ti6Re5Si2Ge4Ru
_chemical_formula_sum   'Ti6 Re5 Si2 Ge4 Ru1'
_cell_volume   267.68850471
_cell_formula_units_Z   1
loop_
 _symmetry_equiv_pos_site_id
 _symmetry_equiv_pos_as_xyz
  1  'x, y, z'
loop_
 _atom_site_type_symbol
 _atom_site_label
 _atom_site_symmetry_multiplicity
 _atom_site_fract_x
 _atom_site_fract_y
 _atom_site_fract_z
 _atom_site_occupancy
  Ti  Ti0  1  0.551625  0.090961  0.041979  1
  Ti  Ti1  1  0.447737  0.496767  0.553514  1
  Ti  Ti2  1  0.943325  0.496789  0.049142  1
  Ti  Ti3  1  0.048966  0.091103  0.539337  1
  Ti  Ti4  1  0.755759  0.903076  0.652331  1
  Ti  Ti5  1  0.250801  0.903220  0.147562  1
  Re  Re6  1  0.499717  0.239665  0.739744  1
  Re  Re7  1  0.000706  0.240273  0.239152  1
  Re  Re8  1  0.128941  0.753754  0.624885  1
  Re  Re9  1  0.870747  0.496352  0.625843  1
  Re  Re10  1  0.628477  0.752863  0.124587  1
  Si  Si11  1  0.746636  0.496771  0.248600  1
  Si  Si12  1  0.248145  0.496897  0.750227  1
  Ge  Ge13  1  0.334055  0.825176  0.491239  1
  Ge  Ge14  1  0.667929  0.164737  0.496848  1
  Ge  Ge15  1  0.834030  0.827986  0.993922  1
  Ge  Ge16  1  0.170418  0.168855  0.998438  1
  Ru  Ru17  1  0.371988  0.496756  0.124650  1
