# generated using pymatgen
data_RbMnAs2Ru
_symmetry_space_group_name_H-M   'P 1'
_cell_length_a   7.86239420
_cell_length_b   7.86239382
_cell_length_c   7.86239446
_cell_angle_alpha   150.80965104
_cell_angle_beta   150.80964505
_cell_angle_gamma   41.75421136
_symmetry_Int_Tables_number   1
_chemical_formula_structural   RbMnAs2Ru
_chemical_formula_sum   'Rb1 Mn1 As2 Ru1'
_cell_volume   115.34317635
_cell_formula_units_Z   1
loop_
 _symmetry_equiv_pos_site_id
 _symmetry_equiv_pos_as_xyz
  1  'x, y, z'
loop_
 _atom_site_type_symbol
 _atom_site_label
 _atom_site_symmetry_multiplicity
 _atom_site_fract_x
 _atom_site_fract_y
 _atom_site_fract_z
 _atom_site_occupancy
  Rb  Rb0  1  0.000000  0.000000  0.000000  1
  Mn  Mn1  1  0.750000  0.250000  0.500000  1
  As  As2  1  0.348209  0.348209  0.000000  1
  As  As3  1  0.651791  0.651791  0.000000  1
  Ru  Ru4  1  0.250000  0.750000  0.500000  1
