# generated using pymatgen
data_Li3PdPt4
_symmetry_space_group_name_H-M   'P 1'
_cell_length_a   5.50369279
_cell_length_b   5.45692950
_cell_length_c   5.50369200
_cell_angle_alpha   59.71612005
_cell_angle_beta   60.00000475
_cell_angle_gamma   59.71611142
_symmetry_Int_Tables_number   1
_chemical_formula_structural   Li3PdPt4
_chemical_formula_sum   'Li3 Pd1 Pt4'
_cell_volume   116.37635759
_cell_formula_units_Z   1
loop_
 _symmetry_equiv_pos_site_id
 _symmetry_equiv_pos_as_xyz
  1  'x, y, z'
loop_
 _atom_site_type_symbol
 _atom_site_label
 _atom_site_symmetry_multiplicity
 _atom_site_fract_x
 _atom_site_fract_y
 _atom_site_fract_z
 _atom_site_occupancy
  Li  Li0  1  0.499999  0.000000  0.000000  1
  Li  Li1  1  0.000000  0.000000  0.499999  1
  Li  Li2  1  0.499999  0.000000  0.499999  1
  Pd  Pd3  1  0.499999  0.499999  0.499999  1
  Pt  Pt4  1  0.000000  0.000000  0.000000  1
  Pt  Pt5  1  0.000000  0.499999  0.000000  1
  Pt  Pt6  1  0.499999  0.499999  0.000000  1
  Pt  Pt7  1  0.000000  0.499999  0.499999  1
