# generated using pymatgen
data_Sm2Mn3Co6Ni3P7
_symmetry_space_group_name_H-M   'P 1'
_cell_length_a   9.09410100
_cell_length_b   9.09410219
_cell_length_c   3.66709800
_cell_angle_alpha   90.00000000
_cell_angle_beta   90.00000000
_cell_angle_gamma   120.00000658
_symmetry_Int_Tables_number   1
_chemical_formula_structural   Sm2Mn3Co6Ni3P7
_chemical_formula_sum   'Sm2 Mn3 Co6 Ni3 P7'
_cell_volume   262.64716806
_cell_formula_units_Z   1
loop_
 _symmetry_equiv_pos_site_id
 _symmetry_equiv_pos_as_xyz
  1  'x, y, z'
loop_
 _atom_site_type_symbol
 _atom_site_label
 _atom_site_symmetry_multiplicity
 _atom_site_fract_x
 _atom_site_fract_y
 _atom_site_fract_z
 _atom_site_occupancy
  Sm  Sm0  1  0.666667  0.333333  0.000000  1
  Sm  Sm1  1  0.333333  0.666667  0.500000  1
  Mn  Mn2  1  0.216399  0.096246  0.000000  1
  Mn  Mn3  1  0.903754  0.120153  0.000000  1
  Mn  Mn4  1  0.879847  0.783601  0.000000  1
  Co  Co5  1  0.155547  0.275125  0.500000  1
  Co  Co6  1  0.724875  0.880421  0.500000  1
  Co  Co7  1  0.119579  0.844453  0.500000  1
  Co  Co8  1  0.385764  0.434264  0.000000  1
  Co  Co9  1  0.565736  0.951500  0.000000  1
  Co  Co10  1  0.048500  0.614236  0.000000  1
  Ni  Ni11  1  0.430607  0.061336  0.500000  1
  Ni  Ni12  1  0.938664  0.369271  0.500000  1
  Ni  Ni13  1  0.630729  0.569393  0.500000  1
  P  P14  1  0.114940  0.401375  0.000000  1
  P  P15  1  0.598625  0.713564  0.000000  1
  P  P16  1  0.286436  0.885060  0.000000  1
  P  P17  1  0.000000  0.000000  0.500000  1
  P  P18  1  0.406214  0.300795  0.500000  1
  P  P19  1  0.699205  0.105419  0.500000  1
  P  P20  1  0.894581  0.593786  0.500000  1
