# generated using pymatgen
data_Na2AuICl8
_symmetry_space_group_name_H-M   'P 1'
_cell_length_a   7.30826487
_cell_length_b   7.09519477
_cell_length_c   13.47359800
_cell_angle_alpha   67.37842097
_cell_angle_beta   67.23463854
_cell_angle_gamma   36.63048826
_symmetry_Int_Tables_number   1
_chemical_formula_structural   Na2AuICl8
_chemical_formula_sum   'Na2 Au1 I1 Cl8'
_cell_volume   380.87615471
_cell_formula_units_Z   1
loop_
 _symmetry_equiv_pos_site_id
 _symmetry_equiv_pos_as_xyz
  1  'x, y, z'
loop_
 _atom_site_type_symbol
 _atom_site_label
 _atom_site_symmetry_multiplicity
 _atom_site_fract_x
 _atom_site_fract_y
 _atom_site_fract_z
 _atom_site_occupancy
  Na  Na0  1  0.539229  0.448889  0.762871  1
  Na  Na1  1  0.460771  0.551111  0.237129  1
  Au  Au2  1  0.000000  0.000000  0.000000  1
  I  I3  1  0.000000  0.000000  0.500000  1
  Cl  Cl4  1  0.063433  0.147501  0.098592  1
  Cl  Cl5  1  0.812190  0.972957  0.388429  1
  Cl  Cl6  1  0.395912  0.881066  0.339050  1
  Cl  Cl7  1  0.181048  0.570474  0.132967  1
  Cl  Cl8  1  0.604088  0.118934  0.660950  1
  Cl  Cl9  1  0.936567  0.852499  0.901408  1
  Cl  Cl10  1  0.187810  0.027043  0.611571  1
  Cl  Cl11  1  0.818952  0.429526  0.867033  1
