# generated using pymatgen
data_UAl3Tc4
_symmetry_space_group_name_H-M   'P 1'
_cell_length_a   5.42597881
_cell_length_b   5.42597815
_cell_length_c   4.40012100
_cell_angle_alpha   90.00000000
_cell_angle_beta   90.00000000
_cell_angle_gamma   109.57291417
_symmetry_Int_Tables_number   1
_chemical_formula_structural   UAl3Tc4
_chemical_formula_sum   'U1 Al3 Tc4'
_cell_volume   122.05938992
_cell_formula_units_Z   1
loop_
 _symmetry_equiv_pos_site_id
 _symmetry_equiv_pos_as_xyz
  1  'x, y, z'
loop_
 _atom_site_type_symbol
 _atom_site_label
 _atom_site_symmetry_multiplicity
 _atom_site_fract_x
 _atom_site_fract_y
 _atom_site_fract_z
 _atom_site_occupancy
  U  U0  1  0.624971  0.375030  0.250001  1
  Al  Al1  1  0.125061  0.874940  0.250001  1
  Al  Al2  1  0.884232  0.115769  0.750000  1
  Al  Al3  1  0.365741  0.634260  0.750000  1
  Tc  Tc4  1  0.124988  0.374968  0.250001  1
  Tc  Tc5  1  0.625033  0.875013  0.250001  1
  Tc  Tc6  1  0.377849  0.127872  0.750000  1
  Tc  Tc7  1  0.872129  0.622152  0.750000  1
