# generated using pymatgen
data_Rb4Na2YGaAs4
_symmetry_space_group_name_H-M   'P 1'
_cell_length_a   9.41182778
_cell_length_b   9.41182851
_cell_length_c   9.41182846
_cell_angle_alpha   135.98475665
_cell_angle_beta   62.78785303
_cell_angle_gamma   137.57249727
_symmetry_Int_Tables_number   1
_chemical_formula_structural   Rb4Na2YGaAs4
_chemical_formula_sum   'Rb4 Na2 Y1 Ga1 As4'
_cell_volume   385.99740468
_cell_formula_units_Z   1
loop_
 _symmetry_equiv_pos_site_id
 _symmetry_equiv_pos_as_xyz
  1  'x, y, z'
loop_
 _atom_site_type_symbol
 _atom_site_label
 _atom_site_symmetry_multiplicity
 _atom_site_fract_x
 _atom_site_fract_y
 _atom_site_fract_z
 _atom_site_occupancy
  Rb  Rb0  1  0.813543  0.258887  0.091202  1
  Rb  Rb1  1  0.686457  0.777659  0.445344  1
  Rb  Rb2  1  0.332315  0.241113  0.554656  1
  Rb  Rb3  1  0.167685  0.722342  0.908799  1
  Na  Na4  1  0.749999  0.249999  0.500000  1
  Na  Na5  1  0.249999  0.749999  0.499999  1
  Y  Y6  1  0.249999  0.249999  0.000000  1
  Ga  Ga7  1  0.750000  0.750000  0.000000  1
  As  As8  1  0.423291  0.731324  0.118668  1
  As  As9  1  0.076710  0.195377  0.308034  1
  As  As10  1  0.887343  0.768675  0.691966  1
  As  As11  1  0.612658  0.304622  0.881332  1
