# generated using pymatgen
data_NdTh7(ReC2)4
_symmetry_space_group_name_H-M   'P 1'
_cell_length_a   5.36670800
_cell_length_b   6.69577133
_cell_length_c   10.14265207
_cell_angle_alpha   90.18234467
_cell_angle_beta   90.00000000
_cell_angle_gamma   90.00000000
_symmetry_Int_Tables_number   1
_chemical_formula_structural   NdTh7(ReC2)4
_chemical_formula_sum   'Nd1 Th7 Re4 C8'
_cell_volume   364.46674483
_cell_formula_units_Z   1
loop_
 _symmetry_equiv_pos_site_id
 _symmetry_equiv_pos_as_xyz
  1  'x, y, z'
loop_
 _atom_site_type_symbol
 _atom_site_label
 _atom_site_symmetry_multiplicity
 _atom_site_fract_x
 _atom_site_fract_y
 _atom_site_fract_z
 _atom_site_occupancy
  Nd  Nd0  1  0.750000  0.191998  0.949621  1
  Th  Th1  1  0.250000  0.472274  0.778998  1
  Th  Th2  1  0.750000  0.025219  0.277264  1
  Th  Th3  1  0.250000  0.974697  0.722657  1
  Th  Th4  1  0.750000  0.523463  0.222923  1
  Th  Th5  1  0.250000  0.811309  0.048434  1
  Th  Th6  1  0.750000  0.691222  0.548091  1
  Th  Th7  1  0.250000  0.308575  0.451383  1
  Re  Re8  1  0.250000  0.271128  0.138057  1
  Re  Re9  1  0.750000  0.229034  0.638187  1
  Re  Re10  1  0.250000  0.772823  0.363102  1
  Re  Re11  1  0.750000  0.731766  0.860939  1
  C  C12  1  0.250000  0.665543  0.552928  1
  C  C13  1  0.750000  0.821399  0.050517  1
  C  C14  1  0.250000  0.172394  0.951773  1
  C  C15  1  0.750000  0.333717  0.447003  1
  C  C16  1  0.250000  0.031583  0.256978  1
  C  C17  1  0.750000  0.469392  0.755847  1
  C  C18  1  0.250000  0.533112  0.243896  1
  C  C19  1  0.750000  0.969351  0.741402  1
