# generated using pymatgen
data_DyY4Er(RuI3)2
_symmetry_space_group_name_H-M   'P 1'
_cell_length_a   4.23041200
_cell_length_b   8.88324849
_cell_length_c   12.30676524
_cell_angle_alpha   86.22238120
_cell_angle_beta   90.00000000
_cell_angle_gamma   90.00000000
_symmetry_Int_Tables_number   1
_chemical_formula_structural   DyY4Er(RuI3)2
_chemical_formula_sum   'Dy1 Y4 Er1 Ru2 I6'
_cell_volume   461.48093680
_cell_formula_units_Z   1
loop_
 _symmetry_equiv_pos_site_id
 _symmetry_equiv_pos_as_xyz
  1  'x, y, z'
loop_
 _atom_site_type_symbol
 _atom_site_label
 _atom_site_symmetry_multiplicity
 _atom_site_fract_x
 _atom_site_fract_y
 _atom_site_fract_z
 _atom_site_occupancy
  Dy  Dy0  1  0.750000  0.130478  0.124704  1
  Y  Y1  1  0.750000  0.097724  0.684774  1
  Y  Y2  1  0.250000  0.901259  0.315538  1
  Y  Y3  1  0.250000  0.262494  0.896889  1
  Y  Y4  1  0.750000  0.737290  0.102064  1
  Er  Er5  1  0.250000  0.871298  0.875399  1
  Ru  Ru6  1  0.750000  0.052357  0.907728  1
  Ru  Ru7  1  0.250000  0.946566  0.092122  1
  I  I8  1  0.250000  0.352095  0.636904  1
  I  I9  1  0.750000  0.647544  0.363250  1
  I  I10  1  0.750000  0.142334  0.392750  1
  I  I11  1  0.250000  0.857051  0.608162  1
  I  I12  1  0.250000  0.427390  0.133066  1
  I  I13  1  0.750000  0.574120  0.866651  1
