# generated using pymatgen
data_Y10Al3Ir
_symmetry_space_group_name_H-M   'P 1'
_cell_length_a   9.60848300
_cell_length_b   9.60848380
_cell_length_c   9.70645400
_cell_angle_alpha   90.00000000
_cell_angle_beta   90.00000000
_cell_angle_gamma   120.00000070
_symmetry_Int_Tables_number   1
_chemical_formula_structural   Y10Al3Ir
_chemical_formula_sum   'Y20 Al6 Ir2'
_cell_volume   776.07003921
_cell_formula_units_Z   2
loop_
 _symmetry_equiv_pos_site_id
 _symmetry_equiv_pos_as_xyz
  1  'x, y, z'
loop_
 _atom_site_type_symbol
 _atom_site_label
 _atom_site_symmetry_multiplicity
 _atom_site_fract_x
 _atom_site_fract_y
 _atom_site_fract_z
 _atom_site_occupancy
  Y  Y0  1  0.000000  0.000000  0.500000  1
  Y  Y1  1  0.000000  0.000000  0.000000  1
  Y  Y2  1  0.206882  0.793118  0.440696  1
  Y  Y3  1  0.206882  0.413766  0.440696  1
  Y  Y4  1  0.586234  0.793118  0.440696  1
  Y  Y5  1  0.793118  0.206882  0.559304  1
  Y  Y6  1  0.793118  0.586234  0.559304  1
  Y  Y7  1  0.413766  0.206882  0.559304  1
  Y  Y8  1  0.793118  0.206882  0.940696  1
  Y  Y9  1  0.793118  0.586234  0.940696  1
  Y  Y10  1  0.413766  0.206882  0.940696  1
  Y  Y11  1  0.206882  0.793118  0.059304  1
  Y  Y12  1  0.206882  0.413766  0.059304  1
  Y  Y13  1  0.586234  0.793118  0.059304  1
  Y  Y14  1  0.540648  0.459352  0.250000  1
  Y  Y15  1  0.540648  0.081295  0.250000  1
  Y  Y16  1  0.918705  0.459352  0.250000  1
  Y  Y17  1  0.459352  0.540648  0.750000  1
  Y  Y18  1  0.459352  0.918705  0.750000  1
  Y  Y19  1  0.081295  0.540648  0.750000  1
  Al  Al20  1  0.888548  0.111452  0.250000  1
  Al  Al21  1  0.888548  0.777097  0.250000  1
  Al  Al22  1  0.222903  0.111452  0.250000  1
  Al  Al23  1  0.111452  0.888548  0.750000  1
  Al  Al24  1  0.111452  0.222903  0.750000  1
  Al  Al25  1  0.777097  0.888548  0.750000  1
  Ir  Ir26  1  0.333333  0.666667  0.250000  1
  Ir  Ir27  1  0.666667  0.333333  0.750000  1
