# generated using pymatgen
data_LiHfCrS4
_symmetry_space_group_name_H-M   'P 1'
_cell_length_a   3.57601700
_cell_length_b   6.09076225
_cell_length_c   6.27336865
_cell_angle_alpha   89.22048804
_cell_angle_beta   90.00000000
_cell_angle_gamma   90.00000000
_symmetry_Int_Tables_number   1
_chemical_formula_structural   LiHfCrS4
_chemical_formula_sum   'Li1 Hf1 Cr1 S4'
_cell_volume   136.62552290
_cell_formula_units_Z   1
loop_
 _symmetry_equiv_pos_site_id
 _symmetry_equiv_pos_as_xyz
  1  'x, y, z'
loop_
 _atom_site_type_symbol
 _atom_site_label
 _atom_site_symmetry_multiplicity
 _atom_site_fract_x
 _atom_site_fract_y
 _atom_site_fract_z
 _atom_site_occupancy
  Li  Li0  1  0.000000  0.500000  0.500000  1
  Hf  Hf1  1  0.500000  0.000000  0.000000  1
  Cr  Cr2  1  0.000000  0.500000  0.000000  1
  S  S3  1  0.000000  0.819988  0.228278  1
  S  S4  1  0.500000  0.345421  0.222446  1
  S  S5  1  0.500000  0.654579  0.777554  1
  S  S6  1  0.000000  0.180012  0.771722  1
