# generated using pymatgen
data_Ho12TlCo5
_symmetry_space_group_name_H-M   'P 1'
_cell_length_a   8.22781286
_cell_length_b   8.22781366
_cell_length_c   8.22781227
_cell_angle_alpha   106.91826403
_cell_angle_beta   110.78991216
_cell_angle_gamma   110.73526400
_symmetry_Int_Tables_number   1
_chemical_formula_structural   Ho12TlCo5
_chemical_formula_sum   'Ho12 Tl1 Co5'
_cell_volume   428.14184912
_cell_formula_units_Z   1
loop_
 _symmetry_equiv_pos_site_id
 _symmetry_equiv_pos_as_xyz
  1  'x, y, z'
loop_
 _atom_site_type_symbol
 _atom_site_label
 _atom_site_symmetry_multiplicity
 _atom_site_fract_x
 _atom_site_fract_y
 _atom_site_fract_z
 _atom_site_occupancy
  Ho  Ho0  1  0.475592  0.290556  0.185036  1
  Ho  Ho1  1  0.105519  0.290556  0.814964  1
  Ho  Ho2  1  0.894481  0.709444  0.185036  1
  Ho  Ho3  1  0.524408  0.709444  0.814964  1
  Ho  Ho4  1  0.305447  0.619886  0.314439  1
  Ho  Ho5  1  0.305447  0.991008  0.685561  1
  Ho  Ho6  1  0.694553  0.380114  0.685561  1
  Ho  Ho7  1  0.694553  0.008992  0.314439  1
  Ho  Ho8  1  0.192069  0.209875  0.401943  1
  Ho  Ho9  1  0.807931  0.790125  0.598057  1
  Ho  Ho10  1  0.192069  0.790125  0.982193  1
  Ho  Ho11  1  0.807931  0.209875  0.017807  1
  Tl  Tl12  1  0.000000  0.500000  0.500000  1
  Co  Co13  1  0.500000  0.612723  0.112723  1
  Co  Co14  1  0.500000  0.387277  0.887277  1
  Co  Co15  1  0.378435  0.000000  0.378435  1
  Co  Co16  1  0.621565  0.000000  0.621565  1
  Co  Co17  1  0.000000  0.000000  0.000000  1
