# generated using pymatgen
data_Na2PuCl6
_symmetry_space_group_name_H-M   'P 1'
_cell_length_a   12.02605500
_cell_length_b   12.02605550
_cell_length_c   6.21557600
_cell_angle_alpha   90.00000000
_cell_angle_beta   90.00000000
_cell_angle_gamma   119.99999588
_symmetry_Int_Tables_number   1
_chemical_formula_structural   Na2PuCl6
_chemical_formula_sum   'Na6 Pu3 Cl18'
_cell_volume   778.49964739
_cell_formula_units_Z   3
loop_
 _symmetry_equiv_pos_site_id
 _symmetry_equiv_pos_as_xyz
  1  'x, y, z'
loop_
 _atom_site_type_symbol
 _atom_site_label
 _atom_site_symmetry_multiplicity
 _atom_site_fract_x
 _atom_site_fract_y
 _atom_site_fract_z
 _atom_site_occupancy
  Na  Na0  1  0.660304  0.000000  0.000000  1
  Na  Na1  1  0.339696  0.000000  0.000000  1
  Na  Na2  1  0.000000  0.660304  0.000000  1
  Na  Na3  1  0.660304  0.660304  0.000000  1
  Na  Na4  1  0.339696  0.339696  0.000000  1
  Na  Na5  1  0.000000  0.339696  0.000000  1
  Pu  Pu6  1  0.666667  0.333333  0.504875  1
  Pu  Pu7  1  0.333333  0.666667  0.495125  1
  Pu  Pu8  1  0.000000  0.000000  0.000000  1
  Cl  Cl9  1  0.563949  0.127900  0.746423  1
  Cl  Cl10  1  0.769880  0.230120  0.269091  1
  Cl  Cl11  1  0.789943  0.894971  0.228067  1
  Cl  Cl12  1  0.436051  0.563949  0.253577  1
  Cl  Cl13  1  0.769880  0.539760  0.269091  1
  Cl  Cl14  1  0.105029  0.210057  0.228067  1
  Cl  Cl15  1  0.230120  0.769880  0.730909  1
  Cl  Cl16  1  0.563949  0.436051  0.746423  1
  Cl  Cl17  1  0.230120  0.460240  0.730909  1
  Cl  Cl18  1  0.127900  0.563949  0.253577  1
  Cl  Cl19  1  0.210057  0.105029  0.771933  1
  Cl  Cl20  1  0.105029  0.894971  0.228067  1
  Cl  Cl21  1  0.539760  0.769880  0.730909  1
  Cl  Cl22  1  0.436051  0.872100  0.253577  1
  Cl  Cl23  1  0.894971  0.105029  0.771933  1
  Cl  Cl24  1  0.872100  0.436051  0.746423  1
  Cl  Cl25  1  0.460240  0.230120  0.269091  1
  Cl  Cl26  1  0.894971  0.789943  0.771933  1
