# generated using pymatgen
data_CaTm(Re2Si)4
_symmetry_space_group_name_H-M   'P 1'
_cell_length_a   7.38867334
_cell_length_b   7.38867310
_cell_length_c   4.15964900
_cell_angle_alpha   90.00000000
_cell_angle_beta   90.00000000
_cell_angle_gamma   90.44283899
_symmetry_Int_Tables_number   1
_chemical_formula_structural   CaTm(Re2Si)4
_chemical_formula_sum   'Ca1 Tm1 Re8 Si4'
_cell_volume   227.07882189
_cell_formula_units_Z   1
loop_
 _symmetry_equiv_pos_site_id
 _symmetry_equiv_pos_as_xyz
  1  'x, y, z'
loop_
 _atom_site_type_symbol
 _atom_site_label
 _atom_site_symmetry_multiplicity
 _atom_site_fract_x
 _atom_site_fract_y
 _atom_site_fract_z
 _atom_site_occupancy
  Ca  Ca0  1  0.000000  0.000000  0.500000  1
  Tm  Tm1  1  0.500000  0.500000  0.000000  1
  Re  Re2  1  0.656010  0.901780  0.000000  1
  Re  Re3  1  0.159466  0.591528  0.500000  1
  Re  Re4  1  0.098220  0.343990  0.000000  1
  Re  Re5  1  0.901780  0.656010  0.000000  1
  Re  Re6  1  0.408472  0.840534  0.500000  1
  Re  Re7  1  0.591528  0.159466  0.500000  1
  Re  Re8  1  0.343990  0.098220  0.000000  1
  Re  Re9  1  0.840534  0.408472  0.500000  1
  Si  Si10  1  0.209164  0.790836  0.000000  1
  Si  Si11  1  0.790836  0.209164  0.000000  1
  Si  Si12  1  0.707930  0.707930  0.500000  1
  Si  Si13  1  0.292070  0.292070  0.500000  1
