# generated using pymatgen
data_DyMg(ZnNi)2
_symmetry_space_group_name_H-M   'P 1'
_cell_length_a   5.09491516
_cell_length_b   5.09491596
_cell_length_c   5.09491635
_cell_angle_alpha   119.52844355
_cell_angle_beta   118.44033951
_cell_angle_gamma   91.77078716
_symmetry_Int_Tables_number   1
_chemical_formula_structural   DyMg(ZnNi)2
_chemical_formula_sum   'Dy1 Mg1 Zn2 Ni2'
_cell_volume   94.89441527
_cell_formula_units_Z   1
loop_
 _symmetry_equiv_pos_site_id
 _symmetry_equiv_pos_as_xyz
  1  'x, y, z'
loop_
 _atom_site_type_symbol
 _atom_site_label
 _atom_site_symmetry_multiplicity
 _atom_site_fract_x
 _atom_site_fract_y
 _atom_site_fract_z
 _atom_site_occupancy
  Dy  Dy0  1  0.007345  0.007345  0.000000  1
  Mg  Mg1  1  0.248396  0.748396  0.500000  1
  Zn  Zn2  1  0.622811  0.871640  0.248830  1
  Zn  Zn3  1  0.622811  0.373981  0.751170  1
  Ni  Ni4  1  0.127346  0.374319  0.753028  1
  Ni  Ni5  1  0.621291  0.374319  0.246972  1
