# generated using pymatgen
data_Yb8Re9Si16Tc3
_symmetry_space_group_name_H-M   'P 1'
_cell_length_a   6.74794774
_cell_length_b   6.74790730
_cell_length_c   12.66318483
_cell_angle_alpha   89.95332250
_cell_angle_beta   89.95791960
_cell_angle_gamma   89.93959755
_symmetry_Int_Tables_number   1
_chemical_formula_structural   Yb8Re9Si16Tc3
_chemical_formula_sum   'Yb8 Re9 Si16 Tc3'
_cell_volume   576.61144882
_cell_formula_units_Z   1
loop_
 _symmetry_equiv_pos_site_id
 _symmetry_equiv_pos_as_xyz
  1  'x, y, z'
loop_
 _atom_site_type_symbol
 _atom_site_label
 _atom_site_symmetry_multiplicity
 _atom_site_fract_x
 _atom_site_fract_y
 _atom_site_fract_z
 _atom_site_occupancy
  Yb  Yb0  1  0.997957  0.669187  0.028965  1
  Yb  Yb1  1  0.002064  0.330669  0.528563  1
  Yb  Yb2  1  0.330862  0.002026  0.471043  1
  Yb  Yb3  1  0.169610  0.502473  0.778810  1
  Yb  Yb4  1  0.830926  0.498140  0.278980  1
  Yb  Yb5  1  0.501851  0.169114  0.221073  1
  Yb  Yb6  1  0.497523  0.830408  0.721136  1
  Yb  Yb7  1  0.669387  0.997914  0.971428  1
  Re  Re8  1  0.007096  0.825451  0.628959  1
  Re  Re9  1  0.993036  0.175779  0.128799  1
  Re  Re10  1  0.824238  0.007006  0.371229  1
  Re  Re11  1  0.324631  0.493259  0.378726  1
  Re  Re12  1  0.675701  0.505847  0.878474  1
  Re  Re13  1  0.494139  0.324268  0.621496  1
  Re  Re14  1  0.506758  0.675359  0.121306  1
  Re  Re15  1  0.174543  0.992935  0.871012  1
  Re  Re16  1  0.834933  0.165060  0.749983  1
  Si  Si17  1  0.022930  0.715160  0.435524  1
  Si  Si18  1  0.621054  0.301026  0.436875  1
  Si  Si19  1  0.379053  0.699344  0.937257  1
  Si  Si20  1  0.199105  0.122187  0.686754  1
  Si  Si21  1  0.300610  0.620931  0.562741  1
  Si  Si22  1  0.698931  0.378932  0.063132  1
  Si  Si23  1  0.800993  0.878822  0.187176  1
  Si  Si24  1  0.121197  0.198996  0.312869  1
  Si  Si25  1  0.977536  0.285473  0.935800  1
  Si  Si26  1  0.714585  0.022506  0.564192  1
  Si  Si27  1  0.214560  0.477312  0.185682  1
  Si  Si28  1  0.786279  0.523460  0.685219  1
  Si  Si29  1  0.476525  0.213662  0.814760  1
  Si  Si30  1  0.522690  0.785405  0.314334  1
  Si  Si31  1  0.284907  0.977100  0.064489  1
  Si  Si32  1  0.877807  0.800856  0.813204  1
  Tc  Tc33  1  0.665693  0.664220  0.500875  1
  Tc  Tc34  1  0.164506  0.835471  0.250027  1
  Tc  Tc35  1  0.335782  0.334243  0.999110  1
