# generated using pymatgen
data_Dy5Er3Sc12(GaSi3)4
_symmetry_space_group_name_H-M   'P 1'
_cell_length_a   7.11674588
_cell_length_b   7.39567215
_cell_length_c   14.12281746
_cell_angle_alpha   89.98203167
_cell_angle_beta   89.85136910
_cell_angle_gamma   90.15849375
_symmetry_Int_Tables_number   1
_chemical_formula_structural   Dy5Er3Sc12(GaSi3)4
_chemical_formula_sum   'Dy5 Er3 Sc12 Ga4 Si12'
_cell_volume   743.32255290
_cell_formula_units_Z   1
loop_
 _symmetry_equiv_pos_site_id
 _symmetry_equiv_pos_as_xyz
  1  'x, y, z'
loop_
 _atom_site_type_symbol
 _atom_site_label
 _atom_site_symmetry_multiplicity
 _atom_site_fract_x
 _atom_site_fract_y
 _atom_site_fract_z
 _atom_site_occupancy
  Dy  Dy0  1  0.013001  0.174851  0.096512  1
  Dy  Dy1  1  0.988803  0.825162  0.902052  1
  Dy  Dy2  1  0.487532  0.677103  0.901890  1
  Dy  Dy3  1  0.988724  0.827777  0.600506  1
  Dy  Dy4  1  0.510304  0.321101  0.096741  1
  Er  Er5  1  0.008868  0.175150  0.399999  1
  Er  Er6  1  0.510337  0.323764  0.400128  1
  Er  Er7  1  0.491305  0.676173  0.601270  1
  Sc  Sc8  1  0.163680  0.500609  0.751672  1
  Sc  Sc9  1  0.835852  0.498604  0.250007  1
  Sc  Sc10  1  0.335345  0.001453  0.248336  1
  Sc  Sc11  1  0.664213  0.998937  0.750179  1
  Sc  Sc12  1  0.335055  0.174765  0.628362  1
  Sc  Sc13  1  0.667960  0.826727  0.373321  1
  Sc  Sc14  1  0.169332  0.672891  0.372563  1
  Sc  Sc15  1  0.667963  0.826545  0.125536  1
  Sc  Sc16  1  0.829679  0.325059  0.627036  1
  Sc  Sc17  1  0.331203  0.175658  0.874631  1
  Sc  Sc18  1  0.829668  0.323674  0.874431  1
  Sc  Sc19  1  0.172791  0.674809  0.124299  1
  Ga  Ga20  1  0.163231  0.460417  0.539531  1
  Ga  Ga21  1  0.838019  0.538396  0.461711  1
  Ga  Ga22  1  0.337974  0.960882  0.462090  1
  Ga  Ga23  1  0.839063  0.538844  0.038378  1
  Si  Si24  1  0.033836  0.116457  0.751596  1
  Si  Si25  1  0.966416  0.884250  0.248841  1
  Si  Si26  1  0.466746  0.613636  0.248254  1
  Si  Si27  1  0.534016  0.386232  0.751494  1
  Si  Si28  1  0.287200  0.871409  0.751224  1
  Si  Si29  1  0.713965  0.128663  0.248629  1
  Si  Si30  1  0.212959  0.370859  0.248658  1
  Si  Si31  1  0.787430  0.629245  0.751709  1
  Si  Si32  1  0.658474  0.036887  0.538944  1
  Si  Si33  1  0.158189  0.463324  0.960775  1
  Si  Si34  1  0.656991  0.036167  0.961245  1
  Si  Si35  1  0.343875  0.963518  0.037453  1
