# generated using pymatgen
data_MgZn2Co2Si
_symmetry_space_group_name_H-M   'P 1'
_cell_length_a   7.61520121
_cell_length_b   7.74103184
_cell_length_c   7.61520121
_cell_angle_alpha   120.54812012
_cell_angle_beta   88.09053415
_cell_angle_gamma   120.54812012
_symmetry_Int_Tables_number   1
_chemical_formula_structural   MgZn2Co2Si
_chemical_formula_sum   'Mg4 Zn8 Co8 Si4'
_cell_volume   317.25274809
_cell_formula_units_Z   4
loop_
 _symmetry_equiv_pos_site_id
 _symmetry_equiv_pos_as_xyz
  1  'x, y, z'
loop_
 _atom_site_type_symbol
 _atom_site_label
 _atom_site_symmetry_multiplicity
 _atom_site_fract_x
 _atom_site_fract_y
 _atom_site_fract_z
 _atom_site_occupancy
  Mg  Mg0  1  0.930945  0.500001  0.069057  1
  Mg  Mg1  1  0.819056  0.000000  0.180944  1
  Mg  Mg2  1  0.569057  0.500001  0.430945  1
  Mg  Mg3  1  0.180944  0.000000  0.819056  1
  Zn  Zn4  1  0.554639  0.500001  0.054638  1
  Zn  Zn5  1  0.554639  0.109277  0.054638  1
  Zn  Zn6  1  0.195362  0.000000  0.195362  1
  Zn  Zn7  1  0.195362  0.390724  0.195362  1
  Zn  Zn8  1  0.945363  0.500001  0.445362  1
  Zn  Zn9  1  0.945363  0.890722  0.445362  1
  Zn  Zn10  1  0.804638  0.609276  0.804638  1
  Zn  Zn11  1  0.804638  0.000000  0.804638  1
  Co  Co12  1  0.585591  0.163774  0.414409  1
  Co  Co13  1  0.250636  0.836226  0.421817  1
  Co  Co14  1  0.585591  0.836226  0.414409  1
  Co  Co15  1  0.171817  0.336225  0.500634  1
  Co  Co16  1  0.578183  0.163774  0.749364  1
  Co  Co17  1  0.164409  0.336225  0.835591  1
  Co  Co18  1  0.164409  0.663774  0.835591  1
  Co  Co19  1  0.499366  0.663774  0.828183  1
  Si  Si20  1  0.375000  0.749999  0.124999  1
  Si  Si21  1  0.375000  0.250000  0.625000  1
  Si  Si22  1  0.875001  0.250000  0.625000  1
  Si  Si23  1  0.375000  0.749999  0.625000  1
