# generated using pymatgen
data_K15Tl(CrSe4)4
_symmetry_space_group_name_H-M   'P 1'
_cell_length_a   8.44820604
_cell_length_b   9.99855887
_cell_length_c   14.78822500
_cell_angle_alpha   90.30074443
_cell_angle_beta   90.36777712
_cell_angle_gamma   89.73911132
_symmetry_Int_Tables_number   1
_chemical_formula_structural   K15Tl(CrSe4)4
_chemical_formula_sum   'K15 Tl1 Cr4 Se16'
_cell_volume   1249.10397055
_cell_formula_units_Z   1
loop_
 _symmetry_equiv_pos_site_id
 _symmetry_equiv_pos_as_xyz
  1  'x, y, z'
loop_
 _atom_site_type_symbol
 _atom_site_label
 _atom_site_symmetry_multiplicity
 _atom_site_fract_x
 _atom_site_fract_y
 _atom_site_fract_z
 _atom_site_occupancy
  K  K0  1  0.500000  0.000000  0.500000  1
  K  K1  1  0.000000  0.500000  0.000000  1
  K  K2  1  0.500000  0.500000  0.500000  1
  K  K3  1  0.984520  0.750129  0.426436  1
  K  K4  1  0.483648  0.250053  0.074775  1
  K  K5  1  0.015480  0.249871  0.573564  1
  K  K6  1  0.516352  0.749947  0.925225  1
  K  K7  1  0.842715  0.051165  0.275680  1
  K  K8  1  0.339072  0.947968  0.224470  1
  K  K9  1  0.157753  0.552555  0.723413  1
  K  K10  1  0.657486  0.449268  0.775644  1
  K  K11  1  0.157285  0.948835  0.724320  1
  K  K12  1  0.660928  0.052032  0.775530  1
  K  K13  1  0.842247  0.447445  0.276587  1
  K  K14  1  0.342514  0.550732  0.224356  1
  Tl  Tl15  1  0.000000  0.000000  0.000000  1
  Cr  Cr16  1  0.758441  0.749622  0.665783  1
  Cr  Cr17  1  0.241559  0.250378  0.334217  1
  Cr  Cr18  1  0.738592  0.748103  0.167686  1
  Cr  Cr19  1  0.261408  0.251897  0.832314  1
  Se  Se20  1  0.983746  0.247843  0.825407  1
  Se  Se21  1  0.519112  0.249842  0.325298  1
  Se  Se22  1  0.480888  0.750158  0.674702  1
  Se  Se23  1  0.016254  0.752157  0.174593  1
  Se  Se24  1  0.654141  0.556387  0.091200  1
  Se  Se25  1  0.155600  0.442571  0.409697  1
  Se  Se26  1  0.342606  0.060142  0.909011  1
  Se  Se27  1  0.844389  0.940803  0.590870  1
  Se  Se28  1  0.345859  0.443613  0.908800  1
  Se  Se29  1  0.844400  0.557429  0.590303  1
  Se  Se30  1  0.657394  0.939858  0.090989  1
  Se  Se31  1  0.155611  0.059197  0.409130  1
  Se  Se32  1  0.632219  0.748803  0.314527  1
  Se  Se33  1  0.133017  0.250298  0.186879  1
  Se  Se34  1  0.367781  0.251197  0.685473  1
  Se  Se35  1  0.866983  0.749702  0.813121  1
