# generated using pymatgen
data_Tm3Lu(ZnIn)4
_symmetry_space_group_name_H-M   'P 1'
_cell_length_a   4.62436700
_cell_length_b   4.62436822
_cell_length_c   14.45591000
_cell_angle_alpha   90.00000000
_cell_angle_beta   90.00000000
_cell_angle_gamma   119.99998409
_symmetry_Int_Tables_number   1
_chemical_formula_structural   Tm3Lu(ZnIn)4
_chemical_formula_sum   'Tm3 Lu1 Zn4 In4'
_cell_volume   267.72001375
_cell_formula_units_Z   1
loop_
 _symmetry_equiv_pos_site_id
 _symmetry_equiv_pos_as_xyz
  1  'x, y, z'
loop_
 _atom_site_type_symbol
 _atom_site_label
 _atom_site_symmetry_multiplicity
 _atom_site_fract_x
 _atom_site_fract_y
 _atom_site_fract_z
 _atom_site_occupancy
  Tm  Tm0  1  0.000000  0.000000  0.750000  1
  Tm  Tm1  1  0.000000  0.000000  0.001176  1
  Tm  Tm2  1  0.000000  0.000000  0.498824  1
  Lu  Lu3  1  0.000000  0.000000  0.250000  1
  Zn  Zn4  1  0.333333  0.666667  0.098021  1
  Zn  Zn5  1  0.666667  0.333333  0.846070  1
  Zn  Zn6  1  0.666667  0.333333  0.653930  1
  Zn  Zn7  1  0.333333  0.666667  0.401979  1
  In  In8  1  0.333333  0.666667  0.609886  1
  In  In9  1  0.666667  0.333333  0.361327  1
  In  In10  1  0.666667  0.333333  0.138673  1
  In  In11  1  0.333333  0.666667  0.890114  1
