# generated using pymatgen
data_Sc12Ni6IrOs5
_symmetry_space_group_name_H-M   'P 1'
_cell_length_a   4.50545800
_cell_length_b   6.41127400
_cell_length_c   13.49935600
_cell_angle_alpha   90.00000000
_cell_angle_beta   90.00000000
_cell_angle_gamma   90.00000000
_symmetry_Int_Tables_number   1
_chemical_formula_structural   Sc12Ni6IrOs5
_chemical_formula_sum   'Sc12 Ni6 Ir1 Os5'
_cell_volume   389.93869499
_cell_formula_units_Z   1
loop_
 _symmetry_equiv_pos_site_id
 _symmetry_equiv_pos_as_xyz
  1  'x, y, z'
loop_
 _atom_site_type_symbol
 _atom_site_label
 _atom_site_symmetry_multiplicity
 _atom_site_fract_x
 _atom_site_fract_y
 _atom_site_fract_z
 _atom_site_occupancy
  Sc  Sc0  1  0.500001  0.247655  0.000000  1
  Sc  Sc1  1  0.500001  0.752346  0.000000  1
  Sc  Sc2  1  0.999603  0.249386  0.167078  1
  Sc  Sc3  1  0.999603  0.750615  0.167078  1
  Sc  Sc4  1  0.499602  0.249634  0.333413  1
  Sc  Sc5  1  0.499602  0.750366  0.333413  1
  Sc  Sc6  1  0.000000  0.250115  0.500000  1
  Sc  Sc7  1  0.000000  0.749884  0.500000  1
  Sc  Sc8  1  0.500399  0.249634  0.666587  1
  Sc  Sc9  1  0.500399  0.750366  0.666587  1
  Sc  Sc10  1  0.000396  0.249386  0.832923  1
  Sc  Sc11  1  0.000396  0.750615  0.832923  1
  Ni  Ni12  1  0.000000  0.000000  0.000000  1
  Ni  Ni13  1  0.499415  0.500000  0.167042  1
  Ni  Ni14  1  0.999434  0.000000  0.333003  1
  Ni  Ni15  1  0.500001  0.500000  0.500000  1
  Ni  Ni16  1  0.000565  0.000000  0.666997  1
  Ni  Ni17  1  0.500585  0.500000  0.832958  1
  Ir  Ir18  1  0.000000  0.500000  0.000000  1
  Os  Os19  1  0.499565  0.000000  0.165866  1
  Os  Os20  1  0.999556  0.500000  0.332997  1
  Os  Os21  1  0.500001  0.000000  0.500000  1
  Os  Os22  1  0.000443  0.500000  0.667002  1
  Os  Os23  1  0.500434  0.000000  0.834134  1
