# generated using pymatgen
data_Er8Zr10TiSi16Hg
_symmetry_space_group_name_H-M   'P 1'
_cell_length_a   7.30858294
_cell_length_b   7.30858374
_cell_length_c   13.28530030
_cell_angle_alpha   90.14294977
_cell_angle_beta   89.85705232
_cell_angle_gamma   89.95881220
_symmetry_Int_Tables_number   1
_chemical_formula_structural   Er8Zr10TiSi16Hg
_chemical_formula_sum   'Er8 Zr10 Ti1 Si16 Hg1'
_cell_volume   709.63489871
_cell_formula_units_Z   1
loop_
 _symmetry_equiv_pos_site_id
 _symmetry_equiv_pos_as_xyz
  1  'x, y, z'
loop_
 _atom_site_type_symbol
 _atom_site_label
 _atom_site_symmetry_multiplicity
 _atom_site_fract_x
 _atom_site_fract_y
 _atom_site_fract_z
 _atom_site_occupancy
  Er  Er0  1  0.348103  0.002432  0.464356  1
  Er  Er1  1  0.495180  0.847018  0.713748  1
  Er  Er2  1  0.503816  0.149260  0.211951  1
  Er  Er3  1  0.847018  0.495180  0.286252  1
  Er  Er4  1  0.149260  0.503816  0.788049  1
  Er  Er5  1  0.649690  0.001424  0.965613  1
  Er  Er6  1  0.002432  0.348103  0.535644  1
  Er  Er7  1  0.001424  0.649690  0.034387  1
  Zr  Zr8  1  0.179571  0.820479  0.250466  1
  Zr  Zr9  1  0.820479  0.179571  0.749534  1
  Zr  Zr10  1  0.140758  0.008304  0.876564  1
  Zr  Zr11  1  0.498634  0.641133  0.121900  1
  Zr  Zr12  1  0.501903  0.359937  0.623227  1
  Zr  Zr13  1  0.641133  0.498634  0.878100  1
  Zr  Zr14  1  0.359937  0.501903  0.376773  1
  Zr  Zr15  1  0.856505  0.994511  0.374442  1
  Zr  Zr16  1  0.008304  0.140758  0.123436  1
  Zr  Zr17  1  0.994511  0.856505  0.625558  1
  Ti  Ti18  1  0.679150  0.679150  0.500000  1
  Si  Si19  1  0.203528  0.144948  0.682219  1
  Si  Si20  1  0.365952  0.728269  0.924623  1
  Si  Si21  1  0.643759  0.292680  0.431542  1
  Si  Si22  1  0.728269  0.365952  0.075377  1
  Si  Si23  1  0.292680  0.643759  0.568458  1
  Si  Si24  1  0.796207  0.854607  0.181494  1
  Si  Si25  1  0.144948  0.203528  0.317781  1
  Si  Si26  1  0.854607  0.796207  0.818506  1
  Si  Si27  1  0.289945  0.928545  0.063643  1
  Si  Si28  1  0.555479  0.793086  0.315717  1
  Si  Si29  1  0.446693  0.202143  0.806856  1
  Si  Si30  1  0.793086  0.555479  0.684283  1
  Si  Si31  1  0.202143  0.446693  0.193144  1
  Si  Si32  1  0.702527  0.049963  0.562059  1
  Si  Si33  1  0.928545  0.289945  0.936357  1
  Si  Si34  1  0.049963  0.702527  0.437941  1
  Hg  Hg35  1  0.323865  0.323865  0.000000  1
