# generated using pymatgen
data_Ac10Ga5Sn
_symmetry_space_group_name_H-M   'P 1'
_cell_length_a   9.89448450
_cell_length_b   9.89448458
_cell_length_c   9.89448542
_cell_angle_alpha   129.85065688
_cell_angle_beta   129.85065513
_cell_angle_gamma   73.64563010
_symmetry_Int_Tables_number   1
_chemical_formula_structural   Ac10Ga5Sn
_chemical_formula_sum   'Ac10 Ga5 Sn1'
_cell_volume   557.07922910
_cell_formula_units_Z   1
loop_
 _symmetry_equiv_pos_site_id
 _symmetry_equiv_pos_as_xyz
  1  'x, y, z'
loop_
 _atom_site_type_symbol
 _atom_site_label
 _atom_site_symmetry_multiplicity
 _atom_site_fract_x
 _atom_site_fract_y
 _atom_site_fract_z
 _atom_site_occupancy
  Ac  Ac0  1  0.470951  0.470951  0.000000  1
  Ac  Ac1  1  0.029049  0.029049  0.000000  1
  Ac  Ac2  1  0.538040  0.016541  0.843701  1
  Ac  Ac3  1  0.172839  0.694338  0.156299  1
  Ac  Ac4  1  0.016541  0.172839  0.478501  1
  Ac  Ac5  1  0.694338  0.538040  0.521499  1
  Ac  Ac6  1  0.483459  0.961960  0.156299  1
  Ac  Ac7  1  0.805662  0.327161  0.843701  1
  Ac  Ac8  1  0.961960  0.805662  0.478501  1
  Ac  Ac9  1  0.327161  0.483459  0.521499  1
  Ga  Ga10  1  0.750000  0.750000  0.000000  1
  Ga  Ga11  1  0.883847  0.383847  0.267692  1
  Ga  Ga12  1  0.116153  0.616153  0.732308  1
  Ga  Ga13  1  0.383847  0.116153  0.500000  1
  Ga  Ga14  1  0.616153  0.883847  0.500000  1
  Sn  Sn15  1  0.250000  0.250000  0.000000  1
