# generated using pymatgen
data_Tb15Tm(AlRh)4
_symmetry_space_group_name_H-M   'P 1'
_cell_length_a   9.57055477
_cell_length_b   9.57055435
_cell_length_c   9.55091600
_cell_angle_alpha   60.06785496
_cell_angle_beta   60.06785641
_cell_angle_gamma   59.98930047
_symmetry_Int_Tables_number   1
_chemical_formula_structural   Tb15Tm(AlRh)4
_chemical_formula_sum   'Tb15 Tm1 Al4 Rh4'
_cell_volume   619.17541109
_cell_formula_units_Z   1
loop_
 _symmetry_equiv_pos_site_id
 _symmetry_equiv_pos_as_xyz
  1  'x, y, z'
loop_
 _atom_site_type_symbol
 _atom_site_label
 _atom_site_symmetry_multiplicity
 _atom_site_fract_x
 _atom_site_fract_y
 _atom_site_fract_z
 _atom_site_occupancy
  Tb  Tb0  1  0.807837  0.192343  0.807690  1
  Tb  Tb1  1  0.192819  0.192819  0.807181  1
  Tb  Tb2  1  0.646230  0.059361  0.647205  1
  Tb  Tb3  1  0.063137  0.063137  0.436863  1
  Tb  Tb4  1  0.436447  0.436447  0.063553  1
  Tb  Tb5  1  0.647394  0.647394  0.648498  1
  Tb  Tb6  1  0.807837  0.192343  0.192129  1
  Tb  Tb7  1  0.192343  0.807837  0.807690  1
  Tb  Tb8  1  0.059361  0.646230  0.647205  1
  Tb  Tb9  1  0.437642  0.061554  0.063810  1
  Tb  Tb10  1  0.437642  0.061554  0.436993  1
  Tb  Tb11  1  0.061554  0.437642  0.063810  1
  Tb  Tb12  1  0.647394  0.647394  0.056713  1
  Tb  Tb13  1  0.192343  0.807837  0.192129  1
  Tb  Tb14  1  0.061554  0.437642  0.436993  1
  Tm  Tm15  1  0.806542  0.806542  0.193458  1
  Al  Al16  1  0.423574  0.423574  0.422420  1
  Al  Al17  1  0.423574  0.423574  0.730431  1
  Al  Al18  1  0.423952  0.730358  0.422844  1
  Al  Al19  1  0.730358  0.423952  0.422844  1
  Rh  Rh20  1  0.858404  0.428801  0.856398  1
  Rh  Rh21  1  0.856628  0.856628  0.859049  1
  Rh  Rh22  1  0.856628  0.856628  0.427696  1
  Rh  Rh23  1  0.428801  0.858404  0.856398  1
