# generated using pymatgen
data_Sm2BeSi8Ni17
_symmetry_space_group_name_H-M   'P 1'
_cell_length_a   7.96793627
_cell_length_b   7.85308421
_cell_length_c   7.77051017
_cell_angle_alpha   61.32413271
_cell_angle_beta   59.84868632
_cell_angle_gamma   58.82718025
_symmetry_Int_Tables_number   1
_chemical_formula_structural   Sm2BeSi8Ni17
_chemical_formula_sum   'Sm2 Be1 Si8 Ni17'
_cell_volume   343.48001138
_cell_formula_units_Z   1
loop_
 _symmetry_equiv_pos_site_id
 _symmetry_equiv_pos_as_xyz
  1  'x, y, z'
loop_
 _atom_site_type_symbol
 _atom_site_label
 _atom_site_symmetry_multiplicity
 _atom_site_fract_x
 _atom_site_fract_y
 _atom_site_fract_z
 _atom_site_occupancy
  Sm  Sm0  1  0.250000  0.250000  0.250000  1
  Sm  Sm1  1  0.750000  0.750000  0.750000  1
  Be  Be2  1  0.000000  0.000000  0.000000  1
  Si  Si3  1  0.709364  0.055015  0.944985  1
  Si  Si4  1  0.055015  0.709364  0.290636  1
  Si  Si5  1  0.208111  0.555585  0.791889  1
  Si  Si6  1  0.555585  0.208111  0.444415  1
  Si  Si7  1  0.290636  0.944985  0.055015  1
  Si  Si8  1  0.944985  0.290636  0.709364  1
  Si  Si9  1  0.791889  0.444415  0.208111  1
  Si  Si10  1  0.444415  0.791889  0.555585  1
  Ni  Ni11  1  0.716745  0.283255  0.060417  1
  Ni  Ni12  1  0.283255  0.716745  0.939583  1
  Ni  Ni13  1  0.200565  0.799435  0.436859  1
  Ni  Ni14  1  0.799435  0.200565  0.563141  1
  Ni  Ni15  1  0.436859  0.563141  0.200565  1
  Ni  Ni16  1  0.563141  0.436859  0.799435  1
  Ni  Ni17  1  0.060417  0.939583  0.716745  1
  Ni  Ni18  1  0.939583  0.060417  0.283255  1
  Ni  Ni19  1  0.447953  0.183851  0.816149  1
  Ni  Ni20  1  0.183851  0.447953  0.552047  1
  Ni  Ni21  1  0.940774  0.691497  0.059226  1
  Ni  Ni22  1  0.691497  0.940774  0.308503  1
  Ni  Ni23  1  0.552047  0.816149  0.183851  1
  Ni  Ni24  1  0.816149  0.552047  0.447953  1
  Ni  Ni25  1  0.059226  0.308503  0.940774  1
  Ni  Ni26  1  0.308503  0.059226  0.691497  1
  Ni  Ni27  1  0.500000  0.500000  0.500000  1
