# generated using pymatgen
data_LiErTmAs2
_symmetry_space_group_name_H-M   'P 1'
_cell_length_a   4.13934100
_cell_length_b   4.13934122
_cell_length_c   13.94406600
_cell_angle_alpha   90.00000000
_cell_angle_beta   90.00000000
_cell_angle_gamma   119.99999028
_symmetry_Int_Tables_number   1
_chemical_formula_structural   LiErTmAs2
_chemical_formula_sum   'Li2 Er2 Tm2 As4'
_cell_volume   206.91050327
_cell_formula_units_Z   2
loop_
 _symmetry_equiv_pos_site_id
 _symmetry_equiv_pos_as_xyz
  1  'x, y, z'
loop_
 _atom_site_type_symbol
 _atom_site_label
 _atom_site_symmetry_multiplicity
 _atom_site_fract_x
 _atom_site_fract_y
 _atom_site_fract_z
 _atom_site_occupancy
  Li  Li0  1  0.000000  0.000000  0.749856  1
  Li  Li1  1  0.000000  0.000000  0.249856  1
  Er  Er2  1  0.333333  0.666667  0.889544  1
  Er  Er3  1  0.666667  0.333333  0.389544  1
  Tm  Tm4  1  0.666667  0.333333  0.110356  1
  Tm  Tm5  1  0.333333  0.666667  0.610356  1
  As  As6  1  0.000000  0.000000  0.000500  1
  As  As7  1  0.333333  0.666667  0.249744  1
  As  As8  1  0.666667  0.333333  0.749744  1
  As  As9  1  0.000000  0.000000  0.500500  1
