# generated using pymatgen
data_NaBiRu2O7
_symmetry_space_group_name_H-M   'P 1'
_cell_length_a   7.26027318
_cell_length_b   7.26027217
_cell_length_c   7.26027291
_cell_angle_alpha   119.79842347
_cell_angle_beta   120.19922217
_cell_angle_gamma   90.00239077
_symmetry_Int_Tables_number   1
_chemical_formula_structural   NaBiRu2O7
_chemical_formula_sum   'Na2 Bi2 Ru4 O14'
_cell_volume   270.61065510
_cell_formula_units_Z   2
loop_
 _symmetry_equiv_pos_site_id
 _symmetry_equiv_pos_as_xyz
  1  'x, y, z'
loop_
 _atom_site_type_symbol
 _atom_site_label
 _atom_site_symmetry_multiplicity
 _atom_site_fract_x
 _atom_site_fract_y
 _atom_site_fract_z
 _atom_site_occupancy
  Na  Na0  1  0.500000  0.500000  0.000000  1
  Na  Na1  1  0.000000  0.500000  0.500000  1
  Bi  Bi2  1  0.500000  0.500000  0.500000  1
  Bi  Bi3  1  0.500000  0.000000  0.000000  1
  Ru  Ru4  1  0.000000  0.000000  0.500000  1
  Ru  Ru5  1  0.000000  0.500000  0.000000  1
  Ru  Ru6  1  0.000000  0.000000  0.000000  1
  Ru  Ru7  1  0.500000  0.000000  0.500000  1
  O  O8  1  0.326582  0.062341  0.647608  1
  O  O9  1  0.914733  0.062341  0.235759  1
  O  O10  1  0.940774  0.690774  0.250000  1
  O  O11  1  0.914733  0.678973  0.852392  1
  O  O12  1  0.326582  0.678973  0.264241  1
  O  O13  1  0.327126  0.077126  0.250000  1
  O  O14  1  0.673418  0.937659  0.352392  1
  O  O15  1  0.085267  0.937659  0.764241  1
  O  O16  1  0.059226  0.309226  0.750000  1
  O  O17  1  0.085267  0.321027  0.147608  1
  O  O18  1  0.673418  0.321027  0.735759  1
  O  O19  1  0.672874  0.922874  0.750000  1
  O  O20  1  0.619956  0.369956  0.250000  1
  O  O21  1  0.380044  0.630044  0.750000  1
