# generated using pymatgen
data_Pr7USe12
_symmetry_space_group_name_H-M   'P 1'
_cell_length_a   4.20436300
_cell_length_b   11.22850731
_cell_length_c   11.55503378
_cell_angle_alpha   89.91629698
_cell_angle_beta   90.00000000
_cell_angle_gamma   90.00000000
_symmetry_Int_Tables_number   1
_chemical_formula_structural   Pr7USe12
_chemical_formula_sum   'Pr7 U1 Se12'
_cell_volume   545.49777982
_cell_formula_units_Z   1
loop_
 _symmetry_equiv_pos_site_id
 _symmetry_equiv_pos_as_xyz
  1  'x, y, z'
loop_
 _atom_site_type_symbol
 _atom_site_label
 _atom_site_symmetry_multiplicity
 _atom_site_fract_x
 _atom_site_fract_y
 _atom_site_fract_z
 _atom_site_occupancy
  Pr  Pr0  1  0.750000  0.814125  0.489602  1
  Pr  Pr1  1  0.750000  0.495844  0.308895  1
  Pr  Pr2  1  0.250000  0.996461  0.193820  1
  Pr  Pr3  1  0.750000  0.004549  0.804026  1
  Pr  Pr4  1  0.250000  0.312054  0.010156  1
  Pr  Pr5  1  0.750000  0.687763  0.988638  1
  Pr  Pr6  1  0.250000  0.502532  0.693361  1
  U  U7  1  0.250000  0.187309  0.508234  1
  Se  Se8  1  0.250000  0.552795  0.122900  1
  Se  Se9  1  0.750000  0.364529  0.546559  1
  Se  Se10  1  0.250000  0.623922  0.455852  1
  Se  Se11  1  0.250000  0.296411  0.276094  1
  Se  Se12  1  0.250000  0.203458  0.763836  1
  Se  Se13  1  0.750000  0.126118  0.045568  1
  Se  Se14  1  0.750000  0.700946  0.727992  1
  Se  Se15  1  0.250000  0.875034  0.954122  1
  Se  Se16  1  0.750000  0.801366  0.230266  1
  Se  Se17  1  0.750000  0.061170  0.383239  1
  Se  Se18  1  0.750000  0.444716  0.878116  1
  Se  Se19  1  0.250000  0.948897  0.618724  1
