# generated using pymatgen
data_LuSc9GaPb5
_symmetry_space_group_name_H-M   'P 1'
_cell_length_a   6.21731502
_cell_length_b   8.49766391
_cell_length_c   8.50318037
_cell_angle_alpha   119.78430470
_cell_angle_beta   90.00201029
_cell_angle_gamma   89.99492517
_symmetry_Int_Tables_number   1
_chemical_formula_structural   LuSc9GaPb5
_chemical_formula_sum   'Lu1 Sc9 Ga1 Pb5'
_cell_volume   389.90093930
_cell_formula_units_Z   1
loop_
 _symmetry_equiv_pos_site_id
 _symmetry_equiv_pos_as_xyz
  1  'x, y, z'
loop_
 _atom_site_type_symbol
 _atom_site_label
 _atom_site_symmetry_multiplicity
 _atom_site_fract_x
 _atom_site_fract_y
 _atom_site_fract_z
 _atom_site_occupancy
  Lu  Lu0  1  0.749963  0.984586  0.224023  1
  Sc  Sc1  1  0.750011  0.241895  0.999700  1
  Sc  Sc2  1  0.749956  0.758110  0.773418  1
  Sc  Sc3  1  0.250022  0.765697  0.999622  1
  Sc  Sc4  1  0.250066  0.234776  0.234368  1
  Sc  Sc5  1  0.250067  0.000214  0.766224  1
  Sc  Sc6  1  0.504964  0.344284  0.679338  1
  Sc  Sc7  1  0.504675  0.664813  0.320985  1
  Sc  Sc8  1  0.995280  0.664615  0.320646  1
  Sc  Sc9  1  0.994982  0.344427  0.679683  1
  Ga  Ga10  1  0.749768  0.597780  0.997659  1
  Pb  Pb11  1  0.750162  0.395332  0.395204  1
  Pb  Pb12  1  0.750163  0.997518  0.608954  1
  Pb  Pb13  1  0.250186  0.395648  0.999748  1
  Pb  Pb14  1  0.249868  0.605609  0.600803  1
  Pb  Pb15  1  0.249868  0.004695  0.399624  1
