# generated using pymatgen
data_Cd4Os3PdO14
_symmetry_space_group_name_H-M   'P 1'
_cell_length_a   7.25823924
_cell_length_b   7.25823858
_cell_length_c   7.25823881
_cell_angle_alpha   60.59464273
_cell_angle_beta   60.59464556
_cell_angle_gamma   60.59464498
_symmetry_Int_Tables_number   1
_chemical_formula_structural   Cd4Os3PdO14
_chemical_formula_sum   'Cd4 Os3 Pd1 O14'
_cell_volume   274.01401273
_cell_formula_units_Z   1
loop_
 _symmetry_equiv_pos_site_id
 _symmetry_equiv_pos_as_xyz
  1  'x, y, z'
loop_
 _atom_site_type_symbol
 _atom_site_label
 _atom_site_symmetry_multiplicity
 _atom_site_fract_x
 _atom_site_fract_y
 _atom_site_fract_z
 _atom_site_occupancy
  Cd  Cd0  1  0.125000  0.125000  0.125000  1
  Cd  Cd1  1  0.625000  0.125000  0.125000  1
  Cd  Cd2  1  0.125000  0.625000  0.125000  1
  Cd  Cd3  1  0.125000  0.125000  0.625000  1
  Os  Os4  1  0.125000  0.625000  0.625000  1
  Os  Os5  1  0.625000  0.125000  0.625000  1
  Os  Os6  1  0.625000  0.625000  0.125000  1
  Pd  Pd7  1  0.625000  0.625000  0.625000  1
  O  O8  1  0.248009  0.248009  0.248009  1
  O  O9  1  0.001991  0.001991  0.001991  1
  O  O10  1  0.541467  0.970042  0.541467  1
  O  O11  1  0.316971  0.701745  0.316971  1
  O  O12  1  0.541467  0.541467  0.970042  1
  O  O13  1  0.970042  0.541467  0.541467  1
  O  O14  1  0.548255  0.933029  0.933029  1
  O  O15  1  0.933029  0.933029  0.548255  1
  O  O16  1  0.933029  0.548255  0.933029  1
  O  O17  1  0.701745  0.316971  0.316971  1
  O  O18  1  0.279958  0.708533  0.708533  1
  O  O19  1  0.708533  0.279958  0.708533  1
  O  O20  1  0.316971  0.316971  0.701745  1
  O  O21  1  0.708533  0.708533  0.279958  1
