# generated using pymatgen
data_LaNd15Cd4Ir3Pt
_symmetry_space_group_name_H-M   'P 1'
_cell_length_a   9.97304110
_cell_length_b   9.97304148
_cell_length_c   9.97304105
_cell_angle_alpha   60.35030258
_cell_angle_beta   60.35030398
_cell_angle_gamma   60.35030067
_symmetry_Int_Tables_number   1
_chemical_formula_structural   LaNd15Cd4Ir3Pt
_chemical_formula_sum   'La1 Nd15 Cd4 Ir3 Pt1'
_cell_volume   706.96163235
_cell_formula_units_Z   1
loop_
 _symmetry_equiv_pos_site_id
 _symmetry_equiv_pos_as_xyz
  1  'x, y, z'
loop_
 _atom_site_type_symbol
 _atom_site_label
 _atom_site_symmetry_multiplicity
 _atom_site_fract_x
 _atom_site_fract_y
 _atom_site_fract_z
 _atom_site_occupancy
  La  La0  1  0.346062  0.346062  0.346062  1
  Nd  Nd1  1  0.352084  0.352084  0.949166  1
  Nd  Nd2  1  0.352084  0.949166  0.352084  1
  Nd  Nd3  1  0.949166  0.352084  0.352084  1
  Nd  Nd4  1  0.805951  0.190463  0.190463  1
  Nd  Nd5  1  0.188820  0.809356  0.809356  1
  Nd  Nd6  1  0.190463  0.805951  0.190463  1
  Nd  Nd7  1  0.809356  0.188820  0.809356  1
  Nd  Nd8  1  0.190463  0.190463  0.805951  1
  Nd  Nd9  1  0.809356  0.809356  0.188820  1
  Nd  Nd10  1  0.939293  0.562664  0.562664  1
  Nd  Nd11  1  0.561969  0.939000  0.939000  1
  Nd  Nd12  1  0.562664  0.939293  0.562664  1
  Nd  Nd13  1  0.939000  0.561969  0.939000  1
  Nd  Nd14  1  0.562664  0.562664  0.939293  1
  Nd  Nd15  1  0.939000  0.939000  0.561969  1
  Cd  Cd16  1  0.580411  0.580411  0.580411  1
  Cd  Cd17  1  0.580933  0.580933  0.258655  1
  Cd  Cd18  1  0.580933  0.258655  0.580933  1
  Cd  Cd19  1  0.258655  0.580933  0.580933  1
  Ir  Ir20  1  0.141854  0.141854  0.574255  1
  Ir  Ir21  1  0.141854  0.574255  0.141854  1
  Ir  Ir22  1  0.574255  0.141854  0.141854  1
  Pt  Pt23  1  0.142709  0.142709  0.142709  1
