# generated using pymatgen
data_TbHo4Co19(Si5P)2
_symmetry_space_group_name_H-M   'P 1'
_cell_length_a   12.13450005
_cell_length_b   12.16148613
_cell_length_c   3.71887000
_cell_angle_alpha   90.00000000
_cell_angle_beta   90.00000000
_cell_angle_gamma   119.93697946
_symmetry_Int_Tables_number   1
_chemical_formula_structural   TbHo4Co19(Si5P)2
_chemical_formula_sum   'Tb1 Ho4 Co19 Si10 P2'
_cell_volume   475.58221825
_cell_formula_units_Z   1
loop_
 _symmetry_equiv_pos_site_id
 _symmetry_equiv_pos_as_xyz
  1  'x, y, z'
loop_
 _atom_site_type_symbol
 _atom_site_label
 _atom_site_symmetry_multiplicity
 _atom_site_fract_x
 _atom_site_fract_y
 _atom_site_fract_z
 _atom_site_occupancy
  Tb  Tb0  1  0.666522  0.333855  0.000000  1
  Ho  Ho1  1  0.332730  0.666227  0.000000  1
  Ho  Ho2  1  0.185490  0.999957  0.500000  1
  Ho  Ho3  1  0.000880  0.186029  0.500000  1
  Ho  Ho4  1  0.814806  0.813893  0.500000  1
  Co  Co5  1  0.197443  0.373606  0.000000  1
  Co  Co6  1  0.622523  0.819628  0.000000  1
  Co  Co7  1  0.176415  0.802881  0.000000  1
  Co  Co8  1  0.823953  0.626615  0.000000  1
  Co  Co9  1  0.802994  0.180184  0.000000  1
  Co  Co10  1  0.373292  0.197009  0.000000  1
  Co  Co11  1  0.559055  0.000008  0.000000  1
  Co  Co12  1  0.000701  0.559252  0.000000  1
  Co  Co13  1  0.441503  0.440794  0.000000  1
  Co  Co14  1  0.123535  0.479309  0.500000  1
  Co  Co15  1  0.520330  0.642759  0.500000  1
  Co  Co16  1  0.355517  0.876669  0.500000  1
  Co  Co17  1  0.644198  0.520989  0.500000  1
  Co  Co18  1  0.877838  0.357258  0.500000  1
  Co  Co19  1  0.478590  0.123046  0.500000  1
  Co  Co20  1  0.718540  0.999936  0.500000  1
  Co  Co21  1  0.000020  0.722242  0.500000  1
  Co  Co22  1  0.277717  0.277818  0.500000  1
  Co  Co23  1  0.004370  0.000003  0.000000  1
  Si  Si24  1  0.371257  0.999977  0.000000  1
  Si  Si25  1  0.000248  0.371391  0.000000  1
  Si  Si26  1  0.628840  0.628543  0.000000  1
  Si  Si27  1  0.317979  0.477712  0.500000  1
  Si  Si28  1  0.521596  0.838769  0.500000  1
  Si  Si29  1  0.160190  0.682251  0.500000  1
  Si  Si30  1  0.840595  0.522795  0.500000  1
  Si  Si31  1  0.682844  0.160791  0.500000  1
  Si  Si32  1  0.477564  0.317810  0.500000  1
  Si  Si33  1  0.817407  0.999975  0.000000  1
  P  P34  1  0.999998  0.817453  0.000000  1
  P  P35  1  0.182522  0.182565  0.000000  1
