# generated using pymatgen
data_Er8Ti5Si16W7
_symmetry_space_group_name_H-M   'P 1'
_cell_length_a   6.90119900
_cell_length_b   6.90643715
_cell_length_c   12.77528218
_cell_angle_alpha   89.85061344
_cell_angle_beta   90.05362524
_cell_angle_gamma   90.03070867
_symmetry_Int_Tables_number   1
_chemical_formula_structural   Er8Ti5Si16W7
_chemical_formula_sum   'Er8 Ti5 Si16 W7'
_cell_volume   608.90198322
_cell_formula_units_Z   1
loop_
 _symmetry_equiv_pos_site_id
 _symmetry_equiv_pos_as_xyz
  1  'x, y, z'
loop_
 _atom_site_type_symbol
 _atom_site_label
 _atom_site_symmetry_multiplicity
 _atom_site_fract_x
 _atom_site_fract_y
 _atom_site_fract_z
 _atom_site_occupancy
  Er  Er0  1  0.340312  0.998967  0.469352  1
  Er  Er1  1  0.500329  0.841656  0.719666  1
  Er  Er2  1  0.498264  0.158740  0.217865  1
  Er  Er3  1  0.838244  0.498068  0.281061  1
  Er  Er4  1  0.162563  0.500932  0.780647  1
  Er  Er5  1  0.660070  0.000233  0.969207  1
  Er  Er6  1  0.000611  0.338019  0.532119  1
  Er  Er7  1  0.999640  0.662352  0.030474  1
  Ti  Ti8  1  0.654607  0.496457  0.876400  1
  Ti  Ti9  1  0.344257  0.503146  0.377353  1
  Ti  Ti10  1  0.841733  0.989628  0.376793  1
  Ti  Ti11  1  0.004669  0.153214  0.126011  1
  Ti  Ti12  1  0.994237  0.844638  0.625964  1
  Si  Si13  1  0.205879  0.127799  0.681884  1
  Si  Si14  1  0.371291  0.706737  0.931428  1
  Si  Si15  1  0.629755  0.296172  0.433768  1
  Si  Si16  1  0.701323  0.371229  0.068186  1
  Si  Si17  1  0.301521  0.630219  0.568192  1
  Si  Si18  1  0.793876  0.870495  0.182242  1
  Si  Si19  1  0.129440  0.198661  0.316819  1
  Si  Si20  1  0.871043  0.800773  0.817937  1
  Si  Si21  1  0.292536  0.958343  0.064471  1
  Si  Si22  1  0.540024  0.791260  0.314107  1
  Si  Si23  1  0.458410  0.209486  0.815183  1
  Si  Si24  1  0.792217  0.543775  0.683900  1
  Si  Si25  1  0.207531  0.455782  0.184796  1
  Si  Si26  1  0.708654  0.043801  0.565200  1
  Si  Si27  1  0.956101  0.293967  0.934146  1
  Si  Si28  1  0.045397  0.705711  0.433614  1
  W  W29  1  0.330849  0.332809  0.998532  1
  W  W30  1  0.168652  0.827722  0.247814  1
  W  W31  1  0.831612  0.170878  0.749227  1
  W  W32  1  0.670714  0.669766  0.498291  1
  W  W33  1  0.158192  0.007980  0.876224  1
  W  W34  1  0.490949  0.657381  0.124433  1
  W  W35  1  0.504499  0.343203  0.626694  1
