# generated using pymatgen
data_Tm8ZrSc11Ga16
_symmetry_space_group_name_H-M   'P 1'
_cell_length_a   7.20616308
_cell_length_b   7.50801818
_cell_length_c   14.38182039
_cell_angle_alpha   89.97709705
_cell_angle_beta   90.06202034
_cell_angle_gamma   90.00978768
_symmetry_Int_Tables_number   1
_chemical_formula_structural   Tm8ZrSc11Ga16
_chemical_formula_sum   'Tm8 Zr1 Sc11 Ga16'
_cell_volume   778.11353022
_cell_formula_units_Z   1
loop_
 _symmetry_equiv_pos_site_id
 _symmetry_equiv_pos_as_xyz
  1  'x, y, z'
loop_
 _atom_site_type_symbol
 _atom_site_label
 _atom_site_symmetry_multiplicity
 _atom_site_fract_x
 _atom_site_fract_y
 _atom_site_fract_z
 _atom_site_occupancy
  Tm  Tm0  1  0.010705  0.179282  0.094815  1
  Tm  Tm1  1  0.989399  0.820625  0.905470  1
  Tm  Tm2  1  0.489434  0.679111  0.905454  1
  Tm  Tm3  1  0.989508  0.820880  0.594575  1
  Tm  Tm4  1  0.510385  0.320746  0.094737  1
  Tm  Tm5  1  0.010725  0.179235  0.405399  1
  Tm  Tm6  1  0.510741  0.320945  0.405197  1
  Tm  Tm7  1  0.489590  0.678978  0.594714  1
  Zr  Zr8  1  0.330143  0.174581  0.624446  1
  Sc  Sc9  1  0.162682  0.503967  0.750102  1
  Sc  Sc10  1  0.837285  0.496183  0.249908  1
  Sc  Sc11  1  0.337135  0.004006  0.250035  1
  Sc  Sc12  1  0.662571  0.995923  0.750084  1
  Sc  Sc13  1  0.670120  0.825960  0.375398  1
  Sc  Sc14  1  0.170099  0.673609  0.375496  1
  Sc  Sc15  1  0.669971  0.826018  0.124418  1
  Sc  Sc16  1  0.829831  0.325964  0.624012  1
  Sc  Sc17  1  0.330220  0.173677  0.875740  1
  Sc  Sc18  1  0.830009  0.326473  0.875956  1
  Sc  Sc19  1  0.169926  0.673738  0.124420  1
  Ga  Ga20  1  0.031529  0.115968  0.749631  1
  Ga  Ga21  1  0.968678  0.884020  0.250064  1
  Ga  Ga22  1  0.468847  0.615946  0.250062  1
  Ga  Ga23  1  0.530949  0.383661  0.749772  1
  Ga  Ga24  1  0.283934  0.870340  0.749680  1
  Ga  Ga25  1  0.716168  0.129948  0.250069  1
  Ga  Ga26  1  0.216162  0.369878  0.250108  1
  Ga  Ga27  1  0.783774  0.630225  0.749921  1
  Ga  Ga28  1  0.162431  0.464820  0.540545  1
  Ga  Ga29  1  0.837753  0.534423  0.459693  1
  Ga  Ga30  1  0.337750  0.965849  0.459995  1
  Ga  Ga31  1  0.837840  0.534488  0.040265  1
  Ga  Ga32  1  0.661777  0.034908  0.540385  1
  Ga  Ga33  1  0.162222  0.465571  0.959560  1
  Ga  Ga34  1  0.661957  0.034443  0.959549  1
  Ga  Ga35  1  0.337752  0.965614  0.040324  1
