# generated using pymatgen
data_Ho8Si(PdPt5)4
_symmetry_space_group_name_H-M   'P 1'
_cell_length_a   8.32501920
_cell_length_b   8.29911600
_cell_length_c   8.34972920
_cell_angle_alpha   90.00000000
_cell_angle_beta   90.02480856
_cell_angle_gamma   90.00000000
_symmetry_Int_Tables_number   1
_chemical_formula_structural   Ho8Si(PdPt5)4
_chemical_formula_sum   'Ho8 Si1 Pd4 Pt20'
_cell_volume   576.88524099
_cell_formula_units_Z   1
loop_
 _symmetry_equiv_pos_site_id
 _symmetry_equiv_pos_as_xyz
  1  'x, y, z'
loop_
 _atom_site_type_symbol
 _atom_site_label
 _atom_site_symmetry_multiplicity
 _atom_site_fract_x
 _atom_site_fract_y
 _atom_site_fract_z
 _atom_site_occupancy
  Ho  Ho0  1  0.252798  0.252802  0.253183  1
  Ho  Ho1  1  0.746938  0.746610  0.746697  1
  Ho  Ho2  1  0.747179  0.746981  0.253157  1
  Ho  Ho3  1  0.746938  0.253390  0.746697  1
  Ho  Ho4  1  0.253042  0.253039  0.746583  1
  Ho  Ho5  1  0.252798  0.747198  0.253183  1
  Ho  Ho6  1  0.253042  0.746961  0.746583  1
  Ho  Ho7  1  0.747179  0.253019  0.253157  1
  Si  Si8  1  0.000280  0.000000  0.001858  1
  Pd  Pd9  1  0.742676  0.000000  0.500003  1
  Pd  Pd10  1  0.999932  0.500000  0.257593  1
  Pd  Pd11  1  0.999952  0.500000  0.741899  1
  Pd  Pd12  1  0.999777  0.000000  0.719753  1
  Pt  Pt13  1  0.257261  0.500000  0.999951  1
  Pt  Pt14  1  0.742826  0.500000  0.999970  1
  Pt  Pt15  1  0.000156  0.257824  0.499880  1
  Pt  Pt16  1  0.499985  0.257738  0.999969  1
  Pt  Pt17  1  0.000156  0.742176  0.499880  1
  Pt  Pt18  1  0.499985  0.742262  0.999969  1
  Pt  Pt19  1  0.500022  0.000000  0.257567  1
  Pt  Pt20  1  0.257287  0.000000  0.499929  1
  Pt  Pt21  1  0.500011  0.000000  0.741967  1
  Pt  Pt22  1  0.251649  0.500000  0.500013  1
  Pt  Pt23  1  0.748301  0.500000  0.500009  1
  Pt  Pt24  1  0.499917  0.252080  0.499990  1
  Pt  Pt25  1  0.499917  0.747920  0.499990  1
  Pt  Pt26  1  0.500042  0.500000  0.252208  1
  Pt  Pt27  1  0.500069  0.500000  0.747888  1
  Pt  Pt28  1  0.280572  0.000000  0.999457  1
  Pt  Pt29  1  0.719477  0.000000  0.999540  1
  Pt  Pt30  1  0.000032  0.281332  0.999501  1
  Pt  Pt31  1  0.000032  0.718668  0.999501  1
  Pt  Pt32  1  0.999770  0.000000  0.282475  1
