# generated using pymatgen
data_HoEr(Th2In5)2
_symmetry_space_group_name_H-M   'P 1'
_cell_length_a   6.57729301
_cell_length_b   6.57729226
_cell_length_c   10.32402500
_cell_angle_alpha   90.00000000
_cell_angle_beta   90.00000000
_cell_angle_gamma   102.33218314
_symmetry_Int_Tables_number   1
_chemical_formula_structural   HoEr(Th2In5)2
_chemical_formula_sum   'Ho1 Er1 Th4 In10'
_cell_volume   436.31981768
_cell_formula_units_Z   1
loop_
 _symmetry_equiv_pos_site_id
 _symmetry_equiv_pos_as_xyz
  1  'x, y, z'
loop_
 _atom_site_type_symbol
 _atom_site_label
 _atom_site_symmetry_multiplicity
 _atom_site_fract_x
 _atom_site_fract_y
 _atom_site_fract_z
 _atom_site_occupancy
  Ho  Ho0  1  0.129027  0.129027  0.750000  1
  Er  Er1  1  0.870892  0.870892  0.250000  1
  Th  Th2  1  0.705766  0.294228  0.000012  1
  Th  Th3  1  0.705766  0.294228  0.499988  1
  Th  Th4  1  0.294228  0.705766  0.000012  1
  Th  Th5  1  0.294228  0.705766  0.499988  1
  In  In6  1  0.508902  0.508902  0.750000  1
  In  In7  1  0.491165  0.491165  0.250000  1
  In  In8  1  0.811634  0.811634  0.545936  1
  In  In9  1  0.188350  0.188350  0.453989  1
  In  In10  1  0.811634  0.811634  0.954064  1
  In  In11  1  0.188350  0.188350  0.046011  1
  In  In12  1  0.990761  0.565272  0.750000  1
  In  In13  1  0.434808  0.009218  0.250000  1
  In  In14  1  0.009218  0.434808  0.250000  1
  In  In15  1  0.565272  0.990761  0.750000  1
