# generated using pymatgen
data_Tb6Al16Os6Pd
_symmetry_space_group_name_H-M   'P 1'
_cell_length_a   8.94648724
_cell_length_b   8.94648740
_cell_length_c   8.94648600
_cell_angle_alpha   59.99999779
_cell_angle_beta   59.99999717
_cell_angle_gamma   59.99999446
_symmetry_Int_Tables_number   1
_chemical_formula_structural   Tb6Al16Os6Pd
_chemical_formula_sum   'Tb6 Al16 Os6 Pd1'
_cell_volume   506.34037104
_cell_formula_units_Z   1
loop_
 _symmetry_equiv_pos_site_id
 _symmetry_equiv_pos_as_xyz
  1  'x, y, z'
loop_
 _atom_site_type_symbol
 _atom_site_label
 _atom_site_symmetry_multiplicity
 _atom_site_fract_x
 _atom_site_fract_y
 _atom_site_fract_z
 _atom_site_occupancy
  Tb  Tb0  1  0.211855  0.788145  0.788145  1
  Tb  Tb1  1  0.788145  0.211855  0.211855  1
  Tb  Tb2  1  0.788145  0.211855  0.788145  1
  Tb  Tb3  1  0.788145  0.788145  0.211855  1
  Tb  Tb4  1  0.211855  0.788145  0.211855  1
  Tb  Tb5  1  0.211855  0.211855  0.788145  1
  Al  Al6  1  0.832573  0.832573  0.832573  1
  Al  Al7  1  0.832573  0.832573  0.502280  1
  Al  Al8  1  0.502280  0.832573  0.832573  1
  Al  Al9  1  0.832573  0.502280  0.832573  1
  Al  Al10  1  0.167427  0.167427  0.167427  1
  Al  Al11  1  0.167427  0.167427  0.497720  1
  Al  Al12  1  0.167427  0.497720  0.167427  1
  Al  Al13  1  0.497720  0.167427  0.167427  1
  Al  Al14  1  0.623816  0.623816  0.623816  1
  Al  Al15  1  0.623816  0.623816  0.128553  1
  Al  Al16  1  0.128553  0.623816  0.623816  1
  Al  Al17  1  0.623816  0.128553  0.623816  1
  Al  Al18  1  0.376184  0.376184  0.376184  1
  Al  Al19  1  0.376184  0.376184  0.871447  1
  Al  Al20  1  0.376184  0.871447  0.376184  1
  Al  Al21  1  0.871447  0.376184  0.376184  1
  Os  Os22  1  0.000000  0.500000  0.500000  1
  Os  Os23  1  0.500000  0.000000  0.000000  1
  Os  Os24  1  0.500000  0.000000  0.500000  1
  Os  Os25  1  0.500000  0.500000  0.000000  1
  Os  Os26  1  0.000000  0.500000  0.000000  1
  Os  Os27  1  0.000000  0.000000  0.500000  1
  Pd  Pd28  1  0.500000  0.500000  0.500000  1
