# generated using pymatgen
data_TmLu11(CoSi)8
_symmetry_space_group_name_H-M   'P 1'
_cell_length_a   5.40953405
_cell_length_b   7.46372606
_cell_length_c   12.37092000
_cell_angle_alpha   90.00000000
_cell_angle_beta   90.00000000
_cell_angle_gamma   89.98501832
_symmetry_Int_Tables_number   1
_chemical_formula_structural   TmLu11(CoSi)8
_chemical_formula_sum   'Tm1 Lu11 Co8 Si8'
_cell_volume   499.47934492
_cell_formula_units_Z   1
loop_
 _symmetry_equiv_pos_site_id
 _symmetry_equiv_pos_as_xyz
  1  'x, y, z'
loop_
 _atom_site_type_symbol
 _atom_site_label
 _atom_site_symmetry_multiplicity
 _atom_site_fract_x
 _atom_site_fract_y
 _atom_site_fract_z
 _atom_site_occupancy
  Tm  Tm0  1  0.629928  0.253431  0.250000  1
  Lu  Lu1  1  0.370441  0.746192  0.750000  1
  Lu  Lu2  1  0.370359  0.753810  0.250000  1
  Lu  Lu3  1  0.629616  0.246167  0.750000  1
  Lu  Lu4  1  0.142273  0.396738  0.101180  1
  Lu  Lu5  1  0.857708  0.603454  0.898551  1
  Lu  Lu6  1  0.857708  0.603454  0.601449  1
  Lu  Lu7  1  0.857756  0.896206  0.398745  1
  Lu  Lu8  1  0.142273  0.396738  0.398820  1
  Lu  Lu9  1  0.142328  0.103575  0.601418  1
  Lu  Lu10  1  0.142328  0.103575  0.898582  1
  Lu  Lu11  1  0.857756  0.896206  0.101255  1
  Co  Co12  1  0.365659  0.030352  0.087753  1
  Co  Co13  1  0.634035  0.969419  0.912068  1
  Co  Co14  1  0.634035  0.969419  0.587932  1
  Co  Co15  1  0.634231  0.530905  0.412257  1
  Co  Co16  1  0.365659  0.030352  0.412247  1
  Co  Co17  1  0.365867  0.469503  0.587925  1
  Co  Co18  1  0.365867  0.469503  0.912075  1
  Co  Co19  1  0.634231  0.530905  0.087743  1
  Si  Si20  1  0.148425  0.103100  0.250000  1
  Si  Si21  1  0.851410  0.896319  0.750000  1
  Si  Si22  1  0.851727  0.604256  0.250000  1
  Si  Si23  1  0.148599  0.396379  0.750000  1
  Si  Si24  1  0.618087  0.250029  0.999720  1
  Si  Si25  1  0.381804  0.749992  0.999964  1
  Si  Si26  1  0.381804  0.749992  0.500036  1
  Si  Si27  1  0.618087  0.250029  0.500280  1
