# generated using pymatgen
data_Ho4Er8Os3Rh
_symmetry_space_group_name_H-M   'P 1'
_cell_length_a   6.32765710
_cell_length_b   7.32136556
_cell_length_c   9.00935300
_cell_angle_alpha   90.00000000
_cell_angle_beta   90.00000000
_cell_angle_gamma   90.24710614
_symmetry_Int_Tables_number   1
_chemical_formula_structural   Ho4Er8Os3Rh
_chemical_formula_sum   'Ho4 Er8 Os3 Rh1'
_cell_volume   417.37323276
_cell_formula_units_Z   1
loop_
 _symmetry_equiv_pos_site_id
 _symmetry_equiv_pos_as_xyz
  1  'x, y, z'
loop_
 _atom_site_type_symbol
 _atom_site_label
 _atom_site_symmetry_multiplicity
 _atom_site_fract_x
 _atom_site_fract_y
 _atom_site_fract_z
 _atom_site_occupancy
  Ho  Ho0  1  0.869763  0.538309  0.250000  1
  Ho  Ho1  1  0.630103  0.040030  0.250000  1
  Ho  Ho2  1  0.129578  0.461541  0.750000  1
  Ho  Ho3  1  0.369354  0.961605  0.750000  1
  Er  Er4  1  0.334111  0.673363  0.061526  1
  Er  Er5  1  0.169287  0.177652  0.438272  1
  Er  Er6  1  0.669291  0.324329  0.563488  1
  Er  Er7  1  0.827503  0.823835  0.933755  1
  Er  Er8  1  0.669291  0.324329  0.936512  1
  Er  Er9  1  0.827503  0.823835  0.566245  1
  Er  Er10  1  0.334111  0.673363  0.438474  1
  Er  Er11  1  0.169287  0.177652  0.061728  1
  Os  Os12  1  0.459733  0.383630  0.250000  1
  Os  Os13  1  0.961362  0.115406  0.750000  1
  Os  Os14  1  0.538625  0.616550  0.750000  1
  Rh  Rh15  1  0.041096  0.884574  0.250000  1
