# generated using pymatgen
data_Y3Co7(P3Ru)2
_symmetry_space_group_name_H-M   'P 1'
_cell_length_a   3.74422400
_cell_length_b   10.56856100
_cell_length_c   12.32423200
_cell_angle_alpha   90.00000000
_cell_angle_beta   90.00000000
_cell_angle_gamma   90.00000000
_symmetry_Int_Tables_number   1
_chemical_formula_structural   Y3Co7(P3Ru)2
_chemical_formula_sum   'Y6 Co14 P12 Ru4'
_cell_volume   487.68292074
_cell_formula_units_Z   2
loop_
 _symmetry_equiv_pos_site_id
 _symmetry_equiv_pos_as_xyz
  1  'x, y, z'
loop_
 _atom_site_type_symbol
 _atom_site_label
 _atom_site_symmetry_multiplicity
 _atom_site_fract_x
 _atom_site_fract_y
 _atom_site_fract_z
 _atom_site_occupancy
  Y  Y0  1  0.000000  0.500000  0.528501  1
  Y  Y1  1  0.500000  0.000000  0.478440  1
  Y  Y2  1  0.500000  0.818082  0.202911  1
  Y  Y3  1  0.500000  0.181918  0.202911  1
  Y  Y4  1  0.000000  0.683148  0.795705  1
  Y  Y5  1  0.000000  0.316852  0.795705  1
  Co  Co6  1  0.000000  0.500000  0.985842  1
  Co  Co7  1  0.500000  0.000000  0.013218  1
  Co  Co8  1  0.000000  0.200152  0.573505  1
  Co  Co9  1  0.000000  0.799848  0.573505  1
  Co  Co10  1  0.500000  0.879938  0.710626  1
  Co  Co11  1  0.500000  0.120062  0.710626  1
  Co  Co12  1  0.000000  0.620833  0.286936  1
  Co  Co13  1  0.000000  0.379167  0.286936  1
  Co  Co14  1  0.500000  0.332417  0.989999  1
  Co  Co15  1  0.500000  0.667583  0.989999  1
  Co  Co16  1  0.000000  0.167016  0.008685  1
  Co  Co17  1  0.000000  0.832984  0.008685  1
  Co  Co18  1  0.500000  0.500000  0.705033  1
  Co  Co19  1  0.000000  0.000000  0.294544  1
  P  P20  1  0.500000  0.309498  0.621139  1
  P  P21  1  0.500000  0.690502  0.621139  1
  P  P22  1  0.000000  0.183843  0.382064  1
  P  P23  1  0.000000  0.816157  0.382064  1
  P  P24  1  0.500000  0.500000  0.882341  1
  P  P25  1  0.000000  0.000000  0.116634  1
  P  P26  1  0.500000  0.846918  0.894032  1
  P  P27  1  0.500000  0.153082  0.894032  1
  P  P28  1  0.000000  0.653355  0.104483  1
  P  P29  1  0.000000  0.346645  0.104483  1
  P  P30  1  0.500000  0.500000  0.344961  1
  P  P31  1  0.000000  0.000000  0.651699  1
  Ru  Ru32  1  0.500000  0.295876  0.430574  1
  Ru  Ru33  1  0.500000  0.704124  0.430574  1
  Ru  Ru34  1  0.500000  0.500000  0.156612  1
  Ru  Ru35  1  0.000000  0.000000  0.840857  1
