# generated using pymatgen
data_LaPr(Ni3Pt2)2
_symmetry_space_group_name_H-M   'P 1'
_cell_length_a   4.08959500
_cell_length_b   5.40303100
_cell_length_c   8.72618600
_cell_angle_alpha   90.00000000
_cell_angle_beta   90.00000000
_cell_angle_gamma   90.00000000
_symmetry_Int_Tables_number   1
_chemical_formula_structural   LaPr(Ni3Pt2)2
_chemical_formula_sum   'La1 Pr1 Ni6 Pt4'
_cell_volume   192.81562581
_cell_formula_units_Z   1
loop_
 _symmetry_equiv_pos_site_id
 _symmetry_equiv_pos_as_xyz
  1  'x, y, z'
loop_
 _atom_site_type_symbol
 _atom_site_label
 _atom_site_symmetry_multiplicity
 _atom_site_fract_x
 _atom_site_fract_y
 _atom_site_fract_z
 _atom_site_occupancy
  La  La0  1  0.000000  0.000000  0.000000  1
  Pr  Pr1  1  0.000000  0.500000  0.500000  1
  Ni  Ni2  1  0.000000  0.000000  0.347924  1
  Ni  Ni3  1  0.000000  0.500000  0.847996  1
  Ni  Ni4  1  0.000000  0.500000  0.152004  1
  Ni  Ni5  1  0.000000  0.000000  0.652076  1
  Ni  Ni6  1  0.500000  0.000000  0.500000  1
  Ni  Ni7  1  0.500000  0.500000  0.000000  1
  Pt  Pt8  1  0.500000  0.250422  0.250992  1
  Pt  Pt9  1  0.500000  0.749578  0.749008  1
  Pt  Pt10  1  0.500000  0.749578  0.250992  1
  Pt  Pt11  1  0.500000  0.250422  0.749008  1
