# generated using pymatgen
data_La8Al8Ir7Pt
_symmetry_space_group_name_H-M   'P 1'
_cell_length_a   4.28608400
_cell_length_b   7.25072861
_cell_length_c   16.41877519
_cell_angle_alpha   89.91760608
_cell_angle_beta   90.00000000
_cell_angle_gamma   90.00000000
_symmetry_Int_Tables_number   1
_chemical_formula_structural   La8Al8Ir7Pt
_chemical_formula_sum   'La8 Al8 Ir7 Pt1'
_cell_volume   510.24955662
_cell_formula_units_Z   1
loop_
 _symmetry_equiv_pos_site_id
 _symmetry_equiv_pos_as_xyz
  1  'x, y, z'
loop_
 _atom_site_type_symbol
 _atom_site_label
 _atom_site_symmetry_multiplicity
 _atom_site_fract_x
 _atom_site_fract_y
 _atom_site_fract_z
 _atom_site_occupancy
  La  La0  1  0.750000  0.845941  0.938848  1
  La  La1  1  0.250000  0.151817  0.057592  1
  La  La2  1  0.250000  0.655048  0.439523  1
  La  La3  1  0.750000  0.346948  0.560670  1
  La  La4  1  0.750000  0.987355  0.720551  1
  La  La5  1  0.250000  0.011336  0.280191  1
  La  La6  1  0.250000  0.516209  0.222270  1
  La  La7  1  0.750000  0.487286  0.779630  1
  Al  Al8  1  0.750000  0.836664  0.147827  1
  Al  Al9  1  0.250000  0.155356  0.852962  1
  Al  Al10  1  0.250000  0.656451  0.647919  1
  Al  Al11  1  0.750000  0.344243  0.354180  1
  Al  Al12  1  0.750000  0.993457  0.438908  1
  Al  Al13  1  0.250000  0.007031  0.560860  1
  Al  Al14  1  0.250000  0.507489  0.939166  1
  Al  Al15  1  0.750000  0.494308  0.059551  1
  Ir  Ir16  1  0.750000  0.785347  0.571941  1
  Ir  Ir17  1  0.250000  0.213530  0.427287  1
  Ir  Ir18  1  0.250000  0.713850  0.072767  1
  Ir  Ir19  1  0.750000  0.284029  0.928159  1
  Ir  Ir20  1  0.750000  0.723050  0.318679  1
  Ir  Ir21  1  0.250000  0.278829  0.679708  1
  Ir  Ir22  1  0.250000  0.778071  0.819617  1
  Pt  Pt23  1  0.750000  0.226354  0.181195  1
