# generated using pymatgen
data_PrNdSi2(PIr2)2
_symmetry_space_group_name_H-M   'P 1'
_cell_length_a   4.25779300
_cell_length_b   4.25779300
_cell_length_c   9.55924300
_cell_angle_alpha   90.00000000
_cell_angle_beta   90.00000000
_cell_angle_gamma   90.00000000
_symmetry_Int_Tables_number   1
_chemical_formula_structural   PrNdSi2(PIr2)2
_chemical_formula_sum   'Pr1 Nd1 Si2 P2 Ir4'
_cell_volume   173.29761626
_cell_formula_units_Z   1
loop_
 _symmetry_equiv_pos_site_id
 _symmetry_equiv_pos_as_xyz
  1  'x, y, z'
loop_
 _atom_site_type_symbol
 _atom_site_label
 _atom_site_symmetry_multiplicity
 _atom_site_fract_x
 _atom_site_fract_y
 _atom_site_fract_z
 _atom_site_occupancy
  Pr  Pr0  1  0.000000  0.500000  0.263228  1
  Nd  Nd1  1  0.500000  0.000000  0.736595  1
  Si  Si2  1  0.000000  0.500000  0.867186  1
  Si  Si3  1  0.500000  0.000000  0.132618  1
  P  P4  1  0.000000  0.000000  0.500227  1
  P  P5  1  0.500000  0.500000  0.500227  1
  Ir  Ir6  1  0.000000  0.000000  0.999719  1
  Ir  Ir7  1  0.500000  0.500000  0.999719  1
  Ir  Ir8  1  0.000000  0.500000  0.610598  1
  Ir  Ir9  1  0.500000  0.000000  0.389883  1
