# generated using pymatgen
data_SrPrIr2O7
_symmetry_space_group_name_H-M   'P 1'
_cell_length_a   7.44955353
_cell_length_b   7.47480193
_cell_length_c   7.44955380
_cell_angle_alpha   59.88782013
_cell_angle_beta   59.70471692
_cell_angle_gamma   59.88781460
_symmetry_Int_Tables_number   1
_chemical_formula_structural   SrPrIr2O7
_chemical_formula_sum   'Sr2 Pr2 Ir4 O14'
_cell_volume   292.16718358
_cell_formula_units_Z   2
loop_
 _symmetry_equiv_pos_site_id
 _symmetry_equiv_pos_as_xyz
  1  'x, y, z'
loop_
 _atom_site_type_symbol
 _atom_site_label
 _atom_site_symmetry_multiplicity
 _atom_site_fract_x
 _atom_site_fract_y
 _atom_site_fract_z
 _atom_site_occupancy
  Sr  Sr0  1  0.125000  0.125000  0.625000  1
  Sr  Sr1  1  0.625000  0.125000  0.125000  1
  Pr  Pr2  1  0.125000  0.125000  0.125000  1
  Pr  Pr3  1  0.125000  0.625000  0.125000  1
  Ir  Ir4  1  0.625000  0.625000  0.625000  1
  Ir  Ir5  1  0.125000  0.625000  0.625000  1
  Ir  Ir6  1  0.625000  0.125000  0.625000  1
  Ir  Ir7  1  0.625000  0.625000  0.125000  1
  O  O8  1  0.949884  0.555932  0.546072  1
  O  O9  1  0.300116  0.301887  0.703928  1
  O  O10  1  0.952131  0.547869  0.952131  1
  O  O11  1  0.703928  0.301887  0.300116  1
  O  O12  1  0.546072  0.555932  0.949884  1
  O  O13  1  0.554774  0.945226  0.554774  1
  O  O14  1  0.546072  0.948113  0.949884  1
  O  O15  1  0.243137  0.256863  0.243137  1
  O  O16  1  0.300116  0.694068  0.703928  1
  O  O17  1  0.695226  0.304774  0.695226  1
  O  O18  1  0.006863  0.993137  0.006863  1
  O  O19  1  0.949884  0.948113  0.546072  1
  O  O20  1  0.297869  0.702131  0.297869  1
  O  O21  1  0.703928  0.694068  0.300116  1
