# generated using pymatgen
data_Nb12AlGa3(IrN)4
_symmetry_space_group_name_H-M   'P 1'
_cell_length_a   7.04150993
_cell_length_b   7.04150993
_cell_length_c   7.04150993
_cell_angle_alpha   89.94004822
_cell_angle_beta   89.94004822
_cell_angle_gamma   89.94004822
_symmetry_Int_Tables_number   1
_chemical_formula_structural   Nb12AlGa3(IrN)4
_chemical_formula_sum   'Nb12 Al1 Ga3 Ir4 N4'
_cell_volume   349.13764227
_cell_formula_units_Z   1
loop_
 _symmetry_equiv_pos_site_id
 _symmetry_equiv_pos_as_xyz
  1  'x, y, z'
loop_
 _atom_site_type_symbol
 _atom_site_label
 _atom_site_symmetry_multiplicity
 _atom_site_fract_x
 _atom_site_fract_y
 _atom_site_fract_z
 _atom_site_occupancy
  Nb  Nb0  1  0.794352  0.954860  0.376455  1
  Nb  Nb1  1  0.704825  0.044644  0.876878  1
  Nb  Nb2  1  0.205369  0.455409  0.123989  1
  Nb  Nb3  1  0.295278  0.544931  0.623597  1
  Nb  Nb4  1  0.954860  0.376455  0.794352  1
  Nb  Nb5  1  0.044644  0.876878  0.704825  1
  Nb  Nb6  1  0.455409  0.123989  0.205369  1
  Nb  Nb7  1  0.544931  0.623597  0.295278  1
  Nb  Nb8  1  0.376455  0.794352  0.954860  1
  Nb  Nb9  1  0.876878  0.704825  0.044644  1
  Nb  Nb10  1  0.123989  0.205369  0.455409  1
  Nb  Nb11  1  0.623597  0.295278  0.544931  1
  Al  Al12  1  0.070315  0.070315  0.070315  1
  Ga  Ga13  1  0.568609  0.430890  0.931404  1
  Ga  Ga14  1  0.430890  0.931404  0.568609  1
  Ga  Ga15  1  0.931404  0.568609  0.430890  1
  Ir  Ir16  1  0.177378  0.823530  0.319605  1
  Ir  Ir17  1  0.319605  0.177378  0.823530  1
  Ir  Ir18  1  0.823530  0.319605  0.177378  1
  Ir  Ir19  1  0.678315  0.678315  0.678315  1
  N  N20  1  0.873537  0.126051  0.625332  1
  N  N21  1  0.625332  0.873537  0.126051  1
  N  N22  1  0.126051  0.625332  0.873537  1
  N  N23  1  0.374448  0.374448  0.374448  1
