# generated using pymatgen
data_Nd4Gd3Tl(TeO6)4
_symmetry_space_group_name_H-M   'P 1'
_cell_length_a   5.44104226
_cell_length_b   9.32555049
_cell_length_c   10.25034470
_cell_angle_alpha   90.08764484
_cell_angle_beta   90.19458622
_cell_angle_gamma   90.12726526
_symmetry_Int_Tables_number   1
_chemical_formula_structural   Nd4Gd3Tl(TeO6)4
_chemical_formula_sum   'Nd4 Gd3 Tl1 Te4 O24'
_cell_volume   520.10491483
_cell_formula_units_Z   1
loop_
 _symmetry_equiv_pos_site_id
 _symmetry_equiv_pos_as_xyz
  1  'x, y, z'
loop_
 _atom_site_type_symbol
 _atom_site_label
 _atom_site_symmetry_multiplicity
 _atom_site_fract_x
 _atom_site_fract_y
 _atom_site_fract_z
 _atom_site_occupancy
  Nd  Nd0  1  0.028697  0.216884  0.859657  1
  Nd  Nd1  1  0.531733  0.283320  0.137151  1
  Nd  Nd2  1  0.970593  0.718215  0.639649  1
  Nd  Nd3  1  0.471057  0.779627  0.362480  1
  Gd  Gd4  1  0.521894  0.389543  0.543917  1
  Gd  Gd5  1  0.979080  0.604312  0.042120  1
  Gd  Gd6  1  0.479914  0.895736  0.957676  1
  Tl  Tl7  1  0.013580  0.108559  0.450157  1
  Te  Te8  1  0.534623  0.006965  0.645223  1
  Te  Te9  1  0.043031  0.493257  0.355154  1
  Te  Te10  1  0.460986  0.506538  0.854932  1
  Te  Te11  1  0.963774  0.992391  0.145238  1
  O  O12  1  0.253476  0.419435  0.992749  1
  O  O13  1  0.753422  0.080902  0.007900  1
  O  O14  1  0.757745  0.929873  0.506797  1
  O  O15  1  0.248061  0.578057  0.494406  1
  O  O16  1  0.222470  0.112090  0.065227  1
  O  O17  1  0.723007  0.388749  0.934663  1
  O  O18  1  0.779682  0.609902  0.435495  1
  O  O19  1  0.308834  0.866591  0.570275  1
  O  O20  1  0.317495  0.362863  0.325245  1
  O  O21  1  0.772276  0.160775  0.674801  1
  O  O22  1  0.694480  0.856592  0.173522  1
  O  O23  1  0.190473  0.641633  0.827090  1
  O  O24  1  0.171315  0.949740  0.293240  1
  O  O25  1  0.663671  0.550512  0.706412  1
  O  O26  1  0.839478  0.448646  0.206077  1
  O  O27  1  0.318370  0.041961  0.790873  1
  O  O28  1  0.181168  0.638563  0.242261  1
  O  O29  1  0.701055  0.874790  0.761026  1
  O  O30  1  0.812831  0.135271  0.257210  1
  O  O31  1  0.314998  0.363282  0.742050  1
  O  O32  1  0.093790  0.843877  0.031094  1
  O  O33  1  0.592325  0.656366  0.968522  1
  O  O34  1  0.910266  0.343595  0.469465  1
  O  O35  1  0.380352  0.150586  0.530249  1
