# generated using pymatgen
data_YbHo5(Si3Ru)8
_symmetry_space_group_name_H-M   'P 1'
_cell_length_a   10.12310583
_cell_length_b   10.12308347
_cell_length_c   8.12961654
_cell_angle_alpha   89.86842000
_cell_angle_beta   90.13439222
_cell_angle_gamma   132.60362421
_symmetry_Int_Tables_number   1
_chemical_formula_structural   YbHo5(Si3Ru)8
_chemical_formula_sum   'Yb1 Ho5 Si24 Ru8'
_cell_volume   613.20416643
_cell_formula_units_Z   1
loop_
 _symmetry_equiv_pos_site_id
 _symmetry_equiv_pos_as_xyz
  1  'x, y, z'
loop_
 _atom_site_type_symbol
 _atom_site_label
 _atom_site_symmetry_multiplicity
 _atom_site_fract_x
 _atom_site_fract_y
 _atom_site_fract_z
 _atom_site_occupancy
  Yb  Yb0  1  0.501955  0.001954  0.750002  1
  Ho  Ho1  1  0.500225  0.500358  0.500398  1
  Ho  Ho2  1  0.000341  0.000213  0.999605  1
  Ho  Ho3  1  0.998521  0.498511  0.250016  1
  Ho  Ho4  1  0.497157  0.997164  0.250010  1
  Ho  Ho5  1  0.003127  0.503129  0.749980  1
  Si  Si6  1  0.793982  0.204115  0.500190  1
  Si  Si7  1  0.295411  0.705722  0.998872  1
  Si  Si8  1  0.205738  0.795410  0.501132  1
  Si  Si9  1  0.704106  0.293987  0.999814  1
  Si  Si10  1  0.332524  0.333824  0.833161  1
  Si  Si11  1  0.667451  0.668439  0.166742  1
  Si  Si12  1  0.168417  0.167432  0.333261  1
  Si  Si13  1  0.833835  0.832540  0.666841  1
  Si  Si14  1  0.121131  0.886450  0.728241  1
  Si  Si15  1  0.111540  0.877589  0.272214  1
  Si  Si16  1  0.611180  0.377664  0.228892  1
  Si  Si17  1  0.624276  0.389954  0.771884  1
  Si  Si18  1  0.877681  0.111204  0.271121  1
  Si  Si19  1  0.889926  0.124261  0.728109  1
  Si  Si20  1  0.386476  0.621149  0.771745  1
  Si  Si21  1  0.377574  0.611517  0.227791  1
  Si  Si22  1  0.344586  0.111492  0.503111  1
  Si  Si23  1  0.888197  0.654992  0.494597  1
  Si  Si24  1  0.388203  0.154417  0.006312  1
  Si  Si25  1  0.844864  0.611994  0.994016  1
  Si  Si26  1  0.654427  0.888226  0.493699  1
  Si  Si27  1  0.111980  0.344856  0.505964  1
  Si  Si28  1  0.611503  0.844589  0.996872  1
  Si  Si29  1  0.154977  0.388176  0.005419  1
  Ru  Ru30  1  0.670332  0.330662  0.499756  1
  Ru  Ru31  1  0.167799  0.828730  0.001997  1
  Ru  Ru32  1  0.328749  0.667790  0.497987  1
  Ru  Ru33  1  0.830636  0.170327  0.000248  1
  Ru  Ru34  1  0.126832  0.126604  0.627552  1
  Ru  Ru35  1  0.873697  0.874024  0.372687  1
  Ru  Ru36  1  0.374026  0.373690  0.127346  1
  Ru  Ru37  1  0.626616  0.626845  0.872415  1
