# generated using pymatgen
data_Ta3Zn(Pd3Pt)3
_symmetry_space_group_name_H-M   'P 1'
_cell_length_a   5.59956400
_cell_length_b   5.59956378
_cell_length_c   9.15313700
_cell_angle_alpha   90.00000000
_cell_angle_beta   90.00000000
_cell_angle_gamma   119.99998947
_symmetry_Int_Tables_number   1
_chemical_formula_structural   Ta3Zn(Pd3Pt)3
_chemical_formula_sum   'Ta3 Zn1 Pd9 Pt3'
_cell_volume   248.54729968
_cell_formula_units_Z   1
loop_
 _symmetry_equiv_pos_site_id
 _symmetry_equiv_pos_as_xyz
  1  'x, y, z'
loop_
 _atom_site_type_symbol
 _atom_site_label
 _atom_site_symmetry_multiplicity
 _atom_site_fract_x
 _atom_site_fract_y
 _atom_site_fract_z
 _atom_site_occupancy
  Ta  Ta0  1  0.666667  0.333333  0.500000  1
  Ta  Ta1  1  0.000000  0.000000  0.752827  1
  Ta  Ta2  1  0.000000  0.000000  0.247173  1
  Zn  Zn3  1  0.333333  0.666667  0.000000  1
  Pd  Pd4  1  0.833259  0.166741  0.000000  1
  Pd  Pd5  1  0.833259  0.666518  0.000000  1
  Pd  Pd6  1  0.333482  0.166741  0.000000  1
  Pd  Pd7  1  0.997210  0.498605  0.751050  1
  Pd  Pd8  1  0.501395  0.498605  0.751050  1
  Pd  Pd9  1  0.501395  0.002790  0.751050  1
  Pd  Pd10  1  0.997210  0.498605  0.248950  1
  Pd  Pd11  1  0.501395  0.498605  0.248950  1
  Pd  Pd12  1  0.501395  0.002790  0.248950  1
  Pt  Pt13  1  0.166083  0.833917  0.500000  1
  Pt  Pt14  1  0.166083  0.332167  0.500000  1
  Pt  Pt15  1  0.667833  0.833917  0.500000  1
