# generated using pymatgen
data_Ho2ErZr2Sn3
_symmetry_space_group_name_H-M   'P 1'
_cell_length_a   8.81133015
_cell_length_b   8.80853691
_cell_length_c   6.10266400
_cell_angle_alpha   90.00000000
_cell_angle_beta   90.00000000
_cell_angle_gamma   119.98950802
_symmetry_Int_Tables_number   1
_chemical_formula_structural   Ho2ErZr2Sn3
_chemical_formula_sum   'Ho4 Er2 Zr4 Sn6'
_cell_volume   410.24306594
_cell_formula_units_Z   2
loop_
 _symmetry_equiv_pos_site_id
 _symmetry_equiv_pos_as_xyz
  1  'x, y, z'
loop_
 _atom_site_type_symbol
 _atom_site_label
 _atom_site_symmetry_multiplicity
 _atom_site_fract_x
 _atom_site_fract_y
 _atom_site_fract_z
 _atom_site_occupancy
  Ho  Ho0  1  0.000101  0.759885  0.750000  1
  Ho  Ho1  1  0.000101  0.240216  0.250000  1
  Ho  Ho2  1  0.759757  0.759721  0.250000  1
  Ho  Ho3  1  0.759757  0.000036  0.750000  1
  Er  Er4  1  0.240324  0.240249  0.750000  1
  Er  Er5  1  0.240324  0.000075  0.250000  1
  Zr  Zr6  1  0.333297  0.666649  0.500000  1
  Zr  Zr7  1  0.666654  0.333327  0.000000  1
  Zr  Zr8  1  0.666654  0.333327  0.500000  1
  Zr  Zr9  1  0.333297  0.666649  0.000000  1
  Sn  Sn10  1  0.400098  0.000096  0.750000  1
  Sn  Sn11  1  0.400098  0.400001  0.250000  1
  Sn  Sn12  1  0.000093  0.599971  0.250000  1
  Sn  Sn13  1  0.000093  0.400122  0.750000  1
  Sn  Sn14  1  0.599676  0.599681  0.750000  1
  Sn  Sn15  1  0.599676  0.999994  0.250000  1
