# generated using pymatgen
data_Sr8Zn3Si12Ir
_symmetry_space_group_name_H-M   'P 1'
_cell_length_a   11.66788834
_cell_length_b   10.07827025
_cell_length_c   8.27374400
_cell_angle_alpha   78.27951187
_cell_angle_beta   57.70230953
_cell_angle_gamma   44.19852475
_symmetry_Int_Tables_number   1
_chemical_formula_structural   Sr8Zn3Si12Ir
_chemical_formula_sum   'Sr8 Zn3 Si12 Ir1'
_cell_volume   545.95306598
_cell_formula_units_Z   1
loop_
 _symmetry_equiv_pos_site_id
 _symmetry_equiv_pos_as_xyz
  1  'x, y, z'
loop_
 _atom_site_type_symbol
 _atom_site_label
 _atom_site_symmetry_multiplicity
 _atom_site_fract_x
 _atom_site_fract_y
 _atom_site_fract_z
 _atom_site_occupancy
  Sr  Sr0  1  0.132134  0.122740  0.864522  1
  Sr  Sr1  1  0.864881  0.881122  0.131627  1
  Sr  Sr2  1  0.132896  0.124210  0.373398  1
  Sr  Sr3  1  0.373522  0.368745  0.132696  1
  Sr  Sr4  1  0.619015  0.633338  0.377259  1
  Sr  Sr5  1  0.377085  0.370309  0.619124  1
  Sr  Sr6  1  0.627749  0.628154  0.872051  1
  Sr  Sr7  1  0.871826  0.872422  0.628695  1
  Zn  Zn8  1  0.083470  0.417477  0.082534  1
  Zn  Zn9  1  0.833391  0.168633  0.831607  1
  Zn  Zn10  1  0.166588  0.833420  0.166660  1
  Si  Si11  1  0.912630  0.589101  0.426369  1
  Si  Si12  1  0.089492  0.406941  0.581711  1
  Si  Si13  1  0.425371  0.070739  0.913885  1
  Si  Si14  1  0.582511  0.921236  0.089404  1
  Si  Si15  1  0.331703  0.661705  0.833640  1
  Si  Si16  1  0.667035  0.337803  0.166766  1
  Si  Si17  1  0.832667  0.173548  0.332001  1
  Si  Si18  1  0.166841  0.827635  0.667343  1
  Si  Si19  1  0.911863  0.587988  0.912298  1
  Si  Si20  1  0.581119  0.920309  0.578333  1
  Si  Si21  1  0.333969  0.666122  0.332999  1
  Si  Si22  1  0.665157  0.334037  0.666599  1
  Ir  Ir23  1  0.417086  0.082271  0.418474  1
