# generated using pymatgen
data_TaNb3Ga2(B2Ru5)2
_symmetry_space_group_name_H-M   'P 1'
_cell_length_a   9.35658803
_cell_length_b   9.35658803
_cell_length_c   2.99087700
_cell_angle_alpha   90.00000000
_cell_angle_beta   90.00000000
_cell_angle_gamma   90.10629305
_symmetry_Int_Tables_number   1
_chemical_formula_structural   TaNb3Ga2(B2Ru5)2
_chemical_formula_sum   'Ta1 Nb3 Ga2 B4 Ru10'
_cell_volume   261.83808807
_cell_formula_units_Z   1
loop_
 _symmetry_equiv_pos_site_id
 _symmetry_equiv_pos_as_xyz
  1  'x, y, z'
loop_
 _atom_site_type_symbol
 _atom_site_label
 _atom_site_symmetry_multiplicity
 _atom_site_fract_x
 _atom_site_fract_y
 _atom_site_fract_z
 _atom_site_occupancy
  Ta  Ta0  1  0.676394  0.176394  0.000000  1
  Nb  Nb1  1  0.823311  0.676544  0.000000  1
  Nb  Nb2  1  0.176544  0.323311  0.000000  1
  Nb  Nb3  1  0.323822  0.823822  0.000000  1
  Ga  Ga4  1  0.499808  0.500370  0.000000  1
  Ga  Ga5  1  0.000370  0.999808  0.000000  1
  B  B6  1  0.624778  0.875129  0.000000  1
  B  B7  1  0.375129  0.124778  0.000000  1
  B  B8  1  0.124735  0.624735  0.000000  1
  B  B9  1  0.875430  0.375430  0.000000  1
  Ru  Ru10  1  0.568261  0.715406  0.500000  1
  Ru  Ru11  1  0.432932  0.284595  0.500000  1
  Ru  Ru12  1  0.068095  0.784589  0.500000  1
  Ru  Ru13  1  0.930270  0.214862  0.500000  1
  Ru  Ru14  1  0.284589  0.568095  0.500000  1
  Ru  Ru15  1  0.714862  0.430270  0.500000  1
  Ru  Ru16  1  0.215406  0.068261  0.500000  1
  Ru  Ru17  1  0.784595  0.932932  0.500000  1
  Ru  Ru18  1  0.500835  0.000835  0.500000  1
  Ru  Ru19  1  0.999835  0.499835  0.500000  1
