# generated using pymatgen
data_Tb3Y(Ni7P4)2
_symmetry_space_group_name_H-M   'P 1'
_cell_length_a   3.70586800
_cell_length_b   9.16767554
_cell_length_c   10.26721561
_cell_angle_alpha   89.96059548
_cell_angle_beta   90.00000000
_cell_angle_gamma   90.00000000
_symmetry_Int_Tables_number   1
_chemical_formula_structural   Tb3Y(Ni7P4)2
_chemical_formula_sum   'Tb3 Y1 Ni14 P8'
_cell_volume   348.82030702
_cell_formula_units_Z   1
loop_
 _symmetry_equiv_pos_site_id
 _symmetry_equiv_pos_as_xyz
  1  'x, y, z'
loop_
 _atom_site_type_symbol
 _atom_site_label
 _atom_site_symmetry_multiplicity
 _atom_site_fract_x
 _atom_site_fract_y
 _atom_site_fract_z
 _atom_site_occupancy
  Tb  Tb0  1  0.500000  0.942016  0.895269  1
  Tb  Tb1  1  0.000000  0.436013  0.178051  1
  Tb  Tb2  1  0.500000  0.564044  0.677895  1
  Y  Y3  1  0.000000  0.058000  0.395784  1
  Ni  Ni4  1  0.000000  0.056954  0.698933  1
  Ni  Ni5  1  0.500000  0.943555  0.198879  1
  Ni  Ni6  1  0.000000  0.725445  0.509473  1
  Ni  Ni7  1  0.500000  0.274337  0.009921  1
  Ni  Ni8  1  0.000000  0.097133  0.093861  1
  Ni  Ni9  1  0.500000  0.902663  0.593510  1
  Ni  Ni10  1  0.000000  0.745247  0.273700  1
  Ni  Ni11  1  0.500000  0.254467  0.773914  1
  Ni  Ni12  1  0.000000  0.306247  0.603573  1
  Ni  Ni13  1  0.500000  0.693966  0.103158  1
  Ni  Ni14  1  0.000000  0.685747  0.911975  1
  Ni  Ni15  1  0.500000  0.314303  0.412570  1
  Ni  Ni16  1  0.000000  0.417749  0.870247  1
  Ni  Ni17  1  0.500000  0.582210  0.370167  1
  P  P18  1  0.000000  0.181047  0.889357  1
  P  P19  1  0.500000  0.819089  0.389112  1
  P  P20  1  0.000000  0.845336  0.084408  1
  P  P21  1  0.500000  0.154440  0.584561  1
  P  P22  1  0.000000  0.809911  0.713576  1
  P  P23  1  0.500000  0.190078  0.214265  1
  P  P24  1  0.000000  0.479527  0.461054  1
  P  P25  1  0.500000  0.520476  0.960982  1
