# generated using pymatgen
data_ZrNi3Ir3W
_symmetry_space_group_name_H-M   'P 1'
_cell_length_a   5.51796200
_cell_length_b   5.51796227
_cell_length_c   4.27240800
_cell_angle_alpha   90.00000000
_cell_angle_beta   90.00000000
_cell_angle_gamma   120.00001039
_symmetry_Int_Tables_number   1
_chemical_formula_structural   ZrNi3Ir3W
_chemical_formula_sum   'Zr1 Ni3 Ir3 W1'
_cell_volume   112.65766291
_cell_formula_units_Z   1
loop_
 _symmetry_equiv_pos_site_id
 _symmetry_equiv_pos_as_xyz
  1  'x, y, z'
loop_
 _atom_site_type_symbol
 _atom_site_label
 _atom_site_symmetry_multiplicity
 _atom_site_fract_x
 _atom_site_fract_y
 _atom_site_fract_z
 _atom_site_occupancy
  Zr  Zr0  1  0.666667  0.333333  0.750000  1
  Ni  Ni1  1  0.313412  0.156706  0.250000  1
  Ni  Ni2  1  0.843294  0.156706  0.250000  1
  Ni  Ni3  1  0.843294  0.686588  0.250000  1
  Ir  Ir4  1  0.674235  0.837118  0.750000  1
  Ir  Ir5  1  0.162882  0.325765  0.750000  1
  Ir  Ir6  1  0.162882  0.837118  0.750000  1
  W  W7  1  0.333333  0.666667  0.250000  1
