# generated using pymatgen
data_TbSmLu(Ga2Ni3)3
_symmetry_space_group_name_H-M   'P 1'
_cell_length_a   8.76492500
_cell_length_b   8.76492463
_cell_length_c   4.10282700
_cell_angle_alpha   90.00000000
_cell_angle_beta   90.00000000
_cell_angle_gamma   120.00000516
_symmetry_Int_Tables_number   1
_chemical_formula_structural   TbSmLu(Ga2Ni3)3
_chemical_formula_sum   'Tb1 Sm1 Lu1 Ga6 Ni9'
_cell_volume   272.96703621
_cell_formula_units_Z   1
loop_
 _symmetry_equiv_pos_site_id
 _symmetry_equiv_pos_as_xyz
  1  'x, y, z'
loop_
 _atom_site_type_symbol
 _atom_site_label
 _atom_site_symmetry_multiplicity
 _atom_site_fract_x
 _atom_site_fract_y
 _atom_site_fract_z
 _atom_site_occupancy
  Tb  Tb0  1  0.666667  0.333333  0.500000  1
  Sm  Sm1  1  0.333333  0.666667  0.500000  1
  Lu  Lu2  1  0.000000  0.000000  0.000000  1
  Ga  Ga3  1  0.267826  0.267349  0.500000  1
  Ga  Ga4  1  0.732651  0.000477  0.500000  1
  Ga  Ga5  1  0.999523  0.732174  0.500000  1
  Ga  Ga6  1  0.519335  0.518407  0.000000  1
  Ga  Ga7  1  0.481593  0.000928  0.000000  1
  Ga  Ga8  1  0.999072  0.480665  0.000000  1
  Ni  Ni9  1  0.803238  0.172603  0.000000  1
  Ni  Ni10  1  0.827397  0.630634  0.000000  1
  Ni  Ni11  1  0.369366  0.196762  0.000000  1
  Ni  Ni12  1  0.171355  0.804114  0.000000  1
  Ni  Ni13  1  0.632758  0.828645  0.000000  1
  Ni  Ni14  1  0.195886  0.367242  0.000000  1
  Ni  Ni15  1  0.708809  0.708273  0.500000  1
  Ni  Ni16  1  0.291727  0.000537  0.500000  1
  Ni  Ni17  1  0.999463  0.291191  0.500000  1
