# generated using pymatgen
data_CaPu3H10
_symmetry_space_group_name_H-M   'P 1'
_cell_length_a   6.47253458
_cell_length_b   6.47253409
_cell_length_c   6.47253519
_cell_angle_alpha   132.46681490
_cell_angle_beta   130.76864041
_cell_angle_gamma   70.84230597
_symmetry_Int_Tables_number   1
_chemical_formula_structural   CaPu3H10
_chemical_formula_sum   'Ca1 Pu3 H10'
_cell_volume   148.37421046
_cell_formula_units_Z   1
loop_
 _symmetry_equiv_pos_site_id
 _symmetry_equiv_pos_as_xyz
  1  'x, y, z'
loop_
 _atom_site_type_symbol
 _atom_site_label
 _atom_site_symmetry_multiplicity
 _atom_site_fract_x
 _atom_site_fract_y
 _atom_site_fract_z
 _atom_site_occupancy
  Ca  Ca0  1  0.508736  0.008736  0.500000  1
  Pu  Pu1  1  0.762909  0.762909  0.000000  1
  Pu  Pu2  1  0.987806  0.487806  0.500000  1
  Pu  Pu3  1  0.236335  0.236335  0.000000  1
  H  H4  1  0.372932  0.407887  0.527616  1
  H  H5  1  0.880271  0.845316  0.472384  1
  H  H6  1  0.598771  0.128274  0.981737  1
  H  H7  1  0.146538  0.617035  0.018263  1
  H  H8  1  0.372932  0.845316  0.965045  1
  H  H9  1  0.880271  0.407887  0.034955  1
  H  H10  1  0.598771  0.617035  0.470497  1
  H  H11  1  0.146538  0.128274  0.529503  1
  H  H12  1  0.758073  0.258073  0.500000  1
  H  H13  1  0.999117  0.999117  0.000000  1
