# generated using pymatgen
data_TbTm2Ni8Ir
_symmetry_space_group_name_H-M   'P 1'
_cell_length_a   4.93153431
_cell_length_b   4.93153654
_cell_length_c   8.71347300
_cell_angle_alpha   73.56165538
_cell_angle_beta   73.56165987
_cell_angle_gamma   60.00000931
_symmetry_Int_Tables_number   1
_chemical_formula_structural   TbTm2Ni8Ir
_chemical_formula_sum   'Tb1 Tm2 Ni8 Ir1'
_cell_volume   173.44718217
_cell_formula_units_Z   1
loop_
 _symmetry_equiv_pos_site_id
 _symmetry_equiv_pos_as_xyz
  1  'x, y, z'
loop_
 _atom_site_type_symbol
 _atom_site_label
 _atom_site_symmetry_multiplicity
 _atom_site_fract_x
 _atom_site_fract_y
 _atom_site_fract_z
 _atom_site_occupancy
  Tb  Tb0  1  0.000000  0.000000  0.000000  1
  Tm  Tm1  1  0.138866  0.138866  0.583404  1
  Tm  Tm2  1  0.861134  0.861134  0.416596  1
  Ni  Ni3  1  0.077709  0.582540  0.757207  1
  Ni  Ni4  1  0.582540  0.582540  0.757207  1
  Ni  Ni5  1  0.582540  0.077709  0.757207  1
  Ni  Ni6  1  0.922291  0.417460  0.242793  1
  Ni  Ni7  1  0.417460  0.417460  0.242793  1
  Ni  Ni8  1  0.417460  0.922291  0.242793  1
  Ni  Ni9  1  0.333300  0.333300  0.000098  1
  Ni  Ni10  1  0.666700  0.666700  0.999902  1
  Ir  Ir11  1  0.500000  0.500000  0.500000  1
