# generated using pymatgen
data_Dy8NiHg2Os
_symmetry_space_group_name_H-M   'P 1'
_cell_length_a   9.54520647
_cell_length_b   9.54520614
_cell_length_c   9.61775800
_cell_angle_alpha   59.74823820
_cell_angle_beta   59.74823934
_cell_angle_gamma   59.67973332
_symmetry_Int_Tables_number   1
_chemical_formula_structural   Dy8NiHg2Os
_chemical_formula_sum   'Dy16 Ni2 Hg4 Os2'
_cell_volume   615.76093341
_cell_formula_units_Z   2
loop_
 _symmetry_equiv_pos_site_id
 _symmetry_equiv_pos_as_xyz
  1  'x, y, z'
loop_
 _atom_site_type_symbol
 _atom_site_label
 _atom_site_symmetry_multiplicity
 _atom_site_fract_x
 _atom_site_fract_y
 _atom_site_fract_z
 _atom_site_occupancy
  Dy  Dy0  1  0.601591  0.601591  0.594448  1
  Dy  Dy1  1  0.601591  0.601591  0.202371  1
  Dy  Dy2  1  0.603245  0.200895  0.597931  1
  Dy  Dy3  1  0.200895  0.603245  0.597931  1
  Dy  Dy4  1  0.060005  0.436835  0.441109  1
  Dy  Dy5  1  0.436835  0.060005  0.062052  1
  Dy  Dy6  1  0.436835  0.060005  0.441109  1
  Dy  Dy7  1  0.060005  0.436835  0.062052  1
  Dy  Dy8  1  0.439145  0.439145  0.060855  1
  Dy  Dy9  1  0.058904  0.058904  0.441096  1
  Dy  Dy10  1  0.189344  0.805867  0.816026  1
  Dy  Dy11  1  0.805867  0.189344  0.188763  1
  Dy  Dy12  1  0.805867  0.189344  0.816026  1
  Dy  Dy13  1  0.189344  0.805867  0.188763  1
  Dy  Dy14  1  0.815286  0.815286  0.184714  1
  Dy  Dy15  1  0.191431  0.191431  0.808569  1
  Ni  Ni16  1  0.393009  0.826189  0.390401  1
  Ni  Ni17  1  0.826189  0.393009  0.390401  1
  Hg  Hg18  1  0.833220  0.833220  0.836250  1
  Hg  Hg19  1  0.833220  0.833220  0.497309  1
  Hg  Hg20  1  0.834157  0.495469  0.835187  1
  Hg  Hg21  1  0.495469  0.834157  0.835187  1
  Os  Os22  1  0.394273  0.394273  0.387742  1
  Os  Os23  1  0.394273  0.394273  0.823712  1
