# generated using pymatgen
data_Ca2FeRe7Si4
_symmetry_space_group_name_H-M   'P 1'
_cell_length_a   7.15391635
_cell_length_b   7.52184900
_cell_length_c   4.16171300
_cell_angle_alpha   90.00000000
_cell_angle_beta   90.00000000
_cell_angle_gamma   90.42245592
_symmetry_Int_Tables_number   1
_chemical_formula_structural   Ca2FeRe7Si4
_chemical_formula_sum   'Ca2 Fe1 Re7 Si4'
_cell_volume   223.93851295
_cell_formula_units_Z   1
loop_
 _symmetry_equiv_pos_site_id
 _symmetry_equiv_pos_as_xyz
  1  'x, y, z'
loop_
 _atom_site_type_symbol
 _atom_site_label
 _atom_site_symmetry_multiplicity
 _atom_site_fract_x
 _atom_site_fract_y
 _atom_site_fract_z
 _atom_site_occupancy
  Ca  Ca0  1  0.998189  0.004713  0.000000  1
  Ca  Ca1  1  0.500328  0.501525  0.500000  1
  Fe  Fe2  1  0.834781  0.391467  0.000000  1
  Re  Re3  1  0.584733  0.160185  0.000000  1
  Re  Re4  1  0.417195  0.838320  0.000000  1
  Re  Re5  1  0.658403  0.893512  0.500000  1
  Re  Re6  1  0.088338  0.341719  0.500000  1
  Re  Re7  1  0.348552  0.108142  0.500000  1
  Re  Re8  1  0.916455  0.652782  0.500000  1
  Re  Re9  1  0.145456  0.603435  0.000000  1
  Si  Si10  1  0.280875  0.306506  0.000000  1
  Si  Si11  1  0.724573  0.687302  0.000000  1
  Si  Si12  1  0.781368  0.204741  0.500000  1
  Si  Si13  1  0.220754  0.805649  0.500000  1
