# generated using pymatgen
data_Dy4YTm11(InRh)4
_symmetry_space_group_name_H-M   'P 1'
_cell_length_a   9.57189958
_cell_length_b   9.57272110
_cell_length_c   9.57469289
_cell_angle_alpha   60.02083422
_cell_angle_beta   59.96116218
_cell_angle_gamma   59.94387368
_symmetry_Int_Tables_number   1
_chemical_formula_structural   Dy4YTm11(InRh)4
_chemical_formula_sum   'Dy4 Y1 Tm11 In4 Rh4'
_cell_volume   620.01122058
_cell_formula_units_Z   1
loop_
 _symmetry_equiv_pos_site_id
 _symmetry_equiv_pos_as_xyz
  1  'x, y, z'
loop_
 _atom_site_type_symbol
 _atom_site_label
 _atom_site_symmetry_multiplicity
 _atom_site_fract_x
 _atom_site_fract_y
 _atom_site_fract_z
 _atom_site_occupancy
  Dy  Dy0  1  0.438247  0.061472  0.438567  1
  Dy  Dy1  1  0.061630  0.437850  0.062252  1
  Dy  Dy2  1  0.050307  0.648715  0.650504  1
  Dy  Dy3  1  0.437275  0.437351  0.062695  1
  Y  Y4  1  0.061723  0.062144  0.438041  1
  Tm  Tm5  1  0.648930  0.049550  0.650745  1
  Tm  Tm6  1  0.189307  0.811723  0.187624  1
  Tm  Tm7  1  0.188574  0.188060  0.811665  1
  Tm  Tm8  1  0.810827  0.811117  0.189023  1
  Tm  Tm9  1  0.439604  0.059924  0.060222  1
  Tm  Tm10  1  0.811359  0.189375  0.188061  1
  Tm  Tm11  1  0.060117  0.439165  0.439846  1
  Tm  Tm12  1  0.811139  0.189489  0.811034  1
  Tm  Tm13  1  0.189210  0.811944  0.811465  1
  Tm  Tm14  1  0.650245  0.650049  0.047566  1
  Tm  Tm15  1  0.650079  0.650222  0.652139  1
  In  In16  1  0.417472  0.417418  0.416616  1
  In  In17  1  0.748501  0.418245  0.417188  1
  In  In18  1  0.418695  0.748561  0.415917  1
  In  In19  1  0.418680  0.416117  0.748682  1
  Rh  Rh20  1  0.857085  0.857861  0.426164  1
  Rh  Rh21  1  0.855974  0.858975  0.858857  1
  Rh  Rh22  1  0.427359  0.858544  0.857632  1
  Rh  Rh23  1  0.857664  0.426131  0.857495  1
