# generated using pymatgen
data_LaCdNiPt3
_symmetry_space_group_name_H-M   'P 1'
_cell_length_a   5.28540718
_cell_length_b   5.28540696
_cell_length_c   5.28540671
_cell_angle_alpha   62.36360274
_cell_angle_beta   62.36359176
_cell_angle_gamma   62.36360757
_symmetry_Int_Tables_number   1
_chemical_formula_structural   LaCdNiPt3
_chemical_formula_sum   'La1 Cd1 Ni1 Pt3'
_cell_volume   109.90972043
_cell_formula_units_Z   1
loop_
 _symmetry_equiv_pos_site_id
 _symmetry_equiv_pos_as_xyz
  1  'x, y, z'
loop_
 _atom_site_type_symbol
 _atom_site_label
 _atom_site_symmetry_multiplicity
 _atom_site_fract_x
 _atom_site_fract_y
 _atom_site_fract_z
 _atom_site_occupancy
  La  La0  1  0.249879  0.249879  0.249879  1
  Cd  Cd1  1  0.996425  0.996425  0.996425  1
  Ni  Ni2  1  0.626768  0.626768  0.626768  1
  Pt  Pt3  1  0.626786  0.626786  0.123357  1
  Pt  Pt4  1  0.626786  0.123357  0.626786  1
  Pt  Pt5  1  0.123357  0.626786  0.626786  1
