# generated using pymatgen
data_Tm3Mn8P6Rh
_symmetry_space_group_name_H-M   'P 1'
_cell_length_a   3.59245300
_cell_length_b   10.99818500
_cell_length_c   12.72986400
_cell_angle_alpha   90.00000000
_cell_angle_beta   90.00000000
_cell_angle_gamma   90.00000000
_symmetry_Int_Tables_number   1
_chemical_formula_structural   Tm3Mn8P6Rh
_chemical_formula_sum   'Tm6 Mn16 P12 Rh2'
_cell_volume   502.96281672
_cell_formula_units_Z   2
loop_
 _symmetry_equiv_pos_site_id
 _symmetry_equiv_pos_as_xyz
  1  'x, y, z'
loop_
 _atom_site_type_symbol
 _atom_site_label
 _atom_site_symmetry_multiplicity
 _atom_site_fract_x
 _atom_site_fract_y
 _atom_site_fract_z
 _atom_site_occupancy
  Tm  Tm0  1  0.000000  0.500000  0.528686  1
  Tm  Tm1  1  0.500000  0.000000  0.471314  1
  Tm  Tm2  1  0.500000  0.819759  0.204863  1
  Tm  Tm3  1  0.500000  0.180241  0.204863  1
  Tm  Tm4  1  0.000000  0.680241  0.795137  1
  Tm  Tm5  1  0.000000  0.319759  0.795137  1
  Mn  Mn6  1  0.500000  0.500000  0.166741  1
  Mn  Mn7  1  0.000000  0.000000  0.833259  1
  Mn  Mn8  1  0.000000  0.500000  0.996804  1
  Mn  Mn9  1  0.500000  0.000000  0.003196  1
  Mn  Mn10  1  0.500000  0.331435  0.997876  1
  Mn  Mn11  1  0.500000  0.668565  0.997876  1
  Mn  Mn12  1  0.000000  0.168565  0.002124  1
  Mn  Mn13  1  0.000000  0.831435  0.002124  1
  Mn  Mn14  1  0.500000  0.300595  0.432736  1
  Mn  Mn15  1  0.500000  0.699405  0.432736  1
  Mn  Mn16  1  0.000000  0.199405  0.567264  1
  Mn  Mn17  1  0.000000  0.800595  0.567264  1
  Mn  Mn18  1  0.500000  0.882150  0.703077  1
  Mn  Mn19  1  0.500000  0.117850  0.703077  1
  Mn  Mn20  1  0.000000  0.617850  0.296923  1
  Mn  Mn21  1  0.000000  0.382150  0.296923  1
  P  P22  1  0.500000  0.500000  0.888139  1
  P  P23  1  0.000000  0.000000  0.111861  1
  P  P24  1  0.500000  0.500000  0.360367  1
  P  P25  1  0.000000  0.000000  0.639633  1
  P  P26  1  0.500000  0.312147  0.616996  1
  P  P27  1  0.500000  0.687853  0.616996  1
  P  P28  1  0.000000  0.187853  0.383004  1
  P  P29  1  0.000000  0.812147  0.383004  1
  P  P30  1  0.500000  0.844422  0.884073  1
  P  P31  1  0.500000  0.155578  0.884073  1
  P  P32  1  0.000000  0.655578  0.115927  1
  P  P33  1  0.000000  0.344422  0.115927  1
  Rh  Rh34  1  0.500000  0.500000  0.706131  1
  Rh  Rh35  1  0.000000  0.000000  0.293869  1
