# generated using pymatgen
data_Dy8Y4Ni5Bi
_symmetry_space_group_name_H-M   'P 1'
_cell_length_a   8.36129249
_cell_length_b   8.36120741
_cell_length_c   8.36129132
_cell_angle_alpha   111.70249126
_cell_angle_beta   109.31818328
_cell_angle_gamma   107.42191937
_symmetry_Int_Tables_number   1
_chemical_formula_structural   Dy8Y4Ni5Bi
_chemical_formula_sum   'Dy8 Y4 Ni5 Bi1'
_cell_volume   449.34623407
_cell_formula_units_Z   1
loop_
 _symmetry_equiv_pos_site_id
 _symmetry_equiv_pos_as_xyz
  1  'x, y, z'
loop_
 _atom_site_type_symbol
 _atom_site_label
 _atom_site_symmetry_multiplicity
 _atom_site_fract_x
 _atom_site_fract_y
 _atom_site_fract_z
 _atom_site_occupancy
  Dy  Dy0  1  0.679379  0.371322  0.691943  1
  Dy  Dy1  1  0.320621  0.628678  0.308057  1
  Dy  Dy2  1  0.679377  0.987405  0.308028  1
  Dy  Dy3  1  0.320623  0.012595  0.691972  1
  Dy  Dy4  1  0.601778  0.794449  0.807304  1
  Dy  Dy5  1  0.398222  0.205551  0.192696  1
  Dy  Dy6  1  0.987145  0.794449  0.192670  1
  Dy  Dy7  1  0.012855  0.205551  0.807330  1
  Y  Y8  1  0.819426  0.704706  0.524136  1
  Y  Y9  1  0.180574  0.295294  0.475864  1
  Y  Y10  1  0.180570  0.704706  0.885279  1
  Y  Y11  1  0.819430  0.295294  0.114721  1
  Ni  Ni12  1  0.632728  0.000000  0.632728  1
  Ni  Ni13  1  0.367272  0.000000  0.367272  1
  Ni  Ni14  1  0.125061  0.625073  0.500012  1
  Ni  Ni15  1  0.874939  0.374927  0.499988  1
  Ni  Ni16  1  0.000000  0.000000  0.000000  1
  Bi  Bi17  1  0.500000  0.500000  0.000000  1
