# generated using pymatgen
data_Lu2NiIr3
_symmetry_space_group_name_H-M   'P 1'
_cell_length_a   5.35226659
_cell_length_b   5.13999972
_cell_length_c   5.35226600
_cell_angle_alpha   58.62424023
_cell_angle_beta   60.00000362
_cell_angle_gamma   58.62423142
_symmetry_Int_Tables_number   1
_chemical_formula_structural   Lu2NiIr3
_chemical_formula_sum   'Lu2 Ni1 Ir3'
_cell_volume   101.89956544
_cell_formula_units_Z   1
loop_
 _symmetry_equiv_pos_site_id
 _symmetry_equiv_pos_as_xyz
  1  'x, y, z'
loop_
 _atom_site_type_symbol
 _atom_site_label
 _atom_site_symmetry_multiplicity
 _atom_site_fract_x
 _atom_site_fract_y
 _atom_site_fract_z
 _atom_site_occupancy
  Lu  Lu0  1  0.750697  0.747909  0.750697  1
  Lu  Lu1  1  0.499303  0.502091  0.499303  1
  Ni  Ni2  1  0.125000  0.625000  0.125000  1
  Ir  Ir3  1  0.125000  0.125000  0.125000  1
  Ir  Ir4  1  0.625000  0.125000  0.125000  1
  Ir  Ir5  1  0.125000  0.125000  0.625000  1
