# generated using pymatgen
data_CdSi6Ag6(SnP4)3
_symmetry_space_group_name_H-M   'P 1'
_cell_length_a   8.97178194
_cell_length_b   9.06013767
_cell_length_c   9.06013880
_cell_angle_alpha   109.66792408
_cell_angle_beta   109.27379099
_cell_angle_gamma   109.27379091
_symmetry_Int_Tables_number   1
_chemical_formula_structural   CdSi6Ag6(SnP4)3
_chemical_formula_sum   'Cd1 Si6 Ag6 Sn3 P12'
_cell_volume   568.30157940
_cell_formula_units_Z   1
loop_
 _symmetry_equiv_pos_site_id
 _symmetry_equiv_pos_as_xyz
  1  'x, y, z'
loop_
 _atom_site_type_symbol
 _atom_site_label
 _atom_site_symmetry_multiplicity
 _atom_site_fract_x
 _atom_site_fract_y
 _atom_site_fract_z
 _atom_site_occupancy
  Cd  Cd0  1  0.401415  0.000000  0.000000  1
  Si  Si1  1  0.751757  0.498078  0.251564  1
  Si  Si2  1  0.500193  0.748436  0.246514  1
  Si  Si3  1  0.751757  0.251564  0.498078  1
  Si  Si4  1  0.253679  0.753486  0.501922  1
  Si  Si5  1  0.500193  0.246514  0.748436  1
  Si  Si6  1  0.253679  0.501922  0.753486  1
  Ag  Ag7  1  0.200543  0.199714  0.000000  1
  Ag  Ag8  1  0.794913  0.796068  0.000000  1
  Ag  Ag9  1  0.200543  0.000000  0.199714  1
  Ag  Ag10  1  0.998845  0.203932  0.203932  1
  Ag  Ag11  1  0.794913  0.000000  0.796068  1
  Ag  Ag12  1  0.000829  0.800286  0.800286  1
  Sn  Sn13  1  0.003578  0.407930  0.000000  1
  Sn  Sn14  1  0.003578  0.000000  0.407930  1
  Sn  Sn15  1  0.595648  0.592070  0.592070  1
  P  P16  1  0.753374  0.496150  0.000000  1
  P  P17  1  0.497260  0.753920  0.000000  1
  P  P18  1  0.743340  0.246080  0.246080  1
  P  P19  1  0.245958  0.745527  0.246296  1
  P  P20  1  0.500431  0.500768  0.254473  1
  P  P21  1  0.500431  0.254473  0.500768  1
  P  P22  1  0.257224  0.503850  0.503850  1
  P  P23  1  0.753374  0.000000  0.496150  1
  P  P24  1  0.999663  0.753704  0.499232  1
  P  P25  1  0.245958  0.246296  0.745527  1
  P  P26  1  0.497260  0.000000  0.753920  1
  P  P27  1  0.999663  0.499232  0.753704  1
