# generated using pymatgen
data_Zr6ZnFeTe
_symmetry_space_group_name_H-M   'P 1'
_cell_length_a   7.81997800
_cell_length_b   7.81997798
_cell_length_c   3.51734500
_cell_angle_alpha   90.00000000
_cell_angle_beta   90.00000000
_cell_angle_gamma   120.00000856
_symmetry_Int_Tables_number   1
_chemical_formula_structural   Zr6ZnFeTe
_chemical_formula_sum   'Zr6 Zn1 Fe1 Te1'
_cell_volume   186.27587999
_cell_formula_units_Z   1
loop_
 _symmetry_equiv_pos_site_id
 _symmetry_equiv_pos_as_xyz
  1  'x, y, z'
loop_
 _atom_site_type_symbol
 _atom_site_label
 _atom_site_symmetry_multiplicity
 _atom_site_fract_x
 _atom_site_fract_y
 _atom_site_fract_z
 _atom_site_occupancy
  Zr  Zr0  1  0.760120  0.752412  0.500000  1
  Zr  Zr1  1  0.995228  0.595201  0.000000  1
  Zr  Zr2  1  0.247588  0.007708  0.500000  1
  Zr  Zr3  1  0.992292  0.239880  0.500000  1
  Zr  Zr4  1  0.599973  0.004772  0.000000  1
  Zr  Zr5  1  0.404799  0.400027  0.000000  1
  Zn  Zn6  1  0.666667  0.333333  0.500000  1
  Fe  Fe7  1  0.000000  0.000000  0.000000  1
  Te  Te8  1  0.333333  0.666667  0.500000  1
