# generated using pymatgen
data_Ba3CoPtO6
_symmetry_space_group_name_H-M   'P 1'
_cell_length_a   7.06485560
_cell_length_b   7.06378422
_cell_length_c   7.07444872
_cell_angle_alpha   92.67485778
_cell_angle_beta   92.64980792
_cell_angle_gamma   92.64817753
_symmetry_Int_Tables_number   1
_chemical_formula_structural   Ba3CoPtO6
_chemical_formula_sum   'Ba6 Co2 Pt2 O12'
_cell_volume   351.87191887
_cell_formula_units_Z   2
loop_
 _symmetry_equiv_pos_site_id
 _symmetry_equiv_pos_as_xyz
  1  'x, y, z'
loop_
 _atom_site_type_symbol
 _atom_site_label
 _atom_site_symmetry_multiplicity
 _atom_site_fract_x
 _atom_site_fract_y
 _atom_site_fract_z
 _atom_site_occupancy
  Ba  Ba0  1  0.388206  0.749938  0.112027  1
  Ba  Ba1  1  0.887852  0.612025  0.251332  1
  Ba  Ba2  1  0.748654  0.111384  0.388540  1
  Ba  Ba3  1  0.250101  0.888112  0.612106  1
  Ba  Ba4  1  0.112030  0.387829  0.751391  1
  Ba  Ba5  1  0.611391  0.248550  0.888538  1
  Co  Co6  1  0.247007  0.249192  0.253764  1
  Co  Co7  1  0.749697  0.746668  0.753591  1
  Pt  Pt8  1  0.000055  0.000702  0.999252  1
  Pt  Pt9  1  0.500624  0.500155  0.499209  1
  O  O10  1  0.723113  0.901998  0.030332  1
  O  O11  1  0.969400  0.277305  0.097717  1
  O  O12  1  0.532109  0.401845  0.223195  1
  O  O13  1  0.100062  0.971331  0.276105  1
  O  O14  1  0.223711  0.529112  0.399911  1
  O  O15  1  0.598320  0.776694  0.467788  1
  O  O16  1  0.401908  0.223135  0.530196  1
  O  O17  1  0.777220  0.469740  0.597849  1
  O  O18  1  0.901740  0.031995  0.723266  1
  O  O19  1  0.471138  0.600135  0.776072  1
  O  O20  1  0.029047  0.723687  0.899902  1
  O  O21  1  0.276617  0.098468  0.967921  1
