# generated using pymatgen
data_SrZn10Cu
_symmetry_space_group_name_H-M   'P 1'
_cell_length_a   6.82214612
_cell_length_b   8.32636539
_cell_length_c   8.33714481
_cell_angle_alpha   99.69232156
_cell_angle_beta   65.84907595
_cell_angle_gamma   114.29840968
_symmetry_Int_Tables_number   1
_chemical_formula_structural   SrZn10Cu
_chemical_formula_sum   'Sr2 Zn20 Cu2'
_cell_volume   393.84821071
_cell_formula_units_Z   2
loop_
 _symmetry_equiv_pos_site_id
 _symmetry_equiv_pos_as_xyz
  1  'x, y, z'
loop_
 _atom_site_type_symbol
 _atom_site_label
 _atom_site_symmetry_multiplicity
 _atom_site_fract_x
 _atom_site_fract_y
 _atom_site_fract_z
 _atom_site_occupancy
  Sr  Sr0  1  0.124717  0.750023  0.250651  1
  Sr  Sr1  1  0.875369  0.250023  0.749349  1
  Zn  Zn2  1  0.361098  0.169399  0.075935  1
  Zn  Zn3  1  0.062990  0.330613  0.075922  1
  Zn  Zn4  1  0.696775  0.420870  0.161284  1
  Zn  Zn5  1  0.641948  0.079131  0.161276  1
  Zn  Zn6  1  0.630210  0.750003  0.239575  1
  Zn  Zn7  1  0.232172  0.425332  0.326828  1
  Zn  Zn8  1  0.940936  0.074651  0.326862  1
  Zn  Zn9  1  0.778164  0.335556  0.421106  1
  Zn  Zn10  1  0.300678  0.164407  0.421107  1
  Zn  Zn11  1  0.499959  0.999975  0.500000  1
  Zn  Zn12  1  0.499960  0.499975  0.500000  1
  Zn  Zn13  1  0.221786  0.664407  0.578893  1
  Zn  Zn14  1  0.699269  0.835556  0.578895  1
  Zn  Zn15  1  0.767798  0.574651  0.673138  1
  Zn  Zn16  1  0.059000  0.925331  0.673172  1
  Zn  Zn17  1  0.369785  0.250003  0.760425  1
  Zn  Zn18  1  0.303224  0.579132  0.838724  1
  Zn  Zn19  1  0.358059  0.920870  0.838716  1
  Zn  Zn20  1  0.937033  0.669399  0.924064  1
  Zn  Zn21  1  0.638910  0.830613  0.924078  1
  Cu  Cu22  1  0.000075  0.000041  0.000006  1
  Cu  Cu23  1  0.500082  0.500041  0.999994  1
