# generated using pymatgen
data_Cs8Na4PrNd3Sb8
_symmetry_space_group_name_H-M   'P 1'
_cell_length_a   11.78821916
_cell_length_b   11.78821795
_cell_length_c   7.69677436
_cell_angle_alpha   89.94337883
_cell_angle_beta   90.05662005
_cell_angle_gamma   98.89488110
_symmetry_Int_Tables_number   1
_chemical_formula_structural   Cs8Na4PrNd3Sb8
_chemical_formula_sum   'Cs8 Na4 Pr1 Nd3 Sb8'
_cell_volume   1056.69614294
_cell_formula_units_Z   1
loop_
 _symmetry_equiv_pos_site_id
 _symmetry_equiv_pos_as_xyz
  1  'x, y, z'
loop_
 _atom_site_type_symbol
 _atom_site_label
 _atom_site_symmetry_multiplicity
 _atom_site_fract_x
 _atom_site_fract_y
 _atom_site_fract_z
 _atom_site_occupancy
  Cs  Cs0  1  0.068550  0.431683  0.250175  1
  Cs  Cs1  1  0.431683  0.068550  0.749825  1
  Cs  Cs2  1  0.930353  0.568970  0.749775  1
  Cs  Cs3  1  0.568970  0.930353  0.250225  1
  Cs  Cs4  1  0.678271  0.322332  0.213302  1
  Cs  Cs5  1  0.821736  0.178121  0.712759  1
  Cs  Cs6  1  0.322332  0.678271  0.786698  1
  Cs  Cs7  1  0.178121  0.821736  0.287241  1
  Na  Na8  1  0.382368  0.382368  0.000000  1
  Na  Na9  1  0.117903  0.117903  0.500000  1
  Na  Na10  1  0.617719  0.617719  0.000000  1
  Na  Na11  1  0.882197  0.882197  0.500000  1
  Pr  Pr12  1  0.632594  0.632594  0.500000  1
  Nd  Nd13  1  0.132683  0.132683  0.000000  1
  Nd  Nd14  1  0.367302  0.367302  0.500000  1
  Nd  Nd15  1  0.867567  0.867567  0.000000  1
  Sb  Sb16  1  0.846607  0.654172  0.248921  1
  Sb  Sb17  1  0.654172  0.846607  0.751079  1
  Sb  Sb18  1  0.154567  0.345924  0.749853  1
  Sb  Sb19  1  0.345924  0.154567  0.250147  1
  Sb  Sb20  1  0.903434  0.096309  0.215038  1
  Sb  Sb21  1  0.596360  0.402279  0.716998  1
  Sb  Sb22  1  0.096309  0.903434  0.784962  1
  Sb  Sb23  1  0.402279  0.596360  0.283002  1
