# generated using pymatgen
data_Nd2Y5Ho(Si3Rh)4
_symmetry_space_group_name_H-M   'P 1'
_cell_length_a   8.20523940
_cell_length_b   8.20523980
_cell_length_c   8.04581900
_cell_angle_alpha   90.00000000
_cell_angle_beta   90.00000000
_cell_angle_gamma   119.96427257
_symmetry_Int_Tables_number   1
_chemical_formula_structural   Nd2Y5Ho(Si3Rh)4
_chemical_formula_sum   'Nd2 Y5 Ho1 Si12 Rh4'
_cell_volume   469.28823206
_cell_formula_units_Z   1
loop_
 _symmetry_equiv_pos_site_id
 _symmetry_equiv_pos_as_xyz
  1  'x, y, z'
loop_
 _atom_site_type_symbol
 _atom_site_label
 _atom_site_symmetry_multiplicity
 _atom_site_fract_x
 _atom_site_fract_y
 _atom_site_fract_z
 _atom_site_occupancy
  Nd  Nd0  1  0.000026  0.999974  0.250000  1
  Nd  Nd1  1  0.000009  0.999991  0.750000  1
  Y  Y2  1  0.508390  0.016925  0.250000  1
  Y  Y3  1  0.983075  0.491610  0.250000  1
  Y  Y4  1  0.491594  0.508406  0.750000  1
  Y  Y5  1  0.491581  0.983195  0.750000  1
  Y  Y6  1  0.016805  0.508419  0.750000  1
  Ho  Ho7  1  0.508076  0.491924  0.250000  1
  Si  Si8  1  0.168277  0.831723  0.501014  1
  Si  Si9  1  0.168368  0.336460  0.500732  1
  Si  Si10  1  0.663540  0.831632  0.500732  1
  Si  Si11  1  0.831804  0.168196  0.498922  1
  Si  Si12  1  0.831553  0.663498  0.498445  1
  Si  Si13  1  0.336502  0.168447  0.498445  1
  Si  Si14  1  0.831804  0.168196  0.001078  1
  Si  Si15  1  0.831553  0.663498  0.001555  1
  Si  Si16  1  0.336502  0.168447  0.001555  1
  Si  Si17  1  0.168277  0.831723  0.998986  1
  Si  Si18  1  0.168368  0.336460  0.999268  1
  Si  Si19  1  0.663540  0.831632  0.999268  1
  Rh  Rh20  1  0.333758  0.666242  0.465842  1
  Rh  Rh21  1  0.666420  0.333580  0.532573  1
  Rh  Rh22  1  0.666420  0.333580  0.967427  1
  Rh  Rh23  1  0.333758  0.666242  0.034158  1
