# generated using pymatgen
data_PrIn2I5
_symmetry_space_group_name_H-M   'P 1'
_cell_length_a   9.21700600
_cell_length_b   9.83988200
_cell_length_c   14.44595900
_cell_angle_alpha   90.00000000
_cell_angle_beta   90.00000000
_cell_angle_gamma   90.00000000
_symmetry_Int_Tables_number   1
_chemical_formula_structural   PrIn2I5
_chemical_formula_sum   'Pr4 In8 I20'
_cell_volume   1310.16543774
_cell_formula_units_Z   4
loop_
 _symmetry_equiv_pos_site_id
 _symmetry_equiv_pos_as_xyz
  1  'x, y, z'
loop_
 _atom_site_type_symbol
 _atom_site_label
 _atom_site_symmetry_multiplicity
 _atom_site_fract_x
 _atom_site_fract_y
 _atom_site_fract_z
 _atom_site_occupancy
  Pr  Pr0  1  0.921006  0.750000  0.505799  1
  Pr  Pr1  1  0.078994  0.250000  0.494201  1
  Pr  Pr2  1  0.421006  0.250000  0.994201  1
  Pr  Pr3  1  0.578994  0.750000  0.005799  1
  In  In4  1  0.951038  0.004726  0.827157  1
  In  In5  1  0.048962  0.995274  0.172843  1
  In  In6  1  0.451038  0.995274  0.672843  1
  In  In7  1  0.048962  0.504726  0.172843  1
  In  In8  1  0.548962  0.004726  0.327157  1
  In  In9  1  0.951038  0.495274  0.827157  1
  In  In10  1  0.548962  0.495274  0.327157  1
  In  In11  1  0.451038  0.504726  0.672843  1
  I  I12  1  0.129066  0.750000  0.684699  1
  I  I13  1  0.870934  0.250000  0.315301  1
  I  I14  1  0.629066  0.250000  0.815301  1
  I  I15  1  0.370934  0.750000  0.184699  1
  I  I16  1  0.830661  0.045439  0.580001  1
  I  I17  1  0.169339  0.954561  0.419999  1
  I  I18  1  0.330661  0.954561  0.919999  1
  I  I19  1  0.169339  0.545439  0.419999  1
  I  I20  1  0.669339  0.045439  0.080001  1
  I  I21  1  0.830661  0.454561  0.580001  1
  I  I22  1  0.669339  0.454561  0.080001  1
  I  I23  1  0.330661  0.545439  0.919999  1
  I  I24  1  0.567183  0.750000  0.506002  1
  I  I25  1  0.432817  0.250000  0.493998  1
  I  I26  1  0.067183  0.250000  0.993998  1
  I  I27  1  0.932817  0.750000  0.006002  1
  I  I28  1  0.665236  0.750000  0.791013  1
  I  I29  1  0.334764  0.250000  0.208987  1
  I  I30  1  0.165236  0.250000  0.708987  1
  I  I31  1  0.834764  0.750000  0.291013  1
