# generated using pymatgen
data_Zr3Ga2IrN
_symmetry_space_group_name_H-M   'P 1'
_cell_length_a   8.62606798
_cell_length_b   8.62606898
_cell_length_c   8.62606900
_cell_angle_alpha   60.00000377
_cell_angle_beta   59.99999992
_cell_angle_gamma   59.99999937
_symmetry_Int_Tables_number   1
_chemical_formula_structural   Zr3Ga2IrN
_chemical_formula_sum   'Zr12 Ga8 Ir4 N4'
_cell_volume   453.86191714
_cell_formula_units_Z   4
loop_
 _symmetry_equiv_pos_site_id
 _symmetry_equiv_pos_as_xyz
  1  'x, y, z'
loop_
 _atom_site_type_symbol
 _atom_site_label
 _atom_site_symmetry_multiplicity
 _atom_site_fract_x
 _atom_site_fract_y
 _atom_site_fract_z
 _atom_site_occupancy
  Zr  Zr0  1  0.806396  0.193604  0.193604  1
  Zr  Zr1  1  0.193604  0.806396  0.193604  1
  Zr  Zr2  1  0.806396  0.806396  0.193604  1
  Zr  Zr3  1  0.193604  0.806396  0.806396  1
  Zr  Zr4  1  0.806396  0.193604  0.806396  1
  Zr  Zr5  1  0.193604  0.193604  0.806396  1
  Zr  Zr6  1  0.443604  0.056396  0.056396  1
  Zr  Zr7  1  0.056396  0.443604  0.056396  1
  Zr  Zr8  1  0.443604  0.443604  0.056396  1
  Zr  Zr9  1  0.056396  0.443604  0.443604  1
  Zr  Zr10  1  0.443604  0.056396  0.443604  1
  Zr  Zr11  1  0.056396  0.056396  0.443604  1
  Ga  Ga12  1  0.416983  0.416983  0.749050  1
  Ga  Ga13  1  0.416983  0.416983  0.416983  1
  Ga  Ga14  1  0.749050  0.416983  0.416983  1
  Ga  Ga15  1  0.416983  0.749050  0.416983  1
  Ga  Ga16  1  0.833017  0.833017  0.500950  1
  Ga  Ga17  1  0.833017  0.833017  0.833017  1
  Ga  Ga18  1  0.500950  0.833017  0.833017  1
  Ga  Ga19  1  0.833017  0.500950  0.833017  1
  Ir  Ir20  1  0.625000  0.625000  0.125000  1
  Ir  Ir21  1  0.625000  0.625000  0.625000  1
  Ir  Ir22  1  0.125000  0.625000  0.625000  1
  Ir  Ir23  1  0.625000  0.125000  0.625000  1
  N  N24  1  0.125000  0.125000  0.625000  1
  N  N25  1  0.125000  0.125000  0.125000  1
  N  N26  1  0.625000  0.125000  0.125000  1
  N  N27  1  0.125000  0.625000  0.125000  1
