# generated using pymatgen
data_Nd7Sm3(Sn5Rh2)4
_symmetry_space_group_name_H-M   'P 1'
_cell_length_a   14.22711120
_cell_length_b   14.22712120
_cell_length_c   4.61640400
_cell_angle_alpha   90.00000000
_cell_angle_beta   90.00000000
_cell_angle_gamma   89.98093512
_symmetry_Int_Tables_number   1
_chemical_formula_structural   Nd7Sm3(Sn5Rh2)4
_chemical_formula_sum   'Nd7 Sm3 Sn20 Rh8'
_cell_volume   934.41013790
_cell_formula_units_Z   1
loop_
 _symmetry_equiv_pos_site_id
 _symmetry_equiv_pos_as_xyz
  1  'x, y, z'
loop_
 _atom_site_type_symbol
 _atom_site_label
 _atom_site_symmetry_multiplicity
 _atom_site_fract_x
 _atom_site_fract_y
 _atom_site_fract_z
 _atom_site_occupancy
  Nd  Nd0  1  0.500018  0.499977  0.000000  1
  Nd  Nd1  1  0.000025  0.999983  0.000000  1
  Nd  Nd2  1  0.822067  0.677935  0.500000  1
  Nd  Nd3  1  0.888435  0.388370  0.500000  1
  Nd  Nd4  1  0.111631  0.611563  0.500000  1
  Nd  Nd5  1  0.388472  0.111526  0.500000  1
  Nd  Nd6  1  0.611497  0.888502  0.500000  1
  Sm  Sm7  1  0.677749  0.177696  0.500000  1
  Sm  Sm8  1  0.322305  0.822251  0.500000  1
  Sm  Sm9  1  0.177746  0.322254  0.500000  1
  Sn  Sn10  1  0.569750  0.069765  0.000000  1
  Sn  Sn11  1  0.430235  0.930250  0.000000  1
  Sn  Sn12  1  0.069803  0.430196  0.000000  1
  Sn  Sn13  1  0.930586  0.569414  0.000000  1
  Sn  Sn14  1  0.653714  0.698097  0.000000  1
  Sn  Sn15  1  0.345939  0.301956  0.000000  1
  Sn  Sn16  1  0.154110  0.801971  0.000000  1
  Sn  Sn17  1  0.845908  0.198039  0.000000  1
  Sn  Sn18  1  0.301961  0.654093  0.000000  1
  Sn  Sn19  1  0.698028  0.345890  0.000000  1
  Sn  Sn20  1  0.198045  0.154062  0.000000  1
  Sn  Sn21  1  0.801902  0.846287  0.000000  1
  Sn  Sn22  1  0.663257  0.505062  0.500000  1
  Sn  Sn23  1  0.336561  0.494721  0.500000  1
  Sn  Sn24  1  0.163385  0.994712  0.500000  1
  Sn  Sn25  1  0.836537  0.005217  0.500000  1
  Sn  Sn26  1  0.494783  0.663463  0.500000  1
  Sn  Sn27  1  0.505288  0.336614  0.500000  1
  Sn  Sn28  1  0.005280  0.163440  0.500000  1
  Sn  Sn29  1  0.994937  0.836742  0.500000  1
  Rh  Rh30  1  0.746460  0.527923  0.000000  1
  Rh  Rh31  1  0.253352  0.471712  0.000000  1
  Rh  Rh32  1  0.246638  0.971747  0.000000  1
  Rh  Rh33  1  0.753337  0.028370  0.000000  1
  Rh  Rh34  1  0.471640  0.746660  0.000000  1
  Rh  Rh35  1  0.528258  0.253360  0.000000  1
  Rh  Rh36  1  0.028286  0.246647  0.000000  1
  Rh  Rh37  1  0.972073  0.753532  0.000000  1
