# generated using pymatgen
data_Ho6Ga4Si5Sn
_symmetry_space_group_name_H-M   'P 1'
_cell_length_a   5.98143925
_cell_length_b   5.94506675
_cell_length_c   9.50950900
_cell_angle_alpha   90.00000000
_cell_angle_beta   90.00000000
_cell_angle_gamma   103.06604157
_symmetry_Int_Tables_number   1
_chemical_formula_structural   Ho6Ga4Si5Sn
_chemical_formula_sum   'Ho6 Ga4 Si5 Sn1'
_cell_volume   329.40378437
_cell_formula_units_Z   1
loop_
 _symmetry_equiv_pos_site_id
 _symmetry_equiv_pos_as_xyz
  1  'x, y, z'
loop_
 _atom_site_type_symbol
 _atom_site_label
 _atom_site_symmetry_multiplicity
 _atom_site_fract_x
 _atom_site_fract_y
 _atom_site_fract_z
 _atom_site_occupancy
  Ho  Ho0  1  0.647417  0.672905  0.250000  1
  Ho  Ho1  1  0.337108  0.335249  0.750000  1
  Ho  Ho2  1  0.801183  0.192309  0.996762  1
  Ho  Ho3  1  0.201628  0.808598  0.982786  1
  Ho  Ho4  1  0.201628  0.808598  0.517214  1
  Ho  Ho5  1  0.801183  0.192309  0.503238  1
  Ga  Ga6  1  0.330488  0.316390  0.048718  1
  Ga  Ga7  1  0.676942  0.676484  0.946760  1
  Ga  Ga8  1  0.676942  0.676484  0.553240  1
  Ga  Ga9  1  0.330488  0.316390  0.451282  1
  Si  Si10  1  0.902682  0.511450  0.750000  1
  Si  Si11  1  0.485044  0.103160  0.250000  1
  Si  Si12  1  0.520813  0.905139  0.750000  1
  Si  Si13  1  0.059030  0.033651  0.250000  1
  Si  Si14  1  0.941483  0.945015  0.750000  1
  Sn  Sn15  1  0.085941  0.505868  0.250000  1
