# generated using pymatgen
data_Dy3Y3Al24Os5Pt3
_symmetry_space_group_name_H-M   'P 1'
_cell_length_a   8.82382072
_cell_length_b   8.84432117
_cell_length_c   9.57188401
_cell_angle_alpha   90.13445640
_cell_angle_beta   89.75871666
_cell_angle_gamma   119.50098954
_symmetry_Int_Tables_number   1
_chemical_formula_structural   Dy3Y3Al24Os5Pt3
_chemical_formula_sum   'Dy3 Y3 Al24 Os5 Pt3'
_cell_volume   650.14056978
_cell_formula_units_Z   1
loop_
 _symmetry_equiv_pos_site_id
 _symmetry_equiv_pos_as_xyz
  1  'x, y, z'
loop_
 _atom_site_type_symbol
 _atom_site_label
 _atom_site_symmetry_multiplicity
 _atom_site_fract_x
 _atom_site_fract_y
 _atom_site_fract_z
 _atom_site_occupancy
  Dy  Dy0  1  0.386108  0.186020  0.747819  1
  Dy  Dy1  1  0.194721  0.809270  0.251391  1
  Dy  Dy2  1  0.805085  0.190691  0.748602  1
  Y  Y3  1  0.187748  0.383086  0.250787  1
  Y  Y4  1  0.812209  0.616864  0.749203  1
  Y  Y5  1  0.614130  0.813759  0.252112  1
  Al  Al6  1  0.335305  0.671375  0.028884  1
  Al  Al7  1  0.664657  0.328698  0.971029  1
  Al  Al8  1  0.669179  0.331270  0.527396  1
  Al  Al9  1  0.330823  0.668812  0.472673  1
  Al  Al10  1  0.158157  0.325562  0.575184  1
  Al  Al11  1  0.841872  0.674364  0.424921  1
  Al  Al12  1  0.673265  0.840747  0.575578  1
  Al  Al13  1  0.837005  0.676078  0.078004  1
  Al  Al14  1  0.326698  0.159277  0.424563  1
  Al  Al15  1  0.163072  0.323808  0.921872  1
  Al  Al16  1  0.163915  0.835124  0.575954  1
  Al  Al17  1  0.325682  0.158747  0.076133  1
  Al  Al18  1  0.836072  0.164969  0.424165  1
  Al  Al19  1  0.674297  0.841281  0.923724  1
  Al  Al20  1  0.831682  0.159291  0.077331  1
  Al  Al21  1  0.168303  0.840810  0.922550  1
  Al  Al22  1  0.560543  0.124521  0.249825  1
  Al  Al23  1  0.439354  0.875384  0.750205  1
  Al  Al24  1  0.874120  0.437990  0.252729  1
  Al  Al25  1  0.125855  0.561999  0.747248  1
  Al  Al26  1  0.562711  0.436521  0.249759  1
  Al  Al27  1  0.437245  0.563348  0.750260  1
  Al  Al28  1  0.998934  0.002355  0.250219  1
  Al  Al29  1  0.001597  0.997893  0.749791  1
  Os  Os30  1  0.499936  0.000111  0.999845  1
  Os  Os31  1  0.499922  0.000146  0.500200  1
  Os  Os32  1  0.000001  0.499998  0.500012  1
  Os  Os33  1  0.999920  0.999961  0.000029  1
  Os  Os34  1  0.999914  0.999968  0.499988  1
  Pt  Pt35  1  0.999999  0.499989  0.999980  1
  Pt  Pt36  1  0.499985  0.499970  0.999978  1
  Pt  Pt37  1  0.499977  0.499948  0.500056  1
