# generated using pymatgen
data_DyEr4SnSb2
_symmetry_space_group_name_H-M   'P 1'
_cell_length_a   8.91020728
_cell_length_b   8.86928309
_cell_length_c   6.36453800
_cell_angle_alpha   90.00000000
_cell_angle_beta   90.00000000
_cell_angle_gamma   119.84817511
_symmetry_Int_Tables_number   1
_chemical_formula_structural   DyEr4SnSb2
_chemical_formula_sum   'Dy2 Er8 Sn2 Sb4'
_cell_volume   436.25079438
_cell_formula_units_Z   2
loop_
 _symmetry_equiv_pos_site_id
 _symmetry_equiv_pos_as_xyz
  1  'x, y, z'
loop_
 _atom_site_type_symbol
 _atom_site_label
 _atom_site_symmetry_multiplicity
 _atom_site_fract_x
 _atom_site_fract_y
 _atom_site_fract_z
 _atom_site_occupancy
  Dy  Dy0  1  0.000819  0.757954  0.750000  1
  Dy  Dy1  1  0.000819  0.242866  0.250000  1
  Er  Er2  1  0.755615  0.756470  0.250000  1
  Er  Er3  1  0.755615  0.999145  0.750000  1
  Er  Er4  1  0.243730  0.242134  0.750000  1
  Er  Er5  1  0.243730  0.001596  0.250000  1
  Er  Er6  1  0.333587  0.666794  0.500000  1
  Er  Er7  1  0.665437  0.332718  0.000000  1
  Er  Er8  1  0.665437  0.332718  0.500000  1
  Er  Er9  1  0.333587  0.666794  0.000000  1
  Sn  Sn10  1  0.392732  0.999599  0.750000  1
  Sn  Sn11  1  0.392732  0.393133  0.250000  1
  Sb  Sb12  1  0.999371  0.609605  0.250000  1
  Sb  Sb13  1  0.999371  0.389767  0.750000  1
  Sb  Sb14  1  0.608707  0.609082  0.750000  1
  Sb  Sb15  1  0.608707  0.999625  0.250000  1
