# generated using pymatgen
data_Y4Sc4B24Ir3Rh
_symmetry_space_group_name_H-M   'P 1'
_cell_length_a   3.55439000
_cell_length_b   9.02027522
_cell_length_c   11.39219234
_cell_angle_alpha   89.97596169
_cell_angle_beta   90.00000000
_cell_angle_gamma   90.00000000
_symmetry_Int_Tables_number   1
_chemical_formula_structural   Y4Sc4B24Ir3Rh
_chemical_formula_sum   'Y4 Sc4 B24 Ir3 Rh1'
_cell_volume   365.25160903
_cell_formula_units_Z   1
loop_
 _symmetry_equiv_pos_site_id
 _symmetry_equiv_pos_as_xyz
  1  'x, y, z'
loop_
 _atom_site_type_symbol
 _atom_site_label
 _atom_site_symmetry_multiplicity
 _atom_site_fract_x
 _atom_site_fract_y
 _atom_site_fract_z
 _atom_site_occupancy
  Y  Y0  1  0.500000  0.319248  0.413598  1
  Y  Y1  1  0.500000  0.680419  0.585702  1
  Y  Y2  1  0.500000  0.180178  0.914771  1
  Y  Y3  1  0.500000  0.820382  0.086055  1
  Sc  Sc4  1  0.500000  0.444476  0.124622  1
  Sc  Sc5  1  0.500000  0.555420  0.875814  1
  Sc  Sc6  1  0.500000  0.055278  0.624250  1
  Sc  Sc7  1  0.500000  0.944731  0.375236  1
  B  B8  1  0.000000  0.099887  0.472860  1
  B  B9  1  0.000000  0.900137  0.526862  1
  B  B10  1  0.000000  0.400013  0.973170  1
  B  B11  1  0.000000  0.600097  0.027054  1
  B  B12  1  0.000000  0.129238  0.318411  1
  B  B13  1  0.000000  0.870678  0.681434  1
  B  B14  1  0.000000  0.370811  0.818676  1
  B  B15  1  0.000000  0.629374  0.181697  1
  B  B16  1  0.000000  0.054488  0.065937  1
  B  B17  1  0.000000  0.945569  0.934186  1
  B  B18  1  0.000000  0.445097  0.565813  1
  B  B19  1  0.000000  0.554522  0.433932  1
  B  B20  1  0.000000  0.481068  0.284911  1
  B  B21  1  0.000000  0.518578  0.715029  1
  B  B22  1  0.000000  0.018628  0.785030  1
  B  B23  1  0.000000  0.981417  0.214870  1
  B  B24  1  0.000000  0.253741  0.080756  1
  B  B25  1  0.000000  0.746346  0.919429  1
  B  B26  1  0.000000  0.245881  0.580493  1
  B  B27  1  0.000000  0.753925  0.419424  1
  B  B28  1  0.000000  0.295272  0.235534  1
  B  B29  1  0.000000  0.704846  0.764435  1
  B  B30  1  0.000000  0.204872  0.735401  1
  B  B31  1  0.000000  0.795484  0.264593  1
  Ir  Ir32  1  0.500000  0.858566  0.817839  1
  Ir  Ir33  1  0.500000  0.359141  0.681585  1
  Ir  Ir34  1  0.500000  0.640953  0.318677  1
  Rh  Rh35  1  0.500000  0.141243  0.181913  1
