# generated using pymatgen
data_Ce2FeP4Rh3
_symmetry_space_group_name_H-M   'P 1'
_cell_length_a   4.10556300
_cell_length_b   4.10556300
_cell_length_c   9.43268500
_cell_angle_alpha   90.00000000
_cell_angle_beta   90.00000000
_cell_angle_gamma   90.00000000
_symmetry_Int_Tables_number   1
_chemical_formula_structural   Ce2FeP4Rh3
_chemical_formula_sum   'Ce2 Fe1 P4 Rh3'
_cell_volume   158.99401378
_cell_formula_units_Z   1
loop_
 _symmetry_equiv_pos_site_id
 _symmetry_equiv_pos_as_xyz
  1  'x, y, z'
loop_
 _atom_site_type_symbol
 _atom_site_label
 _atom_site_symmetry_multiplicity
 _atom_site_fract_x
 _atom_site_fract_y
 _atom_site_fract_z
 _atom_site_occupancy
  Ce  Ce0  1  0.500000  0.000000  0.740411  1
  Ce  Ce1  1  0.000000  0.500000  0.260880  1
  Fe  Fe2  1  0.000000  0.500000  0.611560  1
  P  P3  1  0.500000  0.500000  0.509738  1
  P  P4  1  0.500000  0.000000  0.138256  1
  P  P5  1  0.000000  0.000000  0.509738  1
  P  P6  1  0.000000  0.500000  0.846704  1
  Rh  Rh7  1  0.500000  0.000000  0.388638  1
  Rh  Rh8  1  0.000000  0.000000  0.997037  1
  Rh  Rh9  1  0.500000  0.500000  0.997037  1
