# generated using pymatgen
data_CeCo5CuSi4
_symmetry_space_group_name_H-M   'P 1'
_cell_length_a   6.66636582
_cell_length_b   6.66636523
_cell_length_c   3.65282300
_cell_angle_alpha   90.00000000
_cell_angle_beta   90.00000000
_cell_angle_gamma   120.68991379
_symmetry_Int_Tables_number   1
_chemical_formula_structural   CeCo5CuSi4
_chemical_formula_sum   'Ce1 Co5 Cu1 Si4'
_cell_volume   139.59700539
_cell_formula_units_Z   1
loop_
 _symmetry_equiv_pos_site_id
 _symmetry_equiv_pos_as_xyz
  1  'x, y, z'
loop_
 _atom_site_type_symbol
 _atom_site_label
 _atom_site_symmetry_multiplicity
 _atom_site_fract_x
 _atom_site_fract_y
 _atom_site_fract_z
 _atom_site_occupancy
  Ce  Ce0  1  0.008263  0.991737  0.000000  1
  Co  Co1  1  0.463933  0.536067  0.000000  1
  Co  Co2  1  0.465093  0.933217  0.000000  1
  Co  Co3  1  0.066783  0.534907  0.000000  1
  Co  Co4  1  0.796221  0.593828  0.500000  1
  Co  Co5  1  0.406172  0.203779  0.500000  1
  Cu  Cu6  1  0.794669  0.205331  0.500000  1
  Si  Si7  1  0.659923  0.340077  0.000000  1
  Si  Si8  1  0.203253  0.796747  0.500000  1
  Si  Si9  1  0.206623  0.404268  0.500000  1
  Si  Si10  1  0.595732  0.793377  0.500000  1
