# generated using pymatgen
data_La20Ir5Ru5Pt2
_symmetry_space_group_name_H-M   'P 1'
_cell_length_a   11.43489170
_cell_length_b   11.43489107
_cell_length_c   6.71756926
_cell_angle_alpha   90.00474082
_cell_angle_beta   90.00474550
_cell_angle_gamma   89.58895795
_symmetry_Int_Tables_number   1
_chemical_formula_structural   La20Ir5Ru5Pt2
_chemical_formula_sum   'La20 Ir5 Ru5 Pt2'
_cell_volume   878.34485425
_cell_formula_units_Z   1
loop_
 _symmetry_equiv_pos_site_id
 _symmetry_equiv_pos_as_xyz
  1  'x, y, z'
loop_
 _atom_site_type_symbol
 _atom_site_label
 _atom_site_symmetry_multiplicity
 _atom_site_fract_x
 _atom_site_fract_y
 _atom_site_fract_z
 _atom_site_occupancy
  La  La0  1  0.299159  0.089684  0.383089  1
  La  La1  1  0.293116  0.908430  0.892075  1
  La  La2  1  0.706405  0.091853  0.892888  1
  La  La3  1  0.700414  0.910414  0.383013  1
  La  La4  1  0.585754  0.794416  0.890586  1
  La  La5  1  0.592102  0.206237  0.393358  1
  La  La6  1  0.408307  0.793562  0.392284  1
  La  La7  1  0.414069  0.205636  0.890667  1
  La  La8  1  0.205584  0.414246  0.609414  1
  La  La9  1  0.206438  0.591693  0.107716  1
  La  La10  1  0.793763  0.407898  0.106642  1
  La  La11  1  0.794364  0.585931  0.609333  1
  La  La12  1  0.910316  0.700841  0.116911  1
  La  La13  1  0.908147  0.293595  0.607112  1
  La  La14  1  0.091570  0.706884  0.607925  1
  La  La15  1  0.089586  0.299586  0.116987  1
  La  La16  1  0.998500  0.002279  0.497887  1
  La  La17  1  0.997721  0.001500  0.002113  1
  La  La18  1  0.499663  0.499719  0.001231  1
  La  La19  1  0.500281  0.500337  0.498769  1
  Ir  Ir20  1  0.149580  0.850420  0.250000  1
  Ir  Ir21  1  0.651940  0.348060  0.750000  1
  Ir  Ir22  1  0.653800  0.652976  0.249187  1
  Ir  Ir23  1  0.347024  0.346200  0.250813  1
  Ir  Ir24  1  0.347303  0.652697  0.750000  1
  Ru  Ru25  1  0.855732  0.144268  0.250000  1
  Ru  Ru26  1  0.499946  0.000390  0.125495  1
  Ru  Ru27  1  0.499516  0.000264  0.627127  1
  Ru  Ru28  1  0.999736  0.500484  0.872873  1
  Ru  Ru29  1  0.999610  0.500054  0.374505  1
  Pt  Pt30  1  0.843496  0.842941  0.749402  1
  Pt  Pt31  1  0.157059  0.156504  0.750598  1
