# generated using pymatgen
data_Mn11Co(Mo3N)4
_symmetry_space_group_name_H-M   'P 1'
_cell_length_a   7.81945640
_cell_length_b   7.82674908
_cell_length_c   7.81945600
_cell_angle_alpha   60.03081940
_cell_angle_beta   60.00000169
_cell_angle_gamma   60.03081640
_symmetry_Int_Tables_number   1
_chemical_formula_structural   Mn11Co(Mo3N)4
_chemical_formula_sum   'Mn11 Co1 Mo12 N4'
_cell_volume   338.54910028
_cell_formula_units_Z   1
loop_
 _symmetry_equiv_pos_site_id
 _symmetry_equiv_pos_as_xyz
  1  'x, y, z'
loop_
 _atom_site_type_symbol
 _atom_site_label
 _atom_site_symmetry_multiplicity
 _atom_site_fract_x
 _atom_site_fract_y
 _atom_site_fract_z
 _atom_site_occupancy
  Mn  Mn0  1  0.624392  0.126825  0.624392  1
  Mn  Mn1  1  0.626950  0.622329  0.123770  1
  Mn  Mn2  1  0.123770  0.622329  0.626950  1
  Mn  Mn3  1  0.626950  0.622329  0.626950  1
  Mn  Mn4  1  0.828837  0.513489  0.828837  1
  Mn  Mn5  1  0.420964  0.425656  0.732416  1
  Mn  Mn6  1  0.732416  0.425656  0.420964  1
  Mn  Mn7  1  0.420964  0.425656  0.420964  1
  Mn  Mn8  1  0.514169  0.829451  0.828190  1
  Mn  Mn9  1  0.828190  0.829451  0.828190  1
  Mn  Mn10  1  0.828190  0.829451  0.514169  1
  Co  Co11  1  0.418222  0.745333  0.418222  1
  Mo  Mo12  1  0.199893  0.198368  0.800870  1
  Mo  Mo13  1  0.450807  0.049596  0.048791  1
  Mo  Mo14  1  0.051267  0.448330  0.449137  1
  Mo  Mo15  1  0.449137  0.448330  0.051267  1
  Mo  Mo16  1  0.450807  0.049596  0.450807  1
  Mo  Mo17  1  0.051267  0.448330  0.051267  1
  Mo  Mo18  1  0.800870  0.198368  0.800870  1
  Mo  Mo19  1  0.800870  0.198368  0.199893  1
  Mo  Mo20  1  0.200994  0.798787  0.799225  1
  Mo  Mo21  1  0.200994  0.798787  0.200994  1
  Mo  Mo22  1  0.048791  0.049596  0.450807  1
  Mo  Mo23  1  0.799225  0.798787  0.200994  1
  N  N24  1  0.124951  0.625148  0.124951  1
  N  N25  1  0.125514  0.123885  0.625086  1
  N  N26  1  0.625086  0.123885  0.125514  1
  N  N27  1  0.125514  0.123885  0.125514  1
