# generated using pymatgen
data_CeMn3NiP12
_symmetry_space_group_name_H-M   'P 1'
_cell_length_a   6.81677671
_cell_length_b   6.81677734
_cell_length_c   6.81677709
_cell_angle_alpha   109.37603175
_cell_angle_beta   109.37602898
_cell_angle_gamma   109.37602856
_symmetry_Int_Tables_number   1
_chemical_formula_structural   CeMn3NiP12
_chemical_formula_sum   'Ce1 Mn3 Ni1 P12'
_cell_volume   244.70148090
_cell_formula_units_Z   1
loop_
 _symmetry_equiv_pos_site_id
 _symmetry_equiv_pos_as_xyz
  1  'x, y, z'
loop_
 _atom_site_type_symbol
 _atom_site_label
 _atom_site_symmetry_multiplicity
 _atom_site_fract_x
 _atom_site_fract_y
 _atom_site_fract_z
 _atom_site_occupancy
  Ce  Ce0  1  0.000000  0.000000  0.000000  1
  Mn  Mn1  1  0.000000  0.000000  0.500000  1
  Mn  Mn2  1  0.000000  0.500000  0.000000  1
  Mn  Mn3  1  0.500000  0.000000  0.000000  1
  Ni  Ni4  1  0.500000  0.500000  0.500000  1
  P  P5  1  0.857594  0.653114  0.499853  1
  P  P6  1  0.848004  0.350438  0.199660  1
  P  P7  1  0.151996  0.649562  0.800340  1
  P  P8  1  0.346886  0.500147  0.142406  1
  P  P9  1  0.500147  0.142406  0.346886  1
  P  P10  1  0.142406  0.346886  0.500147  1
  P  P11  1  0.649562  0.800340  0.151996  1
  P  P12  1  0.199660  0.848004  0.350438  1
  P  P13  1  0.653114  0.499853  0.857594  1
  P  P14  1  0.800340  0.151996  0.649562  1
  P  P15  1  0.350438  0.199660  0.848004  1
  P  P16  1  0.499853  0.857594  0.653114  1
