# generated using pymatgen
data_Ca3TcH7
_symmetry_space_group_name_H-M   'P 1'
_cell_length_a   5.20248800
_cell_length_b   5.20244786
_cell_length_c   12.11668400
_cell_angle_alpha   90.00000000
_cell_angle_beta   90.00000000
_cell_angle_gamma   120.00024251
_symmetry_Int_Tables_number   1
_chemical_formula_structural   Ca3TcH7
_chemical_formula_sum   'Ca6 Tc2 H14'
_cell_volume   284.00904778
_cell_formula_units_Z   2
loop_
 _symmetry_equiv_pos_site_id
 _symmetry_equiv_pos_as_xyz
  1  'x, y, z'
loop_
 _atom_site_type_symbol
 _atom_site_label
 _atom_site_symmetry_multiplicity
 _atom_site_fract_x
 _atom_site_fract_y
 _atom_site_fract_z
 _atom_site_occupancy
  Ca  Ca0  1  0.333333  0.666666  0.063910  1
  Ca  Ca1  1  0.000010  0.000020  0.250000  1
  Ca  Ca2  1  0.333333  0.666666  0.436090  1
  Ca  Ca3  1  0.666666  0.333334  0.563910  1
  Ca  Ca4  1  0.999989  0.999980  0.750000  1
  Ca  Ca5  1  0.666666  0.333334  0.936090  1
  Tc  Tc6  1  0.000000  0.000000  0.000000  1
  Tc  Tc7  1  0.000000  0.000000  0.500000  1
  H  H8  1  0.317458  0.158726  0.089276  1
  H  H9  1  0.841268  0.158726  0.089276  1
  H  H10  1  0.841271  0.682544  0.089277  1
  H  H11  1  0.333303  0.666607  0.250000  1
  H  H12  1  0.841271  0.682544  0.410722  1
  H  H13  1  0.317458  0.158726  0.410724  1
  H  H14  1  0.841268  0.158726  0.410724  1
  H  H15  1  0.158731  0.841274  0.589276  1
  H  H16  1  0.682543  0.841274  0.589276  1
  H  H17  1  0.158728  0.317456  0.589278  1
  H  H18  1  0.666696  0.333393  0.750000  1
  H  H19  1  0.158728  0.317456  0.910722  1
  H  H20  1  0.158731  0.841274  0.910724  1
  H  H21  1  0.682543  0.841274  0.910724  1
