# generated using pymatgen
data_Ti3Ga3(PtRh2)2
_symmetry_space_group_name_H-M   'P 1'
_cell_length_a   4.05062600
_cell_length_b   7.20895900
_cell_length_c   12.07391400
_cell_angle_alpha   90.00000000
_cell_angle_beta   90.00104536
_cell_angle_gamma   90.00000000
_symmetry_Int_Tables_number   1
_chemical_formula_structural   Ti3Ga3(PtRh2)2
_chemical_formula_sum   'Ti6 Ga6 Pt4 Rh8'
_cell_volume   352.56790876
_cell_formula_units_Z   2
loop_
 _symmetry_equiv_pos_site_id
 _symmetry_equiv_pos_as_xyz
  1  'x, y, z'
loop_
 _atom_site_type_symbol
 _atom_site_label
 _atom_site_symmetry_multiplicity
 _atom_site_fract_x
 _atom_site_fract_y
 _atom_site_fract_z
 _atom_site_occupancy
  Ti  Ti0  1  0.999997  0.500001  0.995432  1
  Ti  Ti1  1  0.500009  0.000000  0.171246  1
  Ti  Ti2  1  0.000010  0.500001  0.339412  1
  Ti  Ti3  1  0.500001  0.000000  0.501982  1
  Ti  Ti4  1  0.999993  0.500001  0.664660  1
  Ti  Ti5  1  0.499995  0.000000  0.827288  1
  Ga  Ga6  1  0.000002  0.000000  0.996775  1
  Ga  Ga7  1  0.500006  0.500001  0.169860  1
  Ga  Ga8  1  0.000005  0.000000  0.338119  1
  Ga  Ga9  1  0.500001  0.500001  0.501216  1
  Ga  Ga10  1  0.999992  0.000000  0.665461  1
  Ga  Ga11  1  0.499993  0.500001  0.828601  1
  Pt  Pt12  1  0.500004  0.249663  0.000137  1
  Pt  Pt13  1  0.500004  0.750337  0.000137  1
  Pt  Pt14  1  0.000007  0.250341  0.166532  1
  Pt  Pt15  1  0.000007  0.749659  0.166532  1
  Rh  Rh16  1  0.499999  0.249605  0.332129  1
  Rh  Rh17  1  0.499999  0.750395  0.332129  1
  Rh  Rh18  1  0.999996  0.249721  0.499461  1
  Rh  Rh19  1  0.999996  0.750279  0.499461  1
  Rh  Rh20  1  0.499997  0.250381  0.667208  1
  Rh  Rh21  1  0.499997  0.749619  0.667208  1
  Rh  Rh22  1  0.999995  0.250501  0.834508  1
  Rh  Rh23  1  0.999995  0.749499  0.834508  1
