# generated using pymatgen
data_Hf9TaRe3Au
_symmetry_space_group_name_H-M   'P 1'
_cell_length_a   8.81156529
_cell_length_b   8.81156505
_cell_length_c   8.54382400
_cell_angle_alpha   90.00000000
_cell_angle_beta   90.00000000
_cell_angle_gamma   119.98621810
_symmetry_Int_Tables_number   1
_chemical_formula_structural   Hf9TaRe3Au
_chemical_formula_sum   'Hf18 Ta2 Re6 Au2'
_cell_volume   574.57845414
_cell_formula_units_Z   2
loop_
 _symmetry_equiv_pos_site_id
 _symmetry_equiv_pos_as_xyz
  1  'x, y, z'
loop_
 _atom_site_type_symbol
 _atom_site_label
 _atom_site_symmetry_multiplicity
 _atom_site_fract_x
 _atom_site_fract_y
 _atom_site_fract_z
 _atom_site_occupancy
  Hf  Hf0  1  0.805825  0.611604  0.548569  1
  Hf  Hf1  1  0.805706  0.194294  0.548466  1
  Hf  Hf2  1  0.388396  0.194175  0.548569  1
  Hf  Hf3  1  0.194175  0.388396  0.451431  1
  Hf  Hf4  1  0.194294  0.805706  0.451534  1
  Hf  Hf5  1  0.611604  0.805825  0.451431  1
  Hf  Hf6  1  0.194175  0.388396  0.048569  1
  Hf  Hf7  1  0.194294  0.805706  0.048466  1
  Hf  Hf8  1  0.611604  0.805825  0.048569  1
  Hf  Hf9  1  0.805825  0.611604  0.951431  1
  Hf  Hf10  1  0.805706  0.194294  0.951534  1
  Hf  Hf11  1  0.388396  0.194175  0.951431  1
  Hf  Hf12  1  0.458494  0.916815  0.750000  1
  Hf  Hf13  1  0.458331  0.541669  0.750000  1
  Hf  Hf14  1  0.083185  0.541506  0.750000  1
  Hf  Hf15  1  0.541506  0.083185  0.250000  1
  Hf  Hf16  1  0.541669  0.458331  0.250000  1
  Hf  Hf17  1  0.916815  0.458494  0.250000  1
  Ta  Ta18  1  0.000000  0.000000  0.500000  1
  Ta  Ta19  1  0.000000  0.000000  0.000000  1
  Re  Re20  1  0.112159  0.224473  0.750000  1
  Re  Re21  1  0.112237  0.887763  0.750000  1
  Re  Re22  1  0.775527  0.887841  0.750000  1
  Re  Re23  1  0.887841  0.775527  0.250000  1
  Re  Re24  1  0.887763  0.112237  0.250000  1
  Re  Re25  1  0.224473  0.112159  0.250000  1
  Au  Au26  1  0.666637  0.333363  0.750000  1
  Au  Au27  1  0.333363  0.666637  0.250000  1
