# generated using pymatgen
data_Dy6Co2Re(P4Rh5)3
_symmetry_space_group_name_H-M   'P 1'
_cell_length_a   3.87581900
_cell_length_b   11.11773400
_cell_length_c   12.79685100
_cell_angle_alpha   90.00000000
_cell_angle_beta   90.00000000
_cell_angle_gamma   90.00000000
_symmetry_Int_Tables_number   1
_chemical_formula_structural   Dy6Co2Re(P4Rh5)3
_chemical_formula_sum   'Dy6 Co2 Re1 P12 Rh15'
_cell_volume   551.42046440
_cell_formula_units_Z   1
loop_
 _symmetry_equiv_pos_site_id
 _symmetry_equiv_pos_as_xyz
  1  'x, y, z'
loop_
 _atom_site_type_symbol
 _atom_site_label
 _atom_site_symmetry_multiplicity
 _atom_site_fract_x
 _atom_site_fract_y
 _atom_site_fract_z
 _atom_site_occupancy
  Dy  Dy0  1  0.000000  0.500000  0.520778  1
  Dy  Dy1  1  0.500000  0.000000  0.477591  1
  Dy  Dy2  1  0.500000  0.814731  0.203311  1
  Dy  Dy3  1  0.500000  0.185269  0.203311  1
  Dy  Dy4  1  0.000000  0.683427  0.798795  1
  Dy  Dy5  1  0.000000  0.316573  0.798795  1
  Co  Co6  1  0.000000  0.500000  0.992024  1
  Co  Co7  1  0.500000  0.000000  0.020427  1
  Re  Re8  1  0.500000  0.500000  0.157983  1
  P  P9  1  0.500000  0.500000  0.880485  1
  P  P10  1  0.000000  0.000000  0.118541  1
  P  P11  1  0.500000  0.500000  0.346229  1
  P  P12  1  0.000000  0.000000  0.649365  1
  P  P13  1  0.500000  0.316305  0.619479  1
  P  P14  1  0.500000  0.683695  0.619479  1
  P  P15  1  0.000000  0.185129  0.380463  1
  P  P16  1  0.000000  0.814871  0.380463  1
  P  P17  1  0.500000  0.854625  0.894589  1
  P  P18  1  0.500000  0.145375  0.894589  1
  P  P19  1  0.000000  0.648622  0.106735  1
  P  P20  1  0.000000  0.351378  0.106735  1
  Rh  Rh21  1  0.000000  0.000000  0.834142  1
  Rh  Rh22  1  0.500000  0.500000  0.702768  1
  Rh  Rh23  1  0.000000  0.000000  0.296281  1
  Rh  Rh24  1  0.500000  0.335616  0.989533  1
  Rh  Rh25  1  0.500000  0.664384  0.989533  1
  Rh  Rh26  1  0.000000  0.164266  0.009202  1
  Rh  Rh27  1  0.000000  0.835734  0.009202  1
  Rh  Rh28  1  0.500000  0.294920  0.431071  1
  Rh  Rh29  1  0.500000  0.705080  0.431071  1
  Rh  Rh30  1  0.000000  0.203757  0.568681  1
  Rh  Rh31  1  0.000000  0.796243  0.568681  1
  Rh  Rh32  1  0.500000  0.873054  0.711964  1
  Rh  Rh33  1  0.500000  0.126946  0.711964  1
  Rh  Rh34  1  0.000000  0.624422  0.287871  1
  Rh  Rh35  1  0.000000  0.375578  0.287871  1
