# generated using pymatgen
data_Tm2Sc2HgAu
_symmetry_space_group_name_H-M   'P 1'
_cell_length_a   4.78373200
_cell_length_b   6.97885900
_cell_length_c   8.64404200
_cell_angle_alpha   90.00000000
_cell_angle_beta   90.00000000
_cell_angle_gamma   90.00000000
_symmetry_Int_Tables_number   1
_chemical_formula_structural   Tm2Sc2HgAu
_chemical_formula_sum   'Tm4 Sc4 Hg2 Au2'
_cell_volume   288.58126543
_cell_formula_units_Z   2
loop_
 _symmetry_equiv_pos_site_id
 _symmetry_equiv_pos_as_xyz
  1  'x, y, z'
loop_
 _atom_site_type_symbol
 _atom_site_label
 _atom_site_symmetry_multiplicity
 _atom_site_fract_x
 _atom_site_fract_y
 _atom_site_fract_z
 _atom_site_occupancy
  Tm  Tm0  1  0.250000  0.487274  0.187215  1
  Tm  Tm1  1  0.250000  0.987274  0.312785  1
  Tm  Tm2  1  0.750000  0.523294  0.815457  1
  Tm  Tm3  1  0.750000  0.023294  0.684543  1
  Sc  Sc4  1  0.250000  0.841124  0.930830  1
  Sc  Sc5  1  0.250000  0.341124  0.569170  1
  Sc  Sc6  1  0.750000  0.147763  0.080308  1
  Sc  Sc7  1  0.750000  0.647763  0.419692  1
  Hg  Hg8  1  0.250000  0.248558  0.895434  1
  Hg  Hg9  1  0.250000  0.748558  0.604566  1
  Au  Au10  1  0.750000  0.751987  0.102941  1
  Au  Au11  1  0.750000  0.251987  0.397059  1
