# generated using pymatgen
data_Yb13Lu5(PaPt8)2
_symmetry_space_group_name_H-M   'P 1'
_cell_length_a   7.49707107
_cell_length_b   7.58945477
_cell_length_c   14.45191423
_cell_angle_alpha   90.01564040
_cell_angle_beta   89.70210612
_cell_angle_gamma   90.00028988
_symmetry_Int_Tables_number   1
_chemical_formula_structural   Yb13Lu5(PaPt8)2
_chemical_formula_sum   'Yb13 Lu5 Pa2 Pt16'
_cell_volume   822.28372401
_cell_formula_units_Z   1
loop_
 _symmetry_equiv_pos_site_id
 _symmetry_equiv_pos_as_xyz
  1  'x, y, z'
loop_
 _atom_site_type_symbol
 _atom_site_label
 _atom_site_symmetry_multiplicity
 _atom_site_fract_x
 _atom_site_fract_y
 _atom_site_fract_z
 _atom_site_occupancy
  Yb  Yb0  1  0.153045  0.337786  0.620868  1
  Yb  Yb1  1  0.494644  0.678692  0.591686  1
  Yb  Yb2  1  0.005206  0.820492  0.903182  1
  Yb  Yb3  1  0.495120  0.320854  0.096246  1
  Yb  Yb4  1  0.004921  0.179432  0.409034  1
  Yb  Yb5  1  0.502575  0.320522  0.408493  1
  Yb  Yb6  1  0.005973  0.177311  0.095526  1
  Yb  Yb7  1  0.493218  0.677171  0.903576  1
  Yb  Yb8  1  0.998444  0.817154  0.591826  1
  Yb  Yb9  1  0.818235  0.515136  0.746951  1
  Yb  Yb10  1  0.304996  0.988597  0.747061  1
  Yb  Yb11  1  0.193434  0.486413  0.252746  1
  Yb  Yb12  1  0.685669  0.017552  0.252080  1
  Lu  Lu13  1  0.653238  0.162412  0.621931  1
  Lu  Lu14  1  0.150975  0.340096  0.877971  1
  Lu  Lu15  1  0.349142  0.839563  0.122728  1
  Lu  Lu16  1  0.847208  0.665197  0.378051  1
  Lu  Lu17  1  0.349332  0.837647  0.377230  1
  Pa  Pa18  1  0.846729  0.657692  0.122930  1
  Pa  Pa19  1  0.652251  0.156463  0.877132  1
  Pt  Pt20  1  0.681331  0.958365  0.458236  1
  Pt  Pt21  1  0.168377  0.549861  0.043253  1
  Pt  Pt22  1  0.330820  0.050326  0.957730  1
  Pt  Pt23  1  0.813119  0.458371  0.538992  1
  Pt  Pt24  1  0.324594  0.032769  0.540942  1
  Pt  Pt25  1  0.807349  0.451291  0.961954  1
  Pt  Pt26  1  0.691841  0.950972  0.038539  1
  Pt  Pt27  1  0.176969  0.547527  0.455187  1
  Pt  Pt28  1  0.458020  0.368188  0.756889  1
  Pt  Pt29  1  0.941691  0.132717  0.757025  1
  Pt  Pt30  1  0.554461  0.635481  0.246840  1
  Pt  Pt31  1  0.045439  0.868554  0.244415  1
  Pt  Pt32  1  0.673480  0.871553  0.750168  1
  Pt  Pt33  1  0.194454  0.627967  0.751297  1
  Pt  Pt34  1  0.310271  0.125606  0.252375  1
  Pt  Pt35  1  0.823428  0.374271  0.248907  1
