# generated using pymatgen
data_Zr8Ti7Si16W5
_symmetry_space_group_name_H-M   'P 1'
_cell_length_a   6.59325466
_cell_length_b   6.75139163
_cell_length_c   12.96429900
_cell_angle_alpha   90.02453819
_cell_angle_beta   90.02525598
_cell_angle_gamma   89.97549461
_symmetry_Int_Tables_number   1
_chemical_formula_structural   Zr8Ti7Si16W5
_chemical_formula_sum   'Zr8 Ti7 Si16 W5'
_cell_volume   577.08803230
_cell_formula_units_Z   1
loop_
 _symmetry_equiv_pos_site_id
 _symmetry_equiv_pos_as_xyz
  1  'x, y, z'
loop_
 _atom_site_type_symbol
 _atom_site_label
 _atom_site_symmetry_multiplicity
 _atom_site_fract_x
 _atom_site_fract_y
 _atom_site_fract_z
 _atom_site_occupancy
  Zr  Zr0  1  0.996941  0.173050  0.092454  1
  Zr  Zr1  1  0.004222  0.826814  0.907059  1
  Zr  Zr2  1  0.503152  0.672829  0.907112  1
  Zr  Zr3  1  0.003931  0.827685  0.592809  1
  Zr  Zr4  1  0.495441  0.328487  0.093131  1
  Zr  Zr5  1  0.995482  0.172245  0.407285  1
  Zr  Zr6  1  0.495485  0.328342  0.407353  1
  Zr  Zr7  1  0.502995  0.672639  0.593534  1
  Ti  Ti8  1  0.335350  0.169647  0.625143  1
  Ti  Ti9  1  0.666367  0.830769  0.374100  1
  Ti  Ti10  1  0.164873  0.669436  0.374498  1
  Ti  Ti11  1  0.664112  0.830788  0.124841  1
  Ti  Ti12  1  0.835202  0.330404  0.624962  1
  Ti  Ti13  1  0.335400  0.168087  0.875801  1
  Ti  Ti14  1  0.835607  0.331526  0.875508  1
  Si  Si15  1  0.036134  0.117709  0.750254  1
  Si  Si16  1  0.964501  0.883680  0.249688  1
  Si  Si17  1  0.463905  0.617466  0.250711  1
  Si  Si18  1  0.535766  0.382549  0.750276  1
  Si  Si19  1  0.297001  0.862133  0.749807  1
  Si  Si20  1  0.702536  0.139103  0.249695  1
  Si  Si21  1  0.202365  0.360973  0.251295  1
  Si  Si22  1  0.796964  0.638062  0.749666  1
  Si  Si23  1  0.169409  0.460097  0.539164  1
  Si  Si24  1  0.829921  0.539786  0.461139  1
  Si  Si25  1  0.330940  0.960211  0.460720  1
  Si  Si26  1  0.830708  0.539455  0.038978  1
  Si  Si27  1  0.668962  0.039260  0.539089  1
  Si  Si28  1  0.169428  0.457916  0.960144  1
  Si  Si29  1  0.670617  0.039742  0.961081  1
  Si  Si30  1  0.330598  0.959916  0.039299  1
  W  W31  1  0.161395  0.493219  0.750254  1
  W  W32  1  0.837445  0.509030  0.249354  1
  W  W33  1  0.339679  0.992119  0.249605  1
  W  W34  1  0.661427  0.008285  0.750131  1
  W  W35  1  0.165731  0.666537  0.124059  1
