# generated using pymatgen
data_Sc22Ru7Rh
_symmetry_space_group_name_H-M   'P 1'
_cell_length_a   9.47576390
_cell_length_b   9.42835484
_cell_length_c   9.47576413
_cell_angle_alpha   60.16536078
_cell_angle_beta   60.22830167
_cell_angle_gamma   60.16535971
_symmetry_Int_Tables_number   1
_chemical_formula_structural   Sc22Ru7Rh
_chemical_formula_sum   'Sc22 Ru7 Rh1'
_cell_volume   601.14305672
_cell_formula_units_Z   1
loop_
 _symmetry_equiv_pos_site_id
 _symmetry_equiv_pos_as_xyz
  1  'x, y, z'
loop_
 _atom_site_type_symbol
 _atom_site_label
 _atom_site_symmetry_multiplicity
 _atom_site_fract_x
 _atom_site_fract_y
 _atom_site_fract_z
 _atom_site_occupancy
  Sc  Sc0  1  0.802817  0.801890  0.197183  1
  Sc  Sc1  1  0.197701  0.802299  0.197701  1
  Sc  Sc2  1  0.802817  0.198110  0.197183  1
  Sc  Sc3  1  0.197183  0.198110  0.802817  1
  Sc  Sc4  1  0.802299  0.197701  0.802299  1
  Sc  Sc5  1  0.197183  0.801890  0.802817  1
  Sc  Sc6  1  0.616199  0.616411  0.150980  1
  Sc  Sc7  1  0.617145  0.150203  0.617145  1
  Sc  Sc8  1  0.150980  0.616411  0.616199  1
  Sc  Sc9  1  0.617145  0.615509  0.617145  1
  Sc  Sc10  1  0.383801  0.383589  0.849020  1
  Sc  Sc11  1  0.382855  0.849797  0.382855  1
  Sc  Sc12  1  0.849020  0.383589  0.383801  1
  Sc  Sc13  1  0.382855  0.384491  0.382855  1
  Sc  Sc14  1  0.845334  0.842397  0.469872  1
  Sc  Sc15  1  0.843384  0.470957  0.843384  1
  Sc  Sc16  1  0.469872  0.842397  0.845334  1
  Sc  Sc17  1  0.843384  0.842275  0.843384  1
  Sc  Sc18  1  0.154666  0.157603  0.530128  1
  Sc  Sc19  1  0.156616  0.529043  0.156616  1
  Sc  Sc20  1  0.530128  0.157603  0.154666  1
  Sc  Sc21  1  0.156616  0.157725  0.156616  1
  Ru  Ru22  1  0.000000  0.000000  0.000000  1
  Ru  Ru23  1  0.500000  0.500000  0.500000  1
  Ru  Ru24  1  0.000000  0.000000  0.500000  1
  Ru  Ru25  1  0.000000  0.500000  0.500000  1
  Ru  Ru26  1  0.500000  0.500000  0.000000  1
  Ru  Ru27  1  0.000000  0.500000  0.000000  1
  Ru  Ru28  1  0.500000  0.000000  0.000000  1
  Rh  Rh29  1  0.500000  0.000000  0.500000  1
