# generated using pymatgen
data_Np4S3O4
_symmetry_space_group_name_H-M   'P 1'
_cell_length_a   3.85398000
_cell_length_b   6.70481700
_cell_length_c   14.60895900
_cell_angle_alpha   90.00000000
_cell_angle_beta   90.00000000
_cell_angle_gamma   90.00000000
_symmetry_Int_Tables_number   1
_chemical_formula_structural   Np4S3O4
_chemical_formula_sum   'Np8 S6 O8'
_cell_volume   377.49886970
_cell_formula_units_Z   2
loop_
 _symmetry_equiv_pos_site_id
 _symmetry_equiv_pos_as_xyz
  1  'x, y, z'
loop_
 _atom_site_type_symbol
 _atom_site_label
 _atom_site_symmetry_multiplicity
 _atom_site_fract_x
 _atom_site_fract_y
 _atom_site_fract_z
 _atom_site_occupancy
  Np  Np0  1  0.500000  0.300114  0.665576  1
  Np  Np1  1  0.500000  0.699886  0.334424  1
  Np  Np2  1  0.500000  0.800114  0.834424  1
  Np  Np3  1  0.500000  0.199886  0.165576  1
  Np  Np4  1  0.000000  0.225237  0.927537  1
  Np  Np5  1  0.000000  0.774763  0.072463  1
  Np  Np6  1  0.000000  0.725237  0.572463  1
  Np  Np7  1  0.000000  0.274763  0.427537  1
  S  S8  1  0.000000  0.007126  0.284439  1
  S  S9  1  0.000000  0.992874  0.715561  1
  S  S10  1  0.000000  0.507126  0.215561  1
  S  S11  1  0.000000  0.492874  0.784439  1
  S  S12  1  0.500000  0.000000  0.500000  1
  S  S13  1  0.500000  0.500000  0.000000  1
  O  O14  1  0.500000  0.123781  0.872112  1
  O  O15  1  0.500000  0.876219  0.127888  1
  O  O16  1  0.500000  0.623781  0.627888  1
  O  O17  1  0.500000  0.376219  0.372112  1
  O  O18  1  0.000000  0.363015  0.574514  1
  O  O19  1  0.000000  0.636985  0.425486  1
  O  O20  1  0.000000  0.863015  0.925486  1
  O  O21  1  0.000000  0.136985  0.074514  1
