# generated using pymatgen
data_SrEuTa8O22
_symmetry_space_group_name_H-M   'P 1'
_cell_length_a   6.34314500
_cell_length_b   6.34314550
_cell_length_c   12.47225700
_cell_angle_alpha   90.00000000
_cell_angle_beta   90.00000000
_cell_angle_gamma   120.00000260
_symmetry_Int_Tables_number   1
_chemical_formula_structural   SrEuTa8O22
_chemical_formula_sum   'Sr1 Eu1 Ta8 O22'
_cell_volume   434.59525895
_cell_formula_units_Z   1
loop_
 _symmetry_equiv_pos_site_id
 _symmetry_equiv_pos_as_xyz
  1  'x, y, z'
loop_
 _atom_site_type_symbol
 _atom_site_label
 _atom_site_symmetry_multiplicity
 _atom_site_fract_x
 _atom_site_fract_y
 _atom_site_fract_z
 _atom_site_occupancy
  Sr  Sr0  1  0.333333  0.666667  0.750000  1
  Eu  Eu1  1  0.666667  0.333333  0.250000  1
  Ta  Ta2  1  0.333333  0.666667  0.250000  1
  Ta  Ta3  1  0.666667  0.333333  0.750000  1
  Ta  Ta4  1  0.354891  0.000148  0.000181  1
  Ta  Ta5  1  0.354891  0.354744  0.499819  1
  Ta  Ta6  1  0.999852  0.645109  0.499819  1
  Ta  Ta7  1  0.999852  0.354744  0.000181  1
  Ta  Ta8  1  0.645256  0.645109  0.000181  1
  Ta  Ta9  1  0.645256  0.000148  0.499819  1
  O  O10  1  0.333333  0.666667  0.532736  1
  O  O11  1  0.666667  0.333333  0.034419  1
  O  O12  1  0.666667  0.333333  0.465581  1
  O  O13  1  0.333333  0.666667  0.967264  1
  O  O14  1  0.757651  0.999621  0.000577  1
  O  O15  1  0.757651  0.758030  0.499423  1
  O  O16  1  0.000379  0.242349  0.499423  1
  O  O17  1  0.000379  0.758030  0.000577  1
  O  O18  1  0.241970  0.242349  0.000577  1
  O  O19  1  0.241970  0.999621  0.499423  1
  O  O20  1  0.376665  0.435887  0.345107  1
  O  O21  1  0.937166  0.372837  0.846238  1
  O  O22  1  0.435671  0.062834  0.846238  1
  O  O23  1  0.564113  0.940777  0.345107  1
  O  O24  1  0.059223  0.623335  0.345107  1
  O  O25  1  0.937166  0.564329  0.653762  1
  O  O26  1  0.627163  0.062834  0.653762  1
  O  O27  1  0.627163  0.564329  0.846238  1
  O  O28  1  0.435671  0.372837  0.653762  1
  O  O29  1  0.564113  0.623335  0.154893  1
  O  O30  1  0.059223  0.435887  0.154893  1
  O  O31  1  0.376665  0.940777  0.154893  1
