# generated using pymatgen
data_NaEu3TaO6
_symmetry_space_group_name_H-M   'P 1'
_cell_length_a   6.84158986
_cell_length_b   6.84158999
_cell_length_c   6.84159021
_cell_angle_alpha   91.02479238
_cell_angle_beta   91.02479372
_cell_angle_gamma   91.02478493
_symmetry_Int_Tables_number   1
_chemical_formula_structural   NaEu3TaO6
_chemical_formula_sum   'Na2 Eu6 Ta2 O12'
_cell_volume   320.08120307
_cell_formula_units_Z   2
loop_
 _symmetry_equiv_pos_site_id
 _symmetry_equiv_pos_as_xyz
  1  'x, y, z'
loop_
 _atom_site_type_symbol
 _atom_site_label
 _atom_site_symmetry_multiplicity
 _atom_site_fract_x
 _atom_site_fract_y
 _atom_site_fract_z
 _atom_site_occupancy
  Na  Na0  1  0.250000  0.250000  0.250000  1
  Na  Na1  1  0.750000  0.750000  0.750000  1
  Eu  Eu2  1  0.902417  0.597583  0.250000  1
  Eu  Eu3  1  0.250000  0.902417  0.597583  1
  Eu  Eu4  1  0.597583  0.250000  0.902417  1
  Eu  Eu5  1  0.097583  0.402417  0.750000  1
  Eu  Eu6  1  0.750000  0.097583  0.402417  1
  Eu  Eu7  1  0.402417  0.750000  0.097583  1
  Ta  Ta8  1  0.500000  0.500000  0.500000  1
  Ta  Ta9  1  0.000000  0.000000  0.000000  1
  O  O10  1  0.426795  0.217012  0.555098  1
  O  O11  1  0.555098  0.426795  0.217012  1
  O  O12  1  0.217012  0.555098  0.426795  1
  O  O13  1  0.073205  0.944902  0.282988  1
  O  O14  1  0.282988  0.073205  0.944902  1
  O  O15  1  0.944902  0.282988  0.073205  1
  O  O16  1  0.573205  0.782988  0.444902  1
  O  O17  1  0.444902  0.573205  0.782988  1
  O  O18  1  0.782988  0.444902  0.573205  1
  O  O19  1  0.926795  0.055098  0.717012  1
  O  O20  1  0.055098  0.717012  0.926795  1
  O  O21  1  0.717012  0.926795  0.055098  1
