# generated using pymatgen
data_NdEu(ReO4)6
_symmetry_space_group_name_H-M   'P 1'
_cell_length_a   10.14715626
_cell_length_b   10.14749451
_cell_length_c   6.41807400
_cell_angle_alpha   90.00000000
_cell_angle_beta   90.00000000
_cell_angle_gamma   120.08423535
_symmetry_Int_Tables_number   1
_chemical_formula_structural   NdEu(ReO4)6
_chemical_formula_sum   'Nd1 Eu1 Re6 O24'
_cell_volume   571.83306681
_cell_formula_units_Z   1
loop_
 _symmetry_equiv_pos_site_id
 _symmetry_equiv_pos_as_xyz
  1  'x, y, z'
loop_
 _atom_site_type_symbol
 _atom_site_label
 _atom_site_symmetry_multiplicity
 _atom_site_fract_x
 _atom_site_fract_y
 _atom_site_fract_z
 _atom_site_occupancy
  Nd  Nd0  1  0.333447  0.666791  0.250000  1
  Eu  Eu1  1  0.666379  0.331789  0.750000  1
  Re  Re2  1  0.607234  0.703423  0.750000  1
  Re  Re3  1  0.096056  0.392495  0.750000  1
  Re  Re4  1  0.296615  0.904064  0.750000  1
  Re  Re5  1  0.395171  0.296549  0.250000  1
  Re  Re6  1  0.901025  0.604740  0.250000  1
  Re  Re7  1  0.703949  0.098753  0.250000  1
  O  O8  1  0.560927  0.511655  0.750000  1
  O  O9  1  0.950521  0.438714  0.750000  1
  O  O10  1  0.488736  0.050016  0.750000  1
  O  O11  1  0.440826  0.488293  0.250000  1
  O  O12  1  0.047230  0.559429  0.250000  1
  O  O13  1  0.512038  0.952787  0.250000  1
  O  O14  1  0.471954  0.259034  0.025088  1
  O  O15  1  0.786683  0.528057  0.025080  1
  O  O16  1  0.741478  0.213136  0.025346  1
  O  O17  1  0.530656  0.742170  0.526261  1
  O  O18  1  0.211283  0.469257  0.526138  1
  O  O19  1  0.257862  0.788807  0.526416  1
  O  O20  1  0.530656  0.742170  0.973739  1
  O  O21  1  0.211283  0.469257  0.973862  1
  O  O22  1  0.257862  0.788807  0.973584  1
  O  O23  1  0.471954  0.259034  0.474912  1
  O  O24  1  0.786683  0.528057  0.474920  1
  O  O25  1  0.741478  0.213136  0.474654  1
  O  O26  1  0.801900  0.819367  0.750000  1
  O  O27  1  0.017138  0.197900  0.750000  1
  O  O28  1  0.180938  0.982776  0.750000  1
  O  O29  1  0.200392  0.180366  0.250000  1
  O  O30  1  0.980172  0.799435  0.250000  1
  O  O31  1  0.819475  0.019738  0.250000  1
