# generated using pymatgen
data_Y6Cd23Ge
_symmetry_space_group_name_H-M   'P 1'
_cell_length_a   9.94089909
_cell_length_b   9.94092517
_cell_length_c   9.94085100
_cell_angle_alpha   59.99986491
_cell_angle_beta   59.99976197
_cell_angle_gamma   59.99903830
_symmetry_Int_Tables_number   1
_chemical_formula_structural   Y6Cd23Ge
_chemical_formula_sum   'Y6 Cd23 Ge1'
_cell_volume   694.63498942
_cell_formula_units_Z   1
loop_
 _symmetry_equiv_pos_site_id
 _symmetry_equiv_pos_as_xyz
  1  'x, y, z'
loop_
 _atom_site_type_symbol
 _atom_site_label
 _atom_site_symmetry_multiplicity
 _atom_site_fract_x
 _atom_site_fract_y
 _atom_site_fract_z
 _atom_site_occupancy
  Y  Y0  1  0.793922  0.793921  0.206079  1
  Y  Y1  1  0.206079  0.793921  0.206079  1
  Y  Y2  1  0.793921  0.206079  0.206079  1
  Y  Y3  1  0.206078  0.206079  0.793921  1
  Y  Y4  1  0.793921  0.206079  0.793921  1
  Y  Y5  1  0.206079  0.793921  0.793921  1
  Cd  Cd6  1  0.839250  0.839249  0.482251  1
  Cd  Cd7  1  0.839250  0.482247  0.839251  1
  Cd  Cd8  1  0.482255  0.839247  0.839249  1
  Cd  Cd9  1  0.839250  0.839249  0.839249  1
  Cd  Cd10  1  0.160750  0.160751  0.517749  1
  Cd  Cd11  1  0.160750  0.517753  0.160749  1
  Cd  Cd12  1  0.517745  0.160753  0.160751  1
  Cd  Cd13  1  0.160750  0.160751  0.160751  1
  Cd  Cd14  1  0.622203  0.622202  0.133388  1
  Cd  Cd15  1  0.622202  0.133389  0.622202  1
  Cd  Cd16  1  0.133390  0.622202  0.622203  1
  Cd  Cd17  1  0.622204  0.622204  0.622205  1
  Cd  Cd18  1  0.377797  0.377798  0.866612  1
  Cd  Cd19  1  0.377798  0.866611  0.377798  1
  Cd  Cd20  1  0.866610  0.377798  0.377797  1
  Cd  Cd21  1  0.377796  0.377796  0.377795  1
  Cd  Cd22  1  0.000000  0.000000  0.500000  1
  Cd  Cd23  1  0.500000  0.000000  0.500000  1
  Cd  Cd24  1  0.000000  0.500000  0.500000  1
  Cd  Cd25  1  0.500000  0.500000  0.000000  1
  Cd  Cd26  1  0.000000  0.500000  0.000000  1
  Cd  Cd27  1  0.500000  0.000000  0.000000  1
  Cd  Cd28  1  0.500000  0.500000  0.500000  1
  Ge  Ge29  1  0.000000  0.000000  0.000000  1
