# generated using pymatgen
data_Ba2PrB2ClO6
_symmetry_space_group_name_H-M   'P 1'
_cell_length_a   5.42974800
_cell_length_b   6.62133838
_cell_length_c   11.74118780
_cell_angle_alpha   85.09422853
_cell_angle_beta   90.00000000
_cell_angle_gamma   90.00000000
_symmetry_Int_Tables_number   1
_chemical_formula_structural   Ba2PrB2ClO6
_chemical_formula_sum   'Ba4 Pr2 B4 Cl2 O12'
_cell_volume   420.57515485
_cell_formula_units_Z   2
loop_
 _symmetry_equiv_pos_site_id
 _symmetry_equiv_pos_as_xyz
  1  'x, y, z'
loop_
 _atom_site_type_symbol
 _atom_site_label
 _atom_site_symmetry_multiplicity
 _atom_site_fract_x
 _atom_site_fract_y
 _atom_site_fract_z
 _atom_site_occupancy
  Ba  Ba0  1  0.750000  0.398711  0.713723  1
  Ba  Ba1  1  0.250000  0.601289  0.286277  1
  Ba  Ba2  1  0.750000  0.164346  0.071735  1
  Ba  Ba3  1  0.250000  0.835654  0.928265  1
  Pr  Pr4  1  0.750000  0.156630  0.408078  1
  Pr  Pr5  1  0.250000  0.843370  0.591922  1
  B  B6  1  0.250000  0.127895  0.216270  1
  B  B7  1  0.750000  0.872105  0.783730  1
  B  B8  1  0.750000  0.711267  0.421272  1
  B  B9  1  0.250000  0.288733  0.578728  1
  Cl  Cl10  1  0.750000  0.653136  0.081701  1
  Cl  Cl11  1  0.250000  0.346864  0.918299  1
  O  O12  1  0.468532  0.213812  0.251986  1
  O  O13  1  0.968532  0.786188  0.748014  1
  O  O14  1  0.531468  0.786188  0.748014  1
  O  O15  1  0.031468  0.213812  0.251986  1
  O  O16  1  0.531156  0.819849  0.430822  1
  O  O17  1  0.031156  0.180151  0.569178  1
  O  O18  1  0.468844  0.180151  0.569178  1
  O  O19  1  0.968844  0.819849  0.430822  1
  O  O20  1  0.750000  0.514876  0.395715  1
  O  O21  1  0.250000  0.485124  0.604285  1
  O  O22  1  0.250000  0.975447  0.142569  1
  O  O23  1  0.750000  0.024553  0.857431  1
