# generated using pymatgen
data_Tb2ErTmIn4
_symmetry_space_group_name_H-M   'P 1'
_cell_length_a   6.50028500
_cell_length_b   6.50028384
_cell_length_c   10.13587000
_cell_angle_alpha   90.00000000
_cell_angle_beta   90.00000000
_cell_angle_gamma   101.38723366
_symmetry_Int_Tables_number   1
_chemical_formula_structural   Tb2ErTmIn4
_chemical_formula_sum   'Tb4 Er2 Tm2 In8'
_cell_volume   419.84741534
_cell_formula_units_Z   2
loop_
 _symmetry_equiv_pos_site_id
 _symmetry_equiv_pos_as_xyz
  1  'x, y, z'
loop_
 _atom_site_type_symbol
 _atom_site_label
 _atom_site_symmetry_multiplicity
 _atom_site_fract_x
 _atom_site_fract_y
 _atom_site_fract_z
 _atom_site_occupancy
  Tb  Tb0  1  0.248204  0.751796  0.500000  1
  Tb  Tb1  1  0.248204  0.751796  0.000000  1
  Tb  Tb2  1  0.751796  0.248204  0.500000  1
  Tb  Tb3  1  0.751796  0.248204  0.000000  1
  Er  Er4  1  0.521995  0.521995  0.250000  1
  Er  Er5  1  0.478005  0.478005  0.750000  1
  Tm  Tm6  1  0.986036  0.986036  0.250000  1
  Tm  Tm7  1  0.013964  0.013964  0.750000  1
  In  In8  1  0.251377  0.251377  0.012831  1
  In  In9  1  0.748623  0.748623  0.987169  1
  In  In10  1  0.251377  0.251377  0.487169  1
  In  In11  1  0.748623  0.748623  0.512831  1
  In  In12  1  0.490054  0.014731  0.250000  1
  In  In13  1  0.985269  0.509946  0.750000  1
  In  In14  1  0.509946  0.985269  0.750000  1
  In  In15  1  0.014731  0.490054  0.250000  1
