# generated using pymatgen
data_Dy2Er2Al4IrPt3
_symmetry_space_group_name_H-M   'P 1'
_cell_length_a   4.41941500
_cell_length_b   6.81168058
_cell_length_c   7.77725761
_cell_angle_alpha   90.04400627
_cell_angle_beta   90.00000000
_cell_angle_gamma   90.00000000
_symmetry_Int_Tables_number   1
_chemical_formula_structural   Dy2Er2Al4IrPt3
_chemical_formula_sum   'Dy2 Er2 Al4 Ir1 Pt3'
_cell_volume   234.12371998
_cell_formula_units_Z   1
loop_
 _symmetry_equiv_pos_site_id
 _symmetry_equiv_pos_as_xyz
  1  'x, y, z'
loop_
 _atom_site_type_symbol
 _atom_site_label
 _atom_site_symmetry_multiplicity
 _atom_site_fract_x
 _atom_site_fract_y
 _atom_site_fract_z
 _atom_site_occupancy
  Dy  Dy0  1  0.250000  0.471436  0.180971  1
  Dy  Dy1  1  0.250000  0.969110  0.320906  1
  Er  Er2  1  0.750000  0.530368  0.815716  1
  Er  Er3  1  0.750000  0.023216  0.681568  1
  Al  Al4  1  0.250000  0.852372  0.934839  1
  Al  Al5  1  0.750000  0.146648  0.061703  1
  Al  Al6  1  0.750000  0.646435  0.438828  1
  Al  Al7  1  0.250000  0.359103  0.564569  1
  Ir  Ir8  1  0.250000  0.732362  0.617514  1
  Pt  Pt9  1  0.750000  0.270294  0.384021  1
  Pt  Pt10  1  0.750000  0.771221  0.116500  1
  Pt  Pt11  1  0.250000  0.227435  0.882866  1
