# generated using pymatgen
data_Ta7Ti3Ga6C
_symmetry_space_group_name_H-M   'P 1'
_cell_length_a   7.65183300
_cell_length_b   7.65183382
_cell_length_c   5.22605900
_cell_angle_alpha   90.00000000
_cell_angle_beta   90.00000000
_cell_angle_gamma   119.99999213
_symmetry_Int_Tables_number   1
_chemical_formula_structural   Ta7Ti3Ga6C
_chemical_formula_sum   'Ta7 Ti3 Ga6 C1'
_cell_volume   264.99396736
_cell_formula_units_Z   1
loop_
 _symmetry_equiv_pos_site_id
 _symmetry_equiv_pos_as_xyz
  1  'x, y, z'
loop_
 _atom_site_type_symbol
 _atom_site_label
 _atom_site_symmetry_multiplicity
 _atom_site_fract_x
 _atom_site_fract_y
 _atom_site_fract_z
 _atom_site_occupancy
  Ta  Ta0  1  0.001696  0.765735  0.246290  1
  Ta  Ta1  1  0.234265  0.235961  0.246290  1
  Ta  Ta2  1  0.764039  0.998304  0.246290  1
  Ta  Ta3  1  0.001696  0.235961  0.753710  1
  Ta  Ta4  1  0.764039  0.765735  0.753710  1
  Ta  Ta5  1  0.234265  0.998304  0.753710  1
  Ta  Ta6  1  0.333333  0.666667  0.000000  1
  Ti  Ti7  1  0.666667  0.333333  0.000000  1
  Ti  Ti8  1  0.666667  0.333333  0.500000  1
  Ti  Ti9  1  0.333333  0.666667  0.500000  1
  Ga  Ga10  1  0.996834  0.400884  0.252581  1
  Ga  Ga11  1  0.599116  0.595949  0.252581  1
  Ga  Ga12  1  0.404051  0.003166  0.252581  1
  Ga  Ga13  1  0.996834  0.595949  0.747419  1
  Ga  Ga14  1  0.404051  0.400884  0.747419  1
  Ga  Ga15  1  0.599116  0.003166  0.747419  1
  C  C16  1  0.000000  0.000000  0.500000  1
