# generated using pymatgen
data_Ho10Si5Pb
_symmetry_space_group_name_H-M   'P 1'
_cell_length_a   8.49019200
_cell_length_b   8.51761124
_cell_length_c   6.37812900
_cell_angle_alpha   90.00000000
_cell_angle_beta   90.00000000
_cell_angle_gamma   119.89356926
_symmetry_Int_Tables_number   1
_chemical_formula_structural   Ho10Si5Pb
_chemical_formula_sum   'Ho10 Si5 Pb1'
_cell_volume   399.87478943
_cell_formula_units_Z   1
loop_
 _symmetry_equiv_pos_site_id
 _symmetry_equiv_pos_as_xyz
  1  'x, y, z'
loop_
 _atom_site_type_symbol
 _atom_site_label
 _atom_site_symmetry_multiplicity
 _atom_site_fract_x
 _atom_site_fract_y
 _atom_site_fract_z
 _atom_site_occupancy
  Ho  Ho0  1  0.987402  0.747960  0.750000  1
  Ho  Ho1  1  0.999110  0.242698  0.250000  1
  Ho  Ho2  1  0.756412  0.757302  0.250000  1
  Ho  Ho3  1  0.766512  0.000000  0.750000  1
  Ho  Ho4  1  0.239442  0.252040  0.750000  1
  Ho  Ho5  1  0.240118  0.000000  0.250000  1
  Ho  Ho6  1  0.331493  0.657186  0.495734  1
  Ho  Ho7  1  0.674307  0.342814  0.004266  1
  Ho  Ho8  1  0.674307  0.342814  0.495734  1
  Ho  Ho9  1  0.331493  0.657186  0.004266  1
  Si  Si10  1  0.393755  0.392651  0.250000  1
  Si  Si11  1  0.001103  0.607349  0.250000  1
  Si  Si12  1  0.998839  0.394462  0.750000  1
  Si  Si13  1  0.604377  0.605538  0.750000  1
  Si  Si14  1  0.606048  0.000000  0.250000  1
  Pb  Pb15  1  0.395284  0.000000  0.750000  1
