# generated using pymatgen
data_YbCe2ZrSb5
_symmetry_space_group_name_H-M   'P 1'
_cell_length_a   9.41040900
_cell_length_b   9.46372252
_cell_length_c   6.30473900
_cell_angle_alpha   90.00000000
_cell_angle_beta   90.00000000
_cell_angle_gamma   119.81381740
_symmetry_Int_Tables_number   1
_chemical_formula_structural   YbCe2ZrSb5
_chemical_formula_sum   'Yb2 Ce4 Zr2 Sb10'
_cell_volume   487.16936229
_cell_formula_units_Z   2
loop_
 _symmetry_equiv_pos_site_id
 _symmetry_equiv_pos_as_xyz
  1  'x, y, z'
loop_
 _atom_site_type_symbol
 _atom_site_label
 _atom_site_symmetry_multiplicity
 _atom_site_fract_x
 _atom_site_fract_y
 _atom_site_fract_z
 _atom_site_occupancy
  Yb  Yb0  1  0.613862  0.000000  0.250000  1
  Yb  Yb1  1  0.386138  0.000000  0.750000  1
  Ce  Ce2  1  0.004794  0.620587  0.250000  1
  Ce  Ce3  1  0.995206  0.379413  0.750000  1
  Ce  Ce4  1  0.384207  0.379413  0.250000  1
  Ce  Ce5  1  0.615793  0.620587  0.750000  1
  Zr  Zr6  1  0.000000  0.000000  0.000000  1
  Zr  Zr7  1  0.000000  0.000000  0.500000  1
  Sb  Sb8  1  0.264458  0.000000  0.250000  1
  Sb  Sb9  1  0.735542  0.000000  0.750000  1
  Sb  Sb10  1  0.999923  0.266206  0.250000  1
  Sb  Sb11  1  0.000077  0.733794  0.750000  1
  Sb  Sb12  1  0.733718  0.733794  0.250000  1
  Sb  Sb13  1  0.266282  0.266206  0.750000  1
  Sb  Sb14  1  0.330364  0.660728  0.000000  1
  Sb  Sb15  1  0.669636  0.339272  0.000000  1
  Sb  Sb16  1  0.669636  0.339272  0.500000  1
  Sb  Sb17  1  0.330364  0.660728  0.500000  1
