# generated using pymatgen
data_Lu5In4AgRu
_symmetry_space_group_name_H-M   'P 1'
_cell_length_a   3.54718300
_cell_length_b   8.08446318
_cell_length_c   18.17369852
_cell_angle_alpha   90.06106948
_cell_angle_beta   90.00000000
_cell_angle_gamma   90.00000000
_symmetry_Int_Tables_number   1
_chemical_formula_structural   Lu5In4AgRu
_chemical_formula_sum   'Lu10 In8 Ag2 Ru2'
_cell_volume   521.16813476
_cell_formula_units_Z   2
loop_
 _symmetry_equiv_pos_site_id
 _symmetry_equiv_pos_as_xyz
  1  'x, y, z'
loop_
 _atom_site_type_symbol
 _atom_site_label
 _atom_site_symmetry_multiplicity
 _atom_site_fract_x
 _atom_site_fract_y
 _atom_site_fract_z
 _atom_site_occupancy
  Lu  Lu0  1  0.000000  0.500000  0.500000  1
  Lu  Lu1  1  0.000000  0.000000  0.000000  1
  Lu  Lu2  1  0.000000  0.712514  0.278603  1
  Lu  Lu3  1  0.000000  0.287486  0.721397  1
  Lu  Lu4  1  0.000000  0.743304  0.785879  1
  Lu  Lu5  1  0.000000  0.256696  0.214121  1
  Lu  Lu6  1  0.000000  0.615042  0.085926  1
  Lu  Lu7  1  0.000000  0.384958  0.914074  1
  Lu  Lu8  1  0.000000  0.877038  0.577377  1
  Lu  Lu9  1  0.000000  0.122962  0.422623  1
  In  In10  1  0.500000  0.707325  0.932397  1
  In  In11  1  0.500000  0.292675  0.067603  1
  In  In12  1  0.500000  0.790008  0.432765  1
  In  In13  1  0.500000  0.209992  0.567235  1
  In  In14  1  0.500000  0.584011  0.650503  1
  In  In15  1  0.500000  0.415989  0.349497  1
  In  In16  1  0.500000  0.912466  0.148915  1
  In  In17  1  0.500000  0.087534  0.851085  1
  Ag  Ag18  1  0.500000  0.978990  0.696711  1
  Ag  Ag19  1  0.500000  0.021010  0.303289  1
  Ru  Ru20  1  0.500000  0.521658  0.195023  1
  Ru  Ru21  1  0.500000  0.478342  0.804977  1
