# generated using pymatgen
data_Y4Er8Co4BiRu
_symmetry_space_group_name_H-M   'P 1'
_cell_length_a   8.28585287
_cell_length_b   8.28585301
_cell_length_c   8.28585331
_cell_angle_alpha   110.66372626
_cell_angle_beta   110.89658239
_cell_angle_gamma   106.88401341
_symmetry_Int_Tables_number   1
_chemical_formula_structural   Y4Er8Co4BiRu
_chemical_formula_sum   'Y4 Er8 Co4 Bi1 Ru1'
_cell_volume   437.24718528
_cell_formula_units_Z   1
loop_
 _symmetry_equiv_pos_site_id
 _symmetry_equiv_pos_as_xyz
  1  'x, y, z'
loop_
 _atom_site_type_symbol
 _atom_site_label
 _atom_site_symmetry_multiplicity
 _atom_site_fract_x
 _atom_site_fract_y
 _atom_site_fract_z
 _atom_site_occupancy
  Y  Y0  1  0.284397  0.184197  0.468594  1
  Y  Y1  1  0.715603  0.815803  0.531406  1
  Y  Y2  1  0.284397  0.815803  0.100201  1
  Y  Y3  1  0.715603  0.184197  0.899799  1
  Er  Er4  1  0.620913  0.311638  0.309275  1
  Er  Er5  1  0.379087  0.688362  0.690725  1
  Er  Er6  1  0.002365  0.311638  0.690725  1
  Er  Er7  1  0.997635  0.688362  0.309275  1
  Er  Er8  1  0.211924  0.407970  0.196045  1
  Er  Er9  1  0.788076  0.592030  0.803955  1
  Er  Er10  1  0.211924  0.015879  0.803955  1
  Er  Er11  1  0.788076  0.984121  0.196045  1
  Co  Co12  1  0.000000  0.375787  0.375787  1
  Co  Co13  1  0.000000  0.624213  0.624213  1
  Co  Co14  1  0.388142  0.888142  0.500000  1
  Co  Co15  1  0.611858  0.111858  0.500000  1
  Bi  Bi16  1  0.500000  0.500000  0.000000  1
  Ru  Ru17  1  0.000000  0.000000  0.000000  1
