# generated using pymatgen
data_Tb4InFe(SbO7)2
_symmetry_space_group_name_H-M   'P 1'
_cell_length_a   7.38969298
_cell_length_b   7.38822302
_cell_length_c   7.38969245
_cell_angle_alpha   120.57561446
_cell_angle_beta   119.22321149
_cell_angle_gamma   90.18412814
_symmetry_Int_Tables_number   1
_chemical_formula_structural   Tb4InFe(SbO7)2
_chemical_formula_sum   'Tb4 In1 Fe1 Sb2 O14'
_cell_volume   285.65230138
_cell_formula_units_Z   1
loop_
 _symmetry_equiv_pos_site_id
 _symmetry_equiv_pos_as_xyz
  1  'x, y, z'
loop_
 _atom_site_type_symbol
 _atom_site_label
 _atom_site_symmetry_multiplicity
 _atom_site_fract_x
 _atom_site_fract_y
 _atom_site_fract_z
 _atom_site_occupancy
  Tb  Tb0  1  0.000000  0.000000  0.500000  1
  Tb  Tb1  1  0.000000  0.500000  0.000000  1
  Tb  Tb2  1  0.000000  0.000000  0.000000  1
  Tb  Tb3  1  0.500000  0.000000  0.500000  1
  In  In4  1  0.500000  0.500000  0.500000  1
  Fe  Fe5  1  0.500000  0.000000  0.000000  1
  Sb  Sb6  1  0.500000  0.500000  0.000000  1
  Sb  Sb7  1  0.000000  0.500000  0.500000  1
  O  O8  1  0.122320  0.874067  0.251748  1
  O  O9  1  0.877680  0.125933  0.748252  1
  O  O10  1  0.824252  0.582922  0.258670  1
  O  O11  1  0.402540  0.143275  0.240735  1
  O  O12  1  0.834433  0.174270  0.267555  1
  O  O13  1  0.400323  0.587661  0.231213  1
  O  O14  1  0.856448  0.587661  0.687337  1
  O  O15  1  0.406715  0.174270  0.839837  1
  O  O16  1  0.175748  0.417078  0.741330  1
  O  O17  1  0.597460  0.856725  0.759265  1
  O  O18  1  0.165567  0.825730  0.732445  1
  O  O19  1  0.599677  0.412339  0.768787  1
  O  O20  1  0.143552  0.412339  0.312663  1
  O  O21  1  0.593285  0.825730  0.160163  1
