# generated using pymatgen
data_EuCdGePt2
_symmetry_space_group_name_H-M   'P 1'
_cell_length_a   4.22891800
_cell_length_b   4.22891800
_cell_length_c   11.64109300
_cell_angle_alpha   90.00000000
_cell_angle_beta   90.00000000
_cell_angle_gamma   90.00000000
_symmetry_Int_Tables_number   1
_chemical_formula_structural   EuCdGePt2
_chemical_formula_sum   'Eu2 Cd2 Ge2 Pt4'
_cell_volume   208.18636726
_cell_formula_units_Z   2
loop_
 _symmetry_equiv_pos_site_id
 _symmetry_equiv_pos_as_xyz
  1  'x, y, z'
loop_
 _atom_site_type_symbol
 _atom_site_label
 _atom_site_symmetry_multiplicity
 _atom_site_fract_x
 _atom_site_fract_y
 _atom_site_fract_z
 _atom_site_occupancy
  Eu  Eu0  1  0.000000  0.500000  0.762591  1
  Eu  Eu1  1  0.500000  0.000000  0.237409  1
  Cd  Cd2  1  0.500000  0.500000  0.500000  1
  Cd  Cd3  1  0.000000  0.000000  0.500000  1
  Ge  Ge4  1  0.000000  0.500000  0.120295  1
  Ge  Ge5  1  0.500000  0.000000  0.879705  1
  Pt  Pt6  1  0.500000  0.000000  0.667958  1
  Pt  Pt7  1  0.000000  0.000000  0.000000  1
  Pt  Pt8  1  0.500000  0.500000  0.000000  1
  Pt  Pt9  1  0.000000  0.500000  0.332042  1
