# generated using pymatgen
data_Cs4Mn3WS8
_symmetry_space_group_name_H-M   'P 1'
_cell_length_a   5.39781798
_cell_length_b   7.37053118
_cell_length_c   12.56696000
_cell_angle_alpha   88.25491572
_cell_angle_beta   83.58142515
_cell_angle_gamma   79.59030454
_symmetry_Int_Tables_number   1
_chemical_formula_structural   Cs4Mn3WS8
_chemical_formula_sum   'Cs4 Mn3 W1 S8'
_cell_volume   488.63541599
_cell_formula_units_Z   1
loop_
 _symmetry_equiv_pos_site_id
 _symmetry_equiv_pos_as_xyz
  1  'x, y, z'
loop_
 _atom_site_type_symbol
 _atom_site_label
 _atom_site_symmetry_multiplicity
 _atom_site_fract_x
 _atom_site_fract_y
 _atom_site_fract_z
 _atom_site_occupancy
  Cs  Cs0  1  0.080059  0.026079  0.672168  1
  Cs  Cs1  1  0.568946  0.526341  0.178663  1
  Cs  Cs2  1  0.421847  0.474694  0.821815  1
  Cs  Cs3  1  0.928234  0.974046  0.327713  1
  Mn  Mn4  1  0.250239  0.498667  0.499495  1
  Mn  Mn5  1  0.749907  0.501223  0.500375  1
  Mn  Mn6  1  0.249651  0.002010  0.000666  1
  W  W7  1  0.750844  0.997886  0.999395  1
  S  S8  1  0.953113  0.556629  0.634346  1
  S  S9  1  0.450832  0.061601  0.141870  1
  S  S10  1  0.947005  0.243307  0.959640  1
  S  S11  1  0.451532  0.730301  0.461609  1
  S  S12  1  0.549773  0.937925  0.858027  1
  S  S13  1  0.046598  0.443408  0.365445  1
  S  S14  1  0.549060  0.269643  0.538325  1
  S  S15  1  0.052360  0.756233  0.040446  1
