# generated using pymatgen
data_Th10Tl5Si2Pb
_symmetry_space_group_name_H-M   'P 1'
_cell_length_a   9.66483800
_cell_length_b   9.67512139
_cell_length_c   6.62326000
_cell_angle_alpha   90.00000000
_cell_angle_beta   90.00000000
_cell_angle_gamma   120.03520405
_symmetry_Int_Tables_number   1
_chemical_formula_structural   Th10Tl5Si2Pb
_chemical_formula_sum   'Th10 Tl5 Si2 Pb1'
_cell_volume   536.16599486
_cell_formula_units_Z   1
loop_
 _symmetry_equiv_pos_site_id
 _symmetry_equiv_pos_as_xyz
  1  'x, y, z'
loop_
 _atom_site_type_symbol
 _atom_site_label
 _atom_site_symmetry_multiplicity
 _atom_site_fract_x
 _atom_site_fract_y
 _atom_site_fract_z
 _atom_site_occupancy
  Th  Th0  1  0.666554  0.333784  0.500712  1
  Th  Th1  1  0.333446  0.667231  0.500712  1
  Th  Th2  1  0.333446  0.667231  0.999288  1
  Th  Th3  1  0.666554  0.333784  0.999288  1
  Th  Th4  1  0.747703  0.746448  0.250000  1
  Th  Th5  1  0.252297  0.998745  0.250000  1
  Th  Th6  1  0.000000  0.252331  0.250000  1
  Th  Th7  1  0.252809  0.253587  0.750000  1
  Th  Th8  1  0.747191  0.000779  0.750000  1
  Th  Th9  1  0.000000  0.746967  0.750000  1
  Tl  Tl10  1  0.389105  0.389080  0.250000  1
  Tl  Tl11  1  0.610895  0.999975  0.250000  1
  Tl  Tl12  1  0.000000  0.610478  0.250000  1
  Tl  Tl13  1  0.611154  0.611839  0.750000  1
  Tl  Tl14  1  0.388846  0.000684  0.750000  1
  Si  Si15  1  0.000000  0.999484  0.500174  1
  Si  Si16  1  0.000000  0.999484  0.999826  1
  Pb  Pb17  1  0.000000  0.388091  0.750000  1
