# generated using pymatgen
data_Y20NiBi8Ru3
_symmetry_space_group_name_H-M   'P 1'
_cell_length_a   8.02474128
_cell_length_b   9.04363700
_cell_length_c   12.45694102
_cell_angle_alpha   90.00000000
_cell_angle_beta   90.25647536
_cell_angle_gamma   90.00000000
_symmetry_Int_Tables_number   1
_chemical_formula_structural   Y20NiBi8Ru3
_chemical_formula_sum   'Y20 Ni1 Bi8 Ru3'
_cell_volume   904.02661898
_cell_formula_units_Z   1
loop_
 _symmetry_equiv_pos_site_id
 _symmetry_equiv_pos_as_xyz
  1  'x, y, z'
loop_
 _atom_site_type_symbol
 _atom_site_label
 _atom_site_symmetry_multiplicity
 _atom_site_fract_x
 _atom_site_fract_y
 _atom_site_fract_z
 _atom_site_occupancy
  Y  Y0  1  0.842476  0.750000  0.795003  1
  Y  Y1  1  0.157093  0.250000  0.206797  1
  Y  Y2  1  0.343402  0.250000  0.707781  1
  Y  Y3  1  0.654810  0.750000  0.294211  1
  Y  Y4  1  0.376326  0.750000  0.695372  1
  Y  Y5  1  0.621737  0.250000  0.305788  1
  Y  Y6  1  0.876840  0.250000  0.806965  1
  Y  Y7  1  0.122771  0.750000  0.191568  1
  Y  Y8  1  0.946910  0.750000  0.503767  1
  Y  Y9  1  0.053312  0.250000  0.496269  1
  Y  Y10  1  0.451163  0.250000  0.997458  1
  Y  Y11  1  0.548526  0.750000  0.002285  1
  Y  Y12  1  0.675992  0.040616  0.564839  1
  Y  Y13  1  0.323220  0.957739  0.435339  1
  Y  Y14  1  0.177527  0.960955  0.934608  1
  Y  Y15  1  0.323220  0.542261  0.435339  1
  Y  Y16  1  0.823653  0.040480  0.064427  1
  Y  Y17  1  0.675992  0.459384  0.564839  1
  Y  Y18  1  0.823653  0.459520  0.064427  1
  Y  Y19  1  0.177527  0.539045  0.934608  1
  Ni  Ni20  1  0.930283  0.750000  0.009720  1
  Bi  Bi21  1  0.572148  0.492072  0.828064  1
  Bi  Bi22  1  0.429618  0.508226  0.171770  1
  Bi  Bi23  1  0.069501  0.507828  0.672810  1
  Bi  Bi24  1  0.429618  0.991774  0.171770  1
  Bi  Bi25  1  0.929535  0.492621  0.326526  1
  Bi  Bi26  1  0.572148  0.007928  0.828064  1
  Bi  Bi27  1  0.929535  0.007379  0.326526  1
  Bi  Bi28  1  0.069501  0.992172  0.672810  1
  Ru  Ru29  1  0.573361  0.750000  0.511871  1
  Ru  Ru30  1  0.425912  0.250000  0.489086  1
  Ru  Ru31  1  0.072691  0.250000  0.989291  1
