# generated using pymatgen
data_Er2Si4W3
_symmetry_space_group_name_H-M   'P 1'
_cell_length_a   6.85410000
_cell_length_b   6.85410000
_cell_length_c   12.70574300
_cell_angle_alpha   90.00000000
_cell_angle_beta   90.00000000
_cell_angle_gamma   90.00000000
_symmetry_Int_Tables_number   1
_chemical_formula_structural   Er2Si4W3
_chemical_formula_sum   'Er8 Si16 W12'
_cell_volume   596.89912109
_cell_formula_units_Z   4
loop_
 _symmetry_equiv_pos_site_id
 _symmetry_equiv_pos_as_xyz
  1  'x, y, z'
loop_
 _atom_site_type_symbol
 _atom_site_label
 _atom_site_symmetry_multiplicity
 _atom_site_fract_x
 _atom_site_fract_y
 _atom_site_fract_z
 _atom_site_occupancy
  Er  Er0  1  0.339678  0.999298  0.468881  1
  Er  Er1  1  0.500703  0.839678  0.718881  1
  Er  Er2  1  0.499297  0.160322  0.218881  1
  Er  Er3  1  0.839678  0.500703  0.281119  1
  Er  Er4  1  0.160322  0.499297  0.781119  1
  Er  Er5  1  0.660322  0.000703  0.968881  1
  Er  Er6  1  0.999298  0.339678  0.531119  1
  Er  Er7  1  0.000703  0.660322  0.031119  1
  Si  Si8  1  0.201022  0.128893  0.683575  1
  Si  Si9  1  0.371107  0.701022  0.933575  1
  Si  Si10  1  0.628893  0.298978  0.433575  1
  Si  Si11  1  0.701022  0.371107  0.066425  1
  Si  Si12  1  0.298978  0.628893  0.566425  1
  Si  Si13  1  0.798978  0.871107  0.183575  1
  Si  Si14  1  0.128893  0.201022  0.316425  1
  Si  Si15  1  0.871107  0.798978  0.816425  1
  Si  Si16  1  0.287898  0.961126  0.064361  1
  Si  Si17  1  0.538874  0.787898  0.314361  1
  Si  Si18  1  0.461126  0.212102  0.814361  1
  Si  Si19  1  0.787898  0.538874  0.685639  1
  Si  Si20  1  0.212102  0.461126  0.185639  1
  Si  Si21  1  0.712102  0.038874  0.564361  1
  Si  Si22  1  0.961126  0.287898  0.935639  1
  Si  Si23  1  0.038874  0.712102  0.435639  1
  W  W24  1  0.331469  0.331469  0.000000  1
  W  W25  1  0.168531  0.831469  0.250000  1
  W  W26  1  0.831469  0.168531  0.750000  1
  W  W27  1  0.668531  0.668531  0.500000  1
  W  W28  1  0.162336  0.997694  0.873844  1
  W  W29  1  0.502306  0.662336  0.123844  1
  W  W30  1  0.497694  0.337664  0.623844  1
  W  W31  1  0.662336  0.502306  0.876156  1
  W  W32  1  0.337664  0.497694  0.376156  1
  W  W33  1  0.837664  0.002306  0.373844  1
  W  W34  1  0.997694  0.162336  0.126156  1
  W  W35  1  0.002306  0.837664  0.626156  1
