# generated using pymatgen
data_Ca5Bi(RuO6)2
_symmetry_space_group_name_H-M   'P 1'
_cell_length_a   6.54504423
_cell_length_b   6.56952911
_cell_length_c   6.55755900
_cell_angle_alpha   91.87601252
_cell_angle_beta   91.21693357
_cell_angle_gamma   91.72655586
_symmetry_Int_Tables_number   1
_chemical_formula_structural   Ca5Bi(RuO6)2
_chemical_formula_sum   'Ca5 Bi1 Ru2 O12'
_cell_volume   281.61221504
_cell_formula_units_Z   1
loop_
 _symmetry_equiv_pos_site_id
 _symmetry_equiv_pos_as_xyz
  1  'x, y, z'
loop_
 _atom_site_type_symbol
 _atom_site_label
 _atom_site_symmetry_multiplicity
 _atom_site_fract_x
 _atom_site_fract_y
 _atom_site_fract_z
 _atom_site_occupancy
  Ca  Ca0  1  0.742861  0.932810  0.432561  1
  Ca  Ca1  1  0.554396  0.249125  0.072666  1
  Ca  Ca2  1  0.438135  0.750307  0.931639  1
  Ca  Ca3  1  0.256220  0.064684  0.562435  1
  Ca  Ca4  1  0.076141  0.572428  0.254696  1
  Bi  Bi5  1  0.930298  0.436546  0.749306  1
  Ru  Ru6  1  0.997051  0.003972  0.000685  1
  Ru  Ru7  1  0.499502  0.500857  0.499552  1
  O  O8  1  0.940000  0.289624  0.066463  1
  O  O9  1  0.927515  0.073569  0.714898  1
  O  O10  1  0.792013  0.573749  0.462154  1
  O  O11  1  0.713409  0.932754  0.066246  1
  O  O12  1  0.585468  0.452703  0.787791  1
  O  O13  1  0.547783  0.215053  0.423164  1
  O  O14  1  0.453146  0.783496  0.579545  1
  O  O15  1  0.423713  0.548201  0.215705  1
  O  O16  1  0.281679  0.068203  0.931038  1
  O  O17  1  0.205847  0.415852  0.543888  1
  O  O18  1  0.068962  0.931246  0.281022  1
  O  O19  1  0.065862  0.704822  0.924544  1
