# generated using pymatgen
data_Na2SrOsO6
_symmetry_space_group_name_H-M   'P 1'
_cell_length_a   5.84813443
_cell_length_b   5.84813456
_cell_length_c   5.84813462
_cell_angle_alpha   60.94960128
_cell_angle_beta   60.94961805
_cell_angle_gamma   60.94959811
_symmetry_Int_Tables_number   1
_chemical_formula_structural   Na2SrOsO6
_chemical_formula_sum   'Na2 Sr1 Os1 O6'
_cell_volume   144.45469466
_cell_formula_units_Z   1
loop_
 _symmetry_equiv_pos_site_id
 _symmetry_equiv_pos_as_xyz
  1  'x, y, z'
loop_
 _atom_site_type_symbol
 _atom_site_label
 _atom_site_symmetry_multiplicity
 _atom_site_fract_x
 _atom_site_fract_y
 _atom_site_fract_z
 _atom_site_occupancy
  Na  Na0  1  0.275583  0.275583  0.275583  1
  Na  Na1  1  0.724417  0.724417  0.724417  1
  Sr  Sr2  1  0.000000  0.000000  0.000000  1
  Os  Os3  1  0.500000  0.500000  0.500000  1
  O  O4  1  0.822028  0.307363  0.599836  1
  O  O5  1  0.599836  0.822028  0.307363  1
  O  O6  1  0.307363  0.599836  0.822028  1
  O  O7  1  0.400164  0.177972  0.692637  1
  O  O8  1  0.177972  0.692637  0.400164  1
  O  O9  1  0.692637  0.400164  0.177972  1
