# generated using pymatgen
data_Li2PaCr3O8
_symmetry_space_group_name_H-M   'P 1'
_cell_length_a   6.06359000
_cell_length_b   6.06359002
_cell_length_c   10.02286800
_cell_angle_alpha   90.00000000
_cell_angle_beta   90.00000000
_cell_angle_gamma   119.99999990
_symmetry_Int_Tables_number   1
_chemical_formula_structural   Li2PaCr3O8
_chemical_formula_sum   'Li4 Pa2 Cr6 O16'
_cell_volume   319.14077871
_cell_formula_units_Z   2
loop_
 _symmetry_equiv_pos_site_id
 _symmetry_equiv_pos_as_xyz
  1  'x, y, z'
loop_
 _atom_site_type_symbol
 _atom_site_label
 _atom_site_symmetry_multiplicity
 _atom_site_fract_x
 _atom_site_fract_y
 _atom_site_fract_z
 _atom_site_occupancy
  Li  Li0  1  0.333333  0.666667  0.903489  1
  Li  Li1  1  0.000000  0.000000  0.991883  1
  Li  Li2  1  0.000000  0.000000  0.491883  1
  Li  Li3  1  0.666667  0.333333  0.403489  1
  Pa  Pa4  1  0.333333  0.666667  0.488964  1
  Pa  Pa5  1  0.666667  0.333333  0.988964  1
  Cr  Cr6  1  0.167405  0.832595  0.214094  1
  Cr  Cr7  1  0.167405  0.334809  0.214094  1
  Cr  Cr8  1  0.665191  0.832595  0.214094  1
  Cr  Cr9  1  0.334809  0.167405  0.714094  1
  Cr  Cr10  1  0.832595  0.665191  0.714094  1
  Cr  Cr11  1  0.832595  0.167405  0.714094  1
  O  O12  1  0.155566  0.844434  0.600617  1
  O  O13  1  0.031440  0.515720  0.334839  1
  O  O14  1  0.333333  0.666667  0.110599  1
  O  O15  1  0.000000  0.000000  0.310301  1
  O  O16  1  0.000000  0.000000  0.810301  1
  O  O17  1  0.155566  0.311132  0.600617  1
  O  O18  1  0.484280  0.968560  0.334839  1
  O  O19  1  0.484280  0.515720  0.334839  1
  O  O20  1  0.311132  0.155566  0.100617  1
  O  O21  1  0.688868  0.844434  0.600617  1
  O  O22  1  0.515720  0.484280  0.834839  1
  O  O23  1  0.515720  0.031440  0.834839  1
  O  O24  1  0.666667  0.333333  0.610599  1
  O  O25  1  0.844434  0.688868  0.100617  1
  O  O26  1  0.968560  0.484280  0.834839  1
  O  O27  1  0.844434  0.155566  0.100617  1
