# generated using pymatgen
data_LaTh(B2Ir3)3
_symmetry_space_group_name_H-M   'P 1'
_cell_length_a   5.71439401
_cell_length_b   5.71438342
_cell_length_c   8.65918101
_cell_angle_alpha   89.99963201
_cell_angle_beta   90.00053257
_cell_angle_gamma   120.00009448
_symmetry_Int_Tables_number   1
_chemical_formula_structural   LaTh(B2Ir3)3
_chemical_formula_sum   'La1 Th1 B6 Ir9'
_cell_volume   244.87621042
_cell_formula_units_Z   1
loop_
 _symmetry_equiv_pos_site_id
 _symmetry_equiv_pos_as_xyz
  1  'x, y, z'
loop_
 _atom_site_type_symbol
 _atom_site_label
 _atom_site_symmetry_multiplicity
 _atom_site_fract_x
 _atom_site_fract_y
 _atom_site_fract_z
 _atom_site_occupancy
  La  La0  1  0.999996  0.000003  0.708677  1
  Th  Th1  1  0.000008  0.000007  0.298510  1
  B  B2  1  0.333330  0.666670  0.998483  1
  B  B3  1  0.666661  0.333331  0.998483  1
  B  B4  1  0.333323  0.666664  0.332418  1
  B  B5  1  0.666659  0.333335  0.332420  1
  B  B6  1  0.666661  0.333335  0.667932  1
  B  B7  1  0.333330  0.666667  0.667934  1
  Ir  Ir8  1  0.499995  0.000000  0.162571  1
  Ir  Ir9  1  0.499993  0.500006  0.162571  1
  Ir  Ir10  1  0.999988  0.499996  0.162568  1
  Ir  Ir11  1  0.499992  0.999997  0.836381  1
  Ir  Ir12  1  0.499992  0.499996  0.836377  1
  Ir  Ir13  1  0.999994  0.499998  0.836377  1
  Ir  Ir14  1  0.499989  0.999999  0.499438  1
  Ir  Ir15  1  0.499990  0.499992  0.499431  1
  Ir  Ir16  1  0.999999  0.500005  0.499431  1
