# generated using pymatgen
data_Ce5Tm11(HgRu)4
_symmetry_space_group_name_H-M   'P 1'
_cell_length_a   9.44276485
_cell_length_b   9.52836306
_cell_length_c   9.52836288
_cell_angle_alpha   59.97848835
_cell_angle_beta   60.29673146
_cell_angle_gamma   60.29673473
_symmetry_Int_Tables_number   1
_chemical_formula_structural   Ce5Tm11(HgRu)4
_chemical_formula_sum   'Ce5 Tm11 Hg4 Ru4'
_cell_volume   608.81150767
_cell_formula_units_Z   1
loop_
 _symmetry_equiv_pos_site_id
 _symmetry_equiv_pos_as_xyz
  1  'x, y, z'
loop_
 _atom_site_type_symbol
 _atom_site_label
 _atom_site_symmetry_multiplicity
 _atom_site_fract_x
 _atom_site_fract_y
 _atom_site_fract_z
 _atom_site_occupancy
  Ce  Ce0  1  0.814359  0.185641  0.185641  1
  Ce  Ce1  1  0.349145  0.348698  0.953012  1
  Ce  Ce2  1  0.349145  0.953012  0.348698  1
  Ce  Ce3  1  0.952385  0.351711  0.351711  1
  Ce  Ce4  1  0.344194  0.351711  0.351711  1
  Tm  Tm5  1  0.561335  0.562492  0.936635  1
  Tm  Tm6  1  0.939538  0.562492  0.936635  1
  Tm  Tm7  1  0.565876  0.934124  0.934124  1
  Tm  Tm8  1  0.939538  0.936635  0.562492  1
  Tm  Tm9  1  0.561335  0.936635  0.562492  1
  Tm  Tm10  1  0.933902  0.566098  0.566098  1
  Tm  Tm11  1  0.192990  0.186995  0.807998  1
  Tm  Tm12  1  0.812016  0.186995  0.807998  1
  Tm  Tm13  1  0.187264  0.812736  0.812735  1
  Tm  Tm14  1  0.812016  0.807999  0.186995  1
  Tm  Tm15  1  0.192989  0.807998  0.186994  1
  Hg  Hg16  1  0.585472  0.588656  0.240401  1
  Hg  Hg17  1  0.585472  0.240401  0.588656  1
  Hg  Hg18  1  0.242124  0.585950  0.585950  1
  Hg  Hg19  1  0.585976  0.585950  0.585950  1
  Ru  Ru20  1  0.146859  0.141516  0.564767  1
  Ru  Ru21  1  0.146859  0.564767  0.141516  1
  Ru  Ru22  1  0.582948  0.150395  0.150395  1
  Ru  Ru23  1  0.116262  0.150395  0.150395  1
