# generated using pymatgen
data_Ac3Al11Hg
_symmetry_space_group_name_H-M   'P 1'
_cell_length_a   9.00787254
_cell_length_b   9.00787183
_cell_length_c   9.00787183
_cell_angle_alpha   150.36445702
_cell_angle_beta   105.23818017
_cell_angle_gamma   82.41362536
_symmetry_Int_Tables_number   1
_chemical_formula_structural   Ac3Al11Hg
_chemical_formula_sum   'Ac3 Al11 Hg1'
_cell_volume   341.51926122
_cell_formula_units_Z   1
loop_
 _symmetry_equiv_pos_site_id
 _symmetry_equiv_pos_as_xyz
  1  'x, y, z'
loop_
 _atom_site_type_symbol
 _atom_site_label
 _atom_site_symmetry_multiplicity
 _atom_site_fract_x
 _atom_site_fract_y
 _atom_site_fract_z
 _atom_site_occupancy
  Ac  Ac0  1  0.000570  0.000000  0.000570  1
  Ac  Ac1  1  0.330122  0.329964  0.000158  1
  Ac  Ac2  1  0.670193  0.670036  0.000158  1
  Al  Al3  1  0.376524  0.000000  0.376524  1
  Al  Al4  1  0.251390  0.500000  0.751390  1
  Al  Al5  1  0.755771  0.500000  0.255771  1
  Al  Al6  1  0.584321  0.830726  0.753596  1
  Al  Al7  1  0.922870  0.169274  0.753596  1
  Al  Al8  1  0.288046  0.667410  0.620635  1
  Al  Al9  1  0.953225  0.332590  0.620635  1
  Al  Al10  1  0.047501  0.667019  0.380481  1
  Al  Al11  1  0.713460  0.332981  0.380481  1
  Al  Al12  1  0.082573  0.833359  0.249214  1
  Al  Al13  1  0.415854  0.166641  0.249214  1
  Hg  Hg14  1  0.618580  0.000000  0.618580  1
