# generated using pymatgen
data_CeYBeSi4Ni
_symmetry_space_group_name_H-M   'P 1'
_cell_length_a   8.40641056
_cell_length_b   8.40641210
_cell_length_c   3.98074600
_cell_angle_alpha   90.00000000
_cell_angle_beta   90.00000000
_cell_angle_gamma   152.00092923
_symmetry_Int_Tables_number   1
_chemical_formula_structural   CeYBeSi4Ni
_chemical_formula_sum   'Ce1 Y1 Be1 Si4 Ni1'
_cell_volume   132.06319008
_cell_formula_units_Z   1
loop_
 _symmetry_equiv_pos_site_id
 _symmetry_equiv_pos_as_xyz
  1  'x, y, z'
loop_
 _atom_site_type_symbol
 _atom_site_label
 _atom_site_symmetry_multiplicity
 _atom_site_fract_x
 _atom_site_fract_y
 _atom_site_fract_z
 _atom_site_occupancy
  Ce  Ce0  1  0.391267  0.608733  0.250000  1
  Y  Y1  1  0.601621  0.398379  0.750000  1
  Be  Be2  1  0.826209  0.173791  0.750000  1
  Si  Si3  1  0.961756  0.038244  0.750000  1
  Si  Si4  1  0.040268  0.959732  0.250000  1
  Si  Si5  1  0.250223  0.749777  0.750000  1
  Si  Si6  1  0.748453  0.251547  0.250000  1
  Ni  Ni7  1  0.180201  0.819799  0.250000  1
