# generated using pymatgen
data_Er5Lu11(CdRh)4
_symmetry_space_group_name_H-M   'P 1'
_cell_length_a   9.47920770
_cell_length_b   9.47920788
_cell_length_c   9.54968100
_cell_angle_alpha   59.75376613
_cell_angle_beta   59.75376553
_cell_angle_gamma   59.73741989
_symmetry_Int_Tables_number   1
_chemical_formula_structural   Er5Lu11(CdRh)4
_chemical_formula_sum   'Er5 Lu11 Cd4 Rh4'
_cell_volume   603.29358922
_cell_formula_units_Z   1
loop_
 _symmetry_equiv_pos_site_id
 _symmetry_equiv_pos_as_xyz
  1  'x, y, z'
loop_
 _atom_site_type_symbol
 _atom_site_label
 _atom_site_symmetry_multiplicity
 _atom_site_fract_x
 _atom_site_fract_y
 _atom_site_fract_z
 _atom_site_occupancy
  Er  Er0  1  0.935902  0.563370  0.563617  1
  Er  Er1  1  0.935902  0.563370  0.937111  1
  Er  Er2  1  0.563370  0.935902  0.563617  1
  Er  Er3  1  0.563370  0.935902  0.937111  1
  Er  Er4  1  0.312533  0.312533  0.687467  1
  Lu  Lu5  1  0.937533  0.937533  0.562467  1
  Lu  Lu6  1  0.561448  0.561448  0.938552  1
  Lu  Lu7  1  0.686838  0.686838  0.313162  1
  Lu  Lu8  1  0.149412  0.547826  0.151381  1
  Lu  Lu9  1  0.688959  0.312962  0.686915  1
  Lu  Lu10  1  0.150252  0.150252  0.153155  1
  Lu  Lu11  1  0.547826  0.149412  0.151381  1
  Lu  Lu12  1  0.688959  0.312962  0.311163  1
  Lu  Lu13  1  0.150252  0.150252  0.546339  1
  Lu  Lu14  1  0.312962  0.688959  0.311163  1
  Lu  Lu15  1  0.312962  0.688959  0.686915  1
  Cd  Cd16  1  0.920298  0.920298  0.241628  1
  Cd  Cd17  1  0.243162  0.918589  0.919125  1
  Cd  Cd18  1  0.920298  0.920298  0.917775  1
  Cd  Cd19  1  0.918589  0.243162  0.919125  1
  Rh  Rh20  1  0.357756  0.357756  0.929453  1
  Rh  Rh21  1  0.355894  0.927765  0.358170  1
  Rh  Rh22  1  0.927765  0.355894  0.358170  1
  Rh  Rh23  1  0.357756  0.357756  0.355035  1
