# generated using pymatgen
data_Ho3MgAl2Si2Pt
_symmetry_space_group_name_H-M   'P 1'
_cell_length_a   7.00824200
_cell_length_b   6.93764595
_cell_length_c   4.25326400
_cell_angle_alpha   90.00000000
_cell_angle_beta   90.00000000
_cell_angle_gamma   120.33719689
_symmetry_Int_Tables_number   1
_chemical_formula_structural   Ho3MgAl2Si2Pt
_chemical_formula_sum   'Ho3 Mg1 Al2 Si2 Pt1'
_cell_volume   178.47956108
_cell_formula_units_Z   1
loop_
 _symmetry_equiv_pos_site_id
 _symmetry_equiv_pos_as_xyz
  1  'x, y, z'
loop_
 _atom_site_type_symbol
 _atom_site_label
 _atom_site_symmetry_multiplicity
 _atom_site_fract_x
 _atom_site_fract_y
 _atom_site_fract_z
 _atom_site_occupancy
  Ho  Ho0  1  0.415731  0.000000  0.000000  1
  Ho  Ho1  1  0.999711  0.417064  0.000000  1
  Ho  Ho2  1  0.582647  0.582937  0.000000  1
  Mg  Mg3  1  0.760844  0.000000  0.500001  1
  Al  Al4  1  0.238955  0.237286  0.500001  1
  Al  Al5  1  0.001670  0.762715  0.500001  1
  Si  Si6  1  0.664030  0.340127  0.500001  1
  Si  Si7  1  0.323903  0.659874  0.500001  1
  Pt  Pt8  1  0.012508  0.000000  0.000000  1
