# generated using pymatgen
data_Cr3InS3
_symmetry_space_group_name_H-M   'P 1'
_cell_length_a   8.89882400
_cell_length_b   8.89882307
_cell_length_c   4.06164400
_cell_angle_alpha   90.00000000
_cell_angle_beta   90.00000000
_cell_angle_gamma   119.99999800
_symmetry_Int_Tables_number   1
_chemical_formula_structural   Cr3InS3
_chemical_formula_sum   'Cr6 In2 S6'
_cell_volume   278.54648677
_cell_formula_units_Z   2
loop_
 _symmetry_equiv_pos_site_id
 _symmetry_equiv_pos_as_xyz
  1  'x, y, z'
loop_
 _atom_site_type_symbol
 _atom_site_label
 _atom_site_symmetry_multiplicity
 _atom_site_fract_x
 _atom_site_fract_y
 _atom_site_fract_z
 _atom_site_occupancy
  Cr  Cr0  1  0.156647  0.160835  0.750000  1
  Cr  Cr1  1  0.839165  0.995811  0.750000  1
  Cr  Cr2  1  0.004189  0.843353  0.750000  1
  Cr  Cr3  1  0.843353  0.839165  0.250000  1
  Cr  Cr4  1  0.160835  0.004189  0.250000  1
  Cr  Cr5  1  0.995811  0.156647  0.250000  1
  In  In6  1  0.666667  0.333333  0.750000  1
  In  In7  1  0.333333  0.666667  0.250000  1
  S  S8  1  0.308206  0.007734  0.750000  1
  S  S9  1  0.992266  0.300472  0.750000  1
  S  S10  1  0.699528  0.691794  0.750000  1
  S  S11  1  0.691794  0.992266  0.250000  1
  S  S12  1  0.007734  0.699528  0.250000  1
  S  S13  1  0.300472  0.308206  0.250000  1
