# generated using pymatgen
data_TmZr9(In2Rh)4
_symmetry_space_group_name_H-M   'P 1'
_cell_length_a   3.42016900
_cell_length_b   7.69869181
_cell_length_c   17.68146011
_cell_angle_alpha   90.00923344
_cell_angle_beta   90.00000000
_cell_angle_gamma   90.00000000
_symmetry_Int_Tables_number   1
_chemical_formula_structural   TmZr9(In2Rh)4
_chemical_formula_sum   'Tm1 Zr9 In8 Rh4'
_cell_volume   465.56746238
_cell_formula_units_Z   1
loop_
 _symmetry_equiv_pos_site_id
 _symmetry_equiv_pos_as_xyz
  1  'x, y, z'
loop_
 _atom_site_type_symbol
 _atom_site_label
 _atom_site_symmetry_multiplicity
 _atom_site_fract_x
 _atom_site_fract_y
 _atom_site_fract_z
 _atom_site_occupancy
  Tm  Tm0  1  0.000000  0.260521  0.220689  1
  Zr  Zr1  1  0.000000  0.638326  0.079512  1
  Zr  Zr2  1  0.000000  0.761831  0.278144  1
  Zr  Zr3  1  0.000000  0.861764  0.581348  1
  Zr  Zr4  1  0.000000  0.239595  0.722484  1
  Zr  Zr5  1  0.000000  0.739958  0.777659  1
  Zr  Zr6  1  0.000000  0.137400  0.420649  1
  Zr  Zr7  1  0.000000  0.000150  0.999252  1
  Zr  Zr8  1  0.000000  0.362531  0.918169  1
  Zr  Zr9  1  0.000000  0.500067  0.500744  1
  In  In10  1  0.500000  0.799740  0.434372  1
  In  In11  1  0.500000  0.698836  0.932148  1
  In  In12  1  0.500000  0.060300  0.850327  1
  In  In13  1  0.500000  0.560520  0.649588  1
  In  In14  1  0.500000  0.198592  0.567574  1
  In  In15  1  0.500000  0.936719  0.149085  1
  In  In16  1  0.500000  0.441313  0.351991  1
  In  In17  1  0.500000  0.303498  0.064747  1
  Rh  Rh18  1  0.500000  0.451355  0.806092  1
  Rh  Rh19  1  0.500000  0.556641  0.192291  1
  Rh  Rh20  1  0.500000  0.950526  0.693497  1
  Rh  Rh21  1  0.500000  0.039818  0.309639  1
