# generated using pymatgen
data_Dy3LuCo18(P6Os)2
_symmetry_space_group_name_H-M   'P 1'
_cell_length_a   3.66919600
_cell_length_b   10.31023053
_cell_length_c   11.71009860
_cell_angle_alpha   89.96321840
_cell_angle_beta   90.00000000
_cell_angle_gamma   90.00000000
_symmetry_Int_Tables_number   1
_chemical_formula_structural   Dy3LuCo18(P6Os)2
_chemical_formula_sum   'Dy3 Lu1 Co18 P12 Os2'
_cell_volume   442.99594397
_cell_formula_units_Z   1
loop_
 _symmetry_equiv_pos_site_id
 _symmetry_equiv_pos_as_xyz
  1  'x, y, z'
loop_
 _atom_site_type_symbol
 _atom_site_label
 _atom_site_symmetry_multiplicity
 _atom_site_fract_x
 _atom_site_fract_y
 _atom_site_fract_z
 _atom_site_occupancy
  Dy  Dy0  1  0.250000  0.582435  0.701881  1
  Dy  Dy1  1  0.250000  0.917524  0.201871  1
  Dy  Dy2  1  0.750000  0.086776  0.795391  1
  Lu  Lu3  1  0.750000  0.413288  0.295399  1
  Co  Co4  1  0.750000  0.283775  0.008976  1
  Co  Co5  1  0.750000  0.216362  0.508851  1
  Co  Co6  1  0.250000  0.405944  0.486654  1
  Co  Co7  1  0.250000  0.093960  0.988276  1
  Co  Co8  1  0.750000  0.591346  0.509505  1
  Co  Co9  1  0.750000  0.908255  0.009821  1
  Co  Co10  1  0.250000  0.221067  0.177445  1
  Co  Co11  1  0.250000  0.280015  0.676884  1
  Co  Co12  1  0.750000  0.777517  0.822868  1
  Co  Co13  1  0.750000  0.722123  0.322749  1
  Co  Co14  1  0.250000  0.887340  0.701776  1
  Co  Co15  1  0.250000  0.611367  0.202382  1
  Co  Co16  1  0.750000  0.116412  0.300987  1
  Co  Co17  1  0.750000  0.384305  0.801159  1
  Co  Co18  1  0.250000  0.465441  0.933219  1
  Co  Co19  1  0.250000  0.035157  0.432442  1
  Co  Co20  1  0.750000  0.532862  0.069693  1
  Co  Co21  1  0.750000  0.966722  0.568787  1
  P  P22  1  0.250000  0.416110  0.113593  1
  P  P23  1  0.250000  0.084019  0.612217  1
  P  P24  1  0.750000  0.578610  0.886820  1
  P  P25  1  0.750000  0.921381  0.386498  1
  P  P26  1  0.250000  0.270882  0.869662  1
  P  P27  1  0.250000  0.230715  0.369057  1
  P  P28  1  0.750000  0.729106  0.132355  1
  P  P29  1  0.750000  0.770795  0.632470  1
  P  P30  1  0.250000  0.592500  0.389624  1
  P  P31  1  0.250000  0.906326  0.890103  1
  P  P32  1  0.750000  0.397124  0.608690  1
  P  P33  1  0.750000  0.102831  0.108545  1
  Os  Os34  1  0.250000  0.715099  0.991894  1
  Os  Os35  1  0.250000  0.784511  0.491454  1
