# generated using pymatgen
data_Ho2Hf2NbSi4
_symmetry_space_group_name_H-M   'P 1'
_cell_length_a   7.21965600
_cell_length_b   7.21965600
_cell_length_c   13.21745300
_cell_angle_alpha   90.00000000
_cell_angle_beta   90.00000000
_cell_angle_gamma   90.00000000
_symmetry_Int_Tables_number   1
_chemical_formula_structural   Ho2Hf2NbSi4
_chemical_formula_sum   'Ho8 Hf8 Nb4 Si16'
_cell_volume   688.93902268
_cell_formula_units_Z   4
loop_
 _symmetry_equiv_pos_site_id
 _symmetry_equiv_pos_as_xyz
  1  'x, y, z'
loop_
 _atom_site_type_symbol
 _atom_site_label
 _atom_site_symmetry_multiplicity
 _atom_site_fract_x
 _atom_site_fract_y
 _atom_site_fract_z
 _atom_site_occupancy
  Ho  Ho0  1  0.497459  0.154827  0.534691  1
  Ho  Ho1  1  0.502541  0.845173  0.034691  1
  Ho  Ho2  1  0.654827  0.002541  0.284691  1
  Ho  Ho3  1  0.345173  0.997459  0.784691  1
  Ho  Ho4  1  0.845173  0.502541  0.965309  1
  Ho  Ho5  1  0.154827  0.497459  0.465309  1
  Ho  Ho6  1  0.002541  0.654827  0.715309  1
  Ho  Ho7  1  0.997459  0.345173  0.215309  1
  Hf  Hf8  1  0.493592  0.352818  0.125038  1
  Hf  Hf9  1  0.506408  0.647182  0.625038  1
  Hf  Hf10  1  0.852818  0.006408  0.875038  1
  Hf  Hf11  1  0.147182  0.993592  0.375038  1
  Hf  Hf12  1  0.647182  0.506408  0.374962  1
  Hf  Hf13  1  0.352818  0.493592  0.874962  1
  Hf  Hf14  1  0.006408  0.852818  0.124962  1
  Hf  Hf15  1  0.993592  0.147182  0.624962  1
  Nb  Nb16  1  0.676614  0.323386  0.750000  1
  Nb  Nb17  1  0.323386  0.676614  0.250000  1
  Nb  Nb18  1  0.823386  0.823386  0.500000  1
  Nb  Nb19  1  0.176614  0.176614  0.000000  1
  Si  Si20  1  0.796498  0.139362  0.067137  1
  Si  Si21  1  0.203502  0.860638  0.567137  1
  Si  Si22  1  0.639362  0.703502  0.817137  1
  Si  Si23  1  0.360638  0.296498  0.317137  1
  Si  Si24  1  0.860638  0.203502  0.432863  1
  Si  Si25  1  0.139362  0.796498  0.932863  1
  Si  Si26  1  0.703502  0.639362  0.182863  1
  Si  Si27  1  0.296498  0.360638  0.682863  1
  Si  Si28  1  0.549899  0.203830  0.934835  1
  Si  Si29  1  0.450101  0.796170  0.434835  1
  Si  Si30  1  0.703830  0.950101  0.684835  1
  Si  Si31  1  0.296170  0.049899  0.184835  1
  Si  Si32  1  0.796170  0.450101  0.565165  1
  Si  Si33  1  0.203830  0.549899  0.065165  1
  Si  Si34  1  0.950101  0.703830  0.315165  1
  Si  Si35  1  0.049899  0.296170  0.815165  1
