# generated using pymatgen
data_Lu2Sc2TcNiB12
_symmetry_space_group_name_H-M   'P 1'
_cell_length_a   3.50170200
_cell_length_b   8.91447370
_cell_length_c   11.27770242
_cell_angle_alpha   89.63526327
_cell_angle_beta   90.00000000
_cell_angle_gamma   90.00000000
_symmetry_Int_Tables_number   1
_chemical_formula_structural   Lu2Sc2TcNiB12
_chemical_formula_sum   'Lu4 Sc4 Tc2 Ni2 B24'
_cell_volume   352.03571287
_cell_formula_units_Z   2
loop_
 _symmetry_equiv_pos_site_id
 _symmetry_equiv_pos_as_xyz
  1  'x, y, z'
loop_
 _atom_site_type_symbol
 _atom_site_label
 _atom_site_symmetry_multiplicity
 _atom_site_fract_x
 _atom_site_fract_y
 _atom_site_fract_z
 _atom_site_occupancy
  Lu  Lu0  1  0.000000  0.322755  0.416137  1
  Lu  Lu1  1  0.000000  0.677245  0.583863  1
  Lu  Lu2  1  0.000000  0.821158  0.085834  1
  Lu  Lu3  1  0.000000  0.178842  0.914166  1
  Sc  Sc4  1  0.000000  0.943979  0.371109  1
  Sc  Sc5  1  0.000000  0.056021  0.628891  1
  Sc  Sc6  1  0.000000  0.445162  0.128274  1
  Sc  Sc7  1  0.000000  0.554838  0.871726  1
  Tc  Tc8  1  0.000000  0.641479  0.317893  1
  Tc  Tc9  1  0.000000  0.358521  0.682107  1
  Ni  Ni10  1  0.000000  0.140613  0.180975  1
  Ni  Ni11  1  0.000000  0.859387  0.819025  1
  B  B12  1  0.500000  0.553920  0.433507  1
  B  B13  1  0.500000  0.446080  0.566493  1
  B  B14  1  0.500000  0.055136  0.065061  1
  B  B15  1  0.500000  0.944864  0.934939  1
  B  B16  1  0.500000  0.753660  0.419277  1
  B  B17  1  0.500000  0.246340  0.580723  1
  B  B18  1  0.500000  0.251325  0.081081  1
  B  B19  1  0.500000  0.748675  0.918919  1
  B  B20  1  0.500000  0.797511  0.262597  1
  B  B21  1  0.500000  0.202489  0.737403  1
  B  B22  1  0.500000  0.292806  0.236088  1
  B  B23  1  0.500000  0.707194  0.763912  1
  B  B24  1  0.500000  0.631131  0.181162  1
  B  B25  1  0.500000  0.368869  0.818838  1
  B  B26  1  0.500000  0.131085  0.318322  1
  B  B27  1  0.500000  0.868915  0.681678  1
  B  B28  1  0.500000  0.985620  0.212168  1
  B  B29  1  0.500000  0.014380  0.787832  1
  B  B30  1  0.500000  0.480518  0.285621  1
  B  B31  1  0.500000  0.519482  0.714379  1
  B  B32  1  0.500000  0.600438  0.025961  1
  B  B33  1  0.500000  0.399562  0.974039  1
  B  B34  1  0.500000  0.099196  0.472575  1
  B  B35  1  0.500000  0.900804  0.527425  1
