# generated using pymatgen
data_La2Ho2TmGe4
_symmetry_space_group_name_H-M   'P 1'
_cell_length_a   7.93057500
_cell_length_b   7.93057500
_cell_length_c   14.59472500
_cell_angle_alpha   90.00000000
_cell_angle_beta   90.00000000
_cell_angle_gamma   90.00000000
_symmetry_Int_Tables_number   1
_chemical_formula_structural   La2Ho2TmGe4
_chemical_formula_sum   'La8 Ho8 Tm4 Ge16'
_cell_volume   917.92092357
_cell_formula_units_Z   4
loop_
 _symmetry_equiv_pos_site_id
 _symmetry_equiv_pos_as_xyz
  1  'x, y, z'
loop_
 _atom_site_type_symbol
 _atom_site_label
 _atom_site_symmetry_multiplicity
 _atom_site_fract_x
 _atom_site_fract_y
 _atom_site_fract_z
 _atom_site_occupancy
  La  La0  1  0.643902  0.993769  0.460453  1
  La  La1  1  0.356098  0.006231  0.960453  1
  La  La2  1  0.993769  0.643902  0.539547  1
  La  La3  1  0.493769  0.856098  0.210453  1
  La  La4  1  0.506231  0.143902  0.710453  1
  La  La5  1  0.856098  0.493769  0.789547  1
  La  La6  1  0.143902  0.506231  0.289547  1
  La  La7  1  0.006231  0.356098  0.039547  1
  Ho  Ho8  1  0.493063  0.354310  0.124290  1
  Ho  Ho9  1  0.993063  0.145690  0.625710  1
  Ho  Ho10  1  0.854310  0.006937  0.874290  1
  Ho  Ho11  1  0.145690  0.993063  0.374290  1
  Ho  Ho12  1  0.506937  0.645690  0.624290  1
  Ho  Ho13  1  0.354310  0.493063  0.875710  1
  Ho  Ho14  1  0.645690  0.506937  0.375710  1
  Ho  Ho15  1  0.006937  0.854310  0.125710  1
  Tm  Tm16  1  0.318686  0.318686  0.500000  1
  Tm  Tm17  1  0.181314  0.818686  0.750000  1
  Tm  Tm18  1  0.818686  0.181314  0.250000  1
  Tm  Tm19  1  0.681314  0.681314  0.000000  1
  Ge  Ge20  1  0.288337  0.946372  0.566418  1
  Ge  Ge21  1  0.711663  0.053628  0.066418  1
  Ge  Ge22  1  0.946372  0.288337  0.433582  1
  Ge  Ge23  1  0.446372  0.211663  0.316418  1
  Ge  Ge24  1  0.553628  0.788337  0.816418  1
  Ge  Ge25  1  0.211663  0.446372  0.683582  1
  Ge  Ge26  1  0.788337  0.553628  0.183582  1
  Ge  Ge27  1  0.053628  0.711663  0.933582  1
  Ge  Ge28  1  0.802430  0.852014  0.684799  1
  Ge  Ge29  1  0.197570  0.147986  0.184799  1
  Ge  Ge30  1  0.852014  0.802430  0.315201  1
  Ge  Ge31  1  0.352014  0.697570  0.434799  1
  Ge  Ge32  1  0.647986  0.302430  0.934799  1
  Ge  Ge33  1  0.697570  0.352014  0.565201  1
  Ge  Ge34  1  0.302430  0.647986  0.065201  1
  Ge  Ge35  1  0.147986  0.197570  0.815201  1
