# generated using pymatgen
data_Ho7Er(LuGa3)2
_symmetry_space_group_name_H-M   'P 1'
_cell_length_a   7.54896600
_cell_length_b   7.54887600
_cell_length_c   14.11525500
_cell_angle_alpha   90.00000000
_cell_angle_beta   89.99988598
_cell_angle_gamma   90.00000000
_symmetry_Int_Tables_number   1
_chemical_formula_structural   Ho7Er(LuGa3)2
_chemical_formula_sum   'Ho14 Er2 Lu4 Ga12'
_cell_volume   804.37486110
_cell_formula_units_Z   2
loop_
 _symmetry_equiv_pos_site_id
 _symmetry_equiv_pos_as_xyz
  1  'x, y, z'
loop_
 _atom_site_type_symbol
 _atom_site_label
 _atom_site_symmetry_multiplicity
 _atom_site_fract_x
 _atom_site_fract_y
 _atom_site_fract_z
 _atom_site_occupancy
  Ho  Ho0  1  0.823658  0.837841  0.397036  1
  Ho  Ho1  1  0.176292  0.837865  0.897031  1
  Ho  Ho2  1  0.323779  0.337866  0.602953  1
  Ho  Ho3  1  0.323779  0.662134  0.102953  1
  Ho  Ho4  1  0.176292  0.162135  0.397031  1
  Ho  Ho5  1  0.823658  0.162159  0.897036  1
  Ho  Ho6  1  0.662139  0.323787  0.397018  1
  Ho  Ho7  1  0.337992  0.323683  0.897032  1
  Ho  Ho8  1  0.162111  0.823573  0.602935  1
  Ho  Ho9  1  0.837756  0.823574  0.102950  1
  Ho  Ho10  1  0.337992  0.676317  0.397032  1
  Ho  Ho11  1  0.662139  0.676213  0.897018  1
  Ho  Ho12  1  0.837756  0.176426  0.602950  1
  Ho  Ho13  1  0.162111  0.176427  0.102935  1
  Er  Er14  1  0.676330  0.661961  0.603189  1
  Er  Er15  1  0.676330  0.338039  0.103189  1
  Lu  Lu16  1  0.999908  0.500056  0.762140  1
  Lu  Lu17  1  0.999908  0.499944  0.262140  1
  Lu  Lu18  1  0.500054  0.000083  0.237731  1
  Lu  Lu19  1  0.500054  0.999917  0.737731  1
  Ga  Ga20  1  0.999824  0.500131  0.495212  1
  Ga  Ga21  1  0.999824  0.499869  0.995212  1
  Ga  Ga22  1  0.500148  0.999909  0.504874  1
  Ga  Ga23  1  0.500148  0.000091  0.004874  1
  Ga  Ga24  1  0.876045  0.876049  0.749989  1
  Ga  Ga25  1  0.876045  0.123951  0.249989  1
  Ga  Ga26  1  0.623970  0.623868  0.249955  1
  Ga  Ga27  1  0.376120  0.623969  0.749974  1
  Ga  Ga28  1  0.123874  0.123871  0.749978  1
  Ga  Ga29  1  0.123874  0.876129  0.249978  1
  Ga  Ga30  1  0.376120  0.376031  0.249974  1
  Ga  Ga31  1  0.623970  0.376132  0.749955  1
