# generated using pymatgen
data_Zr2NbCdPt12
_symmetry_space_group_name_H-M   'P 1'
_cell_length_a   5.67709100
_cell_length_b   5.67709123
_cell_length_c   9.24180900
_cell_angle_alpha   90.00000000
_cell_angle_beta   90.00000000
_cell_angle_gamma   120.00000450
_symmetry_Int_Tables_number   1
_chemical_formula_structural   Zr2NbCdPt12
_chemical_formula_sum   'Zr2 Nb1 Cd1 Pt12'
_cell_volume   257.95225550
_cell_formula_units_Z   1
loop_
 _symmetry_equiv_pos_site_id
 _symmetry_equiv_pos_as_xyz
  1  'x, y, z'
loop_
 _atom_site_type_symbol
 _atom_site_label
 _atom_site_symmetry_multiplicity
 _atom_site_fract_x
 _atom_site_fract_y
 _atom_site_fract_z
 _atom_site_occupancy
  Zr  Zr0  1  0.333333  0.666667  0.248217  1
  Zr  Zr1  1  0.000000  0.000000  0.998823  1
  Nb  Nb2  1  0.000000  0.000000  0.502630  1
  Cd  Cd3  1  0.666667  0.333333  0.751052  1
  Pt  Pt4  1  0.168806  0.337613  0.746826  1
  Pt  Pt5  1  0.002841  0.501422  0.002492  1
  Pt  Pt6  1  0.831463  0.662928  0.252889  1
  Pt  Pt7  1  0.337072  0.168537  0.252889  1
  Pt  Pt8  1  0.498578  0.501422  0.002492  1
  Pt  Pt9  1  0.831463  0.168537  0.252889  1
  Pt  Pt10  1  0.498514  0.501486  0.497552  1
  Pt  Pt11  1  0.498514  0.997029  0.497552  1
  Pt  Pt12  1  0.168806  0.831194  0.746826  1
  Pt  Pt13  1  0.662387  0.831194  0.746826  1
  Pt  Pt14  1  0.498578  0.997159  0.002492  1
  Pt  Pt15  1  0.002971  0.501486  0.497552  1
