# generated using pymatgen
data_Dy4BeB14
_symmetry_space_group_name_H-M   'P 1'
_cell_length_a   7.21471500
_cell_length_b   7.21471500
_cell_length_c   7.39131500
_cell_angle_alpha   90.00000000
_cell_angle_beta   90.00000000
_cell_angle_gamma   90.00000000
_symmetry_Int_Tables_number   1
_chemical_formula_structural   Dy4BeB14
_chemical_formula_sum   'Dy8 Be2 B28'
_cell_volume   384.73356013
_cell_formula_units_Z   2
loop_
 _symmetry_equiv_pos_site_id
 _symmetry_equiv_pos_as_xyz
  1  'x, y, z'
loop_
 _atom_site_type_symbol
 _atom_site_label
 _atom_site_symmetry_multiplicity
 _atom_site_fract_x
 _atom_site_fract_y
 _atom_site_fract_z
 _atom_site_occupancy
  Dy  Dy0  1  0.194778  0.329034  0.000000  1
  Dy  Dy1  1  0.670966  0.194778  0.000000  1
  Dy  Dy2  1  0.329034  0.805222  0.000000  1
  Dy  Dy3  1  0.694778  0.170966  0.500000  1
  Dy  Dy4  1  0.305222  0.829034  0.500000  1
  Dy  Dy5  1  0.805222  0.670966  0.000000  1
  Dy  Dy6  1  0.829034  0.694778  0.500000  1
  Dy  Dy7  1  0.170966  0.305222  0.500000  1
  Be  Be8  1  0.000000  0.000000  0.000000  1
  Be  Be9  1  0.500000  0.500000  0.500000  1
  B  B10  1  0.174012  0.038931  0.227958  1
  B  B11  1  0.961069  0.174012  0.227958  1
  B  B12  1  0.038931  0.825988  0.227958  1
  B  B13  1  0.674012  0.461069  0.272042  1
  B  B14  1  0.325988  0.538931  0.272042  1
  B  B15  1  0.825988  0.961069  0.227958  1
  B  B16  1  0.538931  0.674012  0.272042  1
  B  B17  1  0.461069  0.325988  0.272042  1
  B  B18  1  0.825988  0.961069  0.772042  1
  B  B19  1  0.038931  0.825988  0.772042  1
  B  B20  1  0.961069  0.174012  0.772042  1
  B  B21  1  0.325988  0.538931  0.727958  1
  B  B22  1  0.674012  0.461069  0.727958  1
  B  B23  1  0.174012  0.038931  0.772042  1
  B  B24  1  0.461069  0.325988  0.727958  1
  B  B25  1  0.538931  0.674012  0.727958  1
  B  B26  1  0.088370  0.588370  0.250000  1
  B  B27  1  0.411630  0.088370  0.250000  1
  B  B28  1  0.588370  0.911630  0.250000  1
  B  B29  1  0.911630  0.411630  0.250000  1
  B  B30  1  0.911630  0.411630  0.750000  1
  B  B31  1  0.588370  0.911630  0.750000  1
  B  B32  1  0.411630  0.088370  0.750000  1
  B  B33  1  0.088370  0.588370  0.750000  1
  B  B34  1  0.000000  0.000000  0.387789  1
  B  B35  1  0.500000  0.500000  0.112211  1
  B  B36  1  0.000000  0.000000  0.612211  1
  B  B37  1  0.500000  0.500000  0.887789  1
