# generated using pymatgen
data_Ho3Tm2ThRh18
_symmetry_space_group_name_H-M   'P 1'
_cell_length_a   5.26755600
_cell_length_b   5.26755573
_cell_length_c   17.52765100
_cell_angle_alpha   90.00000000
_cell_angle_beta   90.00000000
_cell_angle_gamma   120.00000170
_symmetry_Int_Tables_number   1
_chemical_formula_structural   Ho3Tm2ThRh18
_chemical_formula_sum   'Ho3 Tm2 Th1 Rh18'
_cell_volume   421.18475367
_cell_formula_units_Z   1
loop_
 _symmetry_equiv_pos_site_id
 _symmetry_equiv_pos_as_xyz
  1  'x, y, z'
loop_
 _atom_site_type_symbol
 _atom_site_label
 _atom_site_symmetry_multiplicity
 _atom_site_fract_x
 _atom_site_fract_y
 _atom_site_fract_z
 _atom_site_occupancy
  Ho  Ho0  1  0.333333  0.666667  0.542383  1
  Ho  Ho1  1  0.666667  0.333333  0.038955  1
  Ho  Ho2  1  0.333333  0.666667  0.750137  1
  Tm  Tm3  1  0.666667  0.333333  0.460602  1
  Tm  Tm4  1  0.333333  0.666667  0.957174  1
  Th  Th5  1  0.666667  0.333333  0.250032  1
  Rh  Rh6  1  0.167510  0.335017  0.124152  1
  Rh  Rh7  1  0.832574  0.665148  0.625544  1
  Rh  Rh8  1  0.664983  0.832490  0.124152  1
  Rh  Rh9  1  0.167510  0.832490  0.124152  1
  Rh  Rh10  1  0.832574  0.167426  0.625544  1
  Rh  Rh11  1  0.334852  0.167426  0.625544  1
  Rh  Rh12  1  0.832618  0.665236  0.874561  1
  Rh  Rh13  1  0.832618  0.167382  0.874561  1
  Rh  Rh14  1  0.334764  0.167382  0.874561  1
  Rh  Rh15  1  0.664980  0.832489  0.376015  1
  Rh  Rh16  1  0.167511  0.832489  0.376015  1
  Rh  Rh17  1  0.167511  0.335020  0.376015  1
  Rh  Rh18  1  0.000000  0.000000  0.249955  1
  Rh  Rh19  1  0.000000  0.000000  0.749972  1
  Rh  Rh20  1  0.333333  0.666667  0.250061  1
  Rh  Rh21  1  0.666667  0.333333  0.750054  1
  Rh  Rh22  1  0.000000  0.000000  0.999508  1
  Rh  Rh23  1  0.000000  0.000000  0.500353  1
