# generated using pymatgen
data_Tm2Pa2Zn3CuRh4
_symmetry_space_group_name_H-M   'P 1'
_cell_length_a   3.75945600
_cell_length_b   7.11150184
_cell_length_c   8.40033495
_cell_angle_alpha   92.81472614
_cell_angle_beta   90.00000000
_cell_angle_gamma   90.00000000
_symmetry_Int_Tables_number   1
_chemical_formula_structural   Tm2Pa2Zn3CuRh4
_chemical_formula_sum   'Tm2 Pa2 Zn3 Cu1 Rh4'
_cell_volume   224.31518027
_cell_formula_units_Z   1
loop_
 _symmetry_equiv_pos_site_id
 _symmetry_equiv_pos_as_xyz
  1  'x, y, z'
loop_
 _atom_site_type_symbol
 _atom_site_label
 _atom_site_symmetry_multiplicity
 _atom_site_fract_x
 _atom_site_fract_y
 _atom_site_fract_z
 _atom_site_occupancy
  Tm  Tm0  1  0.750000  0.933109  0.680577  1
  Tm  Tm1  1  0.250000  0.060487  0.316948  1
  Pa  Pa2  1  0.250000  0.551442  0.196212  1
  Pa  Pa3  1  0.750000  0.453135  0.802765  1
  Zn  Zn4  1  0.750000  0.376053  0.443766  1
  Zn  Zn5  1  0.750000  0.886586  0.063500  1
  Zn  Zn6  1  0.250000  0.115960  0.935333  1
  Cu  Cu7  1  0.250000  0.623019  0.558518  1
  Rh  Rh8  1  0.250000  0.717422  0.880017  1
  Rh  Rh9  1  0.750000  0.283105  0.124270  1
  Rh  Rh10  1  0.750000  0.752369  0.354651  1
  Rh  Rh11  1  0.250000  0.247312  0.643444  1
