# generated using pymatgen
data_Mg4Ga5Rh2
_symmetry_space_group_name_H-M   'P 1'
_cell_length_a   6.94828900
_cell_length_b   6.84608661
_cell_length_c   8.34647885
_cell_angle_alpha   79.40202685
_cell_angle_beta   90.00000000
_cell_angle_gamma   90.00000000
_symmetry_Int_Tables_number   1
_chemical_formula_structural   Mg4Ga5Rh2
_chemical_formula_sum   'Mg8 Ga10 Rh4'
_cell_volume   390.25761748
_cell_formula_units_Z   2
loop_
 _symmetry_equiv_pos_site_id
 _symmetry_equiv_pos_as_xyz
  1  'x, y, z'
loop_
 _atom_site_type_symbol
 _atom_site_label
 _atom_site_symmetry_multiplicity
 _atom_site_fract_x
 _atom_site_fract_y
 _atom_site_fract_z
 _atom_site_occupancy
  Mg  Mg0  1  0.559126  0.393100  0.260437  1
  Mg  Mg1  1  0.059126  0.606900  0.239563  1
  Mg  Mg2  1  0.440874  0.606900  0.739563  1
  Mg  Mg3  1  0.940874  0.393100  0.760437  1
  Mg  Mg4  1  0.196166  0.055349  0.279853  1
  Mg  Mg5  1  0.696166  0.944651  0.220147  1
  Mg  Mg6  1  0.803834  0.944651  0.720147  1
  Mg  Mg7  1  0.303834  0.055349  0.779853  1
  Ga  Ga8  1  0.500000  0.000000  0.500000  1
  Ga  Ga9  1  0.000000  0.000000  0.000000  1
  Ga  Ga10  1  0.254438  0.369421  0.510058  1
  Ga  Ga11  1  0.754438  0.630579  0.989942  1
  Ga  Ga12  1  0.745562  0.630579  0.489942  1
  Ga  Ga13  1  0.245562  0.369421  0.010058  1
  Ga  Ga14  1  0.898728  0.234862  0.439012  1
  Ga  Ga15  1  0.398728  0.765138  0.060988  1
  Ga  Ga16  1  0.101272  0.765138  0.560988  1
  Ga  Ga17  1  0.601272  0.234862  0.939012  1
  Rh  Rh18  1  0.898070  0.290645  0.120602  1
  Rh  Rh19  1  0.398070  0.709355  0.379398  1
  Rh  Rh20  1  0.101930  0.709355  0.879398  1
  Rh  Rh21  1  0.601930  0.290645  0.620602  1
