# generated using pymatgen
data_Y5TlSb2
_symmetry_space_group_name_H-M   'P 1'
_cell_length_a   6.51826800
_cell_length_b   8.97706120
_cell_length_c   8.97925300
_cell_angle_alpha   120.00921566
_cell_angle_beta   90.00010548
_cell_angle_gamma   89.99929623
_symmetry_Int_Tables_number   1
_chemical_formula_structural   Y5TlSb2
_chemical_formula_sum   'Y10 Tl2 Sb4'
_cell_volume   454.98481386
_cell_formula_units_Z   2
loop_
 _symmetry_equiv_pos_site_id
 _symmetry_equiv_pos_as_xyz
  1  'x, y, z'
loop_
 _atom_site_type_symbol
 _atom_site_label
 _atom_site_symmetry_multiplicity
 _atom_site_fract_x
 _atom_site_fract_y
 _atom_site_fract_z
 _atom_site_occupancy
  Y  Y0  1  0.500763  0.335886  0.668020  1
  Y  Y1  1  0.500762  0.664114  0.332154  1
  Y  Y2  1  0.999233  0.664111  0.332141  1
  Y  Y3  1  0.999234  0.335895  0.668031  1
  Y  Y4  1  0.750003  0.242088  0.003786  1
  Y  Y5  1  0.750004  0.757956  0.761688  1
  Y  Y6  1  0.750003  0.999985  0.240695  1
  Y  Y7  1  0.249999  0.759152  0.997731  1
  Y  Y8  1  0.250001  0.240868  0.238520  1
  Y  Y9  1  0.250002  0.999973  0.756272  1
  Tl  Tl10  1  0.749988  0.605411  0.001233  1
  Tl  Tl11  1  0.750003  0.394667  0.395692  1
  Sb  Sb12  1  0.750004  0.999937  0.608608  1
  Sb  Sb13  1  0.250002  0.392520  0.998573  1
  Sb  Sb14  1  0.249998  0.607505  0.605932  1
  Sb  Sb15  1  0.250002  0.999930  0.390924  1
