# generated using pymatgen
data_TbHg4Se2Br5
_symmetry_space_group_name_H-M   'P 1'
_cell_length_a   8.66437776
_cell_length_b   11.07621500
_cell_length_c   9.43078343
_cell_angle_alpha   90.00000000
_cell_angle_beta   113.54707412
_cell_angle_gamma   90.00000000
_symmetry_Int_Tables_number   1
_chemical_formula_structural   TbHg4Se2Br5
_chemical_formula_sum   'Tb2 Hg8 Se4 Br10'
_cell_volume   829.69599106
_cell_formula_units_Z   2
loop_
 _symmetry_equiv_pos_site_id
 _symmetry_equiv_pos_as_xyz
  1  'x, y, z'
loop_
 _atom_site_type_symbol
 _atom_site_label
 _atom_site_symmetry_multiplicity
 _atom_site_fract_x
 _atom_site_fract_y
 _atom_site_fract_z
 _atom_site_occupancy
  Tb  Tb0  1  0.503014  0.431979  0.507900  1
  Tb  Tb1  1  0.496986  0.931979  0.492100  1
  Hg  Hg2  1  0.927152  0.186545  0.333088  1
  Hg  Hg3  1  0.072848  0.686545  0.666912  1
  Hg  Hg4  1  0.952668  0.663999  0.362279  1
  Hg  Hg5  1  0.047332  0.163999  0.637721  1
  Hg  Hg6  1  0.497070  0.182384  0.987944  1
  Hg  Hg7  1  0.502930  0.682384  0.012056  1
  Hg  Hg8  1  0.801261  0.432429  0.015503  1
  Hg  Hg9  1  0.198739  0.932429  0.984497  1
  Se  Se10  1  0.804541  0.199952  0.027831  1
  Se  Se11  1  0.195459  0.699952  0.972169  1
  Se  Se12  1  0.188783  0.162705  0.942552  1
  Se  Se13  1  0.811217  0.662705  0.057448  1
  Br  Br14  1  0.840695  0.924615  0.683789  1
  Br  Br15  1  0.159305  0.424615  0.316211  1
  Br  Br16  1  0.847913  0.439339  0.709551  1
  Br  Br17  1  0.152087  0.939339  0.290449  1
  Br  Br18  1  0.408914  0.459035  0.761664  1
  Br  Br19  1  0.591086  0.959035  0.238336  1
  Br  Br20  1  0.593548  0.390382  0.259812  1
  Br  Br21  1  0.406452  0.890382  0.740188  1
  Br  Br22  1  0.496205  0.180237  0.561723  1
  Br  Br23  1  0.503795  0.680237  0.438277  1
