# generated using pymatgen
data_Sr12YHo6Sc(GeO4)12
_symmetry_space_group_name_H-M   'P 1'
_cell_length_a   11.40697902
_cell_length_b   11.38447143
_cell_length_c   11.39187600
_cell_angle_alpha   109.40057137
_cell_angle_beta   109.48623790
_cell_angle_gamma   109.45996199
_symmetry_Int_Tables_number   1
_chemical_formula_structural   Sr12YHo6Sc(GeO4)12
_chemical_formula_sum   'Sr12 Y1 Ho6 Sc1 Ge12 O48'
_cell_volume   1139.76333841
_cell_formula_units_Z   1
loop_
 _symmetry_equiv_pos_site_id
 _symmetry_equiv_pos_as_xyz
  1  'x, y, z'
loop_
 _atom_site_type_symbol
 _atom_site_label
 _atom_site_symmetry_multiplicity
 _atom_site_fract_x
 _atom_site_fract_y
 _atom_site_fract_z
 _atom_site_occupancy
  Sr  Sr0  1  0.245609  0.371038  0.123169  1
  Sr  Sr1  1  0.754391  0.628962  0.876831  1
  Sr  Sr2  1  0.749058  0.124168  0.374343  1
  Sr  Sr3  1  0.123773  0.246461  0.371695  1
  Sr  Sr4  1  0.374012  0.749172  0.124935  1
  Sr  Sr5  1  0.250942  0.875832  0.625657  1
  Sr  Sr6  1  0.876227  0.753539  0.628305  1
  Sr  Sr7  1  0.625988  0.250828  0.875065  1
  Sr  Sr8  1  0.371227  0.123841  0.246059  1
  Sr  Sr9  1  0.628773  0.876159  0.753941  1
  Sr  Sr10  1  0.124317  0.375220  0.749709  1
  Sr  Sr11  1  0.875683  0.624780  0.250291  1
  Y  Y12  1  0.000000  0.500000  0.000000  1
  Ho  Ho13  1  0.500000  0.000000  0.500000  1
  Ho  Ho14  1  0.000000  0.500000  0.500000  1
  Ho  Ho15  1  0.500000  0.000000  0.000000  1
  Ho  Ho16  1  0.500000  0.500000  0.000000  1
  Ho  Ho17  1  0.500000  0.500000  0.500000  1
  Ho  Ho18  1  0.000000  0.000000  0.500000  1
  Sc  Sc19  1  0.000000  0.000000  0.000000  1
  Ge  Ge20  1  0.249541  0.624750  0.374841  1
  Ge  Ge21  1  0.750459  0.375250  0.625159  1
  Ge  Ge22  1  0.754301  0.877510  0.124576  1
  Ge  Ge23  1  0.374991  0.250021  0.625186  1
  Ge  Ge24  1  0.625009  0.749979  0.374814  1
  Ge  Ge25  1  0.245699  0.122490  0.875424  1
  Ge  Ge26  1  0.124507  0.754478  0.877744  1
  Ge  Ge27  1  0.875493  0.245522  0.122256  1
  Ge  Ge28  1  0.625171  0.374943  0.250045  1
  Ge  Ge29  1  0.374829  0.625057  0.749955  1
  Ge  Ge30  1  0.877160  0.124436  0.753864  1
  Ge  Ge31  1  0.122840  0.875564  0.246136  1
  O  O32  1  0.486599  0.380208  0.289428  1
  O  O33  1  0.513401  0.619792  0.710572  1
  O  O34  1  0.590396  0.196563  0.210423  1
  O  O35  1  0.910720  0.117786  0.609473  1
  O  O36  1  0.289234  0.485997  0.379621  1
  O  O37  1  0.301942  0.911327  0.289717  1
  O  O38  1  0.409604  0.803437  0.789577  1
  O  O39  1  0.089280  0.882214  0.390527  1
  O  O40  1  0.710766  0.514003  0.620379  1
  O  O41  1  0.698058  0.088673  0.710283  1
  O  O42  1  0.014465  0.303344  0.894700  1
  O  O43  1  0.210703  0.590791  0.197221  1
  O  O44  1  0.113749  0.009685  0.198705  1
  O  O45  1  0.985535  0.696656  0.105300  1
  O  O46  1  0.789297  0.409209  0.802779  1
  O  O47  1  0.886251  0.990315  0.801295  1
  O  O48  1  0.609516  0.910344  0.117348  1
  O  O49  1  0.197032  0.487514  0.606247  1
  O  O50  1  0.390484  0.089656  0.882652  1
  O  O51  1  0.802968  0.512486  0.393753  1
  O  O52  1  0.894942  0.014754  0.304054  1
  O  O53  1  0.379443  0.590119  0.893464  1
  O  O54  1  0.105058  0.985246  0.695946  1
  O  O55  1  0.620557  0.409881  0.106536  1
  O  O56  1  0.379415  0.288742  0.485727  1
  O  O57  1  0.590154  0.893710  0.379708  1
  O  O58  1  0.620585  0.711258  0.514273  1
  O  O59  1  0.409846  0.106290  0.620292  1
  O  O60  1  0.118170  0.609492  0.910101  1
  O  O61  1  0.010484  0.199636  0.113847  1
  O  O62  1  0.881830  0.390508  0.089899  1
  O  O63  1  0.989516  0.800364  0.886153  1
  O  O64  1  0.304120  0.894786  0.014238  1
  O  O65  1  0.912346  0.290797  0.302021  1
  O  O66  1  0.695880  0.105214  0.985762  1
  O  O67  1  0.087654  0.709203  0.697979  1
  O  O68  1  0.196968  0.209782  0.590677  1
  O  O69  1  0.487329  0.606459  0.197019  1
  O  O70  1  0.803032  0.790218  0.409323  1
  O  O71  1  0.512671  0.393541  0.802981  1
  O  O72  1  0.289772  0.302016  0.911543  1
  O  O73  1  0.710228  0.697984  0.088457  1
  O  O74  1  0.199309  0.113470  0.010143  1
  O  O75  1  0.800691  0.886530  0.989857  1
  O  O76  1  0.893808  0.379546  0.590361  1
  O  O77  1  0.106192  0.620454  0.409639  1
  O  O78  1  0.607269  0.197079  0.488282  1
  O  O79  1  0.392731  0.802921  0.511718  1
