# generated using pymatgen
data_Nd3Tc(Ni4P3)2
_symmetry_space_group_name_H-M   'P 1'
_cell_length_a   3.85245900
_cell_length_b   10.66231700
_cell_length_c   12.52077000
_cell_angle_alpha   90.00000000
_cell_angle_beta   90.00000000
_cell_angle_gamma   90.00000000
_symmetry_Int_Tables_number   1
_chemical_formula_structural   Nd3Tc(Ni4P3)2
_chemical_formula_sum   'Nd6 Tc2 Ni16 P12'
_cell_volume   514.30489000
_cell_formula_units_Z   2
loop_
 _symmetry_equiv_pos_site_id
 _symmetry_equiv_pos_as_xyz
  1  'x, y, z'
loop_
 _atom_site_type_symbol
 _atom_site_label
 _atom_site_symmetry_multiplicity
 _atom_site_fract_x
 _atom_site_fract_y
 _atom_site_fract_z
 _atom_site_occupancy
  Nd  Nd0  1  0.000000  0.500000  0.520963  1
  Nd  Nd1  1  0.500000  0.000000  0.479037  1
  Nd  Nd2  1  0.500000  0.813897  0.206849  1
  Nd  Nd3  1  0.500000  0.186103  0.206849  1
  Nd  Nd4  1  0.000000  0.686103  0.793151  1
  Nd  Nd5  1  0.000000  0.313897  0.793151  1
  Tc  Tc6  1  0.500000  0.500000  0.151596  1
  Tc  Tc7  1  0.000000  0.000000  0.848404  1
  Ni  Ni8  1  0.500000  0.500000  0.700811  1
  Ni  Ni9  1  0.000000  0.000000  0.299189  1
  Ni  Ni10  1  0.000000  0.500000  0.982927  1
  Ni  Ni11  1  0.500000  0.000000  0.017073  1
  Ni  Ni12  1  0.500000  0.331261  0.988156  1
  Ni  Ni13  1  0.500000  0.668739  0.988156  1
  Ni  Ni14  1  0.000000  0.168739  0.011844  1
  Ni  Ni15  1  0.000000  0.831261  0.011844  1
  Ni  Ni16  1  0.500000  0.302899  0.426386  1
  Ni  Ni17  1  0.500000  0.697101  0.426386  1
  Ni  Ni18  1  0.000000  0.197101  0.573614  1
  Ni  Ni19  1  0.000000  0.802899  0.573614  1
  Ni  Ni20  1  0.500000  0.882882  0.712388  1
  Ni  Ni21  1  0.500000  0.117118  0.712388  1
  Ni  Ni22  1  0.000000  0.617118  0.287612  1
  Ni  Ni23  1  0.000000  0.382882  0.287612  1
  P  P24  1  0.500000  0.500000  0.879914  1
  P  P25  1  0.000000  0.000000  0.120086  1
  P  P26  1  0.500000  0.500000  0.341718  1
  P  P27  1  0.000000  0.000000  0.658282  1
  P  P28  1  0.500000  0.309675  0.612425  1
  P  P29  1  0.500000  0.690325  0.612425  1
  P  P30  1  0.000000  0.190325  0.387575  1
  P  P31  1  0.000000  0.809675  0.387575  1
  P  P32  1  0.500000  0.850897  0.895655  1
  P  P33  1  0.500000  0.149103  0.895655  1
  P  P34  1  0.000000  0.649103  0.104345  1
  P  P35  1  0.000000  0.350897  0.104345  1
