# generated using pymatgen
data_Mn2SbP6BrN12
_symmetry_space_group_name_H-M   'P 1'
_cell_length_a   7.33647496
_cell_length_b   7.40273346
_cell_length_c   7.33647583
_cell_angle_alpha   110.03640048
_cell_angle_beta   108.79082990
_cell_angle_gamma   110.03637912
_symmetry_Int_Tables_number   1
_chemical_formula_structural   Mn2SbP6BrN12
_chemical_formula_sum   'Mn2 Sb1 P6 Br1 N12'
_cell_volume   304.97120996
_cell_formula_units_Z   1
loop_
 _symmetry_equiv_pos_site_id
 _symmetry_equiv_pos_as_xyz
  1  'x, y, z'
loop_
 _atom_site_type_symbol
 _atom_site_label
 _atom_site_symmetry_multiplicity
 _atom_site_fract_x
 _atom_site_fract_y
 _atom_site_fract_z
 _atom_site_occupancy
  Mn  Mn0  1  0.005889  0.003743  0.372977  1
  Mn  Mn1  1  0.372977  0.003743  0.005889  1
  Sb  Sb2  1  0.004527  0.351684  0.004527  1
  P  P3  1  0.498243  0.262318  0.751634  1
  P  P4  1  0.256024  0.757080  0.501318  1
  P  P5  1  0.742254  0.504995  0.254285  1
  P  P6  1  0.751634  0.262318  0.498243  1
  P  P7  1  0.501318  0.757080  0.256024  1
  P  P8  1  0.254285  0.504995  0.742254  1
  Br  Br9  1  0.999658  0.907277  0.999658  1
  N  N10  1  0.409908  0.696853  0.409908  1
  N  N11  1  0.712408  0.431869  0.427323  1
  N  N12  1  0.427323  0.431869  0.712408  1
  N  N13  1  0.725752  0.300265  0.725752  1
  N  N14  1  0.996278  0.579879  0.277714  1
  N  N15  1  0.277714  0.579879  0.996278  1
  N  N16  1  0.286117  0.005479  0.570039  1
  N  N17  1  0.999516  0.283796  0.570202  1
  N  N18  1  0.715441  0.722801  0.282487  1
  N  N19  1  0.570039  0.005479  0.286117  1
  N  N20  1  0.282487  0.722801  0.715441  1
  N  N21  1  0.570202  0.283796  0.999516  1
