# generated using pymatgen
data_HoEr4Si10P2Ir19
_symmetry_space_group_name_H-M   'P 1'
_cell_length_a   12.82457706
_cell_length_b   12.82457870
_cell_length_c   3.95005700
_cell_angle_alpha   90.00000000
_cell_angle_beta   90.00000000
_cell_angle_gamma   120.14758779
_symmetry_Int_Tables_number   1
_chemical_formula_structural   HoEr4Si10P2Ir19
_chemical_formula_sum   'Ho1 Er4 Si10 P2 Ir19'
_cell_volume   561.78786042
_cell_formula_units_Z   1
loop_
 _symmetry_equiv_pos_site_id
 _symmetry_equiv_pos_as_xyz
  1  'x, y, z'
loop_
 _atom_site_type_symbol
 _atom_site_label
 _atom_site_symmetry_multiplicity
 _atom_site_fract_x
 _atom_site_fract_y
 _atom_site_fract_z
 _atom_site_occupancy
  Ho  Ho0  1  0.812937  0.812937  0.500000  1
  Er  Er1  1  0.666566  0.333629  0.000000  1
  Er  Er2  1  0.333629  0.666566  0.000000  1
  Er  Er3  1  0.186063  0.001187  0.500000  1
  Er  Er4  1  0.001187  0.186063  0.500000  1
  Si  Si5  1  0.686065  0.167631  0.500000  1
  Si  Si6  1  0.831990  0.518112  0.500000  1
  Si  Si7  1  0.481295  0.312956  0.500000  1
  Si  Si8  1  0.167631  0.686065  0.500000  1
  Si  Si9  1  0.518112  0.831990  0.500000  1
  Si  Si10  1  0.312956  0.481295  0.500000  1
  Si  Si11  1  0.633458  0.633458  0.000000  1
  Si  Si12  1  0.366821  0.000177  0.000000  1
  Si  Si13  1  0.000177  0.366821  0.000000  1
  Si  Si14  1  0.178562  0.178562  0.000000  1
  P  P15  1  0.820955  0.000946  0.000000  1
  P  P16  1  0.000946  0.820955  0.000000  1
  Ir  Ir17  1  0.806755  0.179951  0.000000  1
  Ir  Ir18  1  0.820529  0.627131  0.000000  1
  Ir  Ir19  1  0.375396  0.193722  0.000000  1
  Ir  Ir20  1  0.179951  0.806755  0.000000  1
  Ir  Ir21  1  0.627131  0.820529  0.000000  1
  Ir  Ir22  1  0.193722  0.375396  0.000000  1
  Ir  Ir23  1  0.448048  0.448048  0.000000  1
  Ir  Ir24  1  0.552277  0.999054  0.000000  1
  Ir  Ir25  1  0.999054  0.552277  0.000000  1
  Ir  Ir26  1  0.281635  0.281635  0.500000  1
  Ir  Ir27  1  0.721067  0.000278  0.500000  1
  Ir  Ir28  1  0.000278  0.721067  0.500000  1
  Ir  Ir29  1  0.872028  0.359388  0.500000  1
  Ir  Ir30  1  0.640566  0.512769  0.500000  1
  Ir  Ir31  1  0.487312  0.126508  0.500000  1
  Ir  Ir32  1  0.359388  0.872028  0.500000  1
  Ir  Ir33  1  0.512769  0.640566  0.500000  1
  Ir  Ir34  1  0.126508  0.487312  0.500000  1
  Ir  Ir35  1  0.996236  0.996236  0.000000  1
