# generated using pymatgen
data_Tm10ZnIrPb6
_symmetry_space_group_name_H-M   'P 1'
_cell_length_a   9.14657600
_cell_length_b   9.14657685
_cell_length_c   6.68516000
_cell_angle_alpha   90.00000000
_cell_angle_beta   90.00000000
_cell_angle_gamma   120.00001139
_symmetry_Int_Tables_number   1
_chemical_formula_structural   Tm10ZnIrPb6
_chemical_formula_sum   'Tm10 Zn1 Ir1 Pb6'
_cell_volume   484.35024394
_cell_formula_units_Z   1
loop_
 _symmetry_equiv_pos_site_id
 _symmetry_equiv_pos_as_xyz
  1  'x, y, z'
loop_
 _atom_site_type_symbol
 _atom_site_label
 _atom_site_symmetry_multiplicity
 _atom_site_fract_x
 _atom_site_fract_y
 _atom_site_fract_z
 _atom_site_occupancy
  Tm  Tm0  1  0.248366  0.000000  0.232783  1
  Tm  Tm1  1  0.751634  0.000000  0.767217  1
  Tm  Tm2  1  0.000000  0.248366  0.232783  1
  Tm  Tm3  1  0.000000  0.751634  0.767217  1
  Tm  Tm4  1  0.751634  0.751634  0.232783  1
  Tm  Tm5  1  0.248366  0.248366  0.767217  1
  Tm  Tm6  1  0.333333  0.666667  0.000000  1
  Tm  Tm7  1  0.666667  0.333333  0.000000  1
  Tm  Tm8  1  0.666667  0.333333  0.500000  1
  Tm  Tm9  1  0.333333  0.666667  0.500000  1
  Zn  Zn10  1  0.000000  0.000000  0.500000  1
  Ir  Ir11  1  0.000000  0.000000  0.000000  1
  Pb  Pb12  1  0.602823  0.000000  0.253658  1
  Pb  Pb13  1  0.397177  0.000000  0.746342  1
  Pb  Pb14  1  0.000000  0.602823  0.253658  1
  Pb  Pb15  1  0.000000  0.397177  0.746342  1
  Pb  Pb16  1  0.397177  0.397177  0.253658  1
  Pb  Pb17  1  0.602823  0.602823  0.746342  1
