# generated using pymatgen
data_Er16Cd3InNi4
_symmetry_space_group_name_H-M   'P 1'
_cell_length_a   9.45155273
_cell_length_b   9.45155254
_cell_length_c   9.45155300
_cell_angle_alpha   60.13314140
_cell_angle_beta   60.13313672
_cell_angle_gamma   60.13314148
_symmetry_Int_Tables_number   1
_chemical_formula_structural   Er16Cd3InNi4
_chemical_formula_sum   'Er16 Cd3 In1 Ni4'
_cell_volume   598.82838974
_cell_formula_units_Z   1
loop_
 _symmetry_equiv_pos_site_id
 _symmetry_equiv_pos_as_xyz
  1  'x, y, z'
loop_
 _atom_site_type_symbol
 _atom_site_label
 _atom_site_symmetry_multiplicity
 _atom_site_fract_x
 _atom_site_fract_y
 _atom_site_fract_z
 _atom_site_occupancy
  Er  Er0  1  0.346642  0.346642  0.346642  1
  Er  Er1  1  0.350755  0.350755  0.951984  1
  Er  Er2  1  0.350755  0.951984  0.350755  1
  Er  Er3  1  0.951984  0.350755  0.350755  1
  Er  Er4  1  0.811611  0.188983  0.188983  1
  Er  Er5  1  0.189091  0.810795  0.810795  1
  Er  Er6  1  0.188983  0.811611  0.188983  1
  Er  Er7  1  0.810795  0.189091  0.810795  1
  Er  Er8  1  0.188983  0.188983  0.811611  1
  Er  Er9  1  0.810795  0.810795  0.189091  1
  Er  Er10  1  0.936365  0.565134  0.565134  1
  Er  Er11  1  0.562851  0.936929  0.936929  1
  Er  Er12  1  0.565134  0.936365  0.565134  1
  Er  Er13  1  0.936929  0.562851  0.936929  1
  Er  Er14  1  0.565134  0.565134  0.936365  1
  Er  Er15  1  0.936929  0.936929  0.562851  1
  Cd  Cd16  1  0.580331  0.580331  0.254780  1
  Cd  Cd17  1  0.580331  0.254780  0.580331  1
  Cd  Cd18  1  0.254780  0.580331  0.580331  1
  In  In19  1  0.581547  0.581547  0.581547  1
  Ni  Ni20  1  0.143075  0.143075  0.143075  1
  Ni  Ni21  1  0.141446  0.141446  0.573305  1
  Ni  Ni22  1  0.141446  0.573305  0.141446  1
  Ni  Ni23  1  0.573305  0.141446  0.141446  1
