# generated using pymatgen
data_Nd5Co16(MoP4)3
_symmetry_space_group_name_H-M   'P 1'
_cell_length_a   12.20609200
_cell_length_b   12.20609258
_cell_length_c   3.76036900
_cell_angle_alpha   90.00000000
_cell_angle_beta   90.00000000
_cell_angle_gamma   119.99999301
_symmetry_Int_Tables_number   1
_chemical_formula_structural   Nd5Co16(MoP4)3
_chemical_formula_sum   'Nd5 Co16 Mo3 P12'
_cell_volume   485.19288620
_cell_formula_units_Z   1
loop_
 _symmetry_equiv_pos_site_id
 _symmetry_equiv_pos_as_xyz
  1  'x, y, z'
loop_
 _atom_site_type_symbol
 _atom_site_label
 _atom_site_symmetry_multiplicity
 _atom_site_fract_x
 _atom_site_fract_y
 _atom_site_fract_z
 _atom_site_occupancy
  Nd  Nd0  1  0.666667  0.333333  0.000000  1
  Nd  Nd1  1  0.333333  0.666667  0.000000  1
  Nd  Nd2  1  0.185519  0.185519  0.500000  1
  Nd  Nd3  1  0.814481  0.000000  0.500000  1
  Nd  Nd4  1  0.000000  0.814481  0.500000  1
  Co  Co5  1  0.823331  0.199872  0.000000  1
  Co  Co6  1  0.800128  0.623460  0.000000  1
  Co  Co7  1  0.376540  0.176669  0.000000  1
  Co  Co8  1  0.199872  0.823331  0.000000  1
  Co  Co9  1  0.623460  0.800128  0.000000  1
  Co  Co10  1  0.176669  0.376540  0.000000  1
  Co  Co11  1  0.643672  0.125054  0.500000  1
  Co  Co12  1  0.874946  0.518619  0.500000  1
  Co  Co13  1  0.481381  0.356328  0.500000  1
  Co  Co14  1  0.125054  0.643672  0.500000  1
  Co  Co15  1  0.518619  0.874946  0.500000  1
  Co  Co16  1  0.356328  0.481381  0.500000  1
  Co  Co17  1  0.717822  0.717822  0.500000  1
  Co  Co18  1  0.282178  0.000000  0.500000  1
  Co  Co19  1  0.000000  0.282178  0.500000  1
  Co  Co20  1  0.000000  0.000000  0.000000  1
  Mo  Mo21  1  0.555054  0.555054  0.000000  1
  Mo  Mo22  1  0.444946  0.000000  0.000000  1
  Mo  Mo23  1  0.000000  0.444946  0.000000  1
  P  P24  1  0.364500  0.364500  0.000000  1
  P  P25  1  0.635500  0.000000  0.000000  1
  P  P26  1  0.000000  0.635500  0.000000  1
  P  P27  1  0.836497  0.313201  0.500000  1
  P  P28  1  0.686799  0.523296  0.500000  1
  P  P29  1  0.476704  0.163503  0.500000  1
  P  P30  1  0.313201  0.836497  0.500000  1
  P  P31  1  0.523296  0.686799  0.500000  1
  P  P32  1  0.163503  0.476704  0.500000  1
  P  P33  1  0.818289  0.818289  0.000000  1
  P  P34  1  0.181711  0.000000  0.000000  1
  P  P35  1  0.000000  0.181711  0.000000  1
