# generated using pymatgen
data_Tb3Er5In3Tc
_symmetry_space_group_name_H-M   'P 1'
_cell_length_a   10.36262400
_cell_length_b   10.36231647
_cell_length_c   7.04099500
_cell_angle_alpha   90.00000000
_cell_angle_beta   90.00000000
_cell_angle_gamma   119.99901924
_symmetry_Int_Tables_number   1
_chemical_formula_structural   Tb3Er5In3Tc
_chemical_formula_sum   'Tb6 Er10 In6 Tc2'
_cell_volume   654.78022064
_cell_formula_units_Z   2
loop_
 _symmetry_equiv_pos_site_id
 _symmetry_equiv_pos_as_xyz
  1  'x, y, z'
loop_
 _atom_site_type_symbol
 _atom_site_label
 _atom_site_symmetry_multiplicity
 _atom_site_fract_x
 _atom_site_fract_y
 _atom_site_fract_z
 _atom_site_occupancy
  Tb  Tb0  1  0.531250  0.062490  0.796598  1
  Tb  Tb1  1  0.937492  0.468747  0.796636  1
  Tb  Tb2  1  0.531250  0.468760  0.796598  1
  Tb  Tb3  1  0.468750  0.937510  0.296598  1
  Tb  Tb4  1  0.062508  0.531253  0.296636  1
  Tb  Tb5  1  0.468750  0.531240  0.296598  1
  Er  Er6  1  0.822972  0.645955  0.498867  1
  Er  Er7  1  0.353979  0.176990  0.498879  1
  Er  Er8  1  0.822972  0.177019  0.498867  1
  Er  Er9  1  0.177028  0.354045  0.998867  1
  Er  Er10  1  0.646021  0.823010  0.998879  1
  Er  Er11  1  0.177028  0.822981  0.998867  1
  Er  Er12  1  0.666615  0.333307  0.170277  1
  Er  Er13  1  0.333385  0.666693  0.670277  1
  Er  Er14  1  0.999943  0.999971  0.775859  1
  Er  Er15  1  0.000057  0.000029  0.275859  1
  In  In16  1  0.837282  0.674545  0.038877  1
  In  In17  1  0.325452  0.162727  0.038864  1
  In  In18  1  0.837282  0.162738  0.038877  1
  In  In19  1  0.162718  0.325455  0.538877  1
  In  In20  1  0.674548  0.837273  0.538864  1
  In  In21  1  0.162718  0.837262  0.538877  1
  Tc  Tc22  1  0.666639  0.333319  0.568754  1
  Tc  Tc23  1  0.333361  0.666681  0.068754  1
