# generated using pymatgen
data_Zr4GaSi
_symmetry_space_group_name_H-M   'P 1'
_cell_length_a   5.44572315
_cell_length_b   5.44572350
_cell_length_c   5.44572274
_cell_angle_alpha   104.13684385
_cell_angle_beta   104.13685013
_cell_angle_gamma   120.76529836
_symmetry_Int_Tables_number   1
_chemical_formula_structural   Zr4GaSi
_chemical_formula_sum   'Zr4 Ga1 Si1'
_cell_volume   120.63924007
_cell_formula_units_Z   1
loop_
 _symmetry_equiv_pos_site_id
 _symmetry_equiv_pos_as_xyz
  1  'x, y, z'
loop_
 _atom_site_type_symbol
 _atom_site_label
 _atom_site_symmetry_multiplicity
 _atom_site_fract_x
 _atom_site_fract_y
 _atom_site_fract_z
 _atom_site_occupancy
  Zr  Zr0  1  0.404959  0.904959  0.809917  1
  Zr  Zr1  1  0.095041  0.595041  0.190083  1
  Zr  Zr2  1  0.595041  0.404959  0.500000  1
  Zr  Zr3  1  0.904959  0.095041  0.500000  1
  Ga  Ga4  1  0.500000  0.500000  0.000000  1
  Si  Si5  1  0.000000  0.000000  0.000000  1
