# generated using pymatgen
data_La20SiTc3Sb8
_symmetry_space_group_name_H-M   'P 1'
_cell_length_a   8.40142013
_cell_length_b   9.32480600
_cell_length_c   12.79987547
_cell_angle_alpha   90.00000000
_cell_angle_beta   89.48988870
_cell_angle_gamma   90.00000000
_symmetry_Int_Tables_number   1
_chemical_formula_structural   La20SiTc3Sb8
_chemical_formula_sum   'La20 Si1 Tc3 Sb8'
_cell_volume   1002.72314711
_cell_formula_units_Z   1
loop_
 _symmetry_equiv_pos_site_id
 _symmetry_equiv_pos_as_xyz
  1  'x, y, z'
loop_
 _atom_site_type_symbol
 _atom_site_label
 _atom_site_symmetry_multiplicity
 _atom_site_fract_x
 _atom_site_fract_y
 _atom_site_fract_z
 _atom_site_occupancy
  La  La0  1  0.049081  0.750000  0.494829  1
  La  La1  1  0.955279  0.250000  0.502749  1
  La  La2  1  0.542508  0.250000  0.002701  1
  La  La3  1  0.467236  0.750000  0.998912  1
  La  La4  1  0.870348  0.750000  0.799537  1
  La  La5  1  0.122030  0.250000  0.199230  1
  La  La6  1  0.374052  0.250000  0.698769  1
  La  La7  1  0.635773  0.750000  0.291258  1
  La  La8  1  0.686311  0.525346  0.562793  1
  La  La9  1  0.314709  0.455399  0.437463  1
  La  La10  1  0.183328  0.470481  0.938114  1
  La  La11  1  0.314709  0.044601  0.437463  1
  La  La12  1  0.816125  0.529492  0.062605  1
  La  La13  1  0.686311  0.974654  0.562793  1
  La  La14  1  0.816125  0.970508  0.062605  1
  La  La15  1  0.183328  0.029519  0.938114  1
  La  La16  1  0.333892  0.750000  0.714988  1
  La  La17  1  0.653020  0.250000  0.292481  1
  La  La18  1  0.846810  0.250000  0.792222  1
  La  La19  1  0.148096  0.750000  0.200636  1
  Si  Si20  1  0.438630  0.750000  0.488510  1
  Tc  Tc21  1  0.091372  0.750000  0.980975  1
  Tc  Tc22  1  0.907482  0.250000  0.020533  1
  Tc  Tc23  1  0.582620  0.250000  0.519723  1
  Sb  Sb24  1  0.570570  0.506940  0.825308  1
  Sb  Sb25  1  0.423155  0.494168  0.176502  1
  Sb  Sb26  1  0.072840  0.494532  0.669761  1
  Sb  Sb27  1  0.423155  0.005832  0.176502  1
  Sb  Sb28  1  0.923847  0.507661  0.328428  1
  Sb  Sb29  1  0.570570  0.993060  0.825308  1
  Sb  Sb30  1  0.923847  0.992339  0.328428  1
  Sb  Sb31  1  0.072840  0.005468  0.669761  1
