# generated using pymatgen
data_Sr4TiRhO8
_symmetry_space_group_name_H-M   'P 1'
_cell_length_a   6.93954459
_cell_length_b   6.93954343
_cell_length_c   5.55795500
_cell_angle_alpha   90.00000000
_cell_angle_beta   90.00000000
_cell_angle_gamma   132.86104082
_symmetry_Int_Tables_number   1
_chemical_formula_structural   Sr4TiRhO8
_chemical_formula_sum   'Sr4 Ti1 Rh1 O8'
_cell_volume   196.19330616
_cell_formula_units_Z   1
loop_
 _symmetry_equiv_pos_site_id
 _symmetry_equiv_pos_as_xyz
  1  'x, y, z'
loop_
 _atom_site_type_symbol
 _atom_site_label
 _atom_site_symmetry_multiplicity
 _atom_site_fract_x
 _atom_site_fract_y
 _atom_site_fract_z
 _atom_site_occupancy
  Sr  Sr0  1  0.645794  0.354206  0.000000  1
  Sr  Sr1  1  0.145007  0.854993  0.500000  1
  Sr  Sr2  1  0.854993  0.145007  0.500000  1
  Sr  Sr3  1  0.354206  0.645794  0.000000  1
  Ti  Ti4  1  0.000000  0.000000  0.000000  1
  Rh  Rh5  1  0.500000  0.500000  0.500000  1
  O  O6  1  0.752989  0.752989  0.752606  1
  O  O7  1  0.247011  0.247011  0.247394  1
  O  O8  1  0.247011  0.247011  0.752606  1
  O  O9  1  0.752989  0.752989  0.247394  1
  O  O10  1  0.841074  0.158926  0.000000  1
  O  O11  1  0.337558  0.662442  0.500000  1
  O  O12  1  0.662442  0.337558  0.500000  1
  O  O13  1  0.158926  0.841074  0.000000  1
