# generated using pymatgen
data_NaMn(Se2O7)2
_symmetry_space_group_name_H-M   'P 1'
_cell_length_a   5.15395774
_cell_length_b   7.64489406
_cell_length_c   8.68561900
_cell_angle_alpha   91.80341231
_cell_angle_beta   93.48715180
_cell_angle_gamma   105.26307634
_symmetry_Int_Tables_number   1
_chemical_formula_structural   NaMn(Se2O7)2
_chemical_formula_sum   'Na1 Mn1 Se4 O14'
_cell_volume   329.14265509
_cell_formula_units_Z   1
loop_
 _symmetry_equiv_pos_site_id
 _symmetry_equiv_pos_as_xyz
  1  'x, y, z'
loop_
 _atom_site_type_symbol
 _atom_site_label
 _atom_site_symmetry_multiplicity
 _atom_site_fract_x
 _atom_site_fract_y
 _atom_site_fract_z
 _atom_site_occupancy
  Na  Na0  1  0.500000  0.000000  0.500000  1
  Mn  Mn1  1  0.000000  0.500000  0.000000  1
  Se  Se2  1  0.558325  0.654136  0.781935  1
  Se  Se3  1  0.441675  0.345864  0.218065  1
  Se  Se4  1  0.136111  0.264252  0.703843  1
  Se  Se5  1  0.863889  0.735748  0.296157  1
  O  O6  1  0.809323  0.552241  0.812202  1
  O  O7  1  0.190677  0.447759  0.187798  1
  O  O8  1  0.393575  0.676908  0.935040  1
  O  O9  1  0.606425  0.323092  0.064960  1
  O  O10  1  0.662865  0.831144  0.681901  1
  O  O11  1  0.337135  0.168856  0.318099  1
  O  O12  1  0.322170  0.494078  0.649785  1
  O  O13  1  0.677830  0.505922  0.350215  1
  O  O14  1  0.887604  0.230574  0.573191  1
  O  O15  1  0.112396  0.769426  0.426809  1
  O  O16  1  0.336338  0.132303  0.707052  1
  O  O17  1  0.663662  0.867697  0.292948  1
  O  O18  1  0.060681  0.291203  0.889847  1
  O  O19  1  0.939319  0.708797  0.110153  1
