# generated using pymatgen
data_TbYHo5CoI12
_symmetry_space_group_name_H-M   'P 1'
_cell_length_a   9.75511912
_cell_length_b   9.74995281
_cell_length_c   9.74727906
_cell_angle_alpha   106.75673865
_cell_angle_beta   106.87270925
_cell_angle_gamma   106.81690138
_symmetry_Int_Tables_number   1
_chemical_formula_structural   TbYHo5CoI12
_chemical_formula_sum   'Tb1 Y1 Ho5 Co1 I12'
_cell_volume   775.93685755
_cell_formula_units_Z   1
loop_
 _symmetry_equiv_pos_site_id
 _symmetry_equiv_pos_as_xyz
  1  'x, y, z'
loop_
 _atom_site_type_symbol
 _atom_site_label
 _atom_site_symmetry_multiplicity
 _atom_site_fract_x
 _atom_site_fract_y
 _atom_site_fract_z
 _atom_site_occupancy
  Tb  Tb0  1  0.710841  0.978811  0.907620  1
  Y  Y1  1  0.500373  0.499978  0.500156  1
  Ho  Ho2  1  0.021477  0.091238  0.285940  1
  Ho  Ho3  1  0.091897  0.285905  0.021138  1
  Ho  Ho4  1  0.285381  0.021062  0.091356  1
  Ho  Ho5  1  0.978546  0.908701  0.714045  1
  Ho  Ho6  1  0.909166  0.714244  0.979060  1
  Co  Co7  1  0.999608  0.000021  0.999860  1
  I  I8  1  0.160939  0.462310  0.385468  1
  I  I9  1  0.462706  0.385454  0.160714  1
  I  I10  1  0.385714  0.160678  0.462688  1
  I  I11  1  0.839762  0.537740  0.614584  1
  I  I12  1  0.537575  0.612668  0.839469  1
  I  I13  1  0.614488  0.838507  0.535285  1
  I  I14  1  0.677118  0.071477  0.226360  1
  I  I15  1  0.070755  0.223650  0.676456  1
  I  I16  1  0.224087  0.676445  0.070635  1
  I  I17  1  0.322070  0.928793  0.775612  1
  I  I18  1  0.929556  0.776366  0.323575  1
  I  I19  1  0.777940  0.325949  0.929979  1
