# generated using pymatgen
data_Yb3Pt4BrO14
_symmetry_space_group_name_H-M   'P 1'
_cell_length_a   7.24054310
_cell_length_b   7.20283507
_cell_length_c   7.24054300
_cell_angle_alpha   59.82666636
_cell_angle_beta   59.99999588
_cell_angle_gamma   59.82666509
_symmetry_Int_Tables_number   1
_chemical_formula_structural   Yb3Pt4BrO14
_chemical_formula_sum   'Yb3 Pt4 Br1 O14'
_cell_volume   266.31027827
_cell_formula_units_Z   1
loop_
 _symmetry_equiv_pos_site_id
 _symmetry_equiv_pos_as_xyz
  1  'x, y, z'
loop_
 _atom_site_type_symbol
 _atom_site_label
 _atom_site_symmetry_multiplicity
 _atom_site_fract_x
 _atom_site_fract_y
 _atom_site_fract_z
 _atom_site_occupancy
  Yb  Yb0  1  0.125000  0.125000  0.125000  1
  Yb  Yb1  1  0.625000  0.125000  0.125000  1
  Yb  Yb2  1  0.125000  0.125000  0.625000  1
  Pt  Pt3  1  0.625000  0.625000  0.625000  1
  Pt  Pt4  1  0.125000  0.625000  0.625000  1
  Pt  Pt5  1  0.625000  0.625000  0.125000  1
  Pt  Pt6  1  0.625000  0.125000  0.625000  1
  Br  Br7  1  0.125000  0.625000  0.125000  1
  O  O8  1  0.016176  0.951471  0.016176  1
  O  O9  1  0.233824  0.298529  0.233824  1
  O  O10  1  0.547998  0.538788  0.956607  1
  O  O11  1  0.286875  0.285433  0.713846  1
  O  O12  1  0.956607  0.538788  0.956607  1
  O  O13  1  0.956607  0.538788  0.547998  1
  O  O14  1  0.536154  0.964567  0.963125  1
  O  O15  1  0.536154  0.964567  0.536154  1
  O  O16  1  0.963125  0.964567  0.536154  1
  O  O17  1  0.713846  0.285433  0.286875  1
  O  O18  1  0.293393  0.711212  0.702002  1
  O  O19  1  0.702002  0.711212  0.293393  1
  O  O20  1  0.713846  0.285433  0.713846  1
  O  O21  1  0.293393  0.711212  0.293393  1
