# generated using pymatgen
data_TbGdSe2
_symmetry_space_group_name_H-M   'P 1'
_cell_length_a   7.14484715
_cell_length_b   7.14484509
_cell_length_c   7.14484492
_cell_angle_alpha   131.73594571
_cell_angle_beta   131.73594210
_cell_angle_gamma   70.64638570
_symmetry_Int_Tables_number   1
_chemical_formula_structural   TbGdSe2
_chemical_formula_sum   'Tb2 Gd2 Se4'
_cell_volume   198.96907822
_cell_formula_units_Z   2
loop_
 _symmetry_equiv_pos_site_id
 _symmetry_equiv_pos_as_xyz
  1  'x, y, z'
loop_
 _atom_site_type_symbol
 _atom_site_label
 _atom_site_symmetry_multiplicity
 _atom_site_fract_x
 _atom_site_fract_y
 _atom_site_fract_z
 _atom_site_occupancy
  Tb  Tb0  1  0.250000  0.750000  0.500000  1
  Tb  Tb1  1  0.500000  0.500000  0.000000  1
  Gd  Gd2  1  0.000000  0.000000  0.000000  1
  Gd  Gd3  1  0.750000  0.250000  0.500000  1
  Se  Se4  1  0.748981  0.748981  0.000000  1
  Se  Se5  1  0.251019  0.251019  0.000000  1
  Se  Se6  1  0.001019  0.501019  0.500000  1
  Se  Se7  1  0.498981  0.998981  0.500000  1
