# generated using pymatgen
data_Ho2Er2Ga17SiIr6
_symmetry_space_group_name_H-M   'P 1'
_cell_length_a   7.56538488
_cell_length_b   7.54728021
_cell_length_c   9.45983104
_cell_angle_alpha   90.07164125
_cell_angle_beta   89.77688345
_cell_angle_gamma   119.85375330
_symmetry_Int_Tables_number   1
_chemical_formula_structural   Ho2Er2Ga17SiIr6
_chemical_formula_sum   'Ho2 Er2 Ga17 Si1 Ir6'
_cell_volume   468.45751438
_cell_formula_units_Z   1
loop_
 _symmetry_equiv_pos_site_id
 _symmetry_equiv_pos_as_xyz
  1  'x, y, z'
loop_
 _atom_site_type_symbol
 _atom_site_label
 _atom_site_symmetry_multiplicity
 _atom_site_fract_x
 _atom_site_fract_y
 _atom_site_fract_z
 _atom_site_occupancy
  Ho  Ho0  1  0.675855  0.004139  0.248145  1
  Ho  Ho1  1  0.329079  0.001787  0.749078  1
  Er  Er2  1  0.997432  0.664378  0.247972  1
  Er  Er3  1  0.002123  0.330450  0.751441  1
  Ga  Ga4  1  0.130519  0.129328  0.250799  1
  Ga  Ga5  1  0.871697  0.874037  0.750835  1
  Ga  Ga6  1  0.998532  0.670653  0.917146  1
  Ga  Ga7  1  0.000070  0.665241  0.580551  1
  Ga  Ga8  1  0.334092  0.997392  0.418495  1
  Ga  Ga9  1  0.000504  0.335155  0.420382  1
  Ga  Ga10  1  0.664931  0.000225  0.580682  1
  Ga  Ga11  1  0.657499  0.994587  0.917195  1
  Ga  Ga12  1  0.333660  0.997389  0.081818  1
  Ga  Ga13  1  0.332173  0.331329  0.564996  1
  Ga  Ga14  1  0.669614  0.669980  0.433811  1
  Ga  Ga15  1  0.668566  0.670164  0.068905  1
  Ga  Ga16  1  0.338107  0.332268  0.933428  1
  Ga  Ga17  1  0.341889  0.547830  0.251717  1
  Ga  Ga18  1  0.661095  0.451336  0.751165  1
  Ga  Ga19  1  0.547658  0.339578  0.250860  1
  Ga  Ga20  1  0.450914  0.658106  0.750551  1
  Si  Si21  1  0.999790  0.334751  0.072691  1
  Ir  Ir22  1  0.683879  0.329524  0.003544  1
  Ir  Ir23  1  0.312710  0.656479  0.001701  1
  Ir  Ir24  1  0.328127  0.671195  0.500754  1
  Ir  Ir25  1  0.671734  0.328262  0.500091  1
  Ir  Ir26  1  0.998028  0.014293  0.001354  1
  Ir  Ir27  1  0.999726  0.000142  0.499894  1
