# generated using pymatgen
data_Sc9Be(ReO)3
_symmetry_space_group_name_H-M   'P 1'
_cell_length_a   8.62426900
_cell_length_b   8.42888906
_cell_length_c   8.35378300
_cell_angle_alpha   90.00000000
_cell_angle_beta   90.00000000
_cell_angle_gamma   120.76979420
_symmetry_Int_Tables_number   1
_chemical_formula_structural   Sc9Be(ReO)3
_chemical_formula_sum   'Sc18 Be2 Re6 O6'
_cell_volume   521.77721802
_cell_formula_units_Z   2
loop_
 _symmetry_equiv_pos_site_id
 _symmetry_equiv_pos_as_xyz
  1  'x, y, z'
loop_
 _atom_site_type_symbol
 _atom_site_label
 _atom_site_symmetry_multiplicity
 _atom_site_fract_x
 _atom_site_fract_y
 _atom_site_fract_z
 _atom_site_occupancy
  Sc  Sc0  1  0.457596  0.915192  0.250000  1
  Sc  Sc1  1  0.542404  0.084808  0.750000  1
  Sc  Sc2  1  0.090495  0.553348  0.250000  1
  Sc  Sc3  1  0.909505  0.446652  0.750000  1
  Sc  Sc4  1  0.462853  0.553348  0.250000  1
  Sc  Sc5  1  0.537147  0.446652  0.750000  1
  Sc  Sc6  1  0.202895  0.405788  0.558220  1
  Sc  Sc7  1  0.797105  0.594212  0.441780  1
  Sc  Sc8  1  0.592098  0.797880  0.547569  1
  Sc  Sc9  1  0.797105  0.594212  0.058220  1
  Sc  Sc10  1  0.407902  0.202120  0.452431  1
  Sc  Sc11  1  0.202895  0.405788  0.941780  1
  Sc  Sc12  1  0.205784  0.797880  0.547569  1
  Sc  Sc13  1  0.407902  0.202120  0.047569  1
  Sc  Sc14  1  0.794216  0.202120  0.452431  1
  Sc  Sc15  1  0.592098  0.797880  0.952431  1
  Sc  Sc16  1  0.794216  0.202120  0.047569  1
  Sc  Sc17  1  0.205784  0.797880  0.952431  1
  Be  Be18  1  0.101060  0.202119  0.250000  1
  Be  Be19  1  0.898940  0.797881  0.750000  1
  Re  Re20  1  0.790913  0.902285  0.250000  1
  Re  Re21  1  0.209087  0.097715  0.750000  1
  Re  Re22  1  0.111373  0.902285  0.250000  1
  Re  Re23  1  0.888627  0.097715  0.750000  1
  Re  Re24  1  0.000000  0.000000  0.000000  1
  Re  Re25  1  0.000000  0.000000  0.500000  1
  O  O26  1  0.500000  0.000000  0.000000  1
  O  O27  1  0.000000  0.500000  0.000000  1
  O  O28  1  0.500000  0.000000  0.500000  1
  O  O29  1  0.500000  0.500000  0.000000  1
  O  O30  1  0.000000  0.500000  0.500000  1
  O  O31  1  0.500000  0.500000  0.500000  1
