# generated using pymatgen
data_CaTm2Ge2B4Ir9
_symmetry_space_group_name_H-M   'P 1'
_cell_length_a   5.56651200
_cell_length_b   5.56651181
_cell_length_c   9.97937600
_cell_angle_alpha   90.00000000
_cell_angle_beta   90.00000000
_cell_angle_gamma   120.00001304
_symmetry_Int_Tables_number   1
_chemical_formula_structural   CaTm2Ge2B4Ir9
_chemical_formula_sum   'Ca1 Tm2 Ge2 B4 Ir9'
_cell_volume   267.79363159
_cell_formula_units_Z   1
loop_
 _symmetry_equiv_pos_site_id
 _symmetry_equiv_pos_as_xyz
  1  'x, y, z'
loop_
 _atom_site_type_symbol
 _atom_site_label
 _atom_site_symmetry_multiplicity
 _atom_site_fract_x
 _atom_site_fract_y
 _atom_site_fract_z
 _atom_site_occupancy
  Ca  Ca0  1  0.000000  0.000000  0.000000  1
  Tm  Tm1  1  0.000000  0.000000  0.662161  1
  Tm  Tm2  1  0.000000  0.000000  0.337839  1
  Ge  Ge3  1  0.666667  0.333333  0.000000  1
  Ge  Ge4  1  0.333333  0.666667  0.000000  1
  B  B5  1  0.666667  0.333333  0.652933  1
  B  B6  1  0.333333  0.666667  0.652933  1
  B  B7  1  0.333333  0.666667  0.347067  1
  B  B8  1  0.666667  0.333333  0.347067  1
  Ir  Ir9  1  0.500000  0.500000  0.500000  1
  Ir  Ir10  1  0.500000  0.000000  0.500000  1
  Ir  Ir11  1  0.000000  0.500000  0.500000  1
  Ir  Ir12  1  0.500000  0.500000  0.795806  1
  Ir  Ir13  1  0.500000  0.000000  0.795806  1
  Ir  Ir14  1  0.000000  0.500000  0.795806  1
  Ir  Ir15  1  0.500000  0.500000  0.204194  1
  Ir  Ir16  1  0.500000  0.000000  0.204194  1
  Ir  Ir17  1  0.000000  0.500000  0.204194  1
