# generated using pymatgen
data_Mg5(ReTc)12
_symmetry_space_group_name_H-M   'P 1'
_cell_length_a   8.37090075
_cell_length_b   8.37090152
_cell_length_c   8.37090200
_cell_angle_alpha   109.47121695
_cell_angle_beta   109.47121882
_cell_angle_gamma   109.47123084
_symmetry_Int_Tables_number   1
_chemical_formula_structural   Mg5(ReTc)12
_chemical_formula_sum   'Mg5 Re12 Tc12'
_cell_volume   451.53848043
_cell_formula_units_Z   1
loop_
 _symmetry_equiv_pos_site_id
 _symmetry_equiv_pos_as_xyz
  1  'x, y, z'
loop_
 _atom_site_type_symbol
 _atom_site_label
 _atom_site_symmetry_multiplicity
 _atom_site_fract_x
 _atom_site_fract_y
 _atom_site_fract_z
 _atom_site_occupancy
  Mg  Mg0  1  0.000000  0.000000  0.000000  1
  Mg  Mg1  1  0.638603  0.000000  0.000000  1
  Mg  Mg2  1  0.000000  0.638603  0.000000  1
  Mg  Mg3  1  0.000000  0.000000  0.638603  1
  Mg  Mg4  1  0.361397  0.361397  0.361397  1
  Re  Re5  1  0.378125  0.192538  0.000000  1
  Re  Re6  1  0.185587  0.807462  0.807462  1
  Re  Re7  1  0.378125  0.000000  0.192538  1
  Re  Re8  1  0.192538  0.378125  0.000000  1
  Re  Re9  1  0.000000  0.378125  0.192538  1
  Re  Re10  1  0.807462  0.185587  0.807462  1
  Re  Re11  1  0.807462  0.807462  0.185587  1
  Re  Re12  1  0.000000  0.192538  0.378125  1
  Re  Re13  1  0.192538  0.000000  0.378125  1
  Re  Re14  1  0.621875  0.621875  0.814413  1
  Re  Re15  1  0.814413  0.621875  0.621875  1
  Re  Re16  1  0.621875  0.814413  0.621875  1
  Tc  Tc17  1  0.397966  0.677865  0.000000  1
  Tc  Tc18  1  0.720102  0.322135  0.322135  1
  Tc  Tc19  1  0.397966  0.000000  0.677865  1
  Tc  Tc20  1  0.677865  0.397966  0.000000  1
  Tc  Tc21  1  0.000000  0.397966  0.677865  1
  Tc  Tc22  1  0.322135  0.720102  0.322135  1
  Tc  Tc23  1  0.322135  0.322135  0.720102  1
  Tc  Tc24  1  0.000000  0.677865  0.397966  1
  Tc  Tc25  1  0.677865  0.000000  0.397966  1
  Tc  Tc26  1  0.602034  0.602034  0.279898  1
  Tc  Tc27  1  0.279898  0.602034  0.602034  1
  Tc  Tc28  1  0.602034  0.279898  0.602034  1
