# generated using pymatgen
data_K4Ba(SnSe3)2
_symmetry_space_group_name_H-M   'P 1'
_cell_length_a   7.81456697
_cell_length_b   7.81456836
_cell_length_c   9.08213166
_cell_angle_alpha   81.73098877
_cell_angle_beta   81.73098647
_cell_angle_gamma   119.81093550
_symmetry_Int_Tables_number   1
_chemical_formula_structural   K4Ba(SnSe3)2
_chemical_formula_sum   'K4 Ba1 Sn2 Se6'
_cell_volume   461.01036036
_cell_formula_units_Z   1
loop_
 _symmetry_equiv_pos_site_id
 _symmetry_equiv_pos_as_xyz
  1  'x, y, z'
loop_
 _atom_site_type_symbol
 _atom_site_label
 _atom_site_symmetry_multiplicity
 _atom_site_fract_x
 _atom_site_fract_y
 _atom_site_fract_z
 _atom_site_occupancy
  K  K0  1  0.504657  0.495343  0.000000  1
  K  K1  1  0.823023  0.176977  0.000000  1
  K  K2  1  0.174016  0.825984  0.000000  1
  K  K3  1  0.666022  0.333978  0.500000  1
  Ba  Ba4  1  0.334298  0.665702  0.500000  1
  Sn  Sn5  1  0.052555  0.053325  0.338181  1
  Sn  Sn6  1  0.946675  0.947445  0.661819  1
  Se  Se7  1  0.760953  0.777683  0.250389  1
  Se  Se8  1  0.222317  0.239047  0.749611  1
  Se  Se9  1  0.097835  0.405299  0.253149  1
  Se  Se10  1  0.389281  0.066333  0.253346  1
  Se  Se11  1  0.933667  0.610719  0.746654  1
  Se  Se12  1  0.594701  0.902165  0.746851  1
