# generated using pymatgen
data_Er8Ti4Nb8Si15Ge
_symmetry_space_group_name_H-M   'P 1'
_cell_length_a   7.05045998
_cell_length_b   7.04685190
_cell_length_c   12.96634400
_cell_angle_alpha   89.99934942
_cell_angle_beta   89.93636464
_cell_angle_gamma   89.94226229
_symmetry_Int_Tables_number   1
_chemical_formula_structural   Er8Ti4Nb8Si15Ge
_chemical_formula_sum   'Er8 Ti4 Nb8 Si15 Ge1'
_cell_volume   644.21324072
_cell_formula_units_Z   1
loop_
 _symmetry_equiv_pos_site_id
 _symmetry_equiv_pos_as_xyz
  1  'x, y, z'
loop_
 _atom_site_type_symbol
 _atom_site_label
 _atom_site_symmetry_multiplicity
 _atom_site_fract_x
 _atom_site_fract_y
 _atom_site_fract_z
 _atom_site_occupancy
  Er  Er0  1  0.343031  0.003546  0.466052  1
  Er  Er1  1  0.496881  0.841986  0.716855  1
  Er  Er2  1  0.503915  0.157380  0.216702  1
  Er  Er3  1  0.842513  0.496068  0.283376  1
  Er  Er4  1  0.157421  0.505162  0.783715  1
  Er  Er5  1  0.657570  0.995899  0.966665  1
  Er  Er6  1  0.002792  0.343782  0.532537  1
  Er  Er7  1  0.996148  0.657339  0.033394  1
  Ti  Ti8  1  0.326864  0.326999  0.000084  1
  Ti  Ti9  1  0.173133  0.826942  0.250013  1
  Ti  Ti10  1  0.824848  0.173162  0.750300  1
  Ti  Ti11  1  0.673158  0.672983  0.500047  1
  Nb  Nb12  1  0.152439  0.005664  0.875641  1
  Nb  Nb13  1  0.493700  0.652549  0.124239  1
  Nb  Nb14  1  0.508895  0.349008  0.623940  1
  Nb  Nb15  1  0.652592  0.493825  0.875902  1
  Nb  Nb16  1  0.347482  0.506263  0.375785  1
  Nb  Nb17  1  0.847558  0.993582  0.374141  1
  Nb  Nb18  1  0.006337  0.152638  0.125820  1
  Nb  Nb19  1  0.991458  0.844313  0.625204  1
  Si  Si20  1  0.364283  0.702960  0.932902  1
  Si  Si21  1  0.635729  0.297207  0.432867  1
  Si  Si22  1  0.702879  0.364251  0.067110  1
  Si  Si23  1  0.297151  0.635794  0.567090  1
  Si  Si24  1  0.797185  0.864212  0.182977  1
  Si  Si25  1  0.135773  0.202749  0.317132  1
  Si  Si26  1  0.864233  0.797369  0.817206  1
  Si  Si27  1  0.293670  0.953175  0.063802  1
  Si  Si28  1  0.546665  0.793500  0.313658  1
  Si  Si29  1  0.455764  0.206756  0.814967  1
  Si  Si30  1  0.793801  0.546549  0.686323  1
  Si  Si31  1  0.206434  0.453343  0.186300  1
  Si  Si32  1  0.706454  0.046706  0.563709  1
  Si  Si33  1  0.953296  0.293585  0.936279  1
  Si  Si34  1  0.046754  0.706452  0.436282  1
  Ge  Ge35  1  0.201193  0.136303  0.680982  1
