# generated using pymatgen
data_Li4La8Si11P
_symmetry_space_group_name_H-M   'P 1'
_cell_length_a   11.25883802
_cell_length_b   9.55206338
_cell_length_c   8.39864341
_cell_angle_alpha   77.32553250
_cell_angle_beta   55.86395709
_cell_angle_gamma   46.75038938
_symmetry_Int_Tables_number   1
_chemical_formula_structural   Li4La8Si11P
_chemical_formula_sum   'Li4 La8 Si11 P1'
_cell_volume   523.73065671
_cell_formula_units_Z   1
loop_
 _symmetry_equiv_pos_site_id
 _symmetry_equiv_pos_as_xyz
  1  'x, y, z'
loop_
 _atom_site_type_symbol
 _atom_site_label
 _atom_site_symmetry_multiplicity
 _atom_site_fract_x
 _atom_site_fract_y
 _atom_site_fract_z
 _atom_site_occupancy
  Li  Li0  1  0.079034  0.421045  0.089496  1
  Li  Li1  1  0.832800  0.167801  0.831667  1
  Li  Li2  1  0.168761  0.833619  0.166451  1
  Li  Li3  1  0.418802  0.081576  0.415418  1
  La  La4  1  0.123853  0.122922  0.876247  1
  La  La5  1  0.876125  0.875270  0.124739  1
  La  La6  1  0.125964  0.127316  0.373831  1
  La  La7  1  0.372039  0.374732  0.127728  1
  La  La8  1  0.623558  0.623008  0.376980  1
  La  La9  1  0.377162  0.376813  0.622340  1
  La  La10  1  0.628305  0.626666  0.870533  1
  La  La11  1  0.873863  0.871236  0.625454  1
  Si  Si12  1  0.080016  0.413024  0.588449  1
  Si  Si13  1  0.416145  0.076227  0.918253  1
  Si  Si14  1  0.589444  0.918250  0.075289  1
  Si  Si15  1  0.331174  0.660559  0.834582  1
  Si  Si16  1  0.661031  0.331495  0.173071  1
  Si  Si17  1  0.833944  0.174001  0.331235  1
  Si  Si18  1  0.173391  0.833329  0.660373  1
  Si  Si19  1  0.915619  0.583751  0.915697  1
  Si  Si20  1  0.584150  0.916527  0.582094  1
  Si  Si21  1  0.334825  0.666181  0.333448  1
  Si  Si22  1  0.664603  0.333497  0.666502  1
  P  P23  1  0.915399  0.591161  0.420119  1
