# generated using pymatgen
data_Er8Cu3Si12Ir
_symmetry_space_group_name_H-M   'P 1'
_cell_length_a   8.01011500
_cell_length_b   8.01011468
_cell_length_c   7.99871200
_cell_angle_alpha   90.00000000
_cell_angle_beta   90.00000000
_cell_angle_gamma   119.99999718
_symmetry_Int_Tables_number   1
_chemical_formula_structural   Er8Cu3Si12Ir
_chemical_formula_sum   'Er8 Cu3 Si12 Ir1'
_cell_volume   444.45540220
_cell_formula_units_Z   1
loop_
 _symmetry_equiv_pos_site_id
 _symmetry_equiv_pos_as_xyz
  1  'x, y, z'
loop_
 _atom_site_type_symbol
 _atom_site_label
 _atom_site_symmetry_multiplicity
 _atom_site_fract_x
 _atom_site_fract_y
 _atom_site_fract_z
 _atom_site_occupancy
  Er  Er0  1  0.499390  0.998780  0.251632  1
  Er  Er1  1  0.498681  0.997361  0.748297  1
  Er  Er2  1  0.001220  0.500610  0.251632  1
  Er  Er3  1  0.002639  0.501319  0.748297  1
  Er  Er4  1  0.499390  0.500610  0.251632  1
  Er  Er5  1  0.498681  0.501319  0.748297  1
  Er  Er6  1  0.000000  0.000000  0.248348  1
  Er  Er7  1  0.000000  0.000000  0.751101  1
  Cu  Cu8  1  0.333333  0.666667  0.002389  1
  Cu  Cu9  1  0.666667  0.333333  0.000598  1
  Cu  Cu10  1  0.666667  0.333333  0.501016  1
  Si  Si11  1  0.168955  0.337911  0.999624  1
  Si  Si12  1  0.831373  0.662747  0.999839  1
  Si  Si13  1  0.662089  0.831045  0.999624  1
  Si  Si14  1  0.831721  0.663442  0.500209  1
  Si  Si15  1  0.337253  0.168627  0.999839  1
  Si  Si16  1  0.166756  0.333511  0.499574  1
  Si  Si17  1  0.168955  0.831045  0.999624  1
  Si  Si18  1  0.336558  0.168279  0.500209  1
  Si  Si19  1  0.831373  0.168627  0.999839  1
  Si  Si20  1  0.666489  0.833244  0.499574  1
  Si  Si21  1  0.831721  0.168279  0.500209  1
  Si  Si22  1  0.166756  0.833244  0.499574  1
  Ir  Ir23  1  0.333333  0.666667  0.499024  1
