# generated using pymatgen
data_Sc5Zn6GeRh12
_symmetry_space_group_name_H-M   'P 1'
_cell_length_a   4.38036000
_cell_length_b   6.26271600
_cell_length_c   13.16018700
_cell_angle_alpha   90.00000000
_cell_angle_beta   89.99884107
_cell_angle_gamma   90.00000000
_symmetry_Int_Tables_number   1
_chemical_formula_structural   Sc5Zn6GeRh12
_chemical_formula_sum   'Sc5 Zn6 Ge1 Rh12'
_cell_volume   361.02276058
_cell_formula_units_Z   1
loop_
 _symmetry_equiv_pos_site_id
 _symmetry_equiv_pos_as_xyz
  1  'x, y, z'
loop_
 _atom_site_type_symbol
 _atom_site_label
 _atom_site_symmetry_multiplicity
 _atom_site_fract_x
 _atom_site_fract_y
 _atom_site_fract_z
 _atom_site_occupancy
  Sc  Sc0  1  0.499929  0.000000  0.162263  1
  Sc  Sc1  1  0.999945  0.500000  0.334186  1
  Sc  Sc2  1  0.499999  0.000000  0.500000  1
  Sc  Sc3  1  0.000054  0.500000  0.665813  1
  Sc  Sc4  1  0.500072  0.000000  0.837736  1
  Zn  Zn5  1  0.000000  0.000000  0.000000  1
  Zn  Zn6  1  0.499921  0.500000  0.173795  1
  Zn  Zn7  1  0.999924  0.000000  0.326251  1
  Zn  Zn8  1  0.499999  0.500000  0.500000  1
  Zn  Zn9  1  0.000077  0.000000  0.673749  1
  Zn  Zn10  1  0.500080  0.500000  0.826205  1
  Ge  Ge11  1  0.000000  0.500000  0.000000  1
  Rh  Rh12  1  0.499999  0.269750  0.000000  1
  Rh  Rh13  1  0.499999  0.730249  0.000000  1
  Rh  Rh14  1  0.999930  0.262521  0.158167  1
  Rh  Rh15  1  0.999930  0.737479  0.158167  1
  Rh  Rh16  1  0.499914  0.247055  0.332299  1
  Rh  Rh17  1  0.499914  0.752944  0.332299  1
  Rh  Rh18  1  0.000000  0.248495  0.500000  1
  Rh  Rh19  1  0.000000  0.751504  0.500000  1
  Rh  Rh20  1  0.500084  0.247055  0.667700  1
  Rh  Rh21  1  0.500084  0.752944  0.667700  1
  Rh  Rh22  1  0.000070  0.262521  0.841833  1
  Rh  Rh23  1  0.000070  0.737479  0.841833  1
