# generated using pymatgen
data_YbSm2Ho(B6Ru)2
_symmetry_space_group_name_H-M   'P 1'
_cell_length_a   3.69760400
_cell_length_b   9.16148151
_cell_length_c   11.56758218
_cell_angle_alpha   90.08485404
_cell_angle_beta   90.00000000
_cell_angle_gamma   90.00000000
_symmetry_Int_Tables_number   1
_chemical_formula_structural   YbSm2Ho(B6Ru)2
_chemical_formula_sum   'Yb2 Sm4 Ho2 B24 Ru4'
_cell_volume   391.85755505
_cell_formula_units_Z   2
loop_
 _symmetry_equiv_pos_site_id
 _symmetry_equiv_pos_as_xyz
  1  'x, y, z'
loop_
 _atom_site_type_symbol
 _atom_site_label
 _atom_site_symmetry_multiplicity
 _atom_site_fract_x
 _atom_site_fract_y
 _atom_site_fract_z
 _atom_site_occupancy
  Yb  Yb0  1  0.000000  0.441689  0.130393  1
  Yb  Yb1  1  0.000000  0.558311  0.869607  1
  Sm  Sm2  1  0.000000  0.323338  0.413610  1
  Sm  Sm3  1  0.000000  0.676662  0.586390  1
  Sm  Sm4  1  0.000000  0.820433  0.084818  1
  Sm  Sm5  1  0.000000  0.179567  0.915182  1
  Ho  Ho6  1  0.000000  0.942213  0.370098  1
  Ho  Ho7  1  0.000000  0.057787  0.629902  1
  B  B8  1  0.500000  0.554800  0.430994  1
  B  B9  1  0.500000  0.445200  0.569006  1
  B  B10  1  0.500000  0.055252  0.068509  1
  B  B11  1  0.500000  0.944748  0.931491  1
  B  B12  1  0.500000  0.748677  0.417529  1
  B  B13  1  0.500000  0.251323  0.582471  1
  B  B14  1  0.500000  0.249855  0.083215  1
  B  B15  1  0.500000  0.750145  0.916785  1
  B  B16  1  0.500000  0.788630  0.265643  1
  B  B17  1  0.500000  0.211370  0.734357  1
  B  B18  1  0.500000  0.290064  0.233841  1
  B  B19  1  0.500000  0.709936  0.766159  1
  B  B20  1  0.500000  0.627912  0.185157  1
  B  B21  1  0.500000  0.372088  0.814843  1
  B  B22  1  0.500000  0.129745  0.314076  1
  B  B23  1  0.500000  0.870255  0.685924  1
  B  B24  1  0.500000  0.983265  0.212431  1
  B  B25  1  0.500000  0.016735  0.787569  1
  B  B26  1  0.500000  0.483624  0.286779  1
  B  B27  1  0.500000  0.516376  0.713221  1
  B  B28  1  0.500000  0.597337  0.026984  1
  B  B29  1  0.500000  0.402663  0.973016  1
  B  B30  1  0.500000  0.102427  0.471764  1
  B  B31  1  0.500000  0.897573  0.528236  1
  Ru  Ru32  1  0.000000  0.638167  0.320336  1
  Ru  Ru33  1  0.000000  0.361833  0.679664  1
  Ru  Ru34  1  0.000000  0.137888  0.180231  1
  Ru  Ru35  1  0.000000  0.862112  0.819769  1
