# generated using pymatgen
data_HfSc7(Ta3Si4)4
_symmetry_space_group_name_H-M   'P 1'
_cell_length_a   6.69060593
_cell_length_b   6.87897887
_cell_length_c   13.09783975
_cell_angle_alpha   89.96960765
_cell_angle_beta   90.09334613
_cell_angle_gamma   89.95122155
_symmetry_Int_Tables_number   1
_chemical_formula_structural   HfSc7(Ta3Si4)4
_chemical_formula_sum   'Hf1 Sc7 Ta12 Si16'
_cell_volume   602.82090451
_cell_formula_units_Z   1
loop_
 _symmetry_equiv_pos_site_id
 _symmetry_equiv_pos_as_xyz
  1  'x, y, z'
loop_
 _atom_site_type_symbol
 _atom_site_label
 _atom_site_symmetry_multiplicity
 _atom_site_fract_x
 _atom_site_fract_y
 _atom_site_fract_z
 _atom_site_occupancy
  Hf  Hf0  1  0.499632  0.674191  0.596384  1
  Sc  Sc1  1  0.000027  0.826515  0.904512  1
  Sc  Sc2  1  0.499420  0.326239  0.095463  1
  Sc  Sc3  1  0.000151  0.173390  0.404633  1
  Sc  Sc4  1  0.500518  0.326958  0.405041  1
  Sc  Sc5  1  0.999625  0.173289  0.095533  1
  Sc  Sc6  1  0.499860  0.673185  0.905230  1
  Sc  Sc7  1  0.998157  0.825962  0.595060  1
  Ta  Ta8  1  0.661515  0.175101  0.623886  1
  Ta  Ta9  1  0.163741  0.325705  0.874838  1
  Ta  Ta10  1  0.337383  0.825528  0.124866  1
  Ta  Ta11  1  0.837329  0.674557  0.375479  1
  Ta  Ta12  1  0.339088  0.823891  0.375954  1
  Ta  Ta13  1  0.837908  0.674248  0.124768  1
  Ta  Ta14  1  0.662366  0.174681  0.874782  1
  Ta  Ta15  1  0.164209  0.327233  0.624250  1
  Ta  Ta16  1  0.835966  0.494348  0.749370  1
  Ta  Ta17  1  0.337121  0.005007  0.748677  1
  Ta  Ta18  1  0.163315  0.505947  0.250466  1
  Ta  Ta19  1  0.662990  0.993441  0.250296  1
  Si  Si20  1  0.670441  0.967562  0.461020  1
  Si  Si21  1  0.169792  0.532109  0.039309  1
  Si  Si22  1  0.329586  0.032446  0.960855  1
  Si  Si23  1  0.829146  0.466824  0.538656  1
  Si  Si24  1  0.329032  0.032706  0.538938  1
  Si  Si25  1  0.830495  0.467632  0.960617  1
  Si  Si26  1  0.669635  0.968032  0.039468  1
  Si  Si27  1  0.171564  0.532375  0.460886  1
  Si  Si28  1  0.459038  0.387121  0.750117  1
  Si  Si29  1  0.959205  0.113993  0.749470  1
  Si  Si30  1  0.541415  0.612753  0.249623  1
  Si  Si31  1  0.041577  0.886431  0.250214  1
  Si  Si32  1  0.704217  0.862497  0.750538  1
  Si  Si33  1  0.202578  0.638589  0.750573  1
  Si  Si34  1  0.296025  0.137828  0.250117  1
  Si  Si35  1  0.795932  0.361686  0.250111  1
