# generated using pymatgen
data_HoVP3Rh4
_symmetry_space_group_name_H-M   'P 1'
_cell_length_a   3.91919800
_cell_length_b   7.23267615
_cell_length_c   9.52629981
_cell_angle_alpha   79.18132248
_cell_angle_beta   90.00000000
_cell_angle_gamma   90.00000000
_symmetry_Int_Tables_number   1
_chemical_formula_structural   HoVP3Rh4
_chemical_formula_sum   'Ho2 V2 P6 Rh8'
_cell_volume   265.23568067
_cell_formula_units_Z   2
loop_
 _symmetry_equiv_pos_site_id
 _symmetry_equiv_pos_as_xyz
  1  'x, y, z'
loop_
 _atom_site_type_symbol
 _atom_site_label
 _atom_site_symmetry_multiplicity
 _atom_site_fract_x
 _atom_site_fract_y
 _atom_site_fract_z
 _atom_site_occupancy
  Ho  Ho0  1  0.250000  0.806933  0.783840  1
  Ho  Ho1  1  0.750000  0.193082  0.216164  1
  V  V2  1  0.250000  0.310704  0.722465  1
  V  V3  1  0.750000  0.689284  0.277563  1
  P  P4  1  0.250000  0.256515  0.973840  1
  P  P5  1  0.750000  0.743532  0.025988  1
  P  P6  1  0.250000  0.430705  0.335890  1
  P  P7  1  0.750000  0.569198  0.664125  1
  P  P8  1  0.250000  0.899952  0.338758  1
  P  P9  1  0.750000  0.100131  0.661300  1
  Rh  Rh10  1  0.250000  0.529653  0.097139  1
  Rh  Rh11  1  0.750000  0.470305  0.902825  1
  Rh  Rh12  1  0.250000  0.926188  0.097275  1
  Rh  Rh13  1  0.750000  0.073882  0.902686  1
  Rh  Rh14  1  0.250000  0.623705  0.502390  1
  Rh  Rh15  1  0.750000  0.376215  0.497712  1
  Rh  Rh16  1  0.250000  0.130757  0.474461  1
  Rh  Rh17  1  0.750000  0.869258  0.525580  1
