# generated using pymatgen
data_Sr21MgGa8Sn5Pb
_symmetry_space_group_name_H-M   'P 1'
_cell_length_a   12.16983997
_cell_length_b   12.17569518
_cell_length_c   12.16983941
_cell_angle_alpha   59.98408998
_cell_angle_beta   60.03183184
_cell_angle_gamma   59.98409092
_symmetry_Int_Tables_number   1
_chemical_formula_structural   Sr21MgGa8Sn5Pb
_chemical_formula_sum   'Sr21 Mg1 Ga8 Sn5 Pb1'
_cell_volume   1275.11197581
_cell_formula_units_Z   1
loop_
 _symmetry_equiv_pos_site_id
 _symmetry_equiv_pos_as_xyz
  1  'x, y, z'
loop_
 _atom_site_type_symbol
 _atom_site_label
 _atom_site_symmetry_multiplicity
 _atom_site_fract_x
 _atom_site_fract_y
 _atom_site_fract_z
 _atom_site_occupancy
  Sr  Sr0  1  0.869205  0.869236  0.392323  1
  Sr  Sr1  1  0.607164  0.130537  0.131764  1
  Sr  Sr2  1  0.869463  0.392836  0.869463  1
  Sr  Sr3  1  0.130764  0.130795  0.130764  1
  Sr  Sr4  1  0.392323  0.869236  0.869205  1
  Sr  Sr5  1  0.869463  0.868236  0.869463  1
  Sr  Sr6  1  0.171891  0.828109  0.500072  1
  Sr  Sr7  1  0.828210  0.500841  0.499159  1
  Sr  Sr8  1  0.131764  0.130537  0.607164  1
  Sr  Sr9  1  0.828210  0.171790  0.499159  1
  Sr  Sr10  1  0.171891  0.499928  0.500072  1
  Sr  Sr11  1  0.130764  0.607677  0.130764  1
  Sr  Sr12  1  0.500072  0.499928  0.171891  1
  Sr  Sr13  1  0.499159  0.171790  0.828210  1
  Sr  Sr14  1  0.500072  0.828109  0.171891  1
  Sr  Sr15  1  0.499159  0.500841  0.828210  1
  Sr  Sr16  1  0.500000  0.171936  0.500000  1
  Sr  Sr17  1  0.171937  0.500000  0.828064  1
  Sr  Sr18  1  0.000510  0.999490  0.000510  1
  Sr  Sr19  1  0.500000  0.828063  0.500000  1
  Sr  Sr20  1  0.828064  0.500000  0.171937  1
  Mg  Mg21  1  0.500027  0.499973  0.500027  1
  Ga  Ga22  1  0.693458  0.919655  0.693458  1
  Ga  Ga23  1  0.693461  0.693470  0.919600  1
  Ga  Ga24  1  0.693458  0.693430  0.693458  1
  Ga  Ga25  1  0.306530  0.080400  0.306530  1
  Ga  Ga26  1  0.919600  0.693470  0.693461  1
  Ga  Ga27  1  0.306570  0.306542  0.080345  1
  Ga  Ga28  1  0.080345  0.306542  0.306570  1
  Ga  Ga29  1  0.306530  0.306539  0.306530  1
  Sn  Sn30  1  0.784547  0.215453  0.215406  1
  Sn  Sn31  1  0.215571  0.784429  0.215571  1
  Sn  Sn32  1  0.215406  0.784594  0.784547  1
  Sn  Sn33  1  0.784547  0.784594  0.215406  1
  Sn  Sn34  1  0.215406  0.215453  0.784547  1
  Pb  Pb35  1  0.784458  0.215542  0.784458  1
