# generated using pymatgen
data_Nd4Zn5Ga13Pd6
_symmetry_space_group_name_H-M   'P 1'
_cell_length_a   7.69237925
_cell_length_b   7.72657451
_cell_length_c   9.61841723
_cell_angle_alpha   89.99647020
_cell_angle_beta   90.02862715
_cell_angle_gamma   119.23880066
_symmetry_Int_Tables_number   1
_chemical_formula_structural   Nd4Zn5Ga13Pd6
_chemical_formula_sum   'Nd4 Zn5 Ga13 Pd6'
_cell_volume   498.84107963
_cell_formula_units_Z   1
loop_
 _symmetry_equiv_pos_site_id
 _symmetry_equiv_pos_as_xyz
  1  'x, y, z'
loop_
 _atom_site_type_symbol
 _atom_site_label
 _atom_site_symmetry_multiplicity
 _atom_site_fract_x
 _atom_site_fract_y
 _atom_site_fract_z
 _atom_site_occupancy
  Nd  Nd0  1  0.996336  0.672859  0.250583  1
  Nd  Nd1  1  0.004317  0.328467  0.750212  1
  Nd  Nd2  1  0.672805  0.997942  0.250514  1
  Nd  Nd3  1  0.326400  0.001033  0.750037  1
  Zn  Zn4  1  0.137646  0.141566  0.247915  1
  Zn  Zn5  1  0.861282  0.859538  0.750141  1
  Zn  Zn6  1  0.011420  0.338318  0.083426  1
  Zn  Zn7  1  0.339909  0.543759  0.247489  1
  Zn  Zn8  1  0.653902  0.453835  0.750309  1
  Ga  Ga9  1  0.988719  0.657342  0.917436  1
  Ga  Ga10  1  0.988429  0.661425  0.585583  1
  Ga  Ga11  1  0.333955  0.005484  0.414385  1
  Ga  Ga12  1  0.012068  0.337761  0.413221  1
  Ga  Ga13  1  0.667265  0.996294  0.584699  1
  Ga  Ga14  1  0.671053  0.000146  0.918260  1
  Ga  Ga15  1  0.334373  0.004548  0.084667  1
  Ga  Ga16  1  0.337292  0.334600  0.558378  1
  Ga  Ga17  1  0.662009  0.664976  0.440368  1
  Ga  Ga18  1  0.663232  0.665449  0.057696  1
  Ga  Ga19  1  0.331406  0.333224  0.946945  1
  Ga  Ga20  1  0.542173  0.345374  0.249738  1
  Ga  Ga21  1  0.459774  0.656501  0.750468  1
  Pd  Pd22  1  0.670264  0.324670  0.001891  1
  Pd  Pd23  1  0.331220  0.680770  0.995922  1
  Pd  Pd24  1  0.326607  0.675188  0.503042  1
  Pd  Pd25  1  0.675122  0.325488  0.496939  1
  Pd  Pd26  1  0.000125  0.993933  0.999766  1
  Pd  Pd27  1  0.000898  0.999511  0.499972  1
