# generated using pymatgen
data_Na4YbAs12Rh19
_symmetry_space_group_name_H-M   'P 1'
_cell_length_a   12.94673100
_cell_length_b   12.96945638
_cell_length_c   4.00668400
_cell_angle_alpha   90.00000000
_cell_angle_beta   90.00000000
_cell_angle_gamma   119.94205639
_symmetry_Int_Tables_number   1
_chemical_formula_structural   Na4YbAs12Rh19
_chemical_formula_sum   'Na4 Yb1 As12 Rh19'
_cell_volume   582.97630038
_cell_formula_units_Z   1
loop_
 _symmetry_equiv_pos_site_id
 _symmetry_equiv_pos_as_xyz
  1  'x, y, z'
loop_
 _atom_site_type_symbol
 _atom_site_label
 _atom_site_symmetry_multiplicity
 _atom_site_fract_x
 _atom_site_fract_y
 _atom_site_fract_z
 _atom_site_occupancy
  Na  Na0  1  0.333639  0.667702  0.500000  1
  Na  Na1  1  0.665936  0.332298  0.500000  1
  Na  Na2  1  0.000888  0.818882  0.000000  1
  Na  Na3  1  0.182006  0.181118  0.000000  1
  Yb  Yb4  1  0.822493  0.000000  0.000000  1
  As  As5  1  0.999692  0.639633  0.500000  1
  As  As6  1  0.360060  0.360367  0.500000  1
  As  As7  1  0.639598  0.000000  0.500000  1
  As  As8  1  0.512871  0.680385  0.000000  1
  As  As9  1  0.319300  0.832884  0.000000  1
  As  As10  1  0.167531  0.487585  0.000000  1
  As  As11  1  0.486416  0.167116  0.000000  1
  As  As12  1  0.679945  0.512415  0.000000  1
  As  As13  1  0.832486  0.319615  0.000000  1
  As  As14  1  0.002763  0.181567  0.500000  1
  As  As15  1  0.821196  0.818433  0.500000  1
  As  As16  1  0.179609  0.000000  0.500000  1
  Rh  Rh17  1  0.520419  0.873452  0.000000  1
  Rh  Rh18  1  0.125643  0.645927  0.000000  1
  Rh  Rh19  1  0.353512  0.480686  0.000000  1
  Rh  Rh20  1  0.479718  0.354073  0.000000  1
  Rh  Rh21  1  0.872828  0.519314  0.000000  1
  Rh  Rh22  1  0.646968  0.126548  0.000000  1
  Rh  Rh23  1  0.996627  0.452329  0.500000  1
  Rh  Rh24  1  0.544298  0.547671  0.500000  1
  Rh  Rh25  1  0.454060  0.000000  0.500000  1
  Rh  Rh26  1  0.999597  0.286148  0.000000  1
  Rh  Rh27  1  0.713450  0.713852  0.000000  1
  Rh  Rh28  1  0.285714  0.000000  0.000000  1
  Rh  Rh29  1  0.625051  0.802967  0.500000  1
  Rh  Rh30  1  0.198536  0.820893  0.500000  1
  Rh  Rh31  1  0.179280  0.379058  0.500000  1
  Rh  Rh32  1  0.377642  0.179107  0.500000  1
  Rh  Rh33  1  0.800221  0.620942  0.500000  1
  Rh  Rh34  1  0.822083  0.197033  0.500000  1
  Rh  Rh35  1  0.997925  0.000000  0.500000  1
