# generated using pymatgen
data_Hf2TaNbSi2
_symmetry_space_group_name_H-M   'P 1'
_cell_length_a   3.61483000
_cell_length_b   6.99008100
_cell_length_c   8.44737000
_cell_angle_alpha   90.00000000
_cell_angle_beta   90.00000000
_cell_angle_gamma   90.00000000
_symmetry_Int_Tables_number   1
_chemical_formula_structural   Hf2TaNbSi2
_chemical_formula_sum   'Hf4 Ta2 Nb2 Si4'
_cell_volume   213.44776082
_cell_formula_units_Z   2
loop_
 _symmetry_equiv_pos_site_id
 _symmetry_equiv_pos_as_xyz
  1  'x, y, z'
loop_
 _atom_site_type_symbol
 _atom_site_label
 _atom_site_symmetry_multiplicity
 _atom_site_fract_x
 _atom_site_fract_y
 _atom_site_fract_z
 _atom_site_occupancy
  Hf  Hf0  1  0.250000  0.542565  0.166534  1
  Hf  Hf1  1  0.250000  0.042565  0.333466  1
  Hf  Hf2  1  0.750000  0.455444  0.833616  1
  Hf  Hf3  1  0.750000  0.955444  0.666384  1
  Ta  Ta4  1  0.750000  0.368441  0.440327  1
  Ta  Ta5  1  0.750000  0.868441  0.059673  1
  Nb  Nb6  1  0.250000  0.634337  0.559429  1
  Nb  Nb7  1  0.250000  0.134337  0.940571  1
  Si  Si8  1  0.250000  0.753139  0.859713  1
  Si  Si9  1  0.250000  0.253139  0.640287  1
  Si  Si10  1  0.750000  0.246072  0.142804  1
  Si  Si11  1  0.750000  0.746072  0.357196  1
