# generated using pymatgen
data_Sm2DyZnAu5
_symmetry_space_group_name_H-M   'P 1'
_cell_length_a   8.51501830
_cell_length_b   8.51501907
_cell_length_c   13.48750100
_cell_angle_alpha   90.00000000
_cell_angle_beta   90.00000000
_cell_angle_gamma   126.90414600
_symmetry_Int_Tables_number   1
_chemical_formula_structural   Sm2DyZnAu5
_chemical_formula_sum   'Sm8 Dy4 Zn4 Au20'
_cell_volume   781.98400071
_cell_formula_units_Z   4
loop_
 _symmetry_equiv_pos_site_id
 _symmetry_equiv_pos_as_xyz
  1  'x, y, z'
loop_
 _atom_site_type_symbol
 _atom_site_label
 _atom_site_symmetry_multiplicity
 _atom_site_fract_x
 _atom_site_fract_y
 _atom_site_fract_z
 _atom_site_occupancy
  Sm  Sm0  1  0.928627  0.071373  0.250000  1
  Sm  Sm1  1  0.071373  0.928627  0.750000  1
  Sm  Sm2  1  0.320526  0.679474  0.250000  1
  Sm  Sm3  1  0.679474  0.320526  0.750000  1
  Sm  Sm4  1  0.882134  0.117866  0.951010  1
  Sm  Sm5  1  0.117866  0.882134  0.048990  1
  Sm  Sm6  1  0.882134  0.117866  0.548990  1
  Sm  Sm7  1  0.117866  0.882134  0.451010  1
  Dy  Dy8  1  0.629751  0.370249  0.462966  1
  Dy  Dy9  1  0.370249  0.629751  0.537034  1
  Dy  Dy10  1  0.629751  0.370249  0.037034  1
  Dy  Dy11  1  0.370249  0.629751  0.962966  1
  Zn  Zn12  1  0.720457  0.279543  0.250000  1
  Zn  Zn13  1  0.279543  0.720457  0.750000  1
  Zn  Zn14  1  0.532910  0.467090  0.250000  1
  Zn  Zn15  1  0.467090  0.532910  0.750000  1
  Au  Au16  1  0.320819  0.067495  0.250000  1
  Au  Au17  1  0.067495  0.320819  0.750000  1
  Au  Au18  1  0.679181  0.932505  0.750000  1
  Au  Au19  1  0.932505  0.679181  0.250000  1
  Au  Au20  1  0.567967  0.004006  0.396937  1
  Au  Au21  1  0.004006  0.567967  0.603063  1
  Au  Au22  1  0.567967  0.004006  0.103063  1
  Au  Au23  1  0.004006  0.567967  0.896937  1
  Au  Au24  1  0.432033  0.995994  0.603063  1
  Au  Au25  1  0.995994  0.432033  0.396937  1
  Au  Au26  1  0.432033  0.995994  0.896937  1
  Au  Au27  1  0.995994  0.432033  0.103063  1
  Au  Au28  1  0.683654  0.738932  0.394992  1
  Au  Au29  1  0.738932  0.683654  0.605008  1
  Au  Au30  1  0.683654  0.738932  0.105008  1
  Au  Au31  1  0.738932  0.683654  0.894992  1
  Au  Au32  1  0.316346  0.261068  0.605008  1
  Au  Au33  1  0.261068  0.316346  0.394992  1
  Au  Au34  1  0.316346  0.261068  0.894992  1
  Au  Au35  1  0.261068  0.316346  0.105008  1
