# generated using pymatgen
data_Lu4AgAs5Rh7
_symmetry_space_group_name_H-M   'P 1'
_cell_length_a   7.23234322
_cell_length_b   7.23234281
_cell_length_c   7.23234300
_cell_angle_alpha   110.32357783
_cell_angle_beta   107.77963496
_cell_angle_gamma   110.32358299
_symmetry_Int_Tables_number   1
_chemical_formula_structural   Lu4AgAs5Rh7
_chemical_formula_sum   'Lu4 Ag1 As5 Rh7'
_cell_volume   291.02623934
_cell_formula_units_Z   1
loop_
 _symmetry_equiv_pos_site_id
 _symmetry_equiv_pos_as_xyz
  1  'x, y, z'
loop_
 _atom_site_type_symbol
 _atom_site_label
 _atom_site_symmetry_multiplicity
 _atom_site_fract_x
 _atom_site_fract_y
 _atom_site_fract_z
 _atom_site_occupancy
  Lu  Lu0  1  0.483794  0.490382  0.483794  1
  Lu  Lu1  1  0.993411  0.509618  0.993411  1
  Lu  Lu2  1  0.483794  0.000000  0.993411  1
  Lu  Lu3  1  0.993411  0.000000  0.483794  1
  Ag  Ag4  1  0.718362  0.000000  0.718362  1
  As  As5  1  0.679158  0.686982  0.992176  1
  As  As6  1  0.305194  0.313018  0.992176  1
  As  As7  1  0.992176  0.686982  0.679158  1
  As  As8  1  0.992176  0.313018  0.305194  1
  As  As9  1  0.341825  0.000000  0.341825  1
  Rh  Rh10  1  0.744819  0.500000  0.244819  1
  Rh  Rh11  1  0.496164  0.254703  0.750866  1
  Rh  Rh12  1  0.750866  0.254703  0.496164  1
  Rh  Rh13  1  0.241461  0.745297  0.496164  1
  Rh  Rh14  1  0.244819  0.500000  0.744819  1
  Rh  Rh15  1  0.496164  0.745297  0.241461  1
  Rh  Rh16  1  0.042406  0.000000  0.042406  1
