# generated using pymatgen
data_Lu2Co7(P2Ru)3
_symmetry_space_group_name_H-M   'P 1'
_cell_length_a   3.70243700
_cell_length_b   10.39531300
_cell_length_c   11.80490400
_cell_angle_alpha   90.00000000
_cell_angle_beta   90.00000000
_cell_angle_gamma   90.00000000
_symmetry_Int_Tables_number   1
_chemical_formula_structural   Lu2Co7(P2Ru)3
_chemical_formula_sum   'Lu4 Co14 P12 Ru6'
_cell_volume   454.34704455
_cell_formula_units_Z   2
loop_
 _symmetry_equiv_pos_site_id
 _symmetry_equiv_pos_as_xyz
  1  'x, y, z'
loop_
 _atom_site_type_symbol
 _atom_site_label
 _atom_site_symmetry_multiplicity
 _atom_site_fract_x
 _atom_site_fract_y
 _atom_site_fract_z
 _atom_site_occupancy
  Lu  Lu0  1  0.250000  0.586151  0.705012  1
  Lu  Lu1  1  0.250000  0.913849  0.205012  1
  Lu  Lu2  1  0.750000  0.415456  0.292470  1
  Lu  Lu3  1  0.750000  0.084544  0.792470  1
  Co  Co4  1  0.750000  0.596752  0.514596  1
  Co  Co5  1  0.750000  0.903248  0.014596  1
  Co  Co6  1  0.250000  0.225076  0.179714  1
  Co  Co7  1  0.250000  0.274924  0.679714  1
  Co  Co8  1  0.750000  0.776653  0.821559  1
  Co  Co9  1  0.750000  0.723347  0.321559  1
  Co  Co10  1  0.250000  0.884912  0.700722  1
  Co  Co11  1  0.250000  0.615088  0.200722  1
  Co  Co12  1  0.750000  0.113086  0.298219  1
  Co  Co13  1  0.750000  0.386914  0.798219  1
  Co  Co14  1  0.250000  0.465475  0.930719  1
  Co  Co15  1  0.250000  0.034525  0.430719  1
  Co  Co16  1  0.750000  0.537042  0.068722  1
  Co  Co17  1  0.750000  0.962958  0.568722  1
  P  P18  1  0.250000  0.422103  0.113024  1
  P  P19  1  0.250000  0.077897  0.613024  1
  P  P20  1  0.750000  0.579402  0.886343  1
  P  P21  1  0.750000  0.920598  0.386343  1
  P  P22  1  0.250000  0.271482  0.866242  1
  P  P23  1  0.250000  0.228518  0.366242  1
  P  P24  1  0.750000  0.731331  0.132785  1
  P  P25  1  0.750000  0.768669  0.632785  1
  P  P26  1  0.250000  0.599886  0.385924  1
  P  P27  1  0.250000  0.900114  0.885924  1
  P  P28  1  0.750000  0.403759  0.613241  1
  P  P29  1  0.750000  0.096241  0.113241  1
  Ru  Ru30  1  0.250000  0.715341  0.990733  1
  Ru  Ru31  1  0.250000  0.784659  0.490733  1
  Ru  Ru32  1  0.750000  0.289532  0.012427  1
  Ru  Ru33  1  0.750000  0.210468  0.512427  1
  Ru  Ru34  1  0.250000  0.410048  0.487550  1
  Ru  Ru35  1  0.250000  0.089952  0.987550  1
