# generated using pymatgen
data_Pr17Y(MgIr6)2
_symmetry_space_group_name_H-M   'P 1'
_cell_length_a   11.27674700
_cell_length_b   11.27674700
_cell_length_c   6.44856400
_cell_angle_alpha   90.00000000
_cell_angle_beta   90.00000000
_cell_angle_gamma   90.00000000
_symmetry_Int_Tables_number   1
_chemical_formula_structural   Pr17Y(MgIr6)2
_chemical_formula_sum   'Pr17 Y1 Mg2 Ir12'
_cell_volume   820.03178875
_cell_formula_units_Z   1
loop_
 _symmetry_equiv_pos_site_id
 _symmetry_equiv_pos_as_xyz
  1  'x, y, z'
loop_
 _atom_site_type_symbol
 _atom_site_label
 _atom_site_symmetry_multiplicity
 _atom_site_fract_x
 _atom_site_fract_y
 _atom_site_fract_z
 _atom_site_occupancy
  Pr  Pr0  1  0.291271  0.087641  0.381855  1
  Pr  Pr1  1  0.283951  0.912890  0.883964  1
  Pr  Pr2  1  0.716049  0.087110  0.883964  1
  Pr  Pr3  1  0.708729  0.912359  0.381855  1
  Pr  Pr4  1  0.587723  0.788934  0.882584  1
  Pr  Pr5  1  0.586179  0.218330  0.383722  1
  Pr  Pr6  1  0.413821  0.781670  0.383722  1
  Pr  Pr7  1  0.412277  0.211066  0.882584  1
  Pr  Pr8  1  0.218330  0.413821  0.616278  1
  Pr  Pr9  1  0.211066  0.587723  0.117416  1
  Pr  Pr10  1  0.788934  0.412277  0.117416  1
  Pr  Pr11  1  0.781670  0.586179  0.616278  1
  Pr  Pr12  1  0.912890  0.716049  0.116036  1
  Pr  Pr13  1  0.912359  0.291271  0.618145  1
  Pr  Pr14  1  0.087641  0.708729  0.618145  1
  Pr  Pr15  1  0.087110  0.283951  0.116036  1
  Pr  Pr16  1  0.000000  0.000000  0.500000  1
  Y  Y17  1  0.500000  0.500000  0.000000  1
  Mg  Mg18  1  0.000000  0.000000  0.000000  1
  Mg  Mg19  1  0.500000  0.500000  0.500000  1
  Ir  Ir20  1  0.845757  0.152762  0.252805  1
  Ir  Ir21  1  0.847238  0.845757  0.747195  1
  Ir  Ir22  1  0.152762  0.154243  0.747195  1
  Ir  Ir23  1  0.154243  0.847238  0.252805  1
  Ir  Ir24  1  0.648572  0.349270  0.754774  1
  Ir  Ir25  1  0.650730  0.648572  0.245226  1
  Ir  Ir26  1  0.349270  0.351428  0.245226  1
  Ir  Ir27  1  0.351428  0.650730  0.754774  1
  Ir  Ir28  1  0.500000  0.000000  0.116504  1
  Ir  Ir29  1  0.500000  0.000000  0.615313  1
  Ir  Ir30  1  0.000000  0.500000  0.883496  1
  Ir  Ir31  1  0.000000  0.500000  0.384687  1
