# generated using pymatgen
data_TaReS4
_symmetry_space_group_name_H-M   'P 1'
_cell_length_a   7.60503175
_cell_length_b   7.60503234
_cell_length_c   5.57127016
_cell_angle_alpha   82.67239043
_cell_angle_beta   82.67239167
_cell_angle_gamma   24.40930476
_symmetry_Int_Tables_number   1
_chemical_formula_structural   TaReS4
_chemical_formula_sum   'Ta1 Re1 S4'
_cell_volume   132.02073937
_cell_formula_units_Z   1
loop_
 _symmetry_equiv_pos_site_id
 _symmetry_equiv_pos_as_xyz
  1  'x, y, z'
loop_
 _atom_site_type_symbol
 _atom_site_label
 _atom_site_symmetry_multiplicity
 _atom_site_fract_x
 _atom_site_fract_y
 _atom_site_fract_z
 _atom_site_occupancy
  Ta  Ta0  1  0.749986  0.749986  0.082831  1
  Re  Re1  1  0.250021  0.250021  0.581381  1
  S  S2  1  0.358089  0.358089  0.219553  1
  S  S3  1  0.855529  0.855529  0.707461  1
  S  S4  1  0.644462  0.644462  0.780718  1
  S  S5  1  0.141815  0.141815  0.294756  1
