# generated using pymatgen
data_Er2ThAlIn2Ir3
_symmetry_space_group_name_H-M   'P 1'
_cell_length_a   7.49044965
_cell_length_b   7.49044875
_cell_length_c   3.91977300
_cell_angle_alpha   90.00000000
_cell_angle_beta   90.00000000
_cell_angle_gamma   119.80254344
_symmetry_Int_Tables_number   1
_chemical_formula_structural   Er2ThAlIn2Ir3
_chemical_formula_sum   'Er2 Th1 Al1 In2 Ir3'
_cell_volume   190.83936279
_cell_formula_units_Z   1
loop_
 _symmetry_equiv_pos_site_id
 _symmetry_equiv_pos_as_xyz
  1  'x, y, z'
loop_
 _atom_site_type_symbol
 _atom_site_label
 _atom_site_symmetry_multiplicity
 _atom_site_fract_x
 _atom_site_fract_y
 _atom_site_fract_z
 _atom_site_occupancy
  Er  Er0  1  0.409075  0.008931  0.500000  1
  Er  Er1  1  0.008931  0.409075  0.500000  1
  Th  Th2  1  0.568294  0.568294  0.500000  1
  Al  Al3  1  0.237828  0.237828  0.000000  1
  In  In4  1  0.748517  0.010379  0.000000  1
  In  In5  1  0.010379  0.748517  0.000000  1
  Ir  Ir6  1  0.339071  0.651563  0.000000  1
  Ir  Ir7  1  0.651563  0.339071  0.000000  1
  Ir  Ir8  1  0.026343  0.026343  0.500000  1
