# generated using pymatgen
data_Y20Cd5InPd2
_symmetry_space_group_name_H-M   'P 1'
_cell_length_a   9.76416263
_cell_length_b   9.76416165
_cell_length_c   9.81952800
_cell_angle_alpha   90.00000000
_cell_angle_beta   90.00000000
_cell_angle_gamma   120.11156215
_symmetry_Int_Tables_number   1
_chemical_formula_structural   Y20Cd5InPd2
_chemical_formula_sum   'Y20 Cd5 In1 Pd2'
_cell_volume   809.84496868
_cell_formula_units_Z   1
loop_
 _symmetry_equiv_pos_site_id
 _symmetry_equiv_pos_as_xyz
  1  'x, y, z'
loop_
 _atom_site_type_symbol
 _atom_site_label
 _atom_site_symmetry_multiplicity
 _atom_site_fract_x
 _atom_site_fract_y
 _atom_site_fract_z
 _atom_site_occupancy
  Y  Y0  1  0.207701  0.792299  0.941521  1
  Y  Y1  1  0.207646  0.415093  0.941104  1
  Y  Y2  1  0.584907  0.792354  0.941104  1
  Y  Y3  1  0.792427  0.207573  0.058436  1
  Y  Y4  1  0.792241  0.584684  0.059352  1
  Y  Y5  1  0.415316  0.207759  0.059352  1
  Y  Y6  1  0.792427  0.207573  0.441564  1
  Y  Y7  1  0.792241  0.584684  0.440648  1
  Y  Y8  1  0.415316  0.207759  0.440648  1
  Y  Y9  1  0.207701  0.792299  0.558479  1
  Y  Y10  1  0.207646  0.415093  0.558896  1
  Y  Y11  1  0.584907  0.792354  0.558896  1
  Y  Y12  1  0.542745  0.457255  0.750000  1
  Y  Y13  1  0.540673  0.086378  0.750000  1
  Y  Y14  1  0.913622  0.459327  0.750000  1
  Y  Y15  1  0.456704  0.543296  0.250000  1
  Y  Y16  1  0.456879  0.913417  0.250000  1
  Y  Y17  1  0.086583  0.543121  0.250000  1
  Y  Y18  1  0.001014  0.998986  0.001365  1
  Y  Y19  1  0.001014  0.998986  0.498635  1
  Cd  Cd20  1  0.884550  0.768330  0.750000  1
  Cd  Cd21  1  0.231670  0.115450  0.750000  1
  Cd  Cd22  1  0.115970  0.884030  0.250000  1
  Cd  Cd23  1  0.115470  0.231463  0.250000  1
  Cd  Cd24  1  0.768537  0.884530  0.250000  1
  In  In25  1  0.884202  0.115798  0.750000  1
  Pd  Pd26  1  0.333136  0.666864  0.750000  1
  Pd  Pd27  1  0.666753  0.333247  0.250000  1
