# generated using pymatgen
data_SrNdHo2(Ir2O7)2
_symmetry_space_group_name_H-M   'P 1'
_cell_length_a   7.30050766
_cell_length_b   7.31969816
_cell_length_c   7.33617692
_cell_angle_alpha   60.13093627
_cell_angle_beta   60.16070390
_cell_angle_gamma   60.08668862
_symmetry_Int_Tables_number   1
_chemical_formula_structural   SrNdHo2(Ir2O7)2
_chemical_formula_sum   'Sr1 Nd1 Ho2 Ir4 O14'
_cell_volume   277.99670619
_cell_formula_units_Z   1
loop_
 _symmetry_equiv_pos_site_id
 _symmetry_equiv_pos_as_xyz
  1  'x, y, z'
loop_
 _atom_site_type_symbol
 _atom_site_label
 _atom_site_symmetry_multiplicity
 _atom_site_fract_x
 _atom_site_fract_y
 _atom_site_fract_z
 _atom_site_occupancy
  Sr  Sr0  1  0.125000  0.625000  0.125000  1
  Nd  Nd1  1  0.125000  0.125000  0.625000  1
  Ho  Ho2  1  0.625000  0.125000  0.125000  1
  Ho  Ho3  1  0.125000  0.125000  0.125000  1
  Ir  Ir4  1  0.125000  0.625000  0.625000  1
  Ir  Ir5  1  0.625000  0.125000  0.625000  1
  Ir  Ir6  1  0.625000  0.625000  0.125000  1
  Ir  Ir7  1  0.625000  0.625000  0.625000  1
  O  O8  1  0.689994  0.719790  0.294608  1
  O  O9  1  0.293723  0.291145  0.714989  1
  O  O10  1  0.700142  0.291145  0.714989  1
  O  O11  1  0.295608  0.719790  0.294608  1
  O  O12  1  0.296019  0.710556  0.697405  1
  O  O13  1  0.707374  0.291661  0.293592  1
  O  O14  1  0.560006  0.530210  0.955392  1
  O  O15  1  0.956277  0.958855  0.535011  1
  O  O16  1  0.549858  0.958855  0.535011  1
  O  O17  1  0.954392  0.530210  0.955392  1
  O  O18  1  0.953981  0.539444  0.552595  1
  O  O19  1  0.542626  0.958339  0.956408  1
  O  O20  1  0.261903  0.230290  0.245903  1
  O  O21  1  0.988097  0.019710  0.004097  1
