# generated using pymatgen
data_NaAu2(SO4)4
_symmetry_space_group_name_H-M   'P 1'
_cell_length_a   6.67538429
_cell_length_b   6.67534336
_cell_length_c   8.95431600
_cell_angle_alpha   74.54291778
_cell_angle_beta   74.54290875
_cell_angle_gamma   87.51854989
_symmetry_Int_Tables_number   1
_chemical_formula_structural   NaAu2(SO4)4
_chemical_formula_sum   'Na1 Au2 S4 O16'
_cell_volume   370.50138739
_cell_formula_units_Z   1
loop_
 _symmetry_equiv_pos_site_id
 _symmetry_equiv_pos_as_xyz
  1  'x, y, z'
loop_
 _atom_site_type_symbol
 _atom_site_label
 _atom_site_symmetry_multiplicity
 _atom_site_fract_x
 _atom_site_fract_y
 _atom_site_fract_z
 _atom_site_occupancy
  Na  Na0  1  0.000000  0.000000  0.000000  1
  Au  Au1  1  0.000000  0.000000  0.500000  1
  Au  Au2  1  0.500000  0.500000  0.500000  1
  S  S3  1  0.084232  0.586918  0.735155  1
  S  S4  1  0.586921  0.084233  0.735156  1
  S  S5  1  0.915768  0.413082  0.264845  1
  S  S6  1  0.413079  0.915767  0.264844  1
  O  O7  1  0.324428  0.630558  0.669258  1
  O  O8  1  0.630559  0.324431  0.669259  1
  O  O9  1  0.675572  0.369442  0.330742  1
  O  O10  1  0.369441  0.675569  0.330741  1
  O  O11  1  0.019608  0.698425  0.856456  1
  O  O12  1  0.698431  0.019612  0.856457  1
  O  O13  1  0.980392  0.301575  0.143544  1
  O  O14  1  0.301569  0.980388  0.143543  1
  O  O15  1  0.993188  0.686027  0.588553  1
  O  O16  1  0.686028  0.993189  0.588555  1
  O  O17  1  0.006812  0.313973  0.411447  1
  O  O18  1  0.313972  0.006811  0.411445  1
  O  O19  1  0.035512  0.367752  0.774892  1
  O  O20  1  0.367758  0.035510  0.774895  1
  O  O21  1  0.964488  0.632248  0.225108  1
  O  O22  1  0.632242  0.964490  0.225105  1
