# generated using pymatgen
data_LaEu3Al6(O3F)4
_symmetry_space_group_name_H-M   'P 1'
_cell_length_a   7.86588270
_cell_length_b   7.86588158
_cell_length_c   7.86588292
_cell_angle_alpha   109.38980420
_cell_angle_beta   109.38979771
_cell_angle_gamma   109.38979197
_symmetry_Int_Tables_number   1
_chemical_formula_structural   LaEu3Al6(O3F)4
_chemical_formula_sum   'La1 Eu3 Al6 O12 F4'
_cell_volume   375.77060604
_cell_formula_units_Z   1
loop_
 _symmetry_equiv_pos_site_id
 _symmetry_equiv_pos_as_xyz
  1  'x, y, z'
loop_
 _atom_site_type_symbol
 _atom_site_label
 _atom_site_symmetry_multiplicity
 _atom_site_fract_x
 _atom_site_fract_y
 _atom_site_fract_z
 _atom_site_occupancy
  La  La0  1  0.310840  0.310840  0.310840  1
  Eu  Eu1  1  0.688033  0.998810  0.998810  1
  Eu  Eu2  1  0.998810  0.688033  0.998810  1
  Eu  Eu3  1  0.998810  0.998810  0.688033  1
  Al  Al4  1  0.249428  0.751177  0.499891  1
  Al  Al5  1  0.751177  0.249428  0.499891  1
  Al  Al6  1  0.751177  0.499891  0.249428  1
  Al  Al7  1  0.249428  0.499891  0.751177  1
  Al  Al8  1  0.499891  0.249428  0.751177  1
  Al  Al9  1  0.499891  0.751177  0.249428  1
  O  O10  1  0.279981  0.559460  0.559460  1
  O  O11  1  0.714598  0.279305  0.279305  1
  O  O12  1  0.998964  0.437629  0.719543  1
  O  O13  1  0.559460  0.559460  0.279981  1
  O  O14  1  0.998964  0.719543  0.437629  1
  O  O15  1  0.279305  0.279305  0.714598  1
  O  O16  1  0.437629  0.719543  0.998964  1
  O  O17  1  0.719543  0.437629  0.998964  1
  O  O18  1  0.559460  0.279981  0.559460  1
  O  O19  1  0.719543  0.998964  0.437629  1
  O  O20  1  0.437629  0.998964  0.719543  1
  O  O21  1  0.279305  0.714598  0.279305  1
  F  F22  1  0.779047  0.779047  0.779047  1
  F  F23  1  0.225348  0.006870  0.006870  1
  F  F24  1  0.006870  0.225348  0.006870  1
  F  F25  1  0.006870  0.006870  0.225348  1
