# generated using pymatgen
data_HoErRe3Tc
_symmetry_space_group_name_H-M   'P 1'
_cell_length_a   5.37782200
_cell_length_b   5.37782159
_cell_length_c   8.93407800
_cell_angle_alpha   90.00000000
_cell_angle_beta   90.00000000
_cell_angle_gamma   120.00000250
_symmetry_Int_Tables_number   1
_chemical_formula_structural   HoErRe3Tc
_chemical_formula_sum   'Ho2 Er2 Re6 Tc2'
_cell_volume   223.76552397
_cell_formula_units_Z   2
loop_
 _symmetry_equiv_pos_site_id
 _symmetry_equiv_pos_as_xyz
  1  'x, y, z'
loop_
 _atom_site_type_symbol
 _atom_site_label
 _atom_site_symmetry_multiplicity
 _atom_site_fract_x
 _atom_site_fract_y
 _atom_site_fract_z
 _atom_site_occupancy
  Ho  Ho0  1  0.333333  0.666667  0.436674  1
  Ho  Ho1  1  0.666667  0.333333  0.563326  1
  Er  Er2  1  0.666667  0.333333  0.936697  1
  Er  Er3  1  0.333333  0.666667  0.063303  1
  Re  Re4  1  0.828388  0.171612  0.249858  1
  Re  Re5  1  0.828388  0.656778  0.249858  1
  Re  Re6  1  0.343222  0.171612  0.249858  1
  Re  Re7  1  0.171612  0.828388  0.750142  1
  Re  Re8  1  0.171612  0.343222  0.750142  1
  Re  Re9  1  0.656778  0.828388  0.750142  1
  Tc  Tc10  1  0.000000  0.000000  0.500000  1
  Tc  Tc11  1  0.000000  0.000000  0.000000  1
