# generated using pymatgen
data_Eu2ErAl3Si2Pd
_symmetry_space_group_name_H-M   'P 1'
_cell_length_a   7.02719025
_cell_length_b   7.02719075
_cell_length_c   4.37796500
_cell_angle_alpha   90.00000000
_cell_angle_beta   90.00000000
_cell_angle_gamma   120.19570441
_symmetry_Int_Tables_number   1
_chemical_formula_structural   Eu2ErAl3Si2Pd
_chemical_formula_sum   'Eu2 Er1 Al3 Si2 Pd1'
_cell_volume   186.85578122
_cell_formula_units_Z   1
loop_
 _symmetry_equiv_pos_site_id
 _symmetry_equiv_pos_as_xyz
  1  'x, y, z'
loop_
 _atom_site_type_symbol
 _atom_site_label
 _atom_site_symmetry_multiplicity
 _atom_site_fract_x
 _atom_site_fract_y
 _atom_site_fract_z
 _atom_site_occupancy
  Eu  Eu0  1  0.424429  0.001781  0.000000  1
  Eu  Eu1  1  0.001781  0.424430  0.000000  1
  Er  Er2  1  0.580642  0.580642  0.000000  1
  Al  Al3  1  0.763937  0.996072  0.500001  1
  Al  Al4  1  0.238365  0.238366  0.500001  1
  Al  Al5  1  0.996072  0.763936  0.500001  1
  Si  Si6  1  0.662196  0.343332  0.500001  1
  Si  Si7  1  0.343332  0.662196  0.500001  1
  Pd  Pd8  1  0.989247  0.989247  0.000000  1
