# generated using pymatgen
data_Pr16Cd2Hg2IrRu3
_symmetry_space_group_name_H-M   'P 1'
_cell_length_a   9.98538380
_cell_length_b   9.98619652
_cell_length_c   10.01495700
_cell_angle_alpha   59.90469372
_cell_angle_beta   59.90199095
_cell_angle_gamma   59.86929838
_symmetry_Int_Tables_number   1
_chemical_formula_structural   Pr16Cd2Hg2IrRu3
_chemical_formula_sum   'Pr16 Cd2 Hg2 Ir1 Ru3'
_cell_volume   704.42271223
_cell_formula_units_Z   1
loop_
 _symmetry_equiv_pos_site_id
 _symmetry_equiv_pos_as_xyz
  1  'x, y, z'
loop_
 _atom_site_type_symbol
 _atom_site_label
 _atom_site_symmetry_multiplicity
 _atom_site_fract_x
 _atom_site_fract_y
 _atom_site_fract_z
 _atom_site_occupancy
  Pr  Pr0  1  0.345218  0.347300  0.348203  1
  Pr  Pr1  1  0.345218  0.347300  0.959279  1
  Pr  Pr2  1  0.345929  0.956803  0.348633  1
  Pr  Pr3  1  0.957748  0.346787  0.347732  1
  Pr  Pr4  1  0.810887  0.190598  0.190943  1
  Pr  Pr5  1  0.190655  0.809281  0.810002  1
  Pr  Pr6  1  0.190655  0.809281  0.190062  1
  Pr  Pr7  1  0.810887  0.190598  0.807571  1
  Pr  Pr8  1  0.190315  0.189183  0.810251  1
  Pr  Pr9  1  0.810384  0.806091  0.191762  1
  Pr  Pr10  1  0.939020  0.560966  0.561237  1
  Pr  Pr11  1  0.559980  0.939072  0.939053  1
  Pr  Pr12  1  0.559980  0.939072  0.561895  1
  Pr  Pr13  1  0.939020  0.560966  0.938777  1
  Pr  Pr14  1  0.559824  0.561535  0.939320  1
  Pr  Pr15  1  0.938863  0.939076  0.561030  1
  Cd  Cd16  1  0.578297  0.262772  0.579465  1
  Cd  Cd17  1  0.263056  0.578311  0.579317  1
  Hg  Hg18  1  0.582762  0.582837  0.585074  1
  Hg  Hg19  1  0.582762  0.582837  0.249326  1
  Ir  Ir20  1  0.579285  0.139978  0.140369  1
  Ru  Ru21  1  0.139667  0.137691  0.137566  1
  Ru  Ru22  1  0.139667  0.137691  0.585074  1
  Ru  Ru23  1  0.139918  0.583970  0.138056  1
