# generated using pymatgen
data_La4NdSmTa2O14
_symmetry_space_group_name_H-M   'P 1'
_cell_length_a   6.73371445
_cell_length_b   6.72924631
_cell_length_c   7.79334500
_cell_angle_alpha   90.00000000
_cell_angle_beta   90.00000000
_cell_angle_gamma   109.15250392
_symmetry_Int_Tables_number   1
_chemical_formula_structural   La4NdSmTa2O14
_chemical_formula_sum   'La4 Nd1 Sm1 Ta2 O14'
_cell_volume   333.59177778
_cell_formula_units_Z   1
loop_
 _symmetry_equiv_pos_site_id
 _symmetry_equiv_pos_as_xyz
  1  'x, y, z'
loop_
 _atom_site_type_symbol
 _atom_site_label
 _atom_site_symmetry_multiplicity
 _atom_site_fract_x
 _atom_site_fract_y
 _atom_site_fract_z
 _atom_site_occupancy
  La  La0  1  0.478049  0.478910  0.500582  1
  La  La1  1  0.478049  0.478910  0.999418  1
  La  La2  1  0.531895  0.995756  0.750000  1
  La  La3  1  0.994763  0.530065  0.250000  1
  Nd  Nd4  1  0.464149  0.997335  0.250000  1
  Sm  Sm5  1  0.997661  0.465231  0.750000  1
  Ta  Ta6  1  0.998467  0.998454  0.500814  1
  Ta  Ta7  1  0.998467  0.998454  0.999186  1
  O  O8  1  0.695996  0.942101  0.465346  1
  O  O9  1  0.949365  0.697835  0.538175  1
  O  O10  1  0.695996  0.942101  0.034654  1
  O  O11  1  0.949365  0.697835  0.961825  1
  O  O12  1  0.318241  0.076175  0.523255  1
  O  O13  1  0.072163  0.318183  0.479028  1
  O  O14  1  0.318241  0.076175  0.976745  1
  O  O15  1  0.072163  0.318183  0.020972  1
  O  O16  1  0.946604  0.057074  0.750000  1
  O  O17  1  0.054787  0.947641  0.250000  1
  O  O18  1  0.362405  0.623200  0.750000  1
  O  O19  1  0.624983  0.366204  0.250000  1
  O  O20  1  0.638492  0.361435  0.750000  1
  O  O21  1  0.359701  0.632744  0.250000  1
