# generated using pymatgen
data_Nb2Ni4PtRh
_symmetry_space_group_name_H-M   'P 1'
_cell_length_a   4.31721900
_cell_length_b   4.74297346
_cell_length_c   5.30667362
_cell_angle_alpha   89.77826908
_cell_angle_beta   90.00000000
_cell_angle_gamma   90.00000000
_symmetry_Int_Tables_number   1
_chemical_formula_structural   Nb2Ni4PtRh
_chemical_formula_sum   'Nb2 Ni4 Pt1 Rh1'
_cell_volume   108.66105066
_cell_formula_units_Z   1
loop_
 _symmetry_equiv_pos_site_id
 _symmetry_equiv_pos_as_xyz
  1  'x, y, z'
loop_
 _atom_site_type_symbol
 _atom_site_label
 _atom_site_symmetry_multiplicity
 _atom_site_fract_x
 _atom_site_fract_y
 _atom_site_fract_z
 _atom_site_occupancy
  Nb  Nb0  1  0.500000  0.647336  0.506176  1
  Nb  Nb1  1  0.000000  0.348421  0.994364  1
  Ni  Ni2  1  0.500000  0.172678  0.253133  1
  Ni  Ni3  1  0.000000  0.830975  0.753543  1
  Ni  Ni4  1  0.000000  0.323610  0.496911  1
  Ni  Ni5  1  0.500000  0.674783  0.998061  1
  Pt  Pt6  1  0.000000  0.841582  0.249092  1
  Rh  Rh7  1  0.500000  0.160616  0.748721  1
