# generated using pymatgen
data_Pr2TlAg(Ir2O7)2
_symmetry_space_group_name_H-M   'P 1'
_cell_length_a   7.38180843
_cell_length_b   7.38180814
_cell_length_c   7.24585176
_cell_angle_alpha   59.87498292
_cell_angle_beta   59.87498726
_cell_angle_gamma   61.19977795
_symmetry_Int_Tables_number   1
_chemical_formula_structural   Pr2TlAg(Ir2O7)2
_chemical_formula_sum   'Pr2 Tl1 Ag1 Ir4 O14'
_cell_volume   281.08982218
_cell_formula_units_Z   1
loop_
 _symmetry_equiv_pos_site_id
 _symmetry_equiv_pos_as_xyz
  1  'x, y, z'
loop_
 _atom_site_type_symbol
 _atom_site_label
 _atom_site_symmetry_multiplicity
 _atom_site_fract_x
 _atom_site_fract_y
 _atom_site_fract_z
 _atom_site_occupancy
  Pr  Pr0  1  0.625000  0.125000  0.125000  1
  Pr  Pr1  1  0.125000  0.625000  0.125000  1
  Tl  Tl2  1  0.125000  0.125000  0.125000  1
  Ag  Ag3  1  0.125000  0.125000  0.625000  1
  Ir  Ir4  1  0.625000  0.625000  0.625000  1
  Ir  Ir5  1  0.125000  0.625000  0.625000  1
  Ir  Ir6  1  0.625000  0.125000  0.625000  1
  Ir  Ir7  1  0.625000  0.625000  0.125000  1
  O  O8  1  0.947353  0.555875  0.549912  1
  O  O9  1  0.302509  0.302509  0.705163  1
  O  O10  1  0.950815  0.544118  0.954847  1
  O  O11  1  0.705882  0.299185  0.295153  1
  O  O12  1  0.540330  0.540330  0.961617  1
  O  O13  1  0.555875  0.947353  0.549912  1
  O  O14  1  0.544118  0.950815  0.954847  1
  O  O15  1  0.241628  0.241628  0.267565  1
  O  O16  1  0.302647  0.694125  0.700088  1
  O  O17  1  0.694125  0.302647  0.700088  1
  O  O18  1  0.008372  0.008372  0.982435  1
  O  O19  1  0.947491  0.947491  0.544837  1
  O  O20  1  0.299185  0.705882  0.295153  1
  O  O21  1  0.709670  0.709670  0.288383  1
