# generated using pymatgen
data_Ba4Lu(IrO6)2
_symmetry_space_group_name_H-M   'P 1'
_cell_length_a   10.05011021
_cell_length_b   10.05011081
_cell_length_c   10.05011048
_cell_angle_alpha   33.89293977
_cell_angle_beta   33.89293633
_cell_angle_gamma   33.89293772
_symmetry_Int_Tables_number   1
_chemical_formula_structural   Ba4Lu(IrO6)2
_chemical_formula_sum   'Ba4 Lu1 Ir2 O12'
_cell_volume   281.32507180
_cell_formula_units_Z   1
loop_
 _symmetry_equiv_pos_site_id
 _symmetry_equiv_pos_as_xyz
  1  'x, y, z'
loop_
 _atom_site_type_symbol
 _atom_site_label
 _atom_site_symmetry_multiplicity
 _atom_site_fract_x
 _atom_site_fract_y
 _atom_site_fract_z
 _atom_site_occupancy
  Ba  Ba0  1  0.711579  0.711579  0.711579  1
  Ba  Ba1  1  0.288421  0.288421  0.288421  1
  Ba  Ba2  1  0.867029  0.867029  0.867029  1
  Ba  Ba3  1  0.132971  0.132971  0.132971  1
  Lu  Lu4  1  0.000000  0.000000  0.000000  1
  Ir  Ir5  1  0.580591  0.580591  0.580591  1
  Ir  Ir6  1  0.419409  0.419409  0.419409  1
  O  O7  1  0.219401  0.693275  0.219401  1
  O  O8  1  0.219401  0.219401  0.693275  1
  O  O9  1  0.693275  0.219401  0.219401  1
  O  O10  1  0.780599  0.306725  0.780599  1
  O  O11  1  0.780599  0.780599  0.306725  1
  O  O12  1  0.306725  0.780599  0.780599  1
  O  O13  1  0.387289  0.859624  0.387289  1
  O  O14  1  0.387289  0.387289  0.859624  1
  O  O15  1  0.859624  0.387289  0.387289  1
  O  O16  1  0.612711  0.140376  0.612711  1
  O  O17  1  0.612711  0.612711  0.140376  1
  O  O18  1  0.140376  0.612711  0.612711  1
