# generated using pymatgen
data_Dy5AsS4
_symmetry_space_group_name_H-M   'P 1'
_cell_length_a   6.84760109
_cell_length_b   6.84760123
_cell_length_c   6.84760145
_cell_angle_alpha   99.60770049
_cell_angle_beta   99.60770311
_cell_angle_gamma   131.77425546
_symmetry_Int_Tables_number   1
_chemical_formula_structural   Dy5AsS4
_chemical_formula_sum   'Dy5 As1 S4'
_cell_volume   218.56050364
_cell_formula_units_Z   1
loop_
 _symmetry_equiv_pos_site_id
 _symmetry_equiv_pos_as_xyz
  1  'x, y, z'
loop_
 _atom_site_type_symbol
 _atom_site_label
 _atom_site_symmetry_multiplicity
 _atom_site_fract_x
 _atom_site_fract_y
 _atom_site_fract_z
 _atom_site_occupancy
  Dy  Dy0  1  0.398355  0.803209  0.201564  1
  Dy  Dy1  1  0.000000  0.000000  0.000000  1
  Dy  Dy2  1  0.601645  0.196791  0.798436  1
  Dy  Dy3  1  0.196791  0.398355  0.595146  1
  Dy  Dy4  1  0.803209  0.601645  0.404854  1
  As  As5  1  0.500000  0.500000  0.000000  1
  S  S6  1  0.101566  0.700051  0.801616  1
  S  S7  1  0.700051  0.898434  0.598486  1
  S  S8  1  0.299949  0.101566  0.401514  1
  S  S9  1  0.898434  0.299949  0.198384  1
