# generated using pymatgen
data_Ti3Co4Sn
_symmetry_space_group_name_H-M   'P 1'
_cell_length_a   7.44489999
_cell_length_b   7.44489979
_cell_length_c   7.44490061
_cell_angle_alpha   33.23645465
_cell_angle_beta   33.23645508
_cell_angle_gamma   33.23646251
_symmetry_Int_Tables_number   1
_chemical_formula_structural   Ti3Co4Sn
_chemical_formula_sum   'Ti3 Co4 Sn1'
_cell_volume   110.35803525
_cell_formula_units_Z   1
loop_
 _symmetry_equiv_pos_site_id
 _symmetry_equiv_pos_as_xyz
  1  'x, y, z'
loop_
 _atom_site_type_symbol
 _atom_site_label
 _atom_site_symmetry_multiplicity
 _atom_site_fract_x
 _atom_site_fract_y
 _atom_site_fract_z
 _atom_site_occupancy
  Ti  Ti0  1  0.250412  0.250412  0.250412  1
  Ti  Ti1  1  0.749588  0.749588  0.749588  1
  Ti  Ti2  1  0.500000  0.500000  0.500000  1
  Co  Co3  1  0.617666  0.617666  0.617666  1
  Co  Co4  1  0.129460  0.129460  0.129460  1
  Co  Co5  1  0.870540  0.870540  0.870540  1
  Co  Co6  1  0.382334  0.382334  0.382334  1
  Sn  Sn7  1  0.000000  0.000000  0.000000  1
