# generated using pymatgen
data_Ba4Sr2Tb2Co4O15
_symmetry_space_group_name_H-M   'P 1'
_cell_length_a   11.65790239
_cell_length_b   11.65790162
_cell_length_c   6.83606460
_cell_angle_alpha   89.70862108
_cell_angle_beta   89.70863083
_cell_angle_gamma   119.65330942
_symmetry_Int_Tables_number   1
_chemical_formula_structural   Ba4Sr2Tb2Co4O15
_chemical_formula_sum   'Ba8 Sr4 Tb4 Co8 O30'
_cell_volume   807.35025038
_cell_formula_units_Z   2
loop_
 _symmetry_equiv_pos_site_id
 _symmetry_equiv_pos_as_xyz
  1  'x, y, z'
loop_
 _atom_site_type_symbol
 _atom_site_label
 _atom_site_symmetry_multiplicity
 _atom_site_fract_x
 _atom_site_fract_y
 _atom_site_fract_z
 _atom_site_occupancy
  Ba  Ba0  1  0.825186  0.650793  0.319825  1
  Ba  Ba1  1  0.349005  0.174951  0.331176  1
  Ba  Ba2  1  0.820433  0.174703  0.326074  1
  Ba  Ba3  1  0.174951  0.349005  0.831176  1
  Ba  Ba4  1  0.650793  0.825186  0.819825  1
  Ba  Ba5  1  0.174703  0.820433  0.826074  1
  Ba  Ba6  1  0.665062  0.335130  0.015886  1
  Ba  Ba7  1  0.335130  0.665062  0.515886  1
  Sr  Sr8  1  0.000839  0.000375  0.511045  1
  Sr  Sr9  1  0.000375  0.000839  0.011045  1
  Sr  Sr10  1  0.522922  0.049404  0.659982  1
  Sr  Sr11  1  0.049404  0.522922  0.159982  1
  Tb  Tb12  1  0.948388  0.473766  0.661093  1
  Tb  Tb13  1  0.521151  0.474252  0.655708  1
  Tb  Tb14  1  0.473766  0.948388  0.161093  1
  Tb  Tb15  1  0.474252  0.521151  0.155708  1
  Co  Co16  1  0.820256  0.647242  0.825587  1
  Co  Co17  1  0.352316  0.172993  0.841126  1
  Co  Co18  1  0.818187  0.172552  0.833662  1
  Co  Co19  1  0.172993  0.352316  0.341126  1
  Co  Co20  1  0.647242  0.820256  0.325587  1
  Co  Co21  1  0.172552  0.818187  0.333662  1
  Co  Co22  1  0.664610  0.334848  0.485173  1
  Co  Co23  1  0.334848  0.664610  0.985173  1
  O  O24  1  0.098174  0.186378  0.248217  1
  O  O25  1  0.819985  0.906021  0.255729  1
  O  O26  1  0.087249  0.903549  0.248445  1
  O  O27  1  0.906021  0.819985  0.755729  1
  O  O28  1  0.186378  0.098174  0.748217  1
  O  O29  1  0.903549  0.087249  0.748445  1
  O  O30  1  0.587306  0.175213  0.326567  1
  O  O31  1  0.828624  0.415837  0.342532  1
  O  O32  1  0.582433  0.418333  0.332576  1
  O  O33  1  0.415837  0.828624  0.842532  1
  O  O34  1  0.175213  0.587306  0.826567  1
  O  O35  1  0.418333  0.582433  0.832576  1
  O  O36  1  0.744226  0.500182  0.649300  1
  O  O37  1  0.500317  0.262510  0.659417  1
  O  O38  1  0.754275  0.261830  0.660642  1
  O  O39  1  0.262510  0.500317  0.159417  1
  O  O40  1  0.500182  0.744226  0.149300  1
  O  O41  1  0.261830  0.754275  0.160642  1
  O  O42  1  0.339240  0.402387  0.463734  1
  O  O43  1  0.598215  0.933668  0.436240  1
  O  O44  1  0.061589  0.667533  0.476104  1
  O  O45  1  0.600595  0.660867  0.456047  1
  O  O46  1  0.065976  0.395949  0.479892  1
  O  O47  1  0.333493  0.938033  0.443093  1
  O  O48  1  0.660867  0.600595  0.956047  1
  O  O49  1  0.395949  0.065976  0.979892  1
  O  O50  1  0.938033  0.333493  0.943093  1
  O  O51  1  0.402387  0.339240  0.963734  1
  O  O52  1  0.933668  0.598215  0.936240  1
  O  O53  1  0.667533  0.061589  0.976104  1
