# generated using pymatgen
data_Pr2ErSi5AsPd20
_symmetry_space_group_name_H-M   'P 1'
_cell_length_a   8.76565843
_cell_length_b   8.80516974
_cell_length_c   8.80517025
_cell_angle_alpha   59.70335206
_cell_angle_beta   60.14832968
_cell_angle_gamma   60.14832725
_symmetry_Int_Tables_number   1
_chemical_formula_structural   Pr2ErSi5AsPd20
_chemical_formula_sum   'Pr2 Er1 Si5 As1 Pd20'
_cell_volume   480.53790843
_cell_formula_units_Z   1
loop_
 _symmetry_equiv_pos_site_id
 _symmetry_equiv_pos_as_xyz
  1  'x, y, z'
loop_
 _atom_site_type_symbol
 _atom_site_label
 _atom_site_symmetry_multiplicity
 _atom_site_fract_x
 _atom_site_fract_y
 _atom_site_fract_z
 _atom_site_occupancy
  Pr  Pr0  1  0.249949  0.250051  0.250051  1
  Pr  Pr1  1  0.749949  0.750051  0.750051  1
  Er  Er2  1  0.001073  0.998927  0.998927  1
  Si  Si3  1  0.266633  0.733367  0.733367  1
  Si  Si4  1  0.265852  0.734148  0.265787  1
  Si  Si5  1  0.734213  0.265787  0.734148  1
  Si  Si6  1  0.265852  0.265787  0.734148  1
  Si  Si7  1  0.734213  0.734148  0.265787  1
  As  As8  1  0.735654  0.264346  0.264346  1
  Pd  Pd9  1  0.346120  0.999028  0.999028  1
  Pd  Pd10  1  0.655824  0.999028  0.999028  1
  Pd  Pd11  1  0.000972  0.344176  0.653880  1
  Pd  Pd12  1  0.000972  0.653880  0.344176  1
  Pd  Pd13  1  0.006160  0.347314  0.993840  1
  Pd  Pd14  1  0.652686  0.993840  0.347314  1
  Pd  Pd15  1  0.999841  0.655811  0.000159  1
  Pd  Pd16  1  0.344189  0.000159  0.655811  1
  Pd  Pd17  1  0.006160  0.993840  0.347314  1
  Pd  Pd18  1  0.999841  0.000159  0.655811  1
  Pd  Pd19  1  0.652686  0.347314  0.993840  1
  Pd  Pd20  1  0.344189  0.655811  0.000159  1
  Pd  Pd21  1  0.379589  0.388293  0.388293  1
  Pd  Pd22  1  0.613585  0.614964  0.614964  1
  Pd  Pd23  1  0.385036  0.386415  0.843514  1
  Pd  Pd24  1  0.385036  0.843514  0.386415  1
  Pd  Pd25  1  0.611707  0.620411  0.156174  1
  Pd  Pd26  1  0.611707  0.156174  0.620411  1
  Pd  Pd27  1  0.843826  0.388293  0.388293  1
  Pd  Pd28  1  0.156486  0.614964  0.614964  1
