# generated using pymatgen
data_Ce2ErAl2Pd3Au
_symmetry_space_group_name_H-M   'P 1'
_cell_length_a   7.30376052
_cell_length_b   7.56388550
_cell_length_c   3.93959800
_cell_angle_alpha   90.00000000
_cell_angle_beta   90.00000000
_cell_angle_gamma   121.18529440
_symmetry_Int_Tables_number   1
_chemical_formula_structural   Ce2ErAl2Pd3Au
_chemical_formula_sum   'Ce2 Er1 Al2 Pd3 Au1'
_cell_volume   186.19240715
_cell_formula_units_Z   1
loop_
 _symmetry_equiv_pos_site_id
 _symmetry_equiv_pos_as_xyz
  1  'x, y, z'
loop_
 _atom_site_type_symbol
 _atom_site_label
 _atom_site_symmetry_multiplicity
 _atom_site_fract_x
 _atom_site_fract_y
 _atom_site_fract_z
 _atom_site_occupancy
  Ce  Ce0  1  0.401058  0.409653  0.500000  1
  Ce  Ce1  1  0.598942  0.008595  0.500000  1
  Er  Er2  1  0.000000  0.583659  0.500000  1
  Al  Al3  1  0.759952  0.752229  0.000000  1
  Al  Al4  1  0.240048  0.992278  0.000000  1
  Pd  Pd5  1  0.000000  0.968250  0.500000  1
  Pd  Pd6  1  0.352701  0.691616  0.000000  1
  Pd  Pd7  1  0.647299  0.338914  0.000000  1
  Au  Au8  1  0.000000  0.254806  0.000000  1
