# generated using pymatgen
data_YbPr2CoSn6
_symmetry_space_group_name_H-M   'P 1'
_cell_length_a   8.51431017
_cell_length_b   8.51431109
_cell_length_c   13.39268000
_cell_angle_alpha   90.00000000
_cell_angle_beta   90.00000000
_cell_angle_gamma   147.94981103
_symmetry_Int_Tables_number   1
_chemical_formula_structural   YbPr2CoSn6
_chemical_formula_sum   'Yb2 Pr4 Co2 Sn12'
_cell_volume   515.21013336
_cell_formula_units_Z   2
loop_
 _symmetry_equiv_pos_site_id
 _symmetry_equiv_pos_as_xyz
  1  'x, y, z'
loop_
 _atom_site_type_symbol
 _atom_site_label
 _atom_site_symmetry_multiplicity
 _atom_site_fract_x
 _atom_site_fract_y
 _atom_site_fract_z
 _atom_site_occupancy
  Yb  Yb0  1  0.900453  0.099547  0.750000  1
  Yb  Yb1  1  0.099547  0.900453  0.250000  1
  Pr  Pr2  1  0.901101  0.098899  0.094396  1
  Pr  Pr3  1  0.098899  0.901101  0.594396  1
  Pr  Pr4  1  0.098899  0.901101  0.905604  1
  Pr  Pr5  1  0.901101  0.098899  0.405604  1
  Co  Co6  1  0.295628  0.704372  0.250000  1
  Co  Co7  1  0.704372  0.295628  0.750000  1
  Sn  Sn8  1  0.755111  0.244889  0.571956  1
  Sn  Sn9  1  0.427937  0.572063  0.577015  1
  Sn  Sn10  1  0.572063  0.427937  0.422985  1
  Sn  Sn11  1  0.731380  0.268620  0.250000  1
  Sn  Sn12  1  0.268620  0.731380  0.750000  1
  Sn  Sn13  1  0.244889  0.755111  0.071956  1
  Sn  Sn14  1  0.244889  0.755111  0.428044  1
  Sn  Sn15  1  0.572063  0.427937  0.077015  1
  Sn  Sn16  1  0.453996  0.546004  0.250000  1
  Sn  Sn17  1  0.546004  0.453996  0.750000  1
  Sn  Sn18  1  0.755111  0.244889  0.928044  1
  Sn  Sn19  1  0.427937  0.572063  0.922985  1
