# generated using pymatgen
data_Mg4NpIrN6
_symmetry_space_group_name_H-M   'P 1'
_cell_length_a   5.35191593
_cell_length_b   5.35191449
_cell_length_c   5.46670200
_cell_angle_alpha   99.30893006
_cell_angle_beta   99.30892753
_cell_angle_gamma   120.04314579
_symmetry_Int_Tables_number   1
_chemical_formula_structural   Mg4NpIrN6
_chemical_formula_sum   'Mg4 Np1 Ir1 N6'
_cell_volume   128.24659370
_cell_formula_units_Z   1
loop_
 _symmetry_equiv_pos_site_id
 _symmetry_equiv_pos_as_xyz
  1  'x, y, z'
loop_
 _atom_site_type_symbol
 _atom_site_label
 _atom_site_symmetry_multiplicity
 _atom_site_fract_x
 _atom_site_fract_y
 _atom_site_fract_z
 _atom_site_occupancy
  Mg  Mg0  1  0.838729  0.161271  0.500000  1
  Mg  Mg1  1  0.165337  0.834663  0.500000  1
  Mg  Mg2  1  0.494398  0.505602  0.500000  1
  Mg  Mg3  1  0.000094  0.999906  0.000000  1
  Np  Np4  1  0.666793  0.333207  0.000000  1
  Ir  Ir5  1  0.333844  0.666156  0.000000  1
  N  N6  1  0.422835  0.081741  0.239483  1
  N  N7  1  0.918259  0.577165  0.760517  1
  N  N8  1  0.579172  0.920729  0.757821  1
  N  N9  1  0.079271  0.420828  0.242179  1
  N  N10  1  0.740969  0.739705  0.243138  1
  N  N11  1  0.260295  0.259031  0.756862  1
