# generated using pymatgen
data_Lu10BeCd3
_symmetry_space_group_name_H-M   'P 1'
_cell_length_a   9.32978900
_cell_length_b   9.32978937
_cell_length_c   9.69323200
_cell_angle_alpha   90.00000000
_cell_angle_beta   90.00000000
_cell_angle_gamma   119.99999515
_symmetry_Int_Tables_number   1
_chemical_formula_structural   Lu10BeCd3
_chemical_formula_sum   'Lu20 Be2 Cd6'
_cell_volume   730.70641714
_cell_formula_units_Z   2
loop_
 _symmetry_equiv_pos_site_id
 _symmetry_equiv_pos_as_xyz
  1  'x, y, z'
loop_
 _atom_site_type_symbol
 _atom_site_label
 _atom_site_symmetry_multiplicity
 _atom_site_fract_x
 _atom_site_fract_y
 _atom_site_fract_z
 _atom_site_occupancy
  Lu  Lu0  1  0.000000  0.000000  0.500000  1
  Lu  Lu1  1  0.000000  0.000000  0.000000  1
  Lu  Lu2  1  0.543713  0.456287  0.250000  1
  Lu  Lu3  1  0.543713  0.087425  0.250000  1
  Lu  Lu4  1  0.912575  0.456287  0.250000  1
  Lu  Lu5  1  0.456287  0.543713  0.750000  1
  Lu  Lu6  1  0.456287  0.912575  0.750000  1
  Lu  Lu7  1  0.087425  0.543713  0.750000  1
  Lu  Lu8  1  0.212173  0.787827  0.444212  1
  Lu  Lu9  1  0.212173  0.424348  0.444212  1
  Lu  Lu10  1  0.575652  0.787827  0.444212  1
  Lu  Lu11  1  0.787827  0.212173  0.555788  1
  Lu  Lu12  1  0.787827  0.575652  0.555788  1
  Lu  Lu13  1  0.424348  0.212173  0.555788  1
  Lu  Lu14  1  0.787827  0.212173  0.944212  1
  Lu  Lu15  1  0.787827  0.575652  0.944212  1
  Lu  Lu16  1  0.424348  0.212173  0.944212  1
  Lu  Lu17  1  0.212173  0.787827  0.055788  1
  Lu  Lu18  1  0.212173  0.424348  0.055788  1
  Lu  Lu19  1  0.575652  0.787827  0.055788  1
  Be  Be20  1  0.333333  0.666667  0.250000  1
  Be  Be21  1  0.666667  0.333333  0.750000  1
  Cd  Cd22  1  0.886042  0.113958  0.250000  1
  Cd  Cd23  1  0.886042  0.772084  0.250000  1
  Cd  Cd24  1  0.227916  0.113958  0.250000  1
  Cd  Cd25  1  0.113958  0.886042  0.750000  1
  Cd  Cd26  1  0.113958  0.227916  0.750000  1
  Cd  Cd27  1  0.772084  0.886042  0.750000  1
