# generated using pymatgen
data_Cs8Li4Tb3InSb8
_symmetry_space_group_name_H-M   'P 1'
_cell_length_a   11.52803629
_cell_length_b   11.52803610
_cell_length_c   7.32319773
_cell_angle_alpha   89.90604411
_cell_angle_beta   90.09395487
_cell_angle_gamma   101.58568951
_symmetry_Int_Tables_number   1
_chemical_formula_structural   Cs8Li4Tb3InSb8
_chemical_formula_sum   'Cs8 Li4 Tb3 In1 Sb8'
_cell_volume   953.38981032
_cell_formula_units_Z   1
loop_
 _symmetry_equiv_pos_site_id
 _symmetry_equiv_pos_as_xyz
  1  'x, y, z'
loop_
 _atom_site_type_symbol
 _atom_site_label
 _atom_site_symmetry_multiplicity
 _atom_site_fract_x
 _atom_site_fract_y
 _atom_site_fract_z
 _atom_site_occupancy
  Cs  Cs0  1  0.571237  0.927425  0.748165  1
  Cs  Cs1  1  0.927425  0.571237  0.251835  1
  Cs  Cs2  1  0.428571  0.078681  0.255648  1
  Cs  Cs3  1  0.078681  0.428571  0.744352  1
  Cs  Cs4  1  0.670112  0.322430  0.773912  1
  Cs  Cs5  1  0.825039  0.175760  0.280426  1
  Cs  Cs6  1  0.322430  0.670112  0.226088  1
  Cs  Cs7  1  0.175760  0.825039  0.719574  1
  Li  Li8  1  0.619032  0.619032  0.000000  1
  Li  Li9  1  0.877871  0.877871  0.500000  1
  Li  Li10  1  0.378092  0.378092  0.000000  1
  Li  Li11  1  0.123983  0.123983  0.500000  1
  Tb  Tb12  1  0.868944  0.868944  0.000000  1
  Tb  Tb13  1  0.625306  0.625306  0.500000  1
  Tb  Tb14  1  0.132231  0.132231  0.000000  1
  In  In15  1  0.374780  0.374780  0.500000  1
  Sb  Sb16  1  0.343352  0.165429  0.742536  1
  Sb  Sb17  1  0.165429  0.343352  0.257464  1
  Sb  Sb18  1  0.657025  0.839495  0.250074  1
  Sb  Sb19  1  0.839495  0.657025  0.749926  1
  Sb  Sb20  1  0.911038  0.090577  0.760368  1
  Sb  Sb21  1  0.586545  0.407045  0.261005  1
  Sb  Sb22  1  0.090577  0.911038  0.239632  1
  Sb  Sb23  1  0.407045  0.586545  0.738995  1
