# generated using pymatgen
data_LiZr6Zn18Ni4S
_symmetry_space_group_name_H-M   'P 1'
_cell_length_a   8.67138582
_cell_length_b   8.67301041
_cell_length_c   8.67138506
_cell_angle_alpha   59.75057922
_cell_angle_beta   59.97019389
_cell_angle_gamma   59.75057695
_symmetry_Int_Tables_number   1
_chemical_formula_structural   LiZr6Zn18Ni4S
_chemical_formula_sum   'Li1 Zr6 Zn18 Ni4 S1'
_cell_volume   459.29006079
_cell_formula_units_Z   1
loop_
 _symmetry_equiv_pos_site_id
 _symmetry_equiv_pos_as_xyz
  1  'x, y, z'
loop_
 _atom_site_type_symbol
 _atom_site_label
 _atom_site_symmetry_multiplicity
 _atom_site_fract_x
 _atom_site_fract_y
 _atom_site_fract_z
 _atom_site_occupancy
  Li  Li0  1  0.000000  0.000000  0.000000  1
  Zr  Zr1  1  0.704558  0.295015  0.291756  1
  Zr  Zr2  1  0.295442  0.704985  0.708244  1
  Zr  Zr3  1  0.291670  0.705294  0.291670  1
  Zr  Zr4  1  0.708330  0.294706  0.708330  1
  Zr  Zr5  1  0.291756  0.295015  0.704558  1
  Zr  Zr6  1  0.708244  0.704985  0.295442  1
  Zn  Zn7  1  0.116608  0.131625  0.116608  1
  Zn  Zn8  1  0.883392  0.868375  0.883392  1
  Zn  Zn9  1  0.126215  0.126555  0.633146  1
  Zn  Zn10  1  0.122893  0.632162  0.122893  1
  Zn  Zn11  1  0.873785  0.873445  0.366854  1
  Zn  Zn12  1  0.877107  0.367838  0.877107  1
  Zn  Zn13  1  0.633146  0.126555  0.126215  1
  Zn  Zn14  1  0.366854  0.873445  0.873785  1
  Zn  Zn15  1  0.500000  0.000000  0.000000  1
  Zn  Zn16  1  0.000000  0.000000  0.500000  1
  Zn  Zn17  1  0.333547  0.334349  0.333547  1
  Zn  Zn18  1  0.666453  0.665651  0.666453  1
  Zn  Zn19  1  0.331009  0.340403  0.997976  1
  Zn  Zn20  1  0.338126  0.996984  0.338126  1
  Zn  Zn21  1  0.668991  0.659597  0.002024  1
  Zn  Zn22  1  0.661874  0.003016  0.661874  1
  Zn  Zn23  1  0.997976  0.340403  0.331009  1
  Zn  Zn24  1  0.002024  0.659597  0.668991  1
  Ni  Ni25  1  0.000000  0.500000  0.500000  1
  Ni  Ni26  1  0.000000  0.500000  0.000000  1
  Ni  Ni27  1  0.500000  0.000000  0.500000  1
  Ni  Ni28  1  0.500000  0.500000  0.000000  1
  S  S29  1  0.500000  0.500000  0.500000  1
