# generated using pymatgen
data_YHoMn2I
_symmetry_space_group_name_H-M   'P 1'
_cell_length_a   3.87503000
_cell_length_b   3.87502914
_cell_length_c   17.63471400
_cell_angle_alpha   90.00000000
_cell_angle_beta   90.00000000
_cell_angle_gamma   119.99999030
_symmetry_Int_Tables_number   1
_chemical_formula_structural   YHoMn2I
_chemical_formula_sum   'Y2 Ho2 Mn4 I2'
_cell_volume   229.32380346
_cell_formula_units_Z   2
loop_
 _symmetry_equiv_pos_site_id
 _symmetry_equiv_pos_as_xyz
  1  'x, y, z'
loop_
 _atom_site_type_symbol
 _atom_site_label
 _atom_site_symmetry_multiplicity
 _atom_site_fract_x
 _atom_site_fract_y
 _atom_site_fract_z
 _atom_site_occupancy
  Y  Y0  1  0.000000  0.000000  0.610882  1
  Y  Y1  1  0.000000  0.000000  0.389118  1
  Ho  Ho2  1  0.000000  0.000000  0.108452  1
  Ho  Ho3  1  0.000000  0.000000  0.891548  1
  Mn  Mn4  1  0.333333  0.666667  0.508975  1
  Mn  Mn5  1  0.666667  0.333333  0.491025  1
  Mn  Mn6  1  0.666667  0.333333  0.008627  1
  Mn  Mn7  1  0.333333  0.666667  0.991373  1
  I  I8  1  0.333333  0.666667  0.248091  1
  I  I9  1  0.666667  0.333333  0.751909  1
