# generated using pymatgen
data_Er6CrFe4Co13P12
_symmetry_space_group_name_H-M   'P 1'
_cell_length_a   3.68108800
_cell_length_b   10.54841210
_cell_length_c   12.05131914
_cell_angle_alpha   89.98314795
_cell_angle_beta   90.00000000
_cell_angle_gamma   90.00000000
_symmetry_Int_Tables_number   1
_chemical_formula_structural   Er6CrFe4Co13P12
_chemical_formula_sum   'Er6 Cr1 Fe4 Co13 P12'
_cell_volume   467.94828181
_cell_formula_units_Z   1
loop_
 _symmetry_equiv_pos_site_id
 _symmetry_equiv_pos_as_xyz
  1  'x, y, z'
loop_
 _atom_site_type_symbol
 _atom_site_label
 _atom_site_symmetry_multiplicity
 _atom_site_fract_x
 _atom_site_fract_y
 _atom_site_fract_z
 _atom_site_occupancy
  Er  Er0  1  0.750000  0.250164  0.475791  1
  Er  Er1  1  0.250000  0.749778  0.522932  1
  Er  Er2  1  0.250000  0.930444  0.795648  1
  Er  Er3  1  0.250000  0.569052  0.795830  1
  Er  Er4  1  0.750000  0.070127  0.203169  1
  Er  Er5  1  0.750000  0.430899  0.202713  1
  Cr  Cr6  1  0.250000  0.249006  0.847058  1
  Fe  Fe7  1  0.750000  0.750809  0.156311  1
  Fe  Fe8  1  0.750000  0.247582  0.012055  1
  Fe  Fe9  1  0.250000  0.750765  0.988994  1
  Fe  Fe10  1  0.250000  0.419386  0.004688  1
  Co  Co11  1  0.250000  0.249834  0.299215  1
  Co  Co12  1  0.750000  0.749740  0.701538  1
  Co  Co13  1  0.250000  0.079638  0.006484  1
  Co  Co14  1  0.750000  0.584824  0.994685  1
  Co  Co15  1  0.750000  0.917392  0.994594  1
  Co  Co16  1  0.250000  0.453391  0.569265  1
  Co  Co17  1  0.250000  0.046239  0.569325  1
  Co  Co18  1  0.750000  0.546903  0.430294  1
  Co  Co19  1  0.750000  0.953286  0.430407  1
  Co  Co20  1  0.250000  0.871167  0.291434  1
  Co  Co21  1  0.250000  0.629358  0.290765  1
  Co  Co22  1  0.750000  0.128925  0.708539  1
  Co  Co23  1  0.750000  0.370847  0.709387  1
  P  P24  1  0.250000  0.251471  0.115137  1
  P  P25  1  0.750000  0.750498  0.884117  1
  P  P26  1  0.250000  0.250133  0.653150  1
  P  P27  1  0.750000  0.750068  0.343001  1
  P  P28  1  0.250000  0.439743  0.382142  1
  P  P29  1  0.250000  0.060530  0.382594  1
  P  P30  1  0.750000  0.560676  0.616607  1
  P  P31  1  0.750000  0.938642  0.616432  1
  P  P32  1  0.250000  0.902064  0.108479  1
  P  P33  1  0.250000  0.596652  0.106788  1
  P  P34  1  0.750000  0.095639  0.893860  1
  P  P35  1  0.750000  0.404329  0.896576  1
