# generated using pymatgen
data_Pr20Ga7Sn5
_symmetry_space_group_name_H-M   'P 1'
_cell_length_a   8.25485434
_cell_length_b   8.25485434
_cell_length_c   14.33486703
_cell_angle_alpha   89.99516193
_cell_angle_beta   89.99516193
_cell_angle_gamma   90.60574537
_symmetry_Int_Tables_number   1
_chemical_formula_structural   Pr20Ga7Sn5
_chemical_formula_sum   'Pr20 Ga7 Sn5'
_cell_volume   976.76080202
_cell_formula_units_Z   1
loop_
 _symmetry_equiv_pos_site_id
 _symmetry_equiv_pos_as_xyz
  1  'x, y, z'
loop_
 _atom_site_type_symbol
 _atom_site_label
 _atom_site_symmetry_multiplicity
 _atom_site_fract_x
 _atom_site_fract_y
 _atom_site_fract_z
 _atom_site_occupancy
  Pr  Pr0  1  0.824115  0.834423  0.611889  1
  Pr  Pr1  1  0.169667  0.843362  0.099794  1
  Pr  Pr2  1  0.156638  0.830333  0.400206  1
  Pr  Pr3  1  0.994942  0.495667  0.725084  1
  Pr  Pr4  1  0.843622  0.163376  0.400650  1
  Pr  Pr5  1  0.682141  0.674744  0.395667  1
  Pr  Pr6  1  0.655459  0.330810  0.604456  1
  Pr  Pr7  1  0.340625  0.673085  0.604416  1
  Pr  Pr8  1  0.015345  0.511599  0.232413  1
  Pr  Pr9  1  0.669204  0.680837  0.105676  1
  Pr  Pr10  1  0.669190  0.344541  0.895544  1
  Pr  Pr11  1  0.835745  0.820227  0.890443  1
  Pr  Pr12  1  0.319163  0.330796  0.394324  1
  Pr  Pr13  1  0.179773  0.164255  0.609557  1
  Pr  Pr14  1  0.836624  0.156378  0.099350  1
  Pr  Pr15  1  0.326915  0.659375  0.895584  1
  Pr  Pr16  1  0.325256  0.317859  0.104333  1
  Pr  Pr17  1  0.488401  0.984655  0.267587  1
  Pr  Pr18  1  0.165577  0.175885  0.888111  1
  Pr  Pr19  1  0.504333  0.005058  0.774916  1
  Ga  Ga20  1  0.130225  0.869775  0.750000  1
  Ga  Ga21  1  0.375696  0.381711  0.750347  1
  Ga  Ga22  1  0.376405  0.623595  0.250000  1
  Ga  Ga23  1  0.877818  0.882341  0.249303  1
  Ga  Ga24  1  0.618289  0.624304  0.749653  1
  Ga  Ga25  1  0.872075  0.127925  0.750000  1
  Ga  Ga26  1  0.117659  0.122182  0.250697  1
  Sn  Sn27  1  0.630919  0.369081  0.250000  1
  Sn  Sn28  1  0.997871  0.499054  0.496179  1
  Sn  Sn29  1  0.500890  0.001525  0.502286  1
  Sn  Sn30  1  0.500946  0.002129  0.003821  1
  Sn  Sn31  1  0.998475  0.499110  0.997714  1
