# generated using pymatgen
data_Hg4Pd3IO14
_symmetry_space_group_name_H-M   'P 1'
_cell_length_a   7.34268652
_cell_length_b   7.35507798
_cell_length_c   7.35507800
_cell_angle_alpha   59.99999991
_cell_angle_beta   59.94415909
_cell_angle_gamma   59.94416391
_symmetry_Int_Tables_number   1
_chemical_formula_structural   Hg4Pd3IO14
_chemical_formula_sum   'Hg4 Pd3 I1 O14'
_cell_volume   280.63865699
_cell_formula_units_Z   1
loop_
 _symmetry_equiv_pos_site_id
 _symmetry_equiv_pos_as_xyz
  1  'x, y, z'
loop_
 _atom_site_type_symbol
 _atom_site_label
 _atom_site_symmetry_multiplicity
 _atom_site_fract_x
 _atom_site_fract_y
 _atom_site_fract_z
 _atom_site_occupancy
  Hg  Hg0  1  0.125000  0.125000  0.125000  1
  Hg  Hg1  1  0.625000  0.125000  0.125000  1
  Hg  Hg2  1  0.125000  0.625000  0.125000  1
  Hg  Hg3  1  0.125000  0.125000  0.625000  1
  Pd  Pd4  1  0.625000  0.625000  0.125000  1
  Pd  Pd5  1  0.625000  0.625000  0.625000  1
  Pd  Pd6  1  0.625000  0.125000  0.625000  1
  I  I7  1  0.125000  0.625000  0.625000  1
  O  O8  1  0.709451  0.293274  0.293274  1
  O  O9  1  0.709451  0.293274  0.704001  1
  O  O10  1  0.003267  0.998911  0.998911  1
  O  O11  1  0.297056  0.696419  0.310106  1
  O  O12  1  0.709451  0.704001  0.293274  1
  O  O13  1  0.952944  0.553581  0.553581  1
  O  O14  1  0.297056  0.696419  0.696419  1
  O  O15  1  0.246733  0.251089  0.251089  1
  O  O16  1  0.952944  0.553581  0.939894  1
  O  O17  1  0.540549  0.956726  0.545999  1
  O  O18  1  0.540549  0.545999  0.956726  1
  O  O19  1  0.952944  0.939894  0.553581  1
  O  O20  1  0.540549  0.956726  0.956726  1
  O  O21  1  0.297056  0.310106  0.696419  1
