# generated using pymatgen
data_Al3V12Ga2Cu3N4
_symmetry_space_group_name_H-M   'P 1'
_cell_length_a   6.55476857
_cell_length_b   6.55476844
_cell_length_c   6.55476871
_cell_angle_alpha   90.20500045
_cell_angle_beta   90.20499822
_cell_angle_gamma   90.20500059
_symmetry_Int_Tables_number   1
_chemical_formula_structural   Al3V12Ga2Cu3N4
_chemical_formula_sum   'Al3 V12 Ga2 Cu3 N4'
_cell_volume   281.62015262
_cell_formula_units_Z   1
loop_
 _symmetry_equiv_pos_site_id
 _symmetry_equiv_pos_as_xyz
  1  'x, y, z'
loop_
 _atom_site_type_symbol
 _atom_site_label
 _atom_site_symmetry_multiplicity
 _atom_site_fract_x
 _atom_site_fract_y
 _atom_site_fract_z
 _atom_site_occupancy
  Al  Al0  1  0.570941  0.417644  0.934510  1
  Al  Al1  1  0.417644  0.934510  0.570941  1
  Al  Al2  1  0.934510  0.570941  0.417644  1
  V  V3  1  0.788705  0.959639  0.377285  1
  V  V4  1  0.710728  0.039232  0.872875  1
  V  V5  1  0.211053  0.459382  0.125810  1
  V  V6  1  0.289603  0.540541  0.626165  1
  V  V7  1  0.959639  0.377285  0.788705  1
  V  V8  1  0.039232  0.872875  0.710728  1
  V  V9  1  0.459382  0.125810  0.211053  1
  V  V10  1  0.540541  0.626165  0.289603  1
  V  V11  1  0.377285  0.788705  0.959639  1
  V  V12  1  0.872875  0.710728  0.039232  1
  V  V13  1  0.125810  0.211053  0.459382  1
  V  V14  1  0.626165  0.289603  0.540541  1
  Ga  Ga15  1  0.677726  0.677726  0.677726  1
  Ga  Ga16  1  0.072915  0.072915  0.072915  1
  Cu  Cu17  1  0.179000  0.821496  0.319448  1
  Cu  Cu18  1  0.319448  0.179000  0.821496  1
  Cu  Cu19  1  0.821496  0.319448  0.179000  1
  N  N20  1  0.879297  0.125166  0.624357  1
  N  N21  1  0.624357  0.879297  0.125166  1
  N  N22  1  0.125166  0.624357  0.879297  1
  N  N23  1  0.376481  0.376481  0.376481  1
