# generated using pymatgen
data_Ce2Tm7Hf11Si16
_symmetry_space_group_name_H-M   'P 1'
_cell_length_a   7.28387979
_cell_length_b   7.28218122
_cell_length_c   13.39926768
_cell_angle_alpha   89.88289456
_cell_angle_beta   90.08211540
_cell_angle_gamma   90.00583665
_symmetry_Int_Tables_number   1
_chemical_formula_structural   Ce2Tm7Hf11Si16
_chemical_formula_sum   'Ce2 Tm7 Hf11 Si16'
_cell_volume   710.72887498
_cell_formula_units_Z   1
loop_
 _symmetry_equiv_pos_site_id
 _symmetry_equiv_pos_as_xyz
  1  'x, y, z'
loop_
 _atom_site_type_symbol
 _atom_site_label
 _atom_site_symmetry_multiplicity
 _atom_site_fract_x
 _atom_site_fract_y
 _atom_site_fract_z
 _atom_site_occupancy
  Ce  Ce0  1  0.492087  0.154588  0.536982  1
  Ce  Ce1  1  0.508462  0.846625  0.036501  1
  Tm  Tm2  1  0.653056  0.004106  0.287332  1
  Tm  Tm3  1  0.344955  0.993873  0.782521  1
  Tm  Tm4  1  0.850208  0.504985  0.961173  1
  Tm  Tm5  1  0.151685  0.495643  0.465974  1
  Tm  Tm6  1  0.003291  0.652296  0.714786  1
  Tm  Tm7  1  0.997317  0.347525  0.215054  1
  Tm  Tm8  1  0.504274  0.351618  0.125232  1
  Hf  Hf9  1  0.675279  0.323210  0.747778  1
  Hf  Hf10  1  0.321805  0.677622  0.250523  1
  Hf  Hf11  1  0.822326  0.825521  0.500501  1
  Hf  Hf12  1  0.177401  0.173222  0.998134  1
  Hf  Hf13  1  0.501527  0.648278  0.624968  1
  Hf  Hf14  1  0.852522  0.002119  0.872837  1
  Hf  Hf15  1  0.146903  0.997744  0.377223  1
  Hf  Hf16  1  0.648474  0.501479  0.376971  1
  Hf  Hf17  1  0.349478  0.499236  0.873876  1
  Hf  Hf18  1  0.002117  0.851825  0.125594  1
  Hf  Hf19  1  0.995856  0.147179  0.625322  1
  Si  Si20  1  0.809007  0.141324  0.062825  1
  Si  Si21  1  0.201108  0.856730  0.567753  1
  Si  Si22  1  0.639485  0.703246  0.816724  1
  Si  Si23  1  0.357046  0.295795  0.321517  1
  Si  Si24  1  0.860652  0.205087  0.431986  1
  Si  Si25  1  0.138851  0.795911  0.931307  1
  Si  Si26  1  0.708325  0.646610  0.189376  1
  Si  Si27  1  0.293047  0.361242  0.684114  1
  Si  Si28  1  0.549316  0.203342  0.929725  1
  Si  Si29  1  0.448185  0.793381  0.434924  1
  Si  Si30  1  0.705413  0.947317  0.686132  1
  Si  Si31  1  0.291702  0.047839  0.188391  1
  Si  Si32  1  0.796998  0.452717  0.564228  1
  Si  Si33  1  0.200714  0.551142  0.062204  1
  Si  Si34  1  0.951532  0.704638  0.315961  1
  Si  Si35  1  0.049594  0.294987  0.813552  1
