# generated using pymatgen
data_NdLu4(Sn3Os)6
_symmetry_space_group_name_H-M   'P 1'
_cell_length_a   9.86272440
_cell_length_b   9.86272442
_cell_length_c   9.86272500
_cell_angle_alpha   60.00000140
_cell_angle_beta   60.00000135
_cell_angle_gamma   60.00000289
_symmetry_Int_Tables_number   1
_chemical_formula_structural   NdLu4(Sn3Os)6
_chemical_formula_sum   'Nd1 Lu4 Sn18 Os6'
_cell_volume   678.38422549
_cell_formula_units_Z   1
loop_
 _symmetry_equiv_pos_site_id
 _symmetry_equiv_pos_as_xyz
  1  'x, y, z'
loop_
 _atom_site_type_symbol
 _atom_site_label
 _atom_site_symmetry_multiplicity
 _atom_site_fract_x
 _atom_site_fract_y
 _atom_site_fract_z
 _atom_site_occupancy
  Nd  Nd0  1  0.000000  0.000000  0.000000  1
  Lu  Lu1  1  0.372914  0.372915  0.881259  1
  Lu  Lu2  1  0.372915  0.881258  0.372914  1
  Lu  Lu3  1  0.881258  0.372915  0.372914  1
  Lu  Lu4  1  0.372915  0.372914  0.372914  1
  Sn  Sn5  1  0.593539  0.593539  0.219384  1
  Sn  Sn6  1  0.593539  0.219384  0.593539  1
  Sn  Sn7  1  0.219384  0.593539  0.593539  1
  Sn  Sn8  1  0.593539  0.593539  0.593539  1
  Sn  Sn9  1  0.750000  0.750000  0.750000  1
  Sn  Sn10  1  0.998307  0.352381  0.651006  1
  Sn  Sn11  1  0.998307  0.998307  0.651006  1
  Sn  Sn12  1  0.352381  0.998307  0.651006  1
  Sn  Sn13  1  0.998307  0.651006  0.352381  1
  Sn  Sn14  1  0.352381  0.651006  0.998307  1
  Sn  Sn15  1  0.998307  0.651006  0.998307  1
  Sn  Sn16  1  0.651006  0.998307  0.998307  1
  Sn  Sn17  1  0.651006  0.352381  0.998307  1
  Sn  Sn18  1  0.651006  0.998307  0.352381  1
  Sn  Sn19  1  0.352381  0.998307  0.998307  1
  Sn  Sn20  1  0.998307  0.998307  0.352381  1
  Sn  Sn21  1  0.998307  0.352381  0.998307  1
  Sn  Sn22  1  0.250000  0.250000  0.250000  1
  Os  Os23  1  0.257170  0.257170  0.742830  1
  Os  Os24  1  0.742830  0.257170  0.742830  1
  Os  Os25  1  0.257170  0.742830  0.742830  1
  Os  Os26  1  0.742830  0.742830  0.257170  1
  Os  Os27  1  0.257170  0.742830  0.257170  1
  Os  Os28  1  0.742830  0.257170  0.257170  1
