# generated using pymatgen
data_Ca2Co6Si7Ru6
_symmetry_space_group_name_H-M   'P 1'
_cell_length_a   9.35671500
_cell_length_b   9.35671708
_cell_length_c   3.79383400
_cell_angle_alpha   90.00000000
_cell_angle_beta   90.00000000
_cell_angle_gamma   119.99999618
_symmetry_Int_Tables_number   1
_chemical_formula_structural   Ca2Co6Si7Ru6
_chemical_formula_sum   'Ca2 Co6 Si7 Ru6'
_cell_volume   287.64436595
_cell_formula_units_Z   1
loop_
 _symmetry_equiv_pos_site_id
 _symmetry_equiv_pos_as_xyz
  1  'x, y, z'
loop_
 _atom_site_type_symbol
 _atom_site_label
 _atom_site_symmetry_multiplicity
 _atom_site_fract_x
 _atom_site_fract_y
 _atom_site_fract_z
 _atom_site_occupancy
  Ca  Ca0  1  0.666667  0.333333  0.000000  1
  Ca  Ca1  1  0.333333  0.666667  0.500000  1
  Co  Co2  1  0.055019  0.632072  0.000000  1
  Co  Co3  1  0.577052  0.944981  0.000000  1
  Co  Co4  1  0.367928  0.422948  0.000000  1
  Co  Co5  1  0.272927  0.124514  0.000000  1
  Co  Co6  1  0.851587  0.727073  0.000000  1
  Co  Co7  1  0.875486  0.148413  0.000000  1
  Si  Si8  1  0.294116  0.890074  0.000000  1
  Si  Si9  1  0.595959  0.705884  0.000000  1
  Si  Si10  1  0.109926  0.404041  0.000000  1
  Si  Si11  1  0.389763  0.284658  0.500000  1
  Si  Si12  1  0.894895  0.610237  0.500000  1
  Si  Si13  1  0.715342  0.105105  0.500000  1
  Si  Si14  1  0.000000  0.000000  0.000000  1
  Ru  Ru15  1  0.438672  0.052756  0.500000  1
  Ru  Ru16  1  0.614084  0.561328  0.500000  1
  Ru  Ru17  1  0.947244  0.385916  0.500000  1
  Ru  Ru18  1  0.099394  0.891855  0.500000  1
  Ru  Ru19  1  0.792461  0.900606  0.500000  1
  Ru  Ru20  1  0.108145  0.207539  0.500000  1
