# generated using pymatgen
data_Dy2Ho2Al18ZnRh5
_symmetry_space_group_name_H-M   'P 1'
_cell_length_a   7.58215534
_cell_length_b   7.58129368
_cell_length_c   9.42920022
_cell_angle_alpha   90.04213362
_cell_angle_beta   90.01316354
_cell_angle_gamma   119.58491391
_symmetry_Int_Tables_number   1
_chemical_formula_structural   Dy2Ho2Al18ZnRh5
_chemical_formula_sum   'Dy2 Ho2 Al18 Zn1 Rh5'
_cell_volume   471.34904506
_cell_formula_units_Z   1
loop_
 _symmetry_equiv_pos_site_id
 _symmetry_equiv_pos_as_xyz
  1  'x, y, z'
loop_
 _atom_site_type_symbol
 _atom_site_label
 _atom_site_symmetry_multiplicity
 _atom_site_fract_x
 _atom_site_fract_y
 _atom_site_fract_z
 _atom_site_occupancy
  Dy  Dy0  1  0.674876  0.994883  0.749114  1
  Dy  Dy1  1  0.325124  0.005117  0.250886  1
  Ho  Ho2  1  0.994922  0.674601  0.749307  1
  Ho  Ho3  1  0.005078  0.325399  0.250693  1
  Al  Al4  1  0.133660  0.133590  0.756775  1
  Al  Al5  1  0.866340  0.866410  0.243225  1
  Al  Al6  1  0.001406  0.344087  0.579274  1
  Al  Al7  1  0.998594  0.655913  0.420726  1
  Al  Al8  1  0.001146  0.664482  0.072381  1
  Al  Al9  1  0.335145  0.998654  0.927293  1
  Al  Al10  1  0.998854  0.335518  0.927619  1
  Al  Al11  1  0.664855  0.001346  0.072707  1
  Al  Al12  1  0.656267  0.998741  0.420416  1
  Al  Al13  1  0.343733  0.001259  0.579584  1
  Al  Al14  1  0.332536  0.332674  0.051199  1
  Al  Al15  1  0.667464  0.667326  0.948801  1
  Al  Al16  1  0.659050  0.658886  0.556548  1
  Al  Al17  1  0.340950  0.341114  0.443452  1
  Al  Al18  1  0.338518  0.550807  0.751435  1
  Al  Al19  1  0.661482  0.449193  0.248565  1
  Al  Al20  1  0.551090  0.339086  0.751473  1
  Al  Al21  1  0.448910  0.660914  0.248527  1
  Zn  Zn22  1  0.000000  0.000000  0.500000  1
  Rh  Rh23  1  0.671865  0.328251  0.499986  1
  Rh  Rh24  1  0.328135  0.671749  0.500014  1
  Rh  Rh25  1  0.328582  0.671444  0.000023  1
  Rh  Rh26  1  0.671418  0.328556  0.999977  1
  Rh  Rh27  1  0.000000  0.000000  0.000000  1
