# generated using pymatgen
data_Er5Ta3(MnB6)4
_symmetry_space_group_name_H-M   'P 1'
_cell_length_a   3.43597000
_cell_length_b   8.77873182
_cell_length_c   11.03808000
_cell_angle_alpha   89.91876266
_cell_angle_beta   90.00000000
_cell_angle_gamma   90.00000000
_symmetry_Int_Tables_number   1
_chemical_formula_structural   Er5Ta3(MnB6)4
_chemical_formula_sum   'Er5 Ta3 Mn4 B24'
_cell_volume   332.94634090
_cell_formula_units_Z   1
loop_
 _symmetry_equiv_pos_site_id
 _symmetry_equiv_pos_as_xyz
  1  'x, y, z'
loop_
 _atom_site_type_symbol
 _atom_site_label
 _atom_site_symmetry_multiplicity
 _atom_site_fract_x
 _atom_site_fract_y
 _atom_site_fract_z
 _atom_site_occupancy
  Er  Er0  1  0.000000  0.323832  0.414646  1
  Er  Er1  1  0.000000  0.675807  0.587588  1
  Er  Er2  1  0.000000  0.823042  0.084696  1
  Er  Er3  1  0.000000  0.177137  0.913110  1
  Er  Er4  1  0.000000  0.944090  0.371472  1
  Ta  Ta5  1  0.000000  0.056750  0.630911  1
  Ta  Ta6  1  0.000000  0.444041  0.126687  1
  Ta  Ta7  1  0.000000  0.556120  0.872703  1
  Mn  Mn8  1  0.000000  0.635515  0.313689  1
  Mn  Mn9  1  0.000000  0.357406  0.685137  1
  Mn  Mn10  1  0.000000  0.149217  0.178427  1
  Mn  Mn11  1  0.000000  0.855750  0.819408  1
  B  B12  1  0.500000  0.552045  0.432601  1
  B  B13  1  0.500000  0.444549  0.568091  1
  B  B14  1  0.500000  0.055858  0.065899  1
  B  B15  1  0.500000  0.945216  0.932871  1
  B  B16  1  0.500000  0.746674  0.416535  1
  B  B17  1  0.500000  0.248044  0.584383  1
  B  B18  1  0.500000  0.253427  0.080952  1
  B  B19  1  0.500000  0.747815  0.917676  1
  B  B20  1  0.500000  0.791646  0.262594  1
  B  B21  1  0.500000  0.204874  0.737709  1
  B  B22  1  0.500000  0.296526  0.234275  1
  B  B23  1  0.500000  0.704254  0.764197  1
  B  B24  1  0.500000  0.628998  0.182265  1
  B  B25  1  0.500000  0.370304  0.817358  1
  B  B26  1  0.500000  0.134097  0.314454  1
  B  B27  1  0.500000  0.869921  0.684330  1
  B  B28  1  0.500000  0.986755  0.209963  1
  B  B29  1  0.500000  0.016528  0.788436  1
  B  B30  1  0.500000  0.482082  0.286443  1
  B  B31  1  0.500000  0.517449  0.712847  1
  B  B32  1  0.500000  0.599692  0.025625  1
  B  B33  1  0.500000  0.401087  0.972754  1
  B  B34  1  0.500000  0.102873  0.477893  1
  B  B35  1  0.500000  0.900572  0.531370  1
