# generated using pymatgen
data_Nd4Ga18Ir2Pd3Ru
_symmetry_space_group_name_H-M   'P 1'
_cell_length_a   7.70396278
_cell_length_b   7.70396233
_cell_length_c   9.65934301
_cell_angle_alpha   89.95957586
_cell_angle_beta   89.95957701
_cell_angle_gamma   119.65157482
_symmetry_Int_Tables_number   1
_chemical_formula_structural   Nd4Ga18Ir2Pd3Ru
_chemical_formula_sum   'Nd4 Ga18 Ir2 Pd3 Ru1'
_cell_volume   498.21893418
_cell_formula_units_Z   1
loop_
 _symmetry_equiv_pos_site_id
 _symmetry_equiv_pos_as_xyz
  1  'x, y, z'
loop_
 _atom_site_type_symbol
 _atom_site_label
 _atom_site_symmetry_multiplicity
 _atom_site_fract_x
 _atom_site_fract_y
 _atom_site_fract_z
 _atom_site_occupancy
  Nd  Nd0  1  0.995592  0.670059  0.249600  1
  Nd  Nd1  1  0.001682  0.327773  0.750518  1
  Nd  Nd2  1  0.672227  0.998318  0.249482  1
  Nd  Nd3  1  0.329941  0.004408  0.750400  1
  Ga  Ga4  1  0.133553  0.132322  0.250650  1
  Ga  Ga5  1  0.867678  0.866447  0.749350  1
  Ga  Ga6  1  0.006275  0.337825  0.079841  1
  Ga  Ga7  1  0.000672  0.665205  0.920463  1
  Ga  Ga8  1  0.996741  0.659523  0.576132  1
  Ga  Ga9  1  0.340477  0.003259  0.423868  1
  Ga  Ga10  1  0.999688  0.338714  0.423565  1
  Ga  Ga11  1  0.661286  0.000312  0.576435  1
  Ga  Ga12  1  0.662175  0.993725  0.920159  1
  Ga  Ga13  1  0.334795  0.999328  0.079537  1
  Ga  Ga14  1  0.339461  0.337429  0.560336  1
  Ga  Ga15  1  0.662571  0.660539  0.439664  1
  Ga  Ga16  1  0.661130  0.663997  0.065351  1
  Ga  Ga17  1  0.336003  0.338870  0.934649  1
  Ga  Ga18  1  0.337826  0.547389  0.250862  1
  Ga  Ga19  1  0.663090  0.455535  0.745410  1
  Ga  Ga20  1  0.544465  0.336910  0.254590  1
  Ga  Ga21  1  0.452611  0.662174  0.749138  1
  Ir  Ir22  1  0.329463  0.670537  0.000000  1
  Ir  Ir23  1  0.328474  0.671526  0.500000  1
  Pd  Pd24  1  0.670635  0.329365  0.000000  1
  Pd  Pd25  1  0.000536  0.999464  0.000000  1
  Pd  Pd26  1  0.999555  0.000445  0.500000  1
  Ru  Ru27  1  0.671400  0.328600  0.500000  1
