# generated using pymatgen
data_La6InGeI6
_symmetry_space_group_name_H-M   'P 1'
_cell_length_a   11.09822158
_cell_length_b   11.27022257
_cell_length_c   11.27022236
_cell_angle_alpha   110.05918890
_cell_angle_beta   109.48716964
_cell_angle_gamma   109.48717376
_symmetry_Int_Tables_number   1
_chemical_formula_structural   La6InGeI6
_chemical_formula_sum   'La12 In2 Ge2 I12'
_cell_volume   1076.75839885
_cell_formula_units_Z   2
loop_
 _symmetry_equiv_pos_site_id
 _symmetry_equiv_pos_as_xyz
  1  'x, y, z'
loop_
 _atom_site_type_symbol
 _atom_site_label
 _atom_site_symmetry_multiplicity
 _atom_site_fract_x
 _atom_site_fract_y
 _atom_site_fract_z
 _atom_site_occupancy
  La  La0  1  0.013505  0.756753  0.006753  1
  La  La1  1  0.496234  0.262116  0.018111  1
  La  La2  1  0.267939  0.506214  0.024698  1
  La  La3  1  0.486494  0.993247  0.243247  1
  La  La4  1  0.267940  0.261727  0.243242  1
  La  La5  1  0.003767  0.521877  0.265882  1
  La  La6  1  0.750000  0.734234  0.265766  1
  La  La7  1  0.496234  0.734117  0.478123  1
  La  La8  1  0.232060  0.975302  0.493786  1
  La  La9  1  0.750000  0.515766  0.484235  1
  La  La10  1  0.232061  0.756759  0.738274  1
  La  La11  1  0.003767  0.981890  0.737884  1
  In  In12  1  0.250001  0.000534  0.999466  1
  In  In13  1  0.250000  0.749466  0.250534  1
  Ge  Ge14  1  0.499904  0.499952  0.249953  1
  Ge  Ge15  1  0.000096  0.750048  0.500047  1
  I  I16  1  0.757385  0.244396  0.250497  1
  I  I17  1  0.993241  0.006034  0.250748  1
  I  I18  1  0.757385  0.012989  0.506889  1
  I  I19  1  0.250000  0.493099  0.506901  1
  I  I20  1  0.506759  0.257506  0.512793  1
  I  I21  1  0.993241  0.487207  0.742494  1
  I  I22  1  0.250001  0.256901  0.743100  1
  I  I23  1  0.742615  0.749503  0.755603  1
  I  I24  1  0.511780  0.005890  0.755890  1
  I  I25  1  0.742615  0.493112  0.987011  1
  I  I26  1  0.988220  0.244110  0.994110  1
  I  I27  1  0.506759  0.749252  0.993965  1
