# generated using pymatgen
data_Nd7Dy13Si15Sn
_symmetry_space_group_name_H-M   'P 1'
_cell_length_a   7.73084142
_cell_length_b   7.75086651
_cell_length_c   14.33157800
_cell_angle_alpha   89.87755588
_cell_angle_beta   89.86201581
_cell_angle_gamma   90.17386458
_symmetry_Int_Tables_number   1
_chemical_formula_structural   Nd7Dy13Si15Sn
_chemical_formula_sum   'Nd7 Dy13 Si15 Sn1'
_cell_volume   858.75005134
_cell_formula_units_Z   1
loop_
 _symmetry_equiv_pos_site_id
 _symmetry_equiv_pos_as_xyz
  1  'x, y, z'
loop_
 _atom_site_type_symbol
 _atom_site_label
 _atom_site_symmetry_multiplicity
 _atom_site_fract_x
 _atom_site_fract_y
 _atom_site_fract_z
 _atom_site_occupancy
  Nd  Nd0  1  0.358925  0.007077  0.959909  1
  Nd  Nd1  1  0.988467  0.638583  0.541585  1
  Nd  Nd2  1  0.491177  0.857217  0.208882  1
  Nd  Nd3  1  0.515718  0.149342  0.713661  1
  Nd  Nd4  1  0.861753  0.492828  0.794465  1
  Nd  Nd5  1  0.139062  0.505910  0.290024  1
  Nd  Nd6  1  0.007139  0.356894  0.042108  1
  Dy  Dy7  1  0.491008  0.359952  0.124191  1
  Dy  Dy8  1  0.980684  0.146796  0.629484  1
  Dy  Dy9  1  0.862284  0.008717  0.876026  1
  Dy  Dy10  1  0.136649  0.991633  0.370096  1
  Dy  Dy11  1  0.515037  0.633630  0.624438  1
  Dy  Dy12  1  0.360586  0.491021  0.876718  1
  Dy  Dy13  1  0.642630  0.506879  0.373644  1
  Dy  Dy14  1  0.006710  0.860809  0.126118  1
  Dy  Dy15  1  0.643935  0.997044  0.452124  1
  Dy  Dy16  1  0.314973  0.328592  0.496807  1
  Dy  Dy17  1  0.182832  0.815590  0.756071  1
  Dy  Dy18  1  0.816307  0.182327  0.249123  1
  Dy  Dy19  1  0.681784  0.682258  0.000653  1
  Si  Si20  1  0.708937  0.063059  0.061614  1
  Si  Si21  1  0.935047  0.287750  0.437931  1
  Si  Si22  1  0.438110  0.206556  0.311396  1
  Si  Si23  1  0.564259  0.789720  0.811340  1
  Si  Si24  1  0.210661  0.438282  0.688806  1
  Si  Si25  1  0.788732  0.563661  0.187958  1
  Si  Si26  1  0.063796  0.708368  0.941490  1
  Si  Si27  1  0.797958  0.844770  0.692403  1
  Si  Si28  1  0.204753  0.151865  0.187691  1
  Si  Si29  1  0.843964  0.798599  0.311571  1
  Si  Si30  1  0.352110  0.700265  0.430385  1
  Si  Si31  1  0.651858  0.294185  0.939089  1
  Si  Si32  1  0.698048  0.340673  0.555820  1
  Si  Si33  1  0.294868  0.651961  0.061887  1
  Si  Si34  1  0.155342  0.203002  0.811136  1
  Sn  Sn35  1  0.293895  0.944184  0.563354  1
