# generated using pymatgen
data_Ho20Sn3Pb13
_symmetry_space_group_name_H-M   'P 1'
_cell_length_a   8.16732027
_cell_length_b   15.56029900
_cell_length_c   8.20991837
_cell_angle_alpha   90.00000000
_cell_angle_beta   89.93495860
_cell_angle_gamma   90.00000000
_symmetry_Int_Tables_number   1
_chemical_formula_structural   Ho20Sn3Pb13
_chemical_formula_sum   'Ho20 Sn3 Pb13'
_cell_volume   1043.36456556
_cell_formula_units_Z   1
loop_
 _symmetry_equiv_pos_site_id
 _symmetry_equiv_pos_as_xyz
  1  'x, y, z'
loop_
 _atom_site_type_symbol
 _atom_site_label
 _atom_site_symmetry_multiplicity
 _atom_site_fract_x
 _atom_site_fract_y
 _atom_site_fract_z
 _atom_site_occupancy
  Ho  Ho0  1  0.620813  0.623128  0.161470  1
  Ho  Ho1  1  0.121597  0.877059  0.338346  1
  Ho  Ho2  1  0.381091  0.122202  0.838109  1
  Ho  Ho3  1  0.876638  0.378859  0.659297  1
  Ho  Ho4  1  0.381091  0.377798  0.838109  1
  Ho  Ho5  1  0.876638  0.121141  0.659297  1
  Ho  Ho6  1  0.620813  0.876872  0.161470  1
  Ho  Ho7  1  0.121597  0.622941  0.338346  1
  Ho  Ho8  1  0.462728  0.601549  0.672614  1
  Ho  Ho9  1  0.963217  0.898446  0.827735  1
  Ho  Ho10  1  0.537058  0.100777  0.327439  1
  Ho  Ho11  1  0.036644  0.400140  0.175925  1
  Ho  Ho12  1  0.537058  0.399223  0.327439  1
  Ho  Ho13  1  0.036644  0.099860  0.175925  1
  Ho  Ho14  1  0.462728  0.898451  0.672614  1
  Ho  Ho15  1  0.963217  0.601554  0.827735  1
  Ho  Ho16  1  0.788830  0.750000  0.492778  1
  Ho  Ho17  1  0.288553  0.750000  0.007199  1
  Ho  Ho18  1  0.212136  0.250000  0.505501  1
  Ho  Ho19  1  0.709043  0.250000  0.993534  1
  Sn  Sn20  1  0.425025  0.750000  0.376273  1
  Sn  Sn21  1  0.925178  0.750000  0.124445  1
  Sn  Sn22  1  0.575321  0.250000  0.623637  1
  Pb  Pb23  1  0.717905  0.458315  0.967912  1
  Pb  Pb24  1  0.218333  0.041653  0.532846  1
  Pb  Pb25  1  0.282596  0.957851  0.031784  1
  Pb  Pb26  1  0.781755  0.542321  0.466404  1
  Pb  Pb27  1  0.282596  0.542149  0.031784  1
  Pb  Pb28  1  0.781755  0.957679  0.466404  1
  Pb  Pb29  1  0.717905  0.041685  0.967912  1
  Pb  Pb30  1  0.218333  0.458347  0.532846  1
  Pb  Pb31  1  0.073411  0.250000  0.875534  1
  Pb  Pb32  1  0.652159  0.750000  0.847478  1
  Pb  Pb33  1  0.152296  0.750000  0.652851  1
  Pb  Pb34  1  0.349341  0.250000  0.153789  1
  Pb  Pb35  1  0.847963  0.250000  0.347219  1
