# generated using pymatgen
data_Ca8As6Pd3Rh5
_symmetry_space_group_name_H-M   'P 1'
_cell_length_a   10.92919657
_cell_length_b   10.94593821
_cell_length_c   7.92705234
_cell_angle_alpha   71.46697887
_cell_angle_beta   71.33120282
_cell_angle_gamma   29.98690895
_symmetry_Int_Tables_number   1
_chemical_formula_structural   Ca8As6Pd3Rh5
_chemical_formula_sum   'Ca8 As6 Pd3 Rh5'
_cell_volume   447.37827241
_cell_formula_units_Z   1
loop_
 _symmetry_equiv_pos_site_id
 _symmetry_equiv_pos_as_xyz
  1  'x, y, z'
loop_
 _atom_site_type_symbol
 _atom_site_label
 _atom_site_symmetry_multiplicity
 _atom_site_fract_x
 _atom_site_fract_y
 _atom_site_fract_z
 _atom_site_occupancy
  Ca  Ca0  1  0.930074  0.205986  0.330928  1
  Ca  Ca1  1  0.070550  0.792102  0.670708  1
  Ca  Ca2  1  0.789587  0.075214  0.168676  1
  Ca  Ca3  1  0.452197  0.209341  0.903499  1
  Ca  Ca4  1  0.797929  0.541549  0.599186  1
  Ca  Ca5  1  0.206324  0.454368  0.394839  1
  Ca  Ca6  1  0.208133  0.927296  0.829882  1
  Ca  Ca7  1  0.547221  0.791577  0.098675  1
  As  As8  1  0.300345  0.032722  0.444401  1
  As  As9  1  0.389408  0.610966  0.249564  1
  As  As10  1  0.041534  0.289707  0.947273  1
  As  As11  1  0.706592  0.962755  0.549120  1
  As  As12  1  0.952187  0.714006  0.058179  1
  As  As13  1  0.608504  0.390390  0.750115  1
  Pd  Pd14  1  0.914319  0.635632  0.806798  1
  Pd  Pd15  1  0.370549  0.079098  0.688238  1
  Pd  Pd16  1  0.082947  0.366489  0.192080  1
  Rh  Rh17  1  0.578873  0.302632  0.525043  1
  Rh  Rh18  1  0.696119  0.422206  0.974575  1
  Rh  Rh19  1  0.300624  0.581553  0.023669  1
  Rh  Rh20  1  0.422511  0.695937  0.475328  1
  Rh  Rh21  1  0.633475  0.918476  0.319222  1
