# generated using pymatgen
data_Er3Tm5Sc12Si15Rh
_symmetry_space_group_name_H-M   'P 1'
_cell_length_a   7.06889288
_cell_length_b   7.33950508
_cell_length_c   13.93540500
_cell_angle_alpha   89.92732936
_cell_angle_beta   89.81242589
_cell_angle_gamma   90.18455667
_symmetry_Int_Tables_number   1
_chemical_formula_structural   Er3Tm5Sc12Si15Rh
_chemical_formula_sum   'Er3 Tm5 Sc12 Si15 Rh1'
_cell_volume   722.99090720
_cell_formula_units_Z   1
loop_
 _symmetry_equiv_pos_site_id
 _symmetry_equiv_pos_as_xyz
  1  'x, y, z'
loop_
 _atom_site_type_symbol
 _atom_site_label
 _atom_site_symmetry_multiplicity
 _atom_site_fract_x
 _atom_site_fract_y
 _atom_site_fract_z
 _atom_site_occupancy
  Er  Er0  1  0.012473  0.176389  0.096703  1
  Er  Er1  1  0.987903  0.823614  0.903229  1
  Er  Er2  1  0.486829  0.677481  0.903132  1
  Tm  Tm3  1  0.989235  0.820776  0.596240  1
  Tm  Tm4  1  0.512266  0.323254  0.095975  1
  Tm  Tm5  1  0.011554  0.180662  0.403669  1
  Tm  Tm6  1  0.507896  0.324239  0.403879  1
  Tm  Tm7  1  0.485940  0.671085  0.597584  1
  Sc  Sc8  1  0.163219  0.503791  0.745158  1
  Sc  Sc9  1  0.838175  0.497030  0.251948  1
  Sc  Sc10  1  0.339171  0.000769  0.250439  1
  Sc  Sc11  1  0.662327  0.996001  0.749405  1
  Sc  Sc12  1  0.330654  0.187093  0.621407  1
  Sc  Sc13  1  0.668240  0.823527  0.373836  1
  Sc  Sc14  1  0.171208  0.665416  0.378114  1
  Sc  Sc15  1  0.671445  0.824330  0.126385  1
  Sc  Sc16  1  0.834470  0.326499  0.623592  1
  Sc  Sc17  1  0.328131  0.177076  0.875548  1
  Sc  Sc18  1  0.831295  0.321782  0.875536  1
  Sc  Sc19  1  0.170066  0.676899  0.125037  1
  Si  Si20  1  0.033186  0.112348  0.749745  1
  Si  Si21  1  0.970101  0.885464  0.251416  1
  Si  Si22  1  0.467491  0.612645  0.248384  1
  Si  Si23  1  0.536715  0.385980  0.752919  1
  Si  Si24  1  0.285950  0.874783  0.750468  1
  Si  Si25  1  0.714118  0.130653  0.249619  1
  Si  Si26  1  0.215926  0.368404  0.247732  1
  Si  Si27  1  0.784033  0.628933  0.752797  1
  Si  Si28  1  0.835027  0.536025  0.460798  1
  Si  Si29  1  0.342448  0.963658  0.461020  1
  Si  Si30  1  0.842217  0.535815  0.038703  1
  Si  Si31  1  0.657015  0.033418  0.538862  1
  Si  Si32  1  0.156931  0.466016  0.960994  1
  Si  Si33  1  0.658273  0.033951  0.961768  1
  Si  Si34  1  0.343048  0.964977  0.038869  1
  Rh  Rh35  1  0.155023  0.469218  0.539090  1
