# generated using pymatgen
data_Ta6Mn6Si5B
_symmetry_space_group_name_H-M   'P 1'
_cell_length_a   7.21534623
_cell_length_b   7.21327412
_cell_length_c   7.21534726
_cell_angle_alpha   127.71185221
_cell_angle_beta   123.43993459
_cell_angle_gamma   80.64074609
_symmetry_Int_Tables_number   1
_chemical_formula_structural   Ta6Mn6Si5B
_chemical_formula_sum   'Ta6 Mn6 Si5 B1'
_cell_volume   239.09108591
_cell_formula_units_Z   1
loop_
 _symmetry_equiv_pos_site_id
 _symmetry_equiv_pos_as_xyz
  1  'x, y, z'
loop_
 _atom_site_type_symbol
 _atom_site_label
 _atom_site_symmetry_multiplicity
 _atom_site_fract_x
 _atom_site_fract_y
 _atom_site_fract_z
 _atom_site_occupancy
  Ta  Ta0  1  0.549782  0.096861  0.047080  1
  Ta  Ta1  1  0.450577  0.494583  0.544005  1
  Ta  Ta2  1  0.950153  0.497111  0.046958  1
  Ta  Ta3  1  0.049606  0.093734  0.544129  1
  Ta  Ta4  1  0.749971  0.889702  0.639731  1
  Ta  Ta5  1  0.249999  0.910285  0.160286  1
  Mn  Mn6  1  0.525846  0.258616  0.784556  1
  Mn  Mn7  1  0.974060  0.258616  0.232769  1
  Mn  Mn8  1  0.092386  0.734268  0.588331  1
  Mn  Mn9  1  0.854927  0.495926  0.589321  1
  Mn  Mn10  1  0.645937  0.734268  0.141882  1
  Mn  Mn11  1  0.406605  0.495926  0.140998  1
  Si  Si12  1  0.250392  0.503239  0.752847  1
  Si  Si13  1  0.335040  0.829435  0.498091  1
  Si  Si14  1  0.668722  0.162976  0.498146  1
  Si  Si15  1  0.831344  0.829435  0.994395  1
  Si  Si16  1  0.164831  0.162976  0.994254  1
  B  B17  1  0.749822  0.494242  0.244420  1
