# generated using pymatgen
data_RbMg(In4Ir)2
_symmetry_space_group_name_H-M   'P 1'
_cell_length_a   9.06523831
_cell_length_b   9.06523741
_cell_length_c   4.25603900
_cell_angle_alpha   90.00000000
_cell_angle_beta   90.00000000
_cell_angle_gamma   119.79477436
_symmetry_Int_Tables_number   1
_chemical_formula_structural   RbMg(In4Ir)2
_chemical_formula_sum   'Rb1 Mg1 In8 Ir2'
_cell_volume   303.52121040
_cell_formula_units_Z   1
loop_
 _symmetry_equiv_pos_site_id
 _symmetry_equiv_pos_as_xyz
  1  'x, y, z'
loop_
 _atom_site_type_symbol
 _atom_site_label
 _atom_site_symmetry_multiplicity
 _atom_site_fract_x
 _atom_site_fract_y
 _atom_site_fract_z
 _atom_site_occupancy
  Rb  Rb0  1  0.000000  0.000000  0.000000  1
  Mg  Mg1  1  0.500000  0.500000  0.000000  1
  In  In2  1  0.580401  0.783888  0.500000  1
  In  In3  1  0.206235  0.793765  0.500000  1
  In  In4  1  0.216112  0.419599  0.500000  1
  In  In5  1  0.783888  0.580401  0.500000  1
  In  In6  1  0.793765  0.206235  0.500000  1
  In  In7  1  0.419599  0.216112  0.500000  1
  In  In8  1  0.000000  0.500000  0.000000  1
  In  In9  1  0.500000  0.000000  0.000000  1
  Ir  Ir10  1  0.332982  0.667018  0.000000  1
  Ir  Ir11  1  0.667018  0.332982  0.000000  1
