# generated using pymatgen
data_YEr3(Lu3Ru2)2
_symmetry_space_group_name_H-M   'P 1'
_cell_length_a   6.21760222
_cell_length_b   7.23663573
_cell_length_c   8.32298106
_cell_angle_alpha   97.14748483
_cell_angle_beta   111.87090830
_cell_angle_gamma   89.83237294
_symmetry_Int_Tables_number   1
_chemical_formula_structural   YEr3(Lu3Ru2)2
_chemical_formula_sum   'Y1 Er3 Lu6 Ru4'
_cell_volume   344.45064077
_cell_formula_units_Z   1
loop_
 _symmetry_equiv_pos_site_id
 _symmetry_equiv_pos_as_xyz
  1  'x, y, z'
loop_
 _atom_site_type_symbol
 _atom_site_label
 _atom_site_symmetry_multiplicity
 _atom_site_fract_x
 _atom_site_fract_y
 _atom_site_fract_z
 _atom_site_occupancy
  Y  Y0  1  0.523400  0.081576  0.810509  1
  Er  Er1  1  0.477602  0.917418  0.189341  1
  Er  Er2  1  0.710742  0.416368  0.188411  1
  Er  Er3  1  0.288926  0.583686  0.812256  1
  Lu  Lu4  1  0.297315  0.316426  0.433644  1
  Lu  Lu5  1  0.703116  0.684162  0.565459  1
  Lu  Lu6  1  0.864219  0.185222  0.565374  1
  Lu  Lu7  1  0.136134  0.813910  0.434054  1
  Lu  Lu8  1  0.081050  0.250999  0.000409  1
  Lu  Lu9  1  0.919384  0.749027  0.000694  1
  Ru  Ru10  1  0.321196  0.577207  0.220818  1
  Ru  Ru11  1  0.680967  0.424850  0.778118  1
  Ru  Ru12  1  0.093281  0.922764  0.777985  1
  Ru  Ru13  1  0.902669  0.076386  0.222926  1
