# generated using pymatgen
data_YHo15CdIn3Rh4
_symmetry_space_group_name_H-M   'P 1'
_cell_length_a   9.60856775
_cell_length_b   9.60646650
_cell_length_c   9.61093600
_cell_angle_alpha   59.98460814
_cell_angle_beta   59.99184642
_cell_angle_gamma   59.98590048
_symmetry_Int_Tables_number   1
_chemical_formula_structural   YHo15CdIn3Rh4
_chemical_formula_sum   'Y1 Ho15 Cd1 In3 Rh4'
_cell_volume   627.11823344
_cell_formula_units_Z   1
loop_
 _symmetry_equiv_pos_site_id
 _symmetry_equiv_pos_as_xyz
  1  'x, y, z'
loop_
 _atom_site_type_symbol
 _atom_site_label
 _atom_site_symmetry_multiplicity
 _atom_site_fract_x
 _atom_site_fract_y
 _atom_site_fract_z
 _atom_site_occupancy
  Y  Y0  1  0.937425  0.934681  0.563947  1
  Ho  Ho1  1  0.563807  0.560609  0.937792  1
  Ho  Ho2  1  0.689714  0.690511  0.309888  1
  Ho  Ho3  1  0.149080  0.549983  0.150468  1
  Ho  Ho4  1  0.688821  0.312717  0.688121  1
  Ho  Ho5  1  0.150661  0.149962  0.152030  1
  Ho  Ho6  1  0.549753  0.149059  0.150593  1
  Ho  Ho7  1  0.688821  0.312717  0.310340  1
  Ho  Ho8  1  0.150661  0.149962  0.547344  1
  Ho  Ho9  1  0.311149  0.690585  0.309017  1
  Ho  Ho10  1  0.311149  0.690585  0.689250  1
  Ho  Ho11  1  0.936915  0.560511  0.564873  1
  Ho  Ho12  1  0.936915  0.560511  0.937700  1
  Ho  Ho13  1  0.562404  0.936257  0.562973  1
  Ho  Ho14  1  0.562404  0.936257  0.938366  1
  Ho  Ho15  1  0.311312  0.311289  0.688699  1
  Cd  Cd16  1  0.917740  0.247160  0.917550  1
  In  In17  1  0.916631  0.918754  0.247984  1
  In  In18  1  0.248131  0.918864  0.916503  1
  In  In19  1  0.916631  0.918754  0.916632  1
  Rh  Rh20  1  0.357405  0.357575  0.927642  1
  Rh  Rh21  1  0.358164  0.926874  0.357481  1
  Rh  Rh22  1  0.926902  0.358243  0.357428  1
  Rh  Rh23  1  0.357405  0.357575  0.357378  1
