# generated using pymatgen
data_KVPSe5
_symmetry_space_group_name_H-M   'P 1'
_cell_length_a   10.03436354
_cell_length_b   10.03436384
_cell_length_c   6.95095818
_cell_angle_alpha   82.01718699
_cell_angle_beta   82.01718499
_cell_angle_gamma   42.71229279
_symmetry_Int_Tables_number   1
_chemical_formula_structural   KVPSe5
_chemical_formula_sum   'K2 V2 P2 Se10'
_cell_volume   469.43388978
_cell_formula_units_Z   2
loop_
 _symmetry_equiv_pos_site_id
 _symmetry_equiv_pos_as_xyz
  1  'x, y, z'
loop_
 _atom_site_type_symbol
 _atom_site_label
 _atom_site_symmetry_multiplicity
 _atom_site_fract_x
 _atom_site_fract_y
 _atom_site_fract_z
 _atom_site_occupancy
  K  K0  1  0.732828  0.732828  0.766779  1
  K  K1  1  0.267172  0.267172  0.233221  1
  V  V2  1  0.714829  0.285171  0.000000  1
  V  V3  1  0.285171  0.714829  0.000000  1
  P  P4  1  0.864497  0.864497  0.208239  1
  P  P5  1  0.135503  0.135503  0.791761  1
  Se  Se6  1  0.080506  0.080506  0.103634  1
  Se  Se7  1  0.559207  0.559207  0.182078  1
  Se  Se8  1  0.328400  0.837712  0.679416  1
  Se  Se9  1  0.919494  0.919494  0.896366  1
  Se  Se10  1  0.671600  0.162288  0.320584  1
  Se  Se11  1  0.837712  0.328400  0.679416  1
  Se  Se12  1  0.440793  0.440793  0.817922  1
  Se  Se13  1  0.746786  0.746786  0.256457  1
  Se  Se14  1  0.162288  0.671600  0.320584  1
  Se  Se15  1  0.253214  0.253214  0.743543  1
