# generated using pymatgen
data_Nd6Zn23N
_symmetry_space_group_name_H-M   'P 1'
_cell_length_a   9.12528731
_cell_length_b   9.12528639
_cell_length_c   9.12528700
_cell_angle_alpha   60.00000141
_cell_angle_beta   60.00000473
_cell_angle_gamma   59.99999774
_symmetry_Int_Tables_number   1
_chemical_formula_structural   Nd6Zn23N
_chemical_formula_sum   'Nd6 Zn23 N1'
_cell_volume   537.30959675
_cell_formula_units_Z   1
loop_
 _symmetry_equiv_pos_site_id
 _symmetry_equiv_pos_as_xyz
  1  'x, y, z'
loop_
 _atom_site_type_symbol
 _atom_site_label
 _atom_site_symmetry_multiplicity
 _atom_site_fract_x
 _atom_site_fract_y
 _atom_site_fract_z
 _atom_site_occupancy
  Nd  Nd0  1  0.699900  0.300100  0.300100  1
  Nd  Nd1  1  0.699900  0.300100  0.699900  1
  Nd  Nd2  1  0.699900  0.699900  0.300100  1
  Nd  Nd3  1  0.300100  0.699900  0.699900  1
  Nd  Nd4  1  0.300100  0.699900  0.300100  1
  Nd  Nd5  1  0.300100  0.300100  0.699900  1
  Zn  Zn6  1  0.630313  0.123230  0.123230  1
  Zn  Zn7  1  0.123230  0.630313  0.123230  1
  Zn  Zn8  1  0.123230  0.123230  0.630313  1
  Zn  Zn9  1  0.123230  0.123230  0.123230  1
  Zn  Zn10  1  0.369687  0.876770  0.876770  1
  Zn  Zn11  1  0.876770  0.369687  0.876770  1
  Zn  Zn12  1  0.876770  0.876770  0.369687  1
  Zn  Zn13  1  0.876770  0.876770  0.876770  1
  Zn  Zn14  1  0.500000  0.000000  0.000000  1
  Zn  Zn15  1  0.500000  0.000000  0.500000  1
  Zn  Zn16  1  0.500000  0.500000  0.000000  1
  Zn  Zn17  1  0.000000  0.500000  0.500000  1
  Zn  Zn18  1  0.000000  0.500000  0.000000  1
  Zn  Zn19  1  0.000000  0.000000  0.500000  1
  Zn  Zn20  1  0.000000  0.000000  0.000000  1
  Zn  Zn21  1  0.022280  0.325907  0.325907  1
  Zn  Zn22  1  0.325907  0.022280  0.325907  1
  Zn  Zn23  1  0.325907  0.325907  0.022280  1
  Zn  Zn24  1  0.325907  0.325907  0.325907  1
  Zn  Zn25  1  0.977720  0.674093  0.674093  1
  Zn  Zn26  1  0.674093  0.977720  0.674093  1
  Zn  Zn27  1  0.674093  0.674093  0.977720  1
  Zn  Zn28  1  0.674093  0.674093  0.674093  1
  N  N29  1  0.500000  0.500000  0.500000  1
