# generated using pymatgen
data_Dy8Nb9Si16W3
_symmetry_space_group_name_H-M   'P 1'
_cell_length_a   7.01533705
_cell_length_b   7.01533641
_cell_length_c   12.99745170
_cell_angle_alpha   89.95585542
_cell_angle_beta   90.04414588
_cell_angle_gamma   90.02436312
_symmetry_Int_Tables_number   1
_chemical_formula_structural   Dy8Nb9Si16W3
_chemical_formula_sum   'Dy8 Nb9 Si16 W3'
_cell_volume   639.66849055
_cell_formula_units_Z   1
loop_
 _symmetry_equiv_pos_site_id
 _symmetry_equiv_pos_as_xyz
  1  'x, y, z'
loop_
 _atom_site_type_symbol
 _atom_site_label
 _atom_site_symmetry_multiplicity
 _atom_site_fract_x
 _atom_site_fract_y
 _atom_site_fract_z
 _atom_site_occupancy
  Dy  Dy0  1  0.997836  0.658763  0.032708  1
  Dy  Dy1  1  0.001522  0.341646  0.532202  1
  Dy  Dy2  1  0.658763  0.997836  0.967292  1
  Dy  Dy3  1  0.157846  0.502686  0.781360  1
  Dy  Dy4  1  0.841601  0.498472  0.282685  1
  Dy  Dy5  1  0.502686  0.157846  0.218640  1
  Dy  Dy6  1  0.498472  0.841601  0.717315  1
  Dy  Dy7  1  0.341646  0.001522  0.467798  1
  Nb  Nb8  1  0.347245  0.506900  0.375142  1
  Nb  Nb9  1  0.847013  0.994171  0.375508  1
  Nb  Nb10  1  0.006597  0.152827  0.125242  1
  Nb  Nb11  1  0.994171  0.847013  0.624492  1
  Nb  Nb12  1  0.506900  0.347245  0.624858  1
  Nb  Nb13  1  0.152827  0.006597  0.874758  1
  Nb  Nb14  1  0.328780  0.328780  0.000000  1
  Nb  Nb15  1  0.494685  0.652549  0.126198  1
  Nb  Nb16  1  0.652549  0.494685  0.873802  1
  Si  Si17  1  0.045194  0.706584  0.435255  1
  Si  Si18  1  0.951987  0.293408  0.934193  1
  Si  Si19  1  0.706584  0.045194  0.564745  1
  Si  Si20  1  0.205673  0.456305  0.186502  1
  Si  Si21  1  0.793366  0.545624  0.684711  1
  Si  Si22  1  0.456305  0.205673  0.813498  1
  Si  Si23  1  0.545624  0.793366  0.315289  1
  Si  Si24  1  0.293408  0.951987  0.065807  1
  Si  Si25  1  0.798576  0.866744  0.183598  1
  Si  Si26  1  0.298471  0.633000  0.566741  1
  Si  Si27  1  0.703910  0.366498  0.066741  1
  Si  Si28  1  0.633000  0.298471  0.433259  1
  Si  Si29  1  0.366498  0.703910  0.933259  1
  Si  Si30  1  0.133092  0.201691  0.316706  1
  Si  Si31  1  0.201691  0.133092  0.683294  1
  Si  Si32  1  0.866744  0.798576  0.816402  1
  W  W33  1  0.670562  0.670562  0.500000  1
  W  W34  1  0.828542  0.169634  0.748724  1
  W  W35  1  0.169634  0.828542  0.251276  1
