# generated using pymatgen
data_La6Mg4IrPd12
_symmetry_space_group_name_H-M   'P 1'
_cell_length_a   8.55052379
_cell_length_b   8.55052458
_cell_length_c   8.55052500
_cell_angle_alpha   109.47122162
_cell_angle_beta   109.47122349
_cell_angle_gamma   109.47121925
_symmetry_Int_Tables_number   1
_chemical_formula_structural   La6Mg4IrPd12
_chemical_formula_sum   'La6 Mg4 Ir1 Pd12'
_cell_volume   481.23405942
_cell_formula_units_Z   1
loop_
 _symmetry_equiv_pos_site_id
 _symmetry_equiv_pos_as_xyz
  1  'x, y, z'
loop_
 _atom_site_type_symbol
 _atom_site_label
 _atom_site_symmetry_multiplicity
 _atom_site_fract_x
 _atom_site_fract_y
 _atom_site_fract_z
 _atom_site_occupancy
  La  La0  1  0.701573  0.701573  0.000000  1
  La  La1  1  0.298427  0.000000  0.298427  1
  La  La2  1  0.000000  0.298427  0.298427  1
  La  La3  1  0.298427  0.298427  0.000000  1
  La  La4  1  0.701573  0.000000  0.701573  1
  La  La5  1  0.000000  0.701573  0.701573  1
  Mg  Mg6  1  0.000000  0.000000  0.500000  1
  Mg  Mg7  1  0.000000  0.500000  0.000000  1
  Mg  Mg8  1  0.500000  0.000000  0.000000  1
  Mg  Mg9  1  0.500000  0.500000  0.500000  1
  Ir  Ir10  1  0.000000  0.000000  0.000000  1
  Pd  Pd11  1  0.337654  0.337654  0.675309  1
  Pd  Pd12  1  0.662346  0.000000  0.337654  1
  Pd  Pd13  1  0.000000  0.662346  0.337654  1
  Pd  Pd14  1  0.662346  0.337654  0.000000  1
  Pd  Pd15  1  0.337654  0.675309  0.337654  1
  Pd  Pd16  1  0.000000  0.337654  0.662346  1
  Pd  Pd17  1  0.337654  0.662346  0.000000  1
  Pd  Pd18  1  0.337654  0.000000  0.662346  1
  Pd  Pd19  1  0.675309  0.337654  0.337654  1
  Pd  Pd20  1  0.662346  0.662346  0.324691  1
  Pd  Pd21  1  0.662346  0.324691  0.662346  1
  Pd  Pd22  1  0.324691  0.662346  0.662346  1
