# generated using pymatgen
data_NpHg3(SF3)2
_symmetry_space_group_name_H-M   'P 1'
_cell_length_a   8.04310802
_cell_length_b   8.04310713
_cell_length_c   5.23067306
_cell_angle_alpha   109.28993104
_cell_angle_beta   109.28992567
_cell_angle_gamma   54.85327710
_symmetry_Int_Tables_number   1
_chemical_formula_structural   NpHg3(SF3)2
_chemical_formula_sum   'Np1 Hg3 S2 F6'
_cell_volume   256.80997961
_cell_formula_units_Z   1
loop_
 _symmetry_equiv_pos_site_id
 _symmetry_equiv_pos_as_xyz
  1  'x, y, z'
loop_
 _atom_site_type_symbol
 _atom_site_label
 _atom_site_symmetry_multiplicity
 _atom_site_fract_x
 _atom_site_fract_y
 _atom_site_fract_z
 _atom_site_occupancy
  Np  Np0  1  0.000000  0.000000  0.499999  1
  Hg  Hg1  1  0.500000  0.500000  0.000000  1
  Hg  Hg2  1  0.500000  0.000000  0.499999  1
  Hg  Hg3  1  0.000000  0.500000  0.499999  1
  S  S4  1  0.683543  0.683543  0.185095  1
  S  S5  1  0.316457  0.316457  0.814905  1
  F  F6  1  0.691236  0.125202  0.258359  1
  F  F7  1  0.125202  0.691236  0.258359  1
  F  F8  1  0.100100  0.100100  0.270533  1
  F  F9  1  0.899900  0.899900  0.729467  1
  F  F10  1  0.874798  0.308764  0.741641  1
  F  F11  1  0.308764  0.874798  0.741641  1
