# generated using pymatgen
data_La2ZnCu18Si7
_symmetry_space_group_name_H-M   'P 1'
_cell_length_a   8.17028962
_cell_length_b   8.17398561
_cell_length_c   8.20478094
_cell_angle_alpha   120.43527586
_cell_angle_beta   120.44123236
_cell_angle_gamma   89.27487041
_symmetry_Int_Tables_number   1
_chemical_formula_structural   La2ZnCu18Si7
_chemical_formula_sum   'La2 Zn1 Cu18 Si7'
_cell_volume   384.74661868
_cell_formula_units_Z   1
loop_
 _symmetry_equiv_pos_site_id
 _symmetry_equiv_pos_as_xyz
  1  'x, y, z'
loop_
 _atom_site_type_symbol
 _atom_site_label
 _atom_site_symmetry_multiplicity
 _atom_site_fract_x
 _atom_site_fract_y
 _atom_site_fract_z
 _atom_site_occupancy
  La  La0  1  0.250923  0.250342  0.998919  1
  La  La1  1  0.750401  0.750838  0.998923  1
  Zn  Zn2  1  0.798552  0.298677  0.856009  1
  Cu  Cu3  1  0.937026  0.201385  0.142417  1
  Cu  Cu4  1  0.201819  0.061318  0.264981  1
  Cu  Cu5  1  0.796181  0.931140  0.732330  1
  Cu  Cu6  1  0.430341  0.296660  0.731483  1
  Cu  Cu7  1  0.067556  0.798175  0.861837  1
  Cu  Cu8  1  0.805008  0.055265  0.496716  1
  Cu  Cu9  1  0.555743  0.304650  0.496720  1
  Cu  Cu10  1  0.192067  0.943908  0.501109  1
  Cu  Cu11  1  0.443831  0.691677  0.501108  1
  Cu  Cu12  1  0.941810  0.441525  0.740141  1
  Cu  Cu13  1  0.691283  0.191050  0.249519  1
  Cu  Cu14  1  0.065618  0.565889  0.267177  1
  Cu  Cu15  1  0.700374  0.436056  0.140946  1
  Cu  Cu16  1  0.561872  0.702180  0.265518  1
  Cu  Cu17  1  0.496478  0.996742  0.495861  1
  Cu  Cu18  1  0.000807  0.501104  0.499448  1
  Cu  Cu19  1  0.312285  0.812319  0.752884  1
  Cu  Cu20  1  0.298064  0.567355  0.861822  1
  Si  Si21  1  0.562907  0.062932  0.850546  1
  Si  Si22  1  0.055625  0.207018  0.499646  1
  Si  Si23  1  0.292974  0.440473  0.499463  1
  Si  Si24  1  0.940546  0.792965  0.499534  1
  Si  Si25  1  0.441864  0.941818  0.149746  1
  Si  Si26  1  0.200922  0.700802  0.145507  1
  Si  Si27  1  0.707119  0.555731  0.499690  1
