# generated using pymatgen
data_CaTm2(NiIr2)3
_symmetry_space_group_name_H-M   'P 1'
_cell_length_a   5.28405778
_cell_length_b   5.28405715
_cell_length_c   8.73257900
_cell_angle_alpha   72.38925863
_cell_angle_beta   72.38926078
_cell_angle_gamma   60.00000051
_symmetry_Int_Tables_number   1
_chemical_formula_structural   CaTm2(NiIr2)3
_chemical_formula_sum   'Ca1 Tm2 Ni3 Ir6'
_cell_volume   197.85349568
_cell_formula_units_Z   1
loop_
 _symmetry_equiv_pos_site_id
 _symmetry_equiv_pos_as_xyz
  1  'x, y, z'
loop_
 _atom_site_type_symbol
 _atom_site_label
 _atom_site_symmetry_multiplicity
 _atom_site_fract_x
 _atom_site_fract_y
 _atom_site_fract_z
 _atom_site_occupancy
  Ca  Ca0  1  0.000000  0.000000  0.000000  1
  Tm  Tm1  1  0.139977  0.139977  0.580069  1
  Tm  Tm2  1  0.860023  0.860023  0.419931  1
  Ni  Ni3  1  0.332647  0.332647  0.002056  1
  Ni  Ni4  1  0.667353  0.667353  0.997944  1
  Ni  Ni5  1  0.500000  0.500000  0.500000  1
  Ir  Ir6  1  0.081495  0.583561  0.751383  1
  Ir  Ir7  1  0.583561  0.583561  0.751383  1
  Ir  Ir8  1  0.583561  0.081495  0.751383  1
  Ir  Ir9  1  0.918505  0.416439  0.248617  1
  Ir  Ir10  1  0.416439  0.416439  0.248617  1
  Ir  Ir11  1  0.416439  0.918505  0.248617  1
