# generated using pymatgen
data_Sc4GaB4AsRh10
_symmetry_space_group_name_H-M   'P 1'
_cell_length_a   9.24472000
_cell_length_b   9.24472000
_cell_length_c   3.16373700
_cell_angle_alpha   90.00000000
_cell_angle_beta   90.00000000
_cell_angle_gamma   90.00000000
_symmetry_Int_Tables_number   1
_chemical_formula_structural   Sc4GaB4AsRh10
_chemical_formula_sum   'Sc4 Ga1 B4 As1 Rh10'
_cell_volume   270.38830143
_cell_formula_units_Z   1
loop_
 _symmetry_equiv_pos_site_id
 _symmetry_equiv_pos_as_xyz
  1  'x, y, z'
loop_
 _atom_site_type_symbol
 _atom_site_label
 _atom_site_symmetry_multiplicity
 _atom_site_fract_x
 _atom_site_fract_y
 _atom_site_fract_z
 _atom_site_occupancy
  Sc  Sc0  1  0.823612  0.327458  0.000000  1
  Sc  Sc1  1  0.327458  0.176388  0.000000  1
  Sc  Sc2  1  0.672542  0.823612  0.000000  1
  Sc  Sc3  1  0.176388  0.672542  0.000000  1
  Ga  Ga4  1  0.500000  0.500000  0.000000  1
  B  B5  1  0.622228  0.123864  0.000000  1
  B  B6  1  0.123864  0.377772  0.000000  1
  B  B7  1  0.876136  0.622228  0.000000  1
  B  B8  1  0.377772  0.876136  0.000000  1
  As  As9  1  0.000000  0.000000  0.000000  1
  Rh  Rh10  1  0.070832  0.215646  0.500000  1
  Rh  Rh11  1  0.215646  0.929168  0.500000  1
  Rh  Rh12  1  0.784354  0.070832  0.500000  1
  Rh  Rh13  1  0.929168  0.784354  0.500000  1
  Rh  Rh14  1  0.427207  0.716634  0.500000  1
  Rh  Rh15  1  0.572793  0.283366  0.500000  1
  Rh  Rh16  1  0.716634  0.572793  0.500000  1
  Rh  Rh17  1  0.283366  0.427207  0.500000  1
  Rh  Rh18  1  0.500000  0.000000  0.500000  1
  Rh  Rh19  1  0.000000  0.500000  0.500000  1
