# generated using pymatgen
data_AcTcH5
_symmetry_space_group_name_H-M   'P 1'
_cell_length_a   4.86244000
_cell_length_b   4.81857200
_cell_length_c   12.44738900
_cell_angle_alpha   90.00000000
_cell_angle_beta   90.00000000
_cell_angle_gamma   90.00000000
_symmetry_Int_Tables_number   1
_chemical_formula_structural   AcTcH5
_chemical_formula_sum   'Ac4 Tc4 H20'
_cell_volume   291.64253881
_cell_formula_units_Z   4
loop_
 _symmetry_equiv_pos_site_id
 _symmetry_equiv_pos_as_xyz
  1  'x, y, z'
loop_
 _atom_site_type_symbol
 _atom_site_label
 _atom_site_symmetry_multiplicity
 _atom_site_fract_x
 _atom_site_fract_y
 _atom_site_fract_z
 _atom_site_occupancy
  Ac  Ac0  1  0.749732  0.750028  0.855643  1
  Ac  Ac1  1  0.249732  0.749972  0.144357  1
  Ac  Ac2  1  0.750268  0.249972  0.355643  1
  Ac  Ac3  1  0.250268  0.250028  0.644357  1
  Tc  Tc4  1  0.249756  0.216551  0.918559  1
  Tc  Tc5  1  0.749756  0.283449  0.081441  1
  Tc  Tc6  1  0.250244  0.783449  0.418559  1
  Tc  Tc7  1  0.750244  0.716551  0.581441  1
  H  H8  1  0.517367  0.039994  0.001920  1
  H  H9  1  0.017367  0.460006  0.998080  1
  H  H10  1  0.982633  0.960006  0.501920  1
  H  H11  1  0.482633  0.539994  0.498080  1
  H  H12  1  0.249598  0.922055  0.841672  1
  H  H13  1  0.749598  0.577945  0.158328  1
  H  H14  1  0.250402  0.077945  0.341672  1
  H  H15  1  0.750402  0.422055  0.658328  1
  H  H16  1  0.498058  0.213567  0.176164  1
  H  H17  1  0.998058  0.286433  0.823836  1
  H  H18  1  0.001942  0.786433  0.676164  1
  H  H19  1  0.501942  0.713567  0.323836  1
  H  H20  1  0.502052  0.285739  0.824002  1
  H  H21  1  0.002052  0.214261  0.175998  1
  H  H22  1  0.997948  0.714261  0.324002  1
  H  H23  1  0.497948  0.785739  0.675998  1
  H  H24  1  0.981966  0.040105  0.001856  1
  H  H25  1  0.481966  0.459895  0.998144  1
  H  H26  1  0.518034  0.959895  0.501856  1
  H  H27  1  0.018034  0.540105  0.498144  1
