# generated using pymatgen
data_Tb2Er3Sn3Pb
_symmetry_space_group_name_H-M   'P 1'
_cell_length_a   8.04944100
_cell_length_b   8.18718800
_cell_length_c   15.46795400
_cell_angle_alpha   90.00000000
_cell_angle_beta   90.00000000
_cell_angle_gamma   90.00000000
_symmetry_Int_Tables_number   1
_chemical_formula_structural   Tb2Er3Sn3Pb
_chemical_formula_sum   'Tb8 Er12 Sn12 Pb4'
_cell_volume   1019.37354013
_cell_formula_units_Z   4
loop_
 _symmetry_equiv_pos_site_id
 _symmetry_equiv_pos_as_xyz
  1  'x, y, z'
loop_
 _atom_site_type_symbol
 _atom_site_label
 _atom_site_symmetry_multiplicity
 _atom_site_fract_x
 _atom_site_fract_y
 _atom_site_fract_z
 _atom_site_occupancy
  Tb  Tb0  1  0.523259  0.319739  0.901746  1
  Tb  Tb1  1  0.023259  0.180261  0.598254  1
  Tb  Tb2  1  0.476741  0.680261  0.401746  1
  Tb  Tb3  1  0.976741  0.819739  0.098254  1
  Tb  Tb4  1  0.481532  0.678893  0.098486  1
  Tb  Tb5  1  0.981532  0.821107  0.401514  1
  Tb  Tb6  1  0.518468  0.321107  0.598486  1
  Tb  Tb7  1  0.018468  0.178893  0.901514  1
  Er  Er8  1  0.368586  0.837229  0.876275  1
  Er  Er9  1  0.868586  0.662771  0.623725  1
  Er  Er10  1  0.631414  0.162771  0.376275  1
  Er  Er11  1  0.131414  0.337229  0.123725  1
  Er  Er12  1  0.634192  0.163840  0.122687  1
  Er  Er13  1  0.134192  0.336160  0.377313  1
  Er  Er14  1  0.365808  0.836160  0.622687  1
  Er  Er15  1  0.865808  0.663840  0.877313  1
  Er  Er16  1  0.198005  0.503349  0.748960  1
  Er  Er17  1  0.698005  0.996651  0.751040  1
  Er  Er18  1  0.801995  0.496651  0.248960  1
  Er  Er19  1  0.301995  0.003349  0.251040  1
  Sn  Sn20  1  0.706500  0.962973  0.958262  1
  Sn  Sn21  1  0.206500  0.537027  0.541738  1
  Sn  Sn22  1  0.293500  0.037027  0.458262  1
  Sn  Sn23  1  0.793500  0.462973  0.041738  1
  Sn  Sn24  1  0.564232  0.620794  0.749993  1
  Sn  Sn25  1  0.064232  0.879206  0.750007  1
  Sn  Sn26  1  0.435768  0.379206  0.249993  1
  Sn  Sn27  1  0.935768  0.120794  0.250007  1
  Sn  Sn28  1  0.329444  0.147179  0.750169  1
  Sn  Sn29  1  0.829444  0.352821  0.749831  1
  Sn  Sn30  1  0.670556  0.852821  0.250169  1
  Sn  Sn31  1  0.170556  0.647179  0.249831  1
  Pb  Pb32  1  0.293263  0.037637  0.041189  1
  Pb  Pb33  1  0.793263  0.462363  0.458811  1
  Pb  Pb34  1  0.706737  0.962363  0.541189  1
  Pb  Pb35  1  0.206737  0.537637  0.958811  1
