# generated using pymatgen
data_La7PBr12
_symmetry_space_group_name_H-M   'P 1'
_cell_length_a   9.59994378
_cell_length_b   9.59994260
_cell_length_c   9.59994394
_cell_angle_alpha   107.57155990
_cell_angle_beta   107.57155518
_cell_angle_gamma   107.57155216
_symmetry_Int_Tables_number   1
_chemical_formula_structural   La7PBr12
_chemical_formula_sum   'La7 P1 Br12'
_cell_volume   725.00907553
_cell_formula_units_Z   1
loop_
 _symmetry_equiv_pos_site_id
 _symmetry_equiv_pos_as_xyz
  1  'x, y, z'
loop_
 _atom_site_type_symbol
 _atom_site_label
 _atom_site_symmetry_multiplicity
 _atom_site_fract_x
 _atom_site_fract_y
 _atom_site_fract_z
 _atom_site_occupancy
  La  La0  1  0.533967  0.609154  0.818973  1
  La  La1  1  0.818973  0.533967  0.609154  1
  La  La2  1  0.609154  0.818973  0.533967  1
  La  La3  1  0.471781  0.394925  0.179485  1
  La  La4  1  0.179485  0.471781  0.394925  1
  La  La5  1  0.394925  0.179485  0.471781  1
  La  La6  1  0.981712  0.981712  0.981712  1
  P  P7  1  0.496921  0.496921  0.496921  1
  Br  Br8  1  0.274098  0.812917  0.423936  1
  Br  Br9  1  0.423936  0.274098  0.812917  1
  Br  Br10  1  0.812917  0.423936  0.274098  1
  Br  Br11  1  0.726891  0.187000  0.574266  1
  Br  Br12  1  0.574266  0.726891  0.187000  1
  Br  Br13  1  0.187000  0.574266  0.726891  1
  Br  Br14  1  0.033988  0.112000  0.333012  1
  Br  Br15  1  0.333012  0.033988  0.112000  1
  Br  Br16  1  0.112000  0.333012  0.033988  1
  Br  Br17  1  0.970641  0.887608  0.652095  1
  Br  Br18  1  0.652095  0.970641  0.887608  1
  Br  Br19  1  0.887608  0.652095  0.970641  1
