# generated using pymatgen
data_Er12TlInFe2Os
_symmetry_space_group_name_H-M   'P 1'
_cell_length_a   8.30928471
_cell_length_b   8.30928451
_cell_length_c   8.30928551
_cell_angle_alpha   108.48086973
_cell_angle_beta   108.85184246
_cell_angle_gamma   111.09343541
_symmetry_Int_Tables_number   1
_chemical_formula_structural   Er12TlInFe2Os
_chemical_formula_sum   'Er12 Tl1 In1 Fe2 Os1'
_cell_volume   441.36979851
_cell_formula_units_Z   1
loop_
 _symmetry_equiv_pos_site_id
 _symmetry_equiv_pos_as_xyz
  1  'x, y, z'
loop_
 _atom_site_type_symbol
 _atom_site_label
 _atom_site_symmetry_multiplicity
 _atom_site_fract_x
 _atom_site_fract_y
 _atom_site_fract_z
 _atom_site_occupancy
  Er  Er0  1  0.308040  0.309482  0.617518  1
  Er  Er1  1  0.691960  0.690518  0.382482  1
  Er  Er2  1  0.308040  0.690518  0.998558  1
  Er  Er3  1  0.691960  0.309482  0.001442  1
  Er  Er4  1  0.430170  0.191741  0.238428  1
  Er  Er5  1  0.569830  0.808259  0.761572  1
  Er  Er6  1  0.953312  0.191741  0.761572  1
  Er  Er7  1  0.191122  0.954666  0.763544  1
  Er  Er8  1  0.046688  0.808259  0.238428  1
  Er  Er9  1  0.808878  0.045334  0.236456  1
  Er  Er10  1  0.191122  0.427579  0.236456  1
  Er  Er11  1  0.808878  0.572421  0.763544  1
  Tl  Tl12  1  0.500000  0.000000  0.500000  1
  In  In13  1  0.000000  0.500000  0.500000  1
  Fe  Fe14  1  0.385850  0.385850  0.000000  1
  Fe  Fe15  1  0.614150  0.614150  0.000000  1
  Os  Os16  1  0.000000  0.000000  0.000000  1
