# generated using pymatgen
data_Pr17Nd3Si15Pt
_symmetry_space_group_name_H-M   'P 1'
_cell_length_a   7.94951891
_cell_length_b   7.93717683
_cell_length_c   15.31164600
_cell_angle_alpha   89.96811518
_cell_angle_beta   89.73518284
_cell_angle_gamma   90.10193066
_symmetry_Int_Tables_number   1
_chemical_formula_structural   Pr17Nd3Si15Pt
_chemical_formula_sum   'Pr17 Nd3 Si15 Pt1'
_cell_volume   966.10290273
_cell_formula_units_Z   1
loop_
 _symmetry_equiv_pos_site_id
 _symmetry_equiv_pos_as_xyz
  1  'x, y, z'
loop_
 _atom_site_type_symbol
 _atom_site_label
 _atom_site_symmetry_multiplicity
 _atom_site_fract_x
 _atom_site_fract_y
 _atom_site_fract_z
 _atom_site_occupancy
  Pr  Pr0  1  0.692324  0.687978  0.499475  1
  Pr  Pr1  1  0.374819  0.010426  0.447779  1
  Pr  Pr2  1  0.490692  0.874517  0.698728  1
  Pr  Pr3  1  0.510142  0.123512  0.197788  1
  Pr  Pr4  1  0.876497  0.488894  0.300238  1
  Pr  Pr5  1  0.122809  0.511341  0.801489  1
  Pr  Pr6  1  0.625725  0.988556  0.949124  1
  Pr  Pr7  1  0.005031  0.375696  0.551339  1
  Pr  Pr8  1  0.989108  0.625166  0.052073  1
  Pr  Pr9  1  0.132980  0.986981  0.875620  1
  Pr  Pr10  1  0.516588  0.630268  0.126047  1
  Pr  Pr11  1  0.477270  0.365244  0.627650  1
  Pr  Pr12  1  0.627576  0.516657  0.874371  1
  Pr  Pr13  1  0.372459  0.483239  0.373049  1
  Pr  Pr14  1  0.872430  0.019668  0.375597  1
  Pr  Pr15  1  0.982642  0.126964  0.124591  1
  Pr  Pr16  1  0.021234  0.875265  0.623766  1
  Nd  Nd17  1  0.306490  0.306809  0.999468  1
  Nd  Nd18  1  0.190745  0.808848  0.249813  1
  Nd  Nd19  1  0.814316  0.187430  0.750394  1
  Si  Si20  1  0.332961  0.695336  0.951137  1
  Si  Si21  1  0.664477  0.303331  0.451290  1
  Si  Si22  1  0.697318  0.334748  0.049698  1
  Si  Si23  1  0.304913  0.668540  0.547796  1
  Si  Si24  1  0.805118  0.832486  0.202101  1
  Si  Si25  1  0.168009  0.196919  0.298360  1
  Si  Si26  1  0.834307  0.803406  0.798965  1
  Si  Si27  1  0.288384  0.922456  0.059491  1
  Si  Si28  1  0.578604  0.787539  0.309647  1
  Si  Si29  1  0.429641  0.208057  0.813008  1
  Si  Si30  1  0.785879  0.579585  0.690523  1
  Si  Si31  1  0.212504  0.422871  0.190039  1
  Si  Si32  1  0.706037  0.075129  0.558459  1
  Si  Si33  1  0.920682  0.288703  0.941568  1
  Si  Si34  1  0.079378  0.714345  0.440608  1
  Pt  Pt35  1  0.189913  0.173091  0.698911  1
