# generated using pymatgen
data_Rb(RhPb2)3
_symmetry_space_group_name_H-M   'P 1'
_cell_length_a   14.40627617
_cell_length_b   14.40627580
_cell_length_c   4.63338200
_cell_angle_alpha   90.00000000
_cell_angle_beta   90.00000000
_cell_angle_gamma   145.70700934
_symmetry_Int_Tables_number   1
_chemical_formula_structural   Rb(RhPb2)3
_chemical_formula_sum   'Rb2 Rh6 Pb12'
_cell_volume   541.79833775
_cell_formula_units_Z   2
loop_
 _symmetry_equiv_pos_site_id
 _symmetry_equiv_pos_as_xyz
  1  'x, y, z'
loop_
 _atom_site_type_symbol
 _atom_site_label
 _atom_site_symmetry_multiplicity
 _atom_site_fract_x
 _atom_site_fract_y
 _atom_site_fract_z
 _atom_site_occupancy
  Rb  Rb0  1  0.587053  0.412947  0.250000  1
  Rb  Rb1  1  0.412947  0.587053  0.750000  1
  Rh  Rh2  1  0.968669  0.405215  0.750000  1
  Rh  Rh3  1  0.963350  0.036650  0.750000  1
  Rh  Rh4  1  0.031331  0.594785  0.250000  1
  Rh  Rh5  1  0.036650  0.963350  0.250000  1
  Rh  Rh6  1  0.405215  0.968669  0.250000  1
  Rh  Rh7  1  0.594785  0.031331  0.750000  1
  Pb  Pb8  1  0.759206  0.855249  0.250000  1
  Pb  Pb9  1  0.855249  0.759206  0.750000  1
  Pb  Pb10  1  0.144751  0.240794  0.250000  1
  Pb  Pb11  1  0.524711  0.870984  0.250000  1
  Pb  Pb12  1  0.129016  0.475289  0.250000  1
  Pb  Pb13  1  0.870984  0.524711  0.750000  1
  Pb  Pb14  1  0.240794  0.144751  0.750000  1
  Pb  Pb15  1  0.748289  0.251711  0.250000  1
  Pb  Pb16  1  0.251711  0.748289  0.750000  1
  Pb  Pb17  1  0.135344  0.864656  0.250000  1
  Pb  Pb18  1  0.864656  0.135344  0.750000  1
  Pb  Pb19  1  0.475289  0.129016  0.750000  1
