# generated using pymatgen
data_Ba3AlSe4Br
_symmetry_space_group_name_H-M   'P 1'
_cell_length_a   8.93096200
_cell_length_b   10.04677800
_cell_length_c   12.94322200
_cell_angle_alpha   90.00000000
_cell_angle_beta   90.00000000
_cell_angle_gamma   90.00000000
_symmetry_Int_Tables_number   1
_chemical_formula_structural   Ba3AlSe4Br
_chemical_formula_sum   'Ba12 Al4 Se16 Br4'
_cell_volume   1161.36156113
_cell_formula_units_Z   4
loop_
 _symmetry_equiv_pos_site_id
 _symmetry_equiv_pos_as_xyz
  1  'x, y, z'
loop_
 _atom_site_type_symbol
 _atom_site_label
 _atom_site_symmetry_multiplicity
 _atom_site_fract_x
 _atom_site_fract_y
 _atom_site_fract_z
 _atom_site_occupancy
  Ba  Ba0  1  0.416432  0.750000  0.480642  1
  Ba  Ba1  1  0.083568  0.750000  0.980642  1
  Ba  Ba2  1  0.583568  0.250000  0.519358  1
  Ba  Ba3  1  0.916432  0.250000  0.019358  1
  Ba  Ba4  1  0.914174  0.519338  0.333180  1
  Ba  Ba5  1  0.585826  0.980662  0.833180  1
  Ba  Ba6  1  0.085826  0.019338  0.666820  1
  Ba  Ba7  1  0.414174  0.480662  0.166820  1
  Ba  Ba8  1  0.085826  0.480662  0.666820  1
  Ba  Ba9  1  0.414174  0.019338  0.166820  1
  Ba  Ba10  1  0.914174  0.980662  0.333180  1
  Ba  Ba11  1  0.585826  0.519338  0.833180  1
  Al  Al12  1  0.687346  0.750000  0.106007  1
  Al  Al13  1  0.812654  0.750000  0.606007  1
  Al  Al14  1  0.312654  0.250000  0.893993  1
  Al  Al15  1  0.187346  0.250000  0.393993  1
  Se  Se16  1  0.813023  0.548239  0.071943  1
  Se  Se17  1  0.686977  0.951761  0.571943  1
  Se  Se18  1  0.186977  0.048239  0.928057  1
  Se  Se19  1  0.313023  0.451761  0.428057  1
  Se  Se20  1  0.186977  0.451761  0.928057  1
  Se  Se21  1  0.313023  0.048239  0.428057  1
  Se  Se22  1  0.813023  0.951761  0.071943  1
  Se  Se23  1  0.686977  0.548239  0.571943  1
  Se  Se24  1  0.639744  0.750000  0.287422  1
  Se  Se25  1  0.860256  0.750000  0.787422  1
  Se  Se26  1  0.360256  0.250000  0.712578  1
  Se  Se27  1  0.139744  0.250000  0.212578  1
  Se  Se28  1  0.462435  0.750000  0.005484  1
  Se  Se29  1  0.037565  0.750000  0.505484  1
  Se  Se30  1  0.537565  0.250000  0.994516  1
  Se  Se31  1  0.962435  0.250000  0.494516  1
  Br  Br32  1  0.168185  0.750000  0.229009  1
  Br  Br33  1  0.331815  0.750000  0.729009  1
  Br  Br34  1  0.831815  0.250000  0.770991  1
  Br  Br35  1  0.668185  0.250000  0.270991  1
