# generated using pymatgen
data_YbTh3(Al3Rh)6
_symmetry_space_group_name_H-M   'P 1'
_cell_length_a   7.64250500
_cell_length_b   7.64806587
_cell_length_c   9.52617800
_cell_angle_alpha   90.00000000
_cell_angle_beta   90.00000000
_cell_angle_gamma   119.50413317
_symmetry_Int_Tables_number   1
_chemical_formula_structural   YbTh3(Al3Rh)6
_chemical_formula_sum   'Yb1 Th3 Al18 Rh6'
_cell_volume   484.60187793
_cell_formula_units_Z   1
loop_
 _symmetry_equiv_pos_site_id
 _symmetry_equiv_pos_as_xyz
  1  'x, y, z'
loop_
 _atom_site_type_symbol
 _atom_site_label
 _atom_site_symmetry_multiplicity
 _atom_site_fract_x
 _atom_site_fract_y
 _atom_site_fract_z
 _atom_site_occupancy
  Yb  Yb0  1  0.328441  0.005582  0.250000  1
  Th  Th1  1  0.995342  0.672087  0.750000  1
  Th  Th2  1  0.004939  0.329187  0.250000  1
  Th  Th3  1  0.669368  0.994082  0.750000  1
  Al  Al4  1  0.134524  0.132100  0.750000  1
  Al  Al5  1  0.870023  0.870152  0.250000  1
  Al  Al6  1  0.006162  0.335591  0.575142  1
  Al  Al7  1  0.000459  0.669863  0.421014  1
  Al  Al8  1  0.000459  0.669863  0.078986  1
  Al  Al9  1  0.335294  0.004785  0.931708  1
  Al  Al10  1  0.006162  0.335591  0.924858  1
  Al  Al11  1  0.659079  0.995348  0.078979  1
  Al  Al12  1  0.659079  0.995348  0.421021  1
  Al  Al13  1  0.335294  0.004785  0.568292  1
  Al  Al14  1  0.336085  0.332478  0.052558  1
  Al  Al15  1  0.663717  0.663351  0.956447  1
  Al  Al16  1  0.663717  0.663351  0.543553  1
  Al  Al17  1  0.336085  0.332478  0.447442  1
  Al  Al18  1  0.341019  0.544156  0.750000  1
  Al  Al19  1  0.658413  0.450960  0.250000  1
  Al  Al20  1  0.544088  0.338120  0.750000  1
  Al  Al21  1  0.451994  0.659678  0.250000  1
  Rh  Rh22  1  0.674754  0.329092  0.500851  1
  Rh  Rh23  1  0.328019  0.671892  0.501433  1
  Rh  Rh24  1  0.328019  0.671892  0.998567  1
  Rh  Rh25  1  0.674754  0.329092  0.999149  1
  Rh  Rh26  1  0.997357  0.999548  0.501001  1
  Rh  Rh27  1  0.997357  0.999548  0.998999  1
