# generated using pymatgen
data_PrGd3(AuCl6)4
_symmetry_space_group_name_H-M   'P 1'
_cell_length_a   7.66415719
_cell_length_b   9.99283769
_cell_length_c   14.17606400
_cell_angle_alpha   103.54828261
_cell_angle_beta   96.85826399
_cell_angle_gamma   112.10740195
_symmetry_Int_Tables_number   1
_chemical_formula_structural   PrGd3(AuCl6)4
_chemical_formula_sum   'Pr1 Gd3 Au4 Cl24'
_cell_volume   951.56285130
_cell_formula_units_Z   1
loop_
 _symmetry_equiv_pos_site_id
 _symmetry_equiv_pos_as_xyz
  1  'x, y, z'
loop_
 _atom_site_type_symbol
 _atom_site_label
 _atom_site_symmetry_multiplicity
 _atom_site_fract_x
 _atom_site_fract_y
 _atom_site_fract_z
 _atom_site_occupancy
  Pr  Pr0  1  0.973273  0.313033  0.871808  1
  Gd  Gd1  1  0.577929  0.924256  0.620096  1
  Gd  Gd2  1  0.028845  0.688199  0.130082  1
  Gd  Gd3  1  0.420256  0.074687  0.378188  1
  Au  Au4  1  0.294930  0.634644  0.762806  1
  Au  Au5  1  0.499401  0.499257  0.499574  1
  Au  Au6  1  0.706568  0.367183  0.236413  1
  Au  Au7  1  0.000066  0.998681  0.001409  1
  Cl  Cl8  1  0.772713  0.094868  0.972323  1
  Cl  Cl9  1  0.721797  0.151323  0.263052  1
  Cl  Cl10  1  0.279248  0.850382  0.736861  1
  Cl  Cl11  1  0.768409  0.790670  0.028619  1
  Cl  Cl12  1  0.607438  0.187541  0.740798  1
  Cl  Cl13  1  0.313546  0.415883  0.784027  1
  Cl  Cl14  1  0.693114  0.587388  0.215365  1
  Cl  Cl15  1  0.300635  0.626819  0.500023  1
  Cl  Cl16  1  0.234807  0.205672  0.973818  1
  Cl  Cl17  1  0.758776  0.729747  0.523950  1
  Cl  Cl18  1  0.223334  0.899406  0.030540  1
  Cl  Cl19  1  0.725598  0.048862  0.483407  1
  Cl  Cl20  1  0.611920  0.731873  0.746150  1
  Cl  Cl21  1  0.947772  0.052415  0.726919  1
  Cl  Cl22  1  0.239989  0.268450  0.474987  1
  Cl  Cl23  1  0.385517  0.810538  0.257359  1
  Cl  Cl24  1  0.974964  0.542670  0.776367  1
  Cl  Cl25  1  0.760034  0.440222  0.980938  1
  Cl  Cl26  1  0.243174  0.570507  0.025764  1
  Cl  Cl27  1  0.025176  0.461769  0.221186  1
  Cl  Cl28  1  0.389728  0.269592  0.253933  1
  Cl  Cl29  1  0.272152  0.949817  0.514794  1
  Cl  Cl30  1  0.698191  0.371937  0.499430  1
  Cl  Cl31  1  0.050698  0.941708  0.269015  1
