# generated using pymatgen
data_Ti2AlPdRh4
_symmetry_space_group_name_H-M   'P 1'
_cell_length_a   4.06177200
_cell_length_b   5.39395932
_cell_length_c   10.57803019
_cell_angle_alpha   91.22602683
_cell_angle_beta   90.00000000
_cell_angle_gamma   90.00000000
_symmetry_Int_Tables_number   1
_chemical_formula_structural   Ti2AlPdRh4
_chemical_formula_sum   'Ti4 Al2 Pd2 Rh8'
_cell_volume   231.70135559
_cell_formula_units_Z   2
loop_
 _symmetry_equiv_pos_site_id
 _symmetry_equiv_pos_as_xyz
  1  'x, y, z'
loop_
 _atom_site_type_symbol
 _atom_site_label
 _atom_site_symmetry_multiplicity
 _atom_site_fract_x
 _atom_site_fract_y
 _atom_site_fract_z
 _atom_site_occupancy
  Ti  Ti0  1  0.500000  0.338459  0.138855  1
  Ti  Ti1  1  0.500000  0.661541  0.861145  1
  Ti  Ti2  1  0.500000  0.820229  0.363754  1
  Ti  Ti3  1  0.500000  0.179771  0.636246  1
  Al  Al4  1  0.000000  0.000000  0.000000  1
  Al  Al5  1  0.000000  0.500000  0.500000  1
  Pd  Pd6  1  0.000000  0.080631  0.241913  1
  Pd  Pd7  1  0.000000  0.919369  0.758087  1
  Rh  Rh8  1  0.000000  0.000000  0.500000  1
  Rh  Rh9  1  0.000000  0.500000  0.000000  1
  Rh  Rh10  1  0.000000  0.583027  0.258101  1
  Rh  Rh11  1  0.000000  0.416973  0.741899  1
  Rh  Rh12  1  0.500000  0.309335  0.389276  1
  Rh  Rh13  1  0.500000  0.690665  0.610724  1
  Rh  Rh14  1  0.500000  0.812939  0.108188  1
  Rh  Rh15  1  0.500000  0.187061  0.891812  1
