# generated using pymatgen
data_LiCaPr3(FeO4)3
_symmetry_space_group_name_H-M   'P 1'
_cell_length_a   5.44734057
_cell_length_b   5.59535173
_cell_length_c   7.78897748
_cell_angle_alpha   89.33441932
_cell_angle_beta   90.06169795
_cell_angle_gamma   90.40450078
_symmetry_Int_Tables_number   1
_chemical_formula_structural   LiCaPr3(FeO4)3
_chemical_formula_sum   'Li1 Ca1 Pr3 Fe3 O12'
_cell_volume   237.38431925
_cell_formula_units_Z   1
loop_
 _symmetry_equiv_pos_site_id
 _symmetry_equiv_pos_as_xyz
  1  'x, y, z'
loop_
 _atom_site_type_symbol
 _atom_site_label
 _atom_site_symmetry_multiplicity
 _atom_site_fract_x
 _atom_site_fract_y
 _atom_site_fract_z
 _atom_site_occupancy
  Li  Li0  1  0.998537  0.504832  0.506087  1
  Ca  Ca1  1  0.016268  0.943337  0.737938  1
  Pr  Pr2  1  0.506563  0.546483  0.258297  1
  Pr  Pr3  1  0.491117  0.453647  0.740745  1
  Pr  Pr4  1  0.984127  0.054487  0.261131  1
  Fe  Fe5  1  0.499774  0.998207  0.504356  1
  Fe  Fe6  1  0.498466  0.999008  0.996185  1
  Fe  Fe7  1  0.999463  0.502921  0.996768  1
  O  O8  1  0.699733  0.274538  0.462699  1
  O  O9  1  0.228853  0.196013  0.537053  1
  O  O10  1  0.774020  0.794713  0.053588  1
  O  O11  1  0.288041  0.698763  0.957780  1
  O  O12  1  0.302607  0.722182  0.532725  1
  O  O13  1  0.769005  0.799024  0.461602  1
  O  O14  1  0.221753  0.200744  0.948641  1
  O  O15  1  0.718091  0.296212  0.045504  1
  O  O16  1  0.070655  0.486163  0.234767  1
  O  O17  1  0.590420  0.015606  0.759818  1
  O  O18  1  0.417525  0.989991  0.238696  1
  O  O19  1  0.924982  0.523131  0.765619  1
