# generated using pymatgen
data_Sm4TiTc3B16
_symmetry_space_group_name_H-M   'P 1'
_cell_length_a   3.64703800
_cell_length_b   6.04648676
_cell_length_c   11.69324012
_cell_angle_alpha   89.91267689
_cell_angle_beta   90.00000000
_cell_angle_gamma   90.00000000
_symmetry_Int_Tables_number   1
_chemical_formula_structural   Sm4TiTc3B16
_chemical_formula_sum   'Sm4 Ti1 Tc3 B16'
_cell_volume   257.85630681
_cell_formula_units_Z   1
loop_
 _symmetry_equiv_pos_site_id
 _symmetry_equiv_pos_as_xyz
  1  'x, y, z'
loop_
 _atom_site_type_symbol
 _atom_site_label
 _atom_site_symmetry_multiplicity
 _atom_site_fract_x
 _atom_site_fract_y
 _atom_site_fract_z
 _atom_site_occupancy
  Sm  Sm0  1  0.000000  0.376654  0.650424  1
  Sm  Sm1  1  0.000000  0.624305  0.350699  1
  Sm  Sm2  1  0.000000  0.873368  0.848033  1
  Sm  Sm3  1  0.000000  0.126223  0.151173  1
  Ti  Ti4  1  0.000000  0.127764  0.416882  1
  Tc  Tc5  1  0.000000  0.368607  0.915380  1
  Tc  Tc6  1  0.000000  0.632497  0.082989  1
  Tc  Tc7  1  0.000000  0.872515  0.585556  1
  B  B8  1  0.500000  0.023334  0.690932  1
  B  B9  1  0.500000  0.974294  0.307587  1
  B  B10  1  0.500000  0.523757  0.809244  1
  B  B11  1  0.500000  0.476137  0.191142  1
  B  B12  1  0.500000  0.387645  0.046577  1
  B  B13  1  0.500000  0.611254  0.953358  1
  B  B14  1  0.500000  0.885337  0.455103  1
  B  B15  1  0.500000  0.111023  0.547226  1
  B  B16  1  0.500000  0.286805  0.313345  1
  B  B17  1  0.500000  0.716850  0.683856  1
  B  B18  1  0.500000  0.781809  0.184234  1
  B  B19  1  0.500000  0.218028  0.815402  1
  B  B20  1  0.500000  0.364601  0.467980  1
  B  B21  1  0.500000  0.637806  0.532929  1
  B  B22  1  0.500000  0.861472  0.031889  1
  B  B23  1  0.500000  0.137917  0.968059  1
