# generated using pymatgen
data_DyY2Co8MoP6
_symmetry_space_group_name_H-M   'P 1'
_cell_length_a   3.72554600
_cell_length_b   10.56958600
_cell_length_c   12.26536500
_cell_angle_alpha   90.00000000
_cell_angle_beta   90.00000000
_cell_angle_gamma   90.00000000
_symmetry_Int_Tables_number   1
_chemical_formula_structural   DyY2Co8MoP6
_chemical_formula_sum   'Dy2 Y4 Co16 Mo2 P12'
_cell_volume   482.97915080
_cell_formula_units_Z   2
loop_
 _symmetry_equiv_pos_site_id
 _symmetry_equiv_pos_as_xyz
  1  'x, y, z'
loop_
 _atom_site_type_symbol
 _atom_site_label
 _atom_site_symmetry_multiplicity
 _atom_site_fract_x
 _atom_site_fract_y
 _atom_site_fract_z
 _atom_site_occupancy
  Dy  Dy0  1  0.000000  0.681130  0.795036  1
  Dy  Dy1  1  0.000000  0.318870  0.795036  1
  Y  Y2  1  0.000000  0.500000  0.524302  1
  Y  Y3  1  0.500000  0.000000  0.475733  1
  Y  Y4  1  0.500000  0.818777  0.204953  1
  Y  Y5  1  0.500000  0.181223  0.204953  1
  Co  Co6  1  0.500000  0.500000  0.701770  1
  Co  Co7  1  0.000000  0.000000  0.298476  1
  Co  Co8  1  0.000000  0.500000  0.986375  1
  Co  Co9  1  0.500000  0.000000  0.013320  1
  Co  Co10  1  0.500000  0.332502  0.990125  1
  Co  Co11  1  0.500000  0.667498  0.990125  1
  Co  Co12  1  0.000000  0.167636  0.009587  1
  Co  Co13  1  0.000000  0.832364  0.009587  1
  Co  Co14  1  0.500000  0.295869  0.431505  1
  Co  Co15  1  0.500000  0.704131  0.431505  1
  Co  Co16  1  0.000000  0.204259  0.568710  1
  Co  Co17  1  0.000000  0.795741  0.568710  1
  Co  Co18  1  0.500000  0.878290  0.706946  1
  Co  Co19  1  0.500000  0.121710  0.706946  1
  Co  Co20  1  0.000000  0.621554  0.293206  1
  Co  Co21  1  0.000000  0.378446  0.293206  1
  Mo  Mo22  1  0.500000  0.500000  0.156064  1
  Mo  Mo23  1  0.000000  0.000000  0.843822  1
  P  P24  1  0.500000  0.500000  0.881227  1
  P  P25  1  0.000000  0.000000  0.118660  1
  P  P26  1  0.500000  0.500000  0.348841  1
  P  P27  1  0.000000  0.000000  0.651167  1
  P  P28  1  0.500000  0.310870  0.616028  1
  P  P29  1  0.500000  0.689130  0.616028  1
  P  P30  1  0.000000  0.189110  0.384218  1
  P  P31  1  0.000000  0.810890  0.384218  1
  P  P32  1  0.500000  0.844831  0.893133  1
  P  P33  1  0.500000  0.155169  0.893133  1
  P  P34  1  0.000000  0.654977  0.106675  1
  P  P35  1  0.000000  0.345023  0.106675  1
