# generated using pymatgen
data_NaSr3(InAu)4
_symmetry_space_group_name_H-M   'P 1'
_cell_length_a   4.70971100
_cell_length_b   7.79953526
_cell_length_c   8.64415354
_cell_angle_alpha   89.07904545
_cell_angle_beta   90.00000000
_cell_angle_gamma   90.00000000
_symmetry_Int_Tables_number   1
_chemical_formula_structural   NaSr3(InAu)4
_chemical_formula_sum   'Na1 Sr3 In4 Au4'
_cell_volume   317.48948892
_cell_formula_units_Z   1
loop_
 _symmetry_equiv_pos_site_id
 _symmetry_equiv_pos_as_xyz
  1  'x, y, z'
loop_
 _atom_site_type_symbol
 _atom_site_label
 _atom_site_symmetry_multiplicity
 _atom_site_fract_x
 _atom_site_fract_y
 _atom_site_fract_z
 _atom_site_occupancy
  Na  Na0  1  0.750000  0.978736  0.685267  1
  Sr  Sr1  1  0.250000  0.022281  0.324997  1
  Sr  Sr2  1  0.750000  0.476328  0.813534  1
  Sr  Sr3  1  0.250000  0.523789  0.184824  1
  In  In4  1  0.750000  0.339673  0.434439  1
  In  In5  1  0.250000  0.148151  0.925957  1
  In  In6  1  0.250000  0.662948  0.570182  1
  In  In7  1  0.750000  0.849106  0.061305  1
  Au  Au8  1  0.250000  0.778817  0.880918  1
  Au  Au9  1  0.250000  0.281673  0.616117  1
  Au  Au10  1  0.750000  0.719400  0.384597  1
  Au  Au11  1  0.750000  0.219098  0.117861  1
