# generated using pymatgen
data_AcP12OsRu3
_symmetry_space_group_name_H-M   'P 1'
_cell_length_a   7.05403651
_cell_length_b   7.05403551
_cell_length_c   7.05634100
_cell_angle_alpha   109.47783573
_cell_angle_beta   109.47783284
_cell_angle_gamma   109.46460237
_symmetry_Int_Tables_number   1
_chemical_formula_structural   AcP12OsRu3
_chemical_formula_sum   'Ac1 P12 Os1 Ru3'
_cell_volume   270.26983713
_cell_formula_units_Z   1
loop_
 _symmetry_equiv_pos_site_id
 _symmetry_equiv_pos_as_xyz
  1  'x, y, z'
loop_
 _atom_site_type_symbol
 _atom_site_label
 _atom_site_symmetry_multiplicity
 _atom_site_fract_x
 _atom_site_fract_y
 _atom_site_fract_z
 _atom_site_occupancy
  Ac  Ac0  1  0.000000  0.000000  0.000000  1
  P  P1  1  0.855629  0.640663  0.496725  1
  P  P2  1  0.144371  0.359337  0.503275  1
  P  P3  1  0.144377  0.641070  0.785389  1
  P  P4  1  0.855623  0.358930  0.214611  1
  P  P5  1  0.641070  0.496693  0.855681  1
  P  P6  1  0.358930  0.503307  0.144319  1
  P  P7  1  0.640663  0.785035  0.143939  1
  P  P8  1  0.359337  0.214965  0.856061  1
  P  P9  1  0.496693  0.855623  0.641012  1
  P  P10  1  0.503307  0.144377  0.358988  1
  P  P11  1  0.214965  0.855629  0.358905  1
  P  P12  1  0.785035  0.144371  0.641095  1
  Os  Os13  1  0.000000  0.000000  0.500000  1
  Ru  Ru14  1  0.500000  0.500000  0.500000  1
  Ru  Ru15  1  0.500000  0.000000  0.000000  1
  Ru  Ru16  1  0.000000  0.500000  0.000000  1
