# generated using pymatgen
data_TbDy7(Si4Mo3)4
_symmetry_space_group_name_H-M   'P 1'
_cell_length_a   6.77574012
_cell_length_b   6.95331275
_cell_length_c   12.93129780
_cell_angle_alpha   89.99843255
_cell_angle_beta   90.00223208
_cell_angle_gamma   89.99415530
_symmetry_Int_Tables_number   1
_chemical_formula_structural   TbDy7(Si4Mo3)4
_chemical_formula_sum   'Tb1 Dy7 Si16 Mo12'
_cell_volume   609.24309340
_cell_formula_units_Z   1
loop_
 _symmetry_equiv_pos_site_id
 _symmetry_equiv_pos_as_xyz
  1  'x, y, z'
loop_
 _atom_site_type_symbol
 _atom_site_label
 _atom_site_symmetry_multiplicity
 _atom_site_fract_x
 _atom_site_fract_y
 _atom_site_fract_z
 _atom_site_occupancy
  Tb  Tb0  1  0.997116  0.166849  0.093799  1
  Dy  Dy1  1  0.497173  0.333008  0.094069  1
  Dy  Dy2  1  0.997251  0.167092  0.405938  1
  Dy  Dy3  1  0.502870  0.667043  0.594131  1
  Dy  Dy4  1  0.002655  0.832747  0.906029  1
  Dy  Dy5  1  0.502673  0.667239  0.906091  1
  Dy  Dy6  1  0.002669  0.832883  0.594133  1
  Dy  Dy7  1  0.497161  0.332935  0.405691  1
  Si  Si8  1  0.658632  0.042163  0.547549  1
  Si  Si9  1  0.158937  0.457998  0.952500  1
  Si  Si10  1  0.341423  0.957882  0.047525  1
  Si  Si11  1  0.841276  0.542193  0.452327  1
  Si  Si12  1  0.341392  0.957735  0.452291  1
  Si  Si13  1  0.841163  0.542250  0.047580  1
  Si  Si14  1  0.658396  0.042046  0.952531  1
  Si  Si15  1  0.158722  0.457978  0.547538  1
  Si  Si16  1  0.534910  0.365463  0.750194  1
  Si  Si17  1  0.035002  0.134326  0.750092  1
  Si  Si18  1  0.465149  0.634647  0.249809  1
  Si  Si19  1  0.965132  0.865592  0.249963  1
  Si  Si20  1  0.802783  0.628535  0.750176  1
  Si  Si21  1  0.302794  0.871309  0.750131  1
  Si  Si22  1  0.197240  0.371545  0.250028  1
  Si  Si23  1  0.697112  0.128615  0.250017  1
  Mo  Mo24  1  0.830752  0.334713  0.625386  1
  Mo  Mo25  1  0.330570  0.165206  0.874699  1
  Mo  Mo26  1  0.169422  0.665304  0.125326  1
  Mo  Mo27  1  0.669560  0.834837  0.374520  1
  Mo  Mo28  1  0.169278  0.665359  0.374469  1
  Mo  Mo29  1  0.669319  0.834677  0.125333  1
  Mo  Mo30  1  0.830675  0.334549  0.874639  1
  Mo  Mo31  1  0.330586  0.165170  0.625400  1
  Mo  Mo32  1  0.665811  0.999404  0.750100  1
  Mo  Mo33  1  0.165870  0.500512  0.750105  1
  Mo  Mo34  1  0.334412  0.000579  0.249940  1
  Mo  Mo35  1  0.834117  0.499615  0.249951  1
