# generated using pymatgen
data_YbNb2F12
_symmetry_space_group_name_H-M   'P 1'
_cell_length_a   5.43669442
_cell_length_b   5.89405988
_cell_length_c   9.47822123
_cell_angle_alpha   105.10649377
_cell_angle_beta   90.41411749
_cell_angle_gamma   118.81301867
_symmetry_Int_Tables_number   1
_chemical_formula_structural   YbNb2F12
_chemical_formula_sum   'Yb1 Nb2 F12'
_cell_volume   253.73682035
_cell_formula_units_Z   1
loop_
 _symmetry_equiv_pos_site_id
 _symmetry_equiv_pos_as_xyz
  1  'x, y, z'
loop_
 _atom_site_type_symbol
 _atom_site_label
 _atom_site_symmetry_multiplicity
 _atom_site_fract_x
 _atom_site_fract_y
 _atom_site_fract_z
 _atom_site_occupancy
  Yb  Yb0  1  0.000000  0.000000  0.000000  1
  Nb  Nb1  1  0.777921  0.509736  0.266049  1
  Nb  Nb2  1  0.222079  0.490264  0.733951  1
  F  F3  1  0.823913  0.263822  0.703821  1
  F  F4  1  0.176087  0.736178  0.296179  1
  F  F5  1  0.185895  0.735080  0.916973  1
  F  F6  1  0.705183  0.718623  0.428420  1
  F  F7  1  0.294817  0.281377  0.571580  1
  F  F8  1  0.784273  0.273061  0.365195  1
  F  F9  1  0.215727  0.726939  0.634805  1
  F  F10  1  0.362367  0.270716  0.187830  1
  F  F11  1  0.637633  0.729284  0.812170  1
  F  F12  1  0.765285  0.720469  0.132969  1
  F  F13  1  0.234715  0.279531  0.867031  1
  F  F14  1  0.814105  0.264920  0.083027  1
