# generated using pymatgen
data_Ba5CaGd2Fe4O15
_symmetry_space_group_name_H-M   'P 1'
_cell_length_a   11.77889523
_cell_length_b   11.77889492
_cell_length_c   7.03569702
_cell_angle_alpha   89.89653773
_cell_angle_beta   89.89653529
_cell_angle_gamma   119.93766969
_symmetry_Int_Tables_number   1
_chemical_formula_structural   Ba5CaGd2Fe4O15
_chemical_formula_sum   'Ba10 Ca2 Gd4 Fe8 O30'
_cell_volume   845.89502281
_cell_formula_units_Z   2
loop_
 _symmetry_equiv_pos_site_id
 _symmetry_equiv_pos_as_xyz
  1  'x, y, z'
loop_
 _atom_site_type_symbol
 _atom_site_label
 _atom_site_symmetry_multiplicity
 _atom_site_fract_x
 _atom_site_fract_y
 _atom_site_fract_z
 _atom_site_occupancy
  Ba  Ba0  1  0.000376  0.000648  0.496737  1
  Ba  Ba1  1  0.000648  0.000376  0.996737  1
  Ba  Ba2  1  0.333953  0.669814  0.014055  1
  Ba  Ba3  1  0.669814  0.333953  0.514055  1
  Ba  Ba4  1  0.829246  0.652079  0.834579  1
  Ba  Ba5  1  0.347518  0.171414  0.840089  1
  Ba  Ba6  1  0.825979  0.175319  0.837868  1
  Ba  Ba7  1  0.171414  0.347518  0.340089  1
  Ba  Ba8  1  0.652079  0.829246  0.334579  1
  Ba  Ba9  1  0.175319  0.825979  0.337868  1
  Ca  Ca10  1  0.518717  0.038242  0.154891  1
  Ca  Ca11  1  0.038242  0.518717  0.654891  1
  Gd  Gd12  1  0.960644  0.480152  0.161659  1
  Gd  Gd13  1  0.519860  0.479392  0.157657  1
  Gd  Gd14  1  0.480152  0.960644  0.661659  1
  Gd  Gd15  1  0.479392  0.519860  0.657657  1
  Fe  Fe16  1  0.665775  0.331956  0.976169  1
  Fe  Fe17  1  0.331956  0.665775  0.476169  1
  Fe  Fe18  1  0.178743  0.817855  0.839322  1
  Fe  Fe19  1  0.179939  0.361041  0.842346  1
  Fe  Fe20  1  0.641198  0.819518  0.837909  1
  Fe  Fe21  1  0.817855  0.178743  0.339322  1
  Fe  Fe22  1  0.819518  0.641198  0.337909  1
  Fe  Fe23  1  0.361041  0.179939  0.342346  1
  O  O24  1  0.935811  0.333454  0.468429  1
  O  O25  1  0.663585  0.600632  0.474803  1
  O  O26  1  0.395754  0.064941  0.487643  1
  O  O27  1  0.934610  0.599795  0.464996  1
  O  O28  1  0.668921  0.064062  0.488424  1
  O  O29  1  0.398053  0.335251  0.476816  1
  O  O30  1  0.064062  0.668921  0.988424  1
  O  O31  1  0.335251  0.398053  0.976816  1
  O  O32  1  0.599795  0.934610  0.964996  1
  O  O33  1  0.064941  0.395754  0.987643  1
  O  O34  1  0.333454  0.935811  0.968429  1
  O  O35  1  0.600632  0.663585  0.974803  1
  O  O36  1  0.419488  0.579859  0.331602  1
  O  O37  1  0.418674  0.835135  0.338367  1
  O  O38  1  0.166716  0.582114  0.326366  1
  O  O39  1  0.579859  0.419488  0.831602  1
  O  O40  1  0.582114  0.166716  0.826366  1
  O  O41  1  0.835135  0.418674  0.838367  1
  O  O42  1  0.751376  0.254760  0.161203  1
  O  O43  1  0.746098  0.501392  0.156722  1
  O  O44  1  0.500500  0.257077  0.160651  1
  O  O45  1  0.254760  0.751376  0.661203  1
  O  O46  1  0.257077  0.500500  0.660651  1
  O  O47  1  0.501392  0.746098  0.656722  1
  O  O48  1  0.097384  0.196141  0.732547  1
  O  O49  1  0.807431  0.900256  0.732414  1
  O  O50  1  0.093241  0.897951  0.730219  1
  O  O51  1  0.900256  0.807431  0.232414  1
  O  O52  1  0.196141  0.097384  0.232547  1
  O  O53  1  0.897951  0.093241  0.230219  1
