# generated using pymatgen
data_Sm8Y11ScSn16
_symmetry_space_group_name_H-M   'P 1'
_cell_length_a   8.05035105
_cell_length_b   8.24108005
_cell_length_c   15.56709200
_cell_angle_alpha   90.00000000
_cell_angle_beta   90.00000000
_cell_angle_gamma   89.98757816
_symmetry_Int_Tables_number   1
_chemical_formula_structural   Sm8Y11ScSn16
_chemical_formula_sum   'Sm8 Y11 Sc1 Sn16'
_cell_volume   1032.77670437
_cell_formula_units_Z   1
loop_
 _symmetry_equiv_pos_site_id
 _symmetry_equiv_pos_as_xyz
  1  'x, y, z'
loop_
 _atom_site_type_symbol
 _atom_site_label
 _atom_site_symmetry_multiplicity
 _atom_site_fract_x
 _atom_site_fract_y
 _atom_site_fract_z
 _atom_site_occupancy
  Sm  Sm0  1  0.514280  0.322093  0.903862  1
  Sm  Sm1  1  0.014089  0.177975  0.595882  1
  Sm  Sm2  1  0.484783  0.679019  0.403144  1
  Sm  Sm3  1  0.986358  0.822962  0.096938  1
  Sm  Sm4  1  0.484783  0.679019  0.096856  1
  Sm  Sm5  1  0.986358  0.822962  0.403062  1
  Sm  Sm6  1  0.514280  0.322093  0.596138  1
  Sm  Sm7  1  0.014089  0.177975  0.904118  1
  Y  Y8  1  0.358543  0.836332  0.877431  1
  Y  Y9  1  0.858295  0.663711  0.623098  1
  Y  Y10  1  0.640707  0.162547  0.375951  1
  Y  Y11  1  0.142263  0.335793  0.123949  1
  Y  Y12  1  0.640707  0.162547  0.124049  1
  Y  Y13  1  0.142263  0.335793  0.376051  1
  Y  Y14  1  0.358543  0.836332  0.622569  1
  Y  Y15  1  0.858295  0.663711  0.876902  1
  Y  Y16  1  0.192227  0.501452  0.750000  1
  Y  Y17  1  0.692168  0.998527  0.750000  1
  Y  Y18  1  0.808368  0.499066  0.250000  1
  Sc  Sc19  1  0.307308  0.002334  0.250000  1
  Sn  Sn20  1  0.302934  0.038362  0.043954  1
  Sn  Sn21  1  0.803126  0.460134  0.458224  1
  Sn  Sn22  1  0.696685  0.960388  0.541236  1
  Sn  Sn23  1  0.196571  0.539452  0.958791  1
  Sn  Sn24  1  0.696685  0.960388  0.958764  1
  Sn  Sn25  1  0.196571  0.539452  0.541209  1
  Sn  Sn26  1  0.302934  0.038362  0.456046  1
  Sn  Sn27  1  0.803126  0.460134  0.041776  1
  Sn  Sn28  1  0.557429  0.620901  0.750000  1
  Sn  Sn29  1  0.057785  0.879146  0.750000  1
  Sn  Sn30  1  0.441734  0.376664  0.250000  1
  Sn  Sn31  1  0.947973  0.117430  0.250000  1
  Sn  Sn32  1  0.323348  0.145565  0.750000  1
  Sn  Sn33  1  0.823700  0.353894  0.750000  1
  Sn  Sn34  1  0.672037  0.855471  0.250000  1
  Sn  Sn35  1  0.178655  0.652015  0.250000  1
