# generated using pymatgen
data_MnFeB2(PbO4)2
_symmetry_space_group_name_H-M   'P 1'
_cell_length_a   6.10045533
_cell_length_b   7.19652400
_cell_length_c   8.44945848
_cell_angle_alpha   90.00036358
_cell_angle_beta   88.40181360
_cell_angle_gamma   89.99787589
_symmetry_Int_Tables_number   1
_chemical_formula_structural   MnFeB2(PbO4)2
_chemical_formula_sum   'Mn2 Fe2 B4 Pb4 O16'
_cell_volume   370.80444487
_cell_formula_units_Z   2
loop_
 _symmetry_equiv_pos_site_id
 _symmetry_equiv_pos_as_xyz
  1  'x, y, z'
loop_
 _atom_site_type_symbol
 _atom_site_label
 _atom_site_symmetry_multiplicity
 _atom_site_fract_x
 _atom_site_fract_y
 _atom_site_fract_z
 _atom_site_occupancy
  Mn  Mn0  1  0.000227  0.499929  0.500081  1
  Mn  Mn1  1  0.500152  0.999972  0.000051  1
  Fe  Fe2  1  0.999836  0.999995  0.999961  1
  Fe  Fe3  1  0.500173  0.499949  0.499986  1
  B  B4  1  0.261328  0.783642  0.736239  1
  B  B5  1  0.238603  0.283545  0.763748  1
  B  B6  1  0.738591  0.216424  0.263729  1
  B  B7  1  0.761341  0.716389  0.236282  1
  Pb  Pb8  1  0.260412  0.573086  0.144170  1
  Pb  Pb9  1  0.239629  0.073019  0.355819  1
  Pb  Pb10  1  0.739652  0.426991  0.855813  1
  Pb  Pb11  1  0.760381  0.926932  0.644178  1
  O  O12  1  0.272221  0.689372  0.594411  1
  O  O13  1  0.227673  0.189425  0.905635  1
  O  O14  1  0.727686  0.310563  0.405624  1
  O  O15  1  0.772203  0.810637  0.094384  1
  O  O16  1  0.059415  0.834122  0.804255  1
  O  O17  1  0.440488  0.334188  0.695815  1
  O  O18  1  0.940492  0.165801  0.195827  1
  O  O19  1  0.559454  0.665862  0.304235  1
  O  O20  1  0.544731  0.168205  0.187805  1
  O  O21  1  0.955214  0.668088  0.312140  1
  O  O22  1  0.455216  0.831943  0.812122  1
  O  O23  1  0.044722  0.331836  0.687825  1
  O  O24  1  0.252886  0.901391  0.115394  1
  O  O25  1  0.247197  0.401293  0.384558  1
  O  O26  1  0.747224  0.098753  0.884527  1
  O  O27  1  0.752855  0.598649  0.615390  1
