# generated using pymatgen
data_Dy4Er4B24Ir3Ru
_symmetry_space_group_name_H-M   'P 1'
_cell_length_a   3.63918700
_cell_length_b   9.16460720
_cell_length_c   11.49684026
_cell_angle_alpha   90.02434832
_cell_angle_beta   90.00000000
_cell_angle_gamma   90.00000000
_symmetry_Int_Tables_number   1
_chemical_formula_structural   Dy4Er4B24Ir3Ru
_chemical_formula_sum   'Dy4 Er4 B24 Ir3 Ru1'
_cell_volume   383.43935579
_cell_formula_units_Z   1
loop_
 _symmetry_equiv_pos_site_id
 _symmetry_equiv_pos_as_xyz
  1  'x, y, z'
loop_
 _atom_site_type_symbol
 _atom_site_label
 _atom_site_symmetry_multiplicity
 _atom_site_fract_x
 _atom_site_fract_y
 _atom_site_fract_z
 _atom_site_occupancy
  Dy  Dy0  1  0.000000  0.320845  0.413477  1
  Dy  Dy1  1  0.000000  0.680169  0.587604  1
  Dy  Dy2  1  0.000000  0.821062  0.084970  1
  Dy  Dy3  1  0.000000  0.177238  0.913200  1
  Er  Er4  1  0.000000  0.944261  0.373892  1
  Er  Er5  1  0.000000  0.054200  0.627167  1
  Er  Er6  1  0.000000  0.444308  0.125940  1
  Er  Er7  1  0.000000  0.557560  0.873880  1
  B  B8  1  0.500000  0.553996  0.434162  1
  B  B9  1  0.500000  0.446006  0.565922  1
  B  B10  1  0.500000  0.053741  0.066063  1
  B  B11  1  0.500000  0.945435  0.933253  1
  B  B12  1  0.500000  0.750240  0.420607  1
  B  B13  1  0.500000  0.249832  0.579517  1
  B  B14  1  0.500000  0.249937  0.079479  1
  B  B15  1  0.500000  0.751251  0.919570  1
  B  B16  1  0.500000  0.793171  0.265036  1
  B  B17  1  0.500000  0.206959  0.734424  1
  B  B18  1  0.500000  0.293549  0.234971  1
  B  B19  1  0.500000  0.707836  0.765818  1
  B  B20  1  0.500000  0.631824  0.183800  1
  B  B21  1  0.500000  0.368236  0.816127  1
  B  B22  1  0.500000  0.132241  0.316157  1
  B  B23  1  0.500000  0.868261  0.685041  1
  B  B24  1  0.500000  0.982216  0.213563  1
  B  B25  1  0.500000  0.016263  0.786365  1
  B  B26  1  0.500000  0.482278  0.286275  1
  B  B27  1  0.500000  0.517637  0.713973  1
  B  B28  1  0.500000  0.608442  0.029956  1
  B  B29  1  0.500000  0.391129  0.970340  1
  B  B30  1  0.500000  0.108658  0.470260  1
  B  B31  1  0.500000  0.891376  0.529405  1
  Ir  Ir32  1  0.000000  0.638654  0.321275  1
  Ir  Ir33  1  0.000000  0.361556  0.679110  1
  Ir  Ir34  1  0.000000  0.138281  0.178639  1
  Ru  Ru35  1  0.000000  0.861354  0.820760  1
