# generated using pymatgen
data_Sc6TaNbH16
_symmetry_space_group_name_H-M   'P 1'
_cell_length_a   6.65462535
_cell_length_b   6.65462489
_cell_length_c   6.65462500
_cell_angle_alpha   60.00000441
_cell_angle_beta   60.00000673
_cell_angle_gamma   60.00001078
_symmetry_Int_Tables_number   1
_chemical_formula_structural   Sc6TaNbH16
_chemical_formula_sum   'Sc6 Ta1 Nb1 H16'
_cell_volume   208.37991262
_cell_formula_units_Z   1
loop_
 _symmetry_equiv_pos_site_id
 _symmetry_equiv_pos_as_xyz
  1  'x, y, z'
loop_
 _atom_site_type_symbol
 _atom_site_label
 _atom_site_symmetry_multiplicity
 _atom_site_fract_x
 _atom_site_fract_y
 _atom_site_fract_z
 _atom_site_occupancy
  Sc  Sc0  1  0.000000  0.000000  0.500000  1
  Sc  Sc1  1  0.500000  0.000000  0.500000  1
  Sc  Sc2  1  0.000000  0.500000  0.500000  1
  Sc  Sc3  1  0.500000  0.500000  0.000000  1
  Sc  Sc4  1  0.000000  0.500000  0.000000  1
  Sc  Sc5  1  0.500000  0.000000  0.000000  1
  Ta  Ta6  1  0.500000  0.500000  0.500000  1
  Nb  Nb7  1  0.000000  0.000000  0.000000  1
  H  H8  1  0.879174  0.879174  0.362481  1
  H  H9  1  0.879174  0.362481  0.879174  1
  H  H10  1  0.362481  0.879174  0.879174  1
  H  H11  1  0.879174  0.879174  0.879174  1
  H  H12  1  0.120826  0.120826  0.637519  1
  H  H13  1  0.120826  0.637519  0.120826  1
  H  H14  1  0.637519  0.120826  0.120826  1
  H  H15  1  0.120826  0.120826  0.120826  1
  H  H16  1  0.619987  0.619987  0.140037  1
  H  H17  1  0.619987  0.140037  0.619987  1
  H  H18  1  0.140037  0.619987  0.619987  1
  H  H19  1  0.619987  0.619987  0.619987  1
  H  H20  1  0.380013  0.380013  0.859963  1
  H  H21  1  0.380013  0.859963  0.380013  1
  H  H22  1  0.859963  0.380013  0.380013  1
  H  H23  1  0.380013  0.380013  0.380013  1
