# generated using pymatgen
data_BaSb12OsPdRu2
_symmetry_space_group_name_H-M   'P 1'
_cell_length_a   8.20542223
_cell_length_b   8.20110211
_cell_length_c   8.20109829
_cell_angle_alpha   109.47482897
_cell_angle_beta   109.50358788
_cell_angle_gamma   109.47696261
_symmetry_Int_Tables_number   1
_chemical_formula_structural   BaSb12OsPdRu2
_chemical_formula_sum   'Ba1 Sb12 Os1 Pd1 Ru2'
_cell_volume   424.61903142
_cell_formula_units_Z   1
loop_
 _symmetry_equiv_pos_site_id
 _symmetry_equiv_pos_as_xyz
  1  'x, y, z'
loop_
 _atom_site_type_symbol
 _atom_site_label
 _atom_site_symmetry_multiplicity
 _atom_site_fract_x
 _atom_site_fract_y
 _atom_site_fract_z
 _atom_site_occupancy
  Ba  Ba0  1  0.000000  0.000000  0.000000  1
  Sb  Sb1  1  0.160671  0.810568  0.659456  1
  Sb  Sb2  1  0.158405  0.499668  0.339666  1
  Sb  Sb3  1  0.500023  0.659630  0.840920  1
  Sb  Sb4  1  0.340734  0.840698  0.180807  1
  Sb  Sb5  1  0.810812  0.649934  0.151167  1
  Sb  Sb6  1  0.650401  0.840271  0.498892  1
  Sb  Sb7  1  0.189188  0.350066  0.848833  1
  Sb  Sb8  1  0.659266  0.159302  0.819193  1
  Sb  Sb9  1  0.349599  0.159729  0.501108  1
  Sb  Sb10  1  0.499977  0.340370  0.159080  1
  Sb  Sb11  1  0.841595  0.500332  0.660334  1
  Sb  Sb12  1  0.839329  0.189432  0.340544  1
  Os  Os13  1  0.500000  0.500000  0.500000  1
  Pd  Pd14  1  0.000000  0.000000  0.500000  1
  Ru  Ru15  1  0.500000  0.000000  0.000000  1
  Ru  Ru16  1  0.000000  0.500000  0.000000  1
