# generated using pymatgen
data_Ba12SnAs3I8
_symmetry_space_group_name_H-M   'P 1'
_cell_length_a   16.49144971
_cell_length_b   15.73539661
_cell_length_c   8.67730264
_cell_angle_alpha   79.25126021
_cell_angle_beta   69.62167038
_cell_angle_gamma   31.11049690
_symmetry_Int_Tables_number   1
_chemical_formula_structural   Ba12SnAs3I8
_chemical_formula_sum   'Ba12 Sn1 As3 I8'
_cell_volume   1061.28110318
_cell_formula_units_Z   1
loop_
 _symmetry_equiv_pos_site_id
 _symmetry_equiv_pos_as_xyz
  1  'x, y, z'
loop_
 _atom_site_type_symbol
 _atom_site_label
 _atom_site_symmetry_multiplicity
 _atom_site_fract_x
 _atom_site_fract_y
 _atom_site_fract_z
 _atom_site_occupancy
  Ba  Ba0  1  0.376822  0.943056  0.587411  1
  Ba  Ba1  1  0.597751  0.083769  0.382836  1
  Ba  Ba2  1  0.308082  0.871422  0.157819  1
  Ba  Ba3  1  0.943056  0.376822  0.092712  1
  Ba  Ba4  1  0.465523  0.028868  0.034950  1
  Ba  Ba5  1  0.871422  0.308082  0.662676  1
  Ba  Ba6  1  0.083769  0.597751  0.935645  1
  Ba  Ba7  1  0.669867  0.154661  0.863775  1
  Ba  Ba8  1  0.786509  0.213744  0.211508  1
  Ba  Ba9  1  0.213744  0.786509  0.788239  1
  Ba  Ba10  1  0.154661  0.669867  0.311697  1
  Ba  Ba11  1  0.028868  0.465523  0.470659  1
  Sn  Sn12  1  0.333539  0.333539  0.166461  1
  As  As13  1  0.084034  0.084034  0.915966  1
  As  As14  1  0.917866  0.917866  0.082134  1
  As  As15  1  0.164284  0.164284  0.335716  1
  I  I16  1  0.670016  0.670016  0.829984  1
  I  I17  1  0.745880  0.745880  0.254120  1
  I  I18  1  0.252002  0.252002  0.747998  1
  I  I19  1  0.578698  0.578698  0.421302  1
  I  I20  1  0.998498  0.998498  0.501502  1
  I  I21  1  0.828500  0.828500  0.671500  1
  I  I22  1  0.422258  0.422258  0.577742  1
  I  I23  1  0.504350  0.504350  0.995650  1
