# generated using pymatgen
data_Pr5GdTl3In3O18
_symmetry_space_group_name_H-M   'P 1'
_cell_length_a   6.65574720
_cell_length_b   6.65960139
_cell_length_c   12.56660754
_cell_angle_alpha   89.78075199
_cell_angle_beta   90.16805573
_cell_angle_gamma   120.00402717
_symmetry_Int_Tables_number   1
_chemical_formula_structural   Pr5GdTl3In3O18
_chemical_formula_sum   'Pr5 Gd1 Tl3 In3 O18'
_cell_volume   482.36149299
_cell_formula_units_Z   1
loop_
 _symmetry_equiv_pos_site_id
 _symmetry_equiv_pos_as_xyz
  1  'x, y, z'
loop_
 _atom_site_type_symbol
 _atom_site_label
 _atom_site_symmetry_multiplicity
 _atom_site_fract_x
 _atom_site_fract_y
 _atom_site_fract_z
 _atom_site_occupancy
  Pr  Pr0  1  0.664773  0.328995  0.961032  1
  Pr  Pr1  1  0.336023  0.675332  0.460025  1
  Pr  Pr2  1  0.670598  0.331597  0.459914  1
  Pr  Pr3  1  0.330621  0.672586  0.961105  1
  Pr  Pr4  1  0.996166  0.994631  0.999447  1
  Gd  Gd5  1  0.001307  0.996506  0.494881  1
  Tl  Tl6  1  0.667037  0.667567  0.725058  1
  Tl  Tl7  1  0.000475  0.331843  0.724807  1
  Tl  Tl8  1  0.332336  0.333229  0.227844  1
  In  In9  1  0.999499  0.666679  0.228235  1
  In  In10  1  0.332051  0.000926  0.725186  1
  In  In11  1  0.668150  0.000209  0.228095  1
  O  O12  1  0.688958  0.689611  0.898052  1
  O  O13  1  0.000341  0.307908  0.897653  1
  O  O14  1  0.304035  0.304426  0.396802  1
  O  O15  1  0.999438  0.699617  0.397968  1
  O  O16  1  0.303616  0.000999  0.897169  1
  O  O17  1  0.702122  0.999829  0.397735  1
  O  O18  1  0.649338  0.648271  0.553995  1
  O  O19  1  0.003168  0.351284  0.553557  1
  O  O20  1  0.356906  0.358189  0.059763  1
  O  O21  1  0.998701  0.637813  0.059942  1
  O  O22  1  0.356111  0.002073  0.555243  1
  O  O23  1  0.638809  0.000017  0.059687  1
  O  O24  1  0.013436  0.999103  0.690604  1
  O  O25  1  0.981864  0.981158  0.197728  1
  O  O26  1  0.653146  0.319136  0.754421  1
  O  O27  1  0.333724  0.685880  0.255720  1
  O  O28  1  0.684378  0.332712  0.255632  1
  O  O29  1  0.332875  0.681874  0.754486  1
