# generated using pymatgen
data_Zr10HgBi5B2
_symmetry_space_group_name_H-M   'P 1'
_cell_length_a   8.70850124
_cell_length_b   8.69754025
_cell_length_c   5.86643100
_cell_angle_alpha   90.00000000
_cell_angle_beta   90.00000000
_cell_angle_gamma   119.95837721
_symmetry_Int_Tables_number   1
_chemical_formula_structural   Zr10HgBi5B2
_chemical_formula_sum   'Zr10 Hg1 Bi5 B2'
_cell_volume   384.96962365
_cell_formula_units_Z   1
loop_
 _symmetry_equiv_pos_site_id
 _symmetry_equiv_pos_as_xyz
  1  'x, y, z'
loop_
 _atom_site_type_symbol
 _atom_site_label
 _atom_site_symmetry_multiplicity
 _atom_site_fract_x
 _atom_site_fract_y
 _atom_site_fract_z
 _atom_site_occupancy
  Zr  Zr0  1  0.668415  0.333899  0.002227  1
  Zr  Zr1  1  0.331585  0.665486  0.002227  1
  Zr  Zr2  1  0.331585  0.665486  0.497773  1
  Zr  Zr3  1  0.668415  0.333899  0.497773  1
  Zr  Zr4  1  0.773685  0.772994  0.750000  1
  Zr  Zr5  1  0.226315  0.999309  0.750000  1
  Zr  Zr6  1  0.000000  0.225594  0.750000  1
  Zr  Zr7  1  0.222259  0.227924  0.250000  1
  Zr  Zr8  1  0.777741  0.005665  0.250000  1
  Zr  Zr9  1  0.000000  0.769766  0.250000  1
  Hg  Hg10  1  0.000000  0.397821  0.250000  1
  Bi  Bi11  1  0.398479  0.398401  0.750000  1
  Bi  Bi12  1  0.601521  0.999921  0.750000  1
  Bi  Bi13  1  0.000000  0.597544  0.750000  1
  Bi  Bi14  1  0.602162  0.603682  0.250000  1
  Bi  Bi15  1  0.397838  0.001520  0.250000  1
  B  B16  1  0.000000  0.000545  0.000223  1
  B  B17  1  0.000000  0.000545  0.499777  1
