# generated using pymatgen
data_Y4ZnGa11Au
_symmetry_space_group_name_H-M   'P 1'
_cell_length_a   7.53147471
_cell_length_b   7.53147578
_cell_length_c   7.53147502
_cell_angle_alpha   109.46279984
_cell_angle_beta   109.47543761
_cell_angle_gamma   109.47542763
_symmetry_Int_Tables_number   1
_chemical_formula_structural   Y4ZnGa11Au
_chemical_formula_sum   'Y4 Zn1 Ga11 Au1'
_cell_volume   328.86543704
_cell_formula_units_Z   1
loop_
 _symmetry_equiv_pos_site_id
 _symmetry_equiv_pos_as_xyz
  1  'x, y, z'
loop_
 _atom_site_type_symbol
 _atom_site_label
 _atom_site_symmetry_multiplicity
 _atom_site_fract_x
 _atom_site_fract_y
 _atom_site_fract_z
 _atom_site_occupancy
  Y  Y0  1  0.000000  0.000022  0.500439  1
  Y  Y1  1  0.499583  0.000022  0.000022  1
  Y  Y2  1  0.000000  0.500439  0.000022  1
  Y  Y3  1  0.500417  0.500439  0.500439  1
  Zn  Zn4  1  0.000000  0.305458  0.305458  1
  Ga  Ga5  1  0.695938  0.000454  0.696392  1
  Ga  Ga6  1  0.304062  0.000454  0.304516  1
  Ga  Ga7  1  0.695938  0.696392  0.000454  1
  Ga  Ga8  1  0.304062  0.304516  0.000454  1
  Ga  Ga9  1  0.000000  0.695968  0.695968  1
  Ga  Ga10  1  0.249094  0.748043  0.498949  1
  Ga  Ga11  1  0.750906  0.249856  0.498949  1
  Ga  Ga12  1  0.750906  0.498949  0.249856  1
  Ga  Ga13  1  0.249094  0.498949  0.748043  1
  Ga  Ga14  1  0.500000  0.749980  0.249980  1
  Ga  Ga15  1  0.500000  0.249980  0.749980  1
  Au  Au16  1  0.000000  0.000077  0.000077  1
