# generated using pymatgen
data_Tb19Dy(Ir3Pt)3
_symmetry_space_group_name_H-M   'P 1'
_cell_length_a   11.01890187
_cell_length_b   11.01900972
_cell_length_c   6.36708003
_cell_angle_alpha   89.98218642
_cell_angle_beta   89.98255108
_cell_angle_gamma   90.19739471
_symmetry_Int_Tables_number   1
_chemical_formula_structural   Tb19Dy(Ir3Pt)3
_chemical_formula_sum   'Tb19 Dy1 Ir9 Pt3'
_cell_volume   773.06955710
_cell_formula_units_Z   1
loop_
 _symmetry_equiv_pos_site_id
 _symmetry_equiv_pos_as_xyz
  1  'x, y, z'
loop_
 _atom_site_type_symbol
 _atom_site_label
 _atom_site_symmetry_multiplicity
 _atom_site_fract_x
 _atom_site_fract_y
 _atom_site_fract_z
 _atom_site_occupancy
  Tb  Tb0  1  0.293766  0.087323  0.372813  1
  Tb  Tb1  1  0.293025  0.908284  0.877881  1
  Tb  Tb2  1  0.705246  0.090290  0.874641  1
  Tb  Tb3  1  0.704436  0.909501  0.374183  1
  Tb  Tb4  1  0.585591  0.791099  0.879172  1
  Tb  Tb5  1  0.585911  0.208953  0.379234  1
  Tb  Tb6  1  0.410499  0.791272  0.378962  1
  Tb  Tb7  1  0.413817  0.208980  0.879084  1
  Tb  Tb8  1  0.208970  0.414426  0.620788  1
  Tb  Tb9  1  0.208666  0.589523  0.121082  1
  Tb  Tb10  1  0.791111  0.414072  0.120813  1
  Tb  Tb11  1  0.790954  0.586163  0.620878  1
  Tb  Tb12  1  0.912695  0.706238  0.127145  1
  Tb  Tb13  1  0.909686  0.294753  0.625402  1
  Tb  Tb14  1  0.091734  0.706970  0.622154  1
  Tb  Tb15  1  0.090483  0.295563  0.125769  1
  Tb  Tb16  1  0.001196  0.998102  0.499571  1
  Tb  Tb17  1  0.001903  0.998799  0.000429  1
  Tb  Tb18  1  0.499738  0.499923  0.000398  1
  Dy  Dy19  1  0.500092  0.500248  0.499602  1
  Ir  Ir20  1  0.152327  0.847664  0.249994  1
  Ir  Ir21  1  0.654367  0.345620  0.749787  1
  Ir  Ir22  1  0.654794  0.654323  0.249811  1
  Ir  Ir23  1  0.345656  0.345224  0.250618  1
  Ir  Ir24  1  0.346506  0.653511  0.749791  1
  Ir  Ir25  1  0.500510  0.000073  0.123648  1
  Ir  Ir26  1  0.500280  0.000320  0.624785  1
  Ir  Ir27  1  0.999680  0.499721  0.875211  1
  Ir  Ir28  1  0.999925  0.499489  0.376353  1
  Pt  Pt29  1  0.846869  0.153141  0.250001  1
  Pt  Pt30  1  0.845633  0.846077  0.749935  1
  Pt  Pt31  1  0.153931  0.154358  0.750066  1
