# generated using pymatgen
data_Er8Ti11Si16Hg
_symmetry_space_group_name_H-M   'P 1'
_cell_length_a   7.05178505
_cell_length_b   7.05178505
_cell_length_c   12.86607677
_cell_angle_alpha   90.12620282
_cell_angle_beta   89.87379718
_cell_angle_gamma   89.61510609
_symmetry_Int_Tables_number   1
_chemical_formula_structural   Er8Ti11Si16Hg
_chemical_formula_sum   'Er8 Ti11 Si16 Hg1'
_cell_volume   639.78249005
_cell_formula_units_Z   1
loop_
 _symmetry_equiv_pos_site_id
 _symmetry_equiv_pos_as_xyz
  1  'x, y, z'
loop_
 _atom_site_type_symbol
 _atom_site_label
 _atom_site_symmetry_multiplicity
 _atom_site_fract_x
 _atom_site_fract_y
 _atom_site_fract_z
 _atom_site_occupancy
  Er  Er0  1  0.340860  0.001343  0.466977  1
  Er  Er1  1  0.497718  0.840489  0.716074  1
  Er  Er2  1  0.501504  0.156498  0.215108  1
  Er  Er3  1  0.840489  0.497718  0.283926  1
  Er  Er4  1  0.156498  0.501504  0.784892  1
  Er  Er5  1  0.657059  0.001011  0.968474  1
  Er  Er6  1  0.001343  0.340860  0.533023  1
  Er  Er7  1  0.001011  0.657059  0.031526  1
  Ti  Ti8  1  0.173980  0.826433  0.250600  1
  Ti  Ti9  1  0.826433  0.173980  0.749400  1
  Ti  Ti10  1  0.672440  0.672440  0.500000  1
  Ti  Ti11  1  0.146564  0.008895  0.876854  1
  Ti  Ti12  1  0.496870  0.649940  0.122954  1
  Ti  Ti13  1  0.506143  0.351839  0.623752  1
  Ti  Ti14  1  0.649940  0.496870  0.877046  1
  Ti  Ti15  1  0.351839  0.506143  0.376248  1
  Ti  Ti16  1  0.850118  0.991239  0.374315  1
  Ti  Ti17  1  0.008895  0.146564  0.123146  1
  Ti  Ti18  1  0.991239  0.850118  0.625685  1
  Si  Si19  1  0.201657  0.132797  0.683680  1
  Si  Si20  1  0.373564  0.725798  0.926218  1
  Si  Si21  1  0.632323  0.293274  0.431964  1
  Si  Si22  1  0.725798  0.373564  0.073782  1
  Si  Si23  1  0.293274  0.632323  0.568036  1
  Si  Si24  1  0.798478  0.866282  0.182649  1
  Si  Si25  1  0.132797  0.201657  0.316320  1
  Si  Si26  1  0.866282  0.798478  0.817351  1
  Si  Si27  1  0.286770  0.933103  0.067415  1
  Si  Si28  1  0.546461  0.790831  0.314557  1
  Si  Si29  1  0.458458  0.206132  0.805358  1
  Si  Si30  1  0.790831  0.546461  0.685443  1
  Si  Si31  1  0.206132  0.458458  0.194642  1
  Si  Si32  1  0.708317  0.047292  0.563794  1
  Si  Si33  1  0.933103  0.286770  0.932585  1
  Si  Si34  1  0.047292  0.708317  0.436206  1
  Hg  Hg35  1  0.327522  0.327522  0.000000  1
