# generated using pymatgen
data_Zr4Co5(Si4Ni5)3
_symmetry_space_group_name_H-M   'P 1'
_cell_length_a   3.68446000
_cell_length_b   6.66233796
_cell_length_c   18.31135901
_cell_angle_alpha   89.92889784
_cell_angle_beta   90.00000000
_cell_angle_gamma   90.00000000
_symmetry_Int_Tables_number   1
_chemical_formula_structural   Zr4Co5(Si4Ni5)3
_chemical_formula_sum   'Zr4 Co5 Si12 Ni15'
_cell_volume   449.49073946
_cell_formula_units_Z   1
loop_
 _symmetry_equiv_pos_site_id
 _symmetry_equiv_pos_as_xyz
  1  'x, y, z'
loop_
 _atom_site_type_symbol
 _atom_site_label
 _atom_site_symmetry_multiplicity
 _atom_site_fract_x
 _atom_site_fract_y
 _atom_site_fract_z
 _atom_site_occupancy
  Zr  Zr0  1  0.250000  0.616628  0.644925  1
  Zr  Zr1  1  0.250000  0.885781  0.143519  1
  Zr  Zr2  1  0.750000  0.381948  0.355216  1
  Zr  Zr3  1  0.750000  0.117649  0.856822  1
  Co  Co4  1  0.250000  0.823122  0.799668  1
  Co  Co5  1  0.250000  0.675429  0.299117  1
  Co  Co6  1  0.750000  0.175840  0.199771  1
  Co  Co7  1  0.750000  0.324147  0.700906  1
  Co  Co8  1  0.250000  0.130292  0.993782  1
  Si  Si9  1  0.250000  0.402717  0.915261  1
  Si  Si10  1  0.250000  0.093892  0.414142  1
  Si  Si11  1  0.750000  0.596054  0.085736  1
  Si  Si12  1  0.750000  0.904782  0.585879  1
  Si  Si13  1  0.250000  0.127038  0.740013  1
  Si  Si14  1  0.250000  0.371795  0.238698  1
  Si  Si15  1  0.750000  0.872756  0.260261  1
  Si  Si16  1  0.750000  0.627387  0.761281  1
  Si  Si17  1  0.250000  0.854778  0.922999  1
  Si  Si18  1  0.250000  0.649108  0.422100  1
  Si  Si19  1  0.750000  0.148196  0.075763  1
  Si  Si20  1  0.750000  0.349755  0.577926  1
  Ni  Ni21  1  0.250000  0.370461  0.494088  1
  Ni  Ni22  1  0.750000  0.869333  0.005609  1
  Ni  Ni23  1  0.750000  0.628345  0.505951  1
  Ni  Ni24  1  0.250000  0.878238  0.512689  1
  Ni  Ni25  1  0.250000  0.621850  0.012068  1
  Ni  Ni26  1  0.750000  0.120423  0.487431  1
  Ni  Ni27  1  0.750000  0.382119  0.987817  1
  Ni  Ni28  1  0.250000  0.141611  0.615185  1
  Ni  Ni29  1  0.250000  0.358348  0.113877  1
  Ni  Ni30  1  0.750000  0.857064  0.385075  1
  Ni  Ni31  1  0.750000  0.644087  0.885866  1
  Ni  Ni32  1  0.250000  0.432630  0.794645  1
  Ni  Ni33  1  0.250000  0.066162  0.293660  1
  Ni  Ni34  1  0.750000  0.566416  0.205971  1
  Ni  Ni35  1  0.750000  0.933823  0.706282  1
