# generated using pymatgen
data_Nd17Th3Rh16
_symmetry_space_group_name_H-M   'P 1'
_cell_length_a   7.60098649
_cell_length_b   7.72428115
_cell_length_c   14.96166950
_cell_angle_alpha   90.04557427
_cell_angle_beta   89.80390733
_cell_angle_gamma   90.04384160
_symmetry_Int_Tables_number   1
_chemical_formula_structural   Nd17Th3Rh16
_chemical_formula_sum   'Nd17 Th3 Rh16'
_cell_volume   878.42620680
_cell_formula_units_Z   1
loop_
 _symmetry_equiv_pos_site_id
 _symmetry_equiv_pos_as_xyz
  1  'x, y, z'
loop_
 _atom_site_type_symbol
 _atom_site_label
 _atom_site_symmetry_multiplicity
 _atom_site_fract_x
 _atom_site_fract_y
 _atom_site_fract_z
 _atom_site_occupancy
  Nd  Nd0  1  0.836256  0.665258  0.378243  1
  Nd  Nd1  1  0.335189  0.834551  0.378428  1
  Nd  Nd2  1  0.836538  0.665483  0.120574  1
  Nd  Nd3  1  0.662480  0.164305  0.879149  1
  Nd  Nd4  1  0.163717  0.334158  0.621883  1
  Nd  Nd5  1  0.514740  0.682615  0.592673  1
  Nd  Nd6  1  0.015246  0.816754  0.906319  1
  Nd  Nd7  1  0.486409  0.318024  0.095258  1
  Nd  Nd8  1  0.985408  0.185556  0.407630  1
  Nd  Nd9  1  0.485351  0.319257  0.406146  1
  Nd  Nd10  1  0.983335  0.181321  0.093892  1
  Nd  Nd11  1  0.515957  0.681975  0.907015  1
  Nd  Nd12  1  0.015930  0.816047  0.592118  1
  Nd  Nd13  1  0.821580  0.513268  0.749827  1
  Nd  Nd14  1  0.322043  0.985923  0.750214  1
  Nd  Nd15  1  0.172121  0.487918  0.250900  1
  Nd  Nd16  1  0.680784  0.010394  0.251939  1
  Th  Th17  1  0.664132  0.161890  0.622135  1
  Th  Th18  1  0.162778  0.337406  0.878200  1
  Th  Th19  1  0.337039  0.836681  0.122308  1
  Rh  Rh20  1  0.685692  0.971282  0.464627  1
  Rh  Rh21  1  0.191152  0.538836  0.036113  1
  Rh  Rh22  1  0.308620  0.040057  0.963214  1
  Rh  Rh23  1  0.812879  0.454120  0.542054  1
  Rh  Rh24  1  0.336001  0.031704  0.545680  1
  Rh  Rh25  1  0.841152  0.466089  0.953724  1
  Rh  Rh26  1  0.658067  0.965677  0.046323  1
  Rh  Rh27  1  0.170934  0.528766  0.456689  1
  Rh  Rh28  1  0.457155  0.382177  0.752067  1
  Rh  Rh29  1  0.958461  0.116231  0.749848  1
  Rh  Rh30  1  0.535153  0.613514  0.246173  1
  Rh  Rh31  1  0.049537  0.890988  0.242894  1
  Rh  Rh32  1  0.698214  0.864989  0.745259  1
  Rh  Rh33  1  0.198401  0.635132  0.753830  1
  Rh  Rh34  1  0.307453  0.141186  0.247067  1
  Rh  Rh35  1  0.794095  0.360470  0.249587  1
