# generated using pymatgen
data_Y2Er8Tl7InPt4
_symmetry_space_group_name_H-M   'P 1'
_cell_length_a   3.60133100
_cell_length_b   8.25845440
_cell_length_c   18.33253697
_cell_angle_alpha   89.84535466
_cell_angle_beta   90.00000000
_cell_angle_gamma   90.00000000
_symmetry_Int_Tables_number   1
_chemical_formula_structural   Y2Er8Tl7InPt4
_chemical_formula_sum   'Y2 Er8 Tl7 In1 Pt4'
_cell_volume   545.23383926
_cell_formula_units_Z   1
loop_
 _symmetry_equiv_pos_site_id
 _symmetry_equiv_pos_as_xyz
  1  'x, y, z'
loop_
 _atom_site_type_symbol
 _atom_site_label
 _atom_site_symmetry_multiplicity
 _atom_site_fract_x
 _atom_site_fract_y
 _atom_site_fract_z
 _atom_site_occupancy
  Y  Y0  1  0.000000  0.999696  0.000292  1
  Y  Y1  1  0.000000  0.503496  0.499637  1
  Er  Er2  1  0.000000  0.114851  0.412533  1
  Er  Er3  1  0.000000  0.886302  0.586535  1
  Er  Er4  1  0.000000  0.385666  0.911628  1
  Er  Er5  1  0.000000  0.613899  0.088522  1
  Er  Er6  1  0.000000  0.241946  0.220625  1
  Er  Er7  1  0.000000  0.757419  0.780010  1
  Er  Er8  1  0.000000  0.256537  0.719191  1
  Er  Er9  1  0.000000  0.741643  0.280807  1
  Tl  Tl10  1  0.500000  0.421736  0.353130  1
  Tl  Tl11  1  0.500000  0.582332  0.647335  1
  Tl  Tl12  1  0.500000  0.080417  0.852010  1
  Tl  Tl13  1  0.500000  0.918779  0.148506  1
  Tl  Tl14  1  0.500000  0.294339  0.064400  1
  Tl  Tl15  1  0.500000  0.705011  0.935741  1
  Tl  Tl16  1  0.500000  0.206384  0.563912  1
  In  In17  1  0.500000  0.796555  0.434122  1
  Pt  Pt18  1  0.500000  0.021987  0.304329  1
  Pt  Pt19  1  0.500000  0.973265  0.696966  1
  Pt  Pt20  1  0.500000  0.473173  0.801764  1
  Pt  Pt21  1  0.500000  0.524567  0.198007  1
