# generated using pymatgen
data_Tm(Zn10Rh)2
_symmetry_space_group_name_H-M   'P 1'
_cell_length_a   9.98326020
_cell_length_b   9.98326030
_cell_length_c   9.98326000
_cell_angle_alpha   60.00000100
_cell_angle_beta   60.00000065
_cell_angle_gamma   60.00000078
_symmetry_Int_Tables_number   1
_chemical_formula_structural   Tm(Zn10Rh)2
_chemical_formula_sum   'Tm2 Zn40 Rh4'
_cell_volume   703.56168029
_cell_formula_units_Z   2
loop_
 _symmetry_equiv_pos_site_id
 _symmetry_equiv_pos_as_xyz
  1  'x, y, z'
loop_
 _atom_site_type_symbol
 _atom_site_label
 _atom_site_symmetry_multiplicity
 _atom_site_fract_x
 _atom_site_fract_y
 _atom_site_fract_z
 _atom_site_occupancy
  Tm  Tm0  1  0.750000  0.750000  0.750000  1
  Tm  Tm1  1  0.500000  0.500000  0.500000  1
  Zn  Zn2  1  0.567839  0.301888  0.301888  1
  Zn  Zn3  1  0.421616  0.948112  0.682161  1
  Zn  Zn4  1  0.948112  0.682161  0.421616  1
  Zn  Zn5  1  0.948112  0.421616  0.948112  1
  Zn  Zn6  1  0.948112  0.948112  0.682161  1
  Zn  Zn7  1  0.301888  0.828384  0.567839  1
  Zn  Zn8  1  0.625000  0.125000  0.625000  1
  Zn  Zn9  1  0.828384  0.301888  0.301888  1
  Zn  Zn10  1  0.137810  0.137810  0.862190  1
  Zn  Zn11  1  0.567839  0.828384  0.301888  1
  Zn  Zn12  1  0.625000  0.625000  0.125000  1
  Zn  Zn13  1  0.387810  0.112190  0.387810  1
  Zn  Zn14  1  0.387810  0.112190  0.112190  1
  Zn  Zn15  1  0.862190  0.137810  0.137810  1
  Zn  Zn16  1  0.387810  0.387810  0.112190  1
  Zn  Zn17  1  0.948112  0.421616  0.682161  1
  Zn  Zn18  1  0.112190  0.387810  0.387810  1
  Zn  Zn19  1  0.682161  0.421616  0.948112  1
  Zn  Zn20  1  0.421616  0.948112  0.948112  1
  Zn  Zn21  1  0.828384  0.301888  0.567839  1
  Zn  Zn22  1  0.948112  0.682161  0.948112  1
  Zn  Zn23  1  0.301888  0.567839  0.828384  1
  Zn  Zn24  1  0.421616  0.682161  0.948112  1
  Zn  Zn25  1  0.137810  0.862190  0.862190  1
  Zn  Zn26  1  0.682161  0.948112  0.948112  1
  Zn  Zn27  1  0.828384  0.567839  0.301888  1
  Zn  Zn28  1  0.682161  0.948112  0.421616  1
  Zn  Zn29  1  0.125000  0.625000  0.625000  1
  Zn  Zn30  1  0.301888  0.301888  0.567839  1
  Zn  Zn31  1  0.862190  0.862190  0.137810  1
  Zn  Zn32  1  0.862190  0.137810  0.862190  1
  Zn  Zn33  1  0.301888  0.828384  0.301888  1
  Zn  Zn34  1  0.112190  0.387810  0.112190  1
  Zn  Zn35  1  0.112190  0.112190  0.387810  1
  Zn  Zn36  1  0.301888  0.301888  0.828384  1
  Zn  Zn37  1  0.137810  0.862190  0.137810  1
  Zn  Zn38  1  0.625000  0.625000  0.625000  1
  Zn  Zn39  1  0.301888  0.567839  0.301888  1
  Zn  Zn40  1  0.948112  0.948112  0.421616  1
  Zn  Zn41  1  0.567839  0.301888  0.828384  1
  Rh  Rh42  1  0.125000  0.125000  0.125000  1
  Rh  Rh43  1  0.625000  0.125000  0.125000  1
  Rh  Rh44  1  0.125000  0.625000  0.125000  1
  Rh  Rh45  1  0.125000  0.125000  0.625000  1
