# generated using pymatgen
data_K2Rb4ScAlSb4
_symmetry_space_group_name_H-M   'P 1'
_cell_length_a   9.89708810
_cell_length_b   9.89703474
_cell_length_c   9.89708977
_cell_angle_alpha   129.59686255
_cell_angle_beta   68.32659816
_cell_angle_gamma   137.04937143
_symmetry_Int_Tables_number   1
_chemical_formula_structural   K2Rb4ScAlSb4
_chemical_formula_sum   'K2 Rb4 Sc1 Al1 Sb4'
_cell_volume   500.18043056
_cell_formula_units_Z   1
loop_
 _symmetry_equiv_pos_site_id
 _symmetry_equiv_pos_as_xyz
  1  'x, y, z'
loop_
 _atom_site_type_symbol
 _atom_site_label
 _atom_site_symmetry_multiplicity
 _atom_site_fract_x
 _atom_site_fract_y
 _atom_site_fract_z
 _atom_site_occupancy
  K  K0  1  0.749991  0.250000  0.499991  1
  K  K1  1  0.250005  0.750000  0.500005  1
  Rb  Rb2  1  0.324213  0.716602  0.032052  1
  Rb  Rb3  1  0.175799  0.207843  0.392381  1
  Rb  Rb4  1  0.815448  0.783397  0.607611  1
  Rb  Rb5  1  0.684538  0.292157  0.967955  1
  Sc  Sc6  1  0.250018  0.250000  0.000018  1
  Al  Al7  1  0.750007  0.750000  0.000007  1
  Sb  Sb8  1  0.895896  0.179237  0.096640  1
  Sb  Sb9  1  0.604074  0.700706  0.283312  1
  Sb  Sb10  1  0.417405  0.320763  0.716660  1
  Sb  Sb11  1  0.082605  0.799293  0.903368  1
