# generated using pymatgen
data_Tb3Ho(Mn5P3)4
_symmetry_space_group_name_H-M   'P 1'
_cell_length_a   3.60418200
_cell_length_b   10.71342156
_cell_length_c   12.19557568
_cell_angle_alpha   89.86358379
_cell_angle_beta   90.00000000
_cell_angle_gamma   90.00000000
_symmetry_Int_Tables_number   1
_chemical_formula_structural   Tb3Ho(Mn5P3)4
_chemical_formula_sum   'Tb3 Ho1 Mn20 P12'
_cell_volume   470.90790634
_cell_formula_units_Z   1
loop_
 _symmetry_equiv_pos_site_id
 _symmetry_equiv_pos_as_xyz
  1  'x, y, z'
loop_
 _atom_site_type_symbol
 _atom_site_label
 _atom_site_symmetry_multiplicity
 _atom_site_fract_x
 _atom_site_fract_y
 _atom_site_fract_z
 _atom_site_occupancy
  Tb  Tb0  1  0.750000  0.411839  0.294285  1
  Tb  Tb1  1  0.750000  0.088247  0.794400  1
  Tb  Tb2  1  0.250000  0.911697  0.205634  1
  Ho  Ho3  1  0.250000  0.588157  0.705584  1
  Mn  Mn4  1  0.250000  0.409734  0.494069  1
  Mn  Mn5  1  0.750000  0.710464  0.318997  1
  Mn  Mn6  1  0.750000  0.788965  0.818589  1
  Mn  Mn7  1  0.250000  0.289653  0.681016  1
  Mn  Mn8  1  0.250000  0.616029  0.191501  1
  Mn  Mn9  1  0.750000  0.384449  0.808296  1
  Mn  Mn10  1  0.750000  0.116194  0.308645  1
  Mn  Mn11  1  0.250000  0.883197  0.691588  1
  Mn  Mn12  1  0.250000  0.032685  0.434926  1
  Mn  Mn13  1  0.750000  0.966895  0.565663  1
  Mn  Mn14  1  0.750000  0.532711  0.064327  1
  Mn  Mn15  1  0.250000  0.467730  0.934135  1
  Mn  Mn16  1  0.750000  0.909423  0.005971  1
  Mn  Mn17  1  0.250000  0.090642  0.993946  1
  Mn  Mn18  1  0.250000  0.717970  0.981630  1
  Mn  Mn19  1  0.750000  0.282063  0.018252  1
  Mn  Mn20  1  0.750000  0.218598  0.518646  1
  Mn  Mn21  1  0.250000  0.781575  0.482031  1
  Mn  Mn22  1  0.250000  0.210785  0.181071  1
  Mn  Mn23  1  0.750000  0.590372  0.506865  1
  P  P24  1  0.250000  0.590768  0.383105  1
  P  P25  1  0.750000  0.410235  0.617540  1
  P  P26  1  0.750000  0.090760  0.117055  1
  P  P27  1  0.250000  0.909110  0.882969  1
  P  P28  1  0.750000  0.765133  0.624181  1
  P  P29  1  0.250000  0.233798  0.376388  1
  P  P30  1  0.250000  0.409536  0.114797  1
  P  P31  1  0.750000  0.590684  0.883902  1
  P  P32  1  0.750000  0.909319  0.384920  1
  P  P33  1  0.250000  0.090458  0.615218  1
  P  P34  1  0.250000  0.266388  0.876180  1
  P  P35  1  0.750000  0.733735  0.123679  1
