# generated using pymatgen
data_Y12Fe4BiRh
_symmetry_space_group_name_H-M   'P 1'
_cell_length_a   8.41023546
_cell_length_b   8.41023441
_cell_length_c   8.41023456
_cell_angle_alpha   111.02629835
_cell_angle_beta   110.92543430
_cell_angle_gamma   106.50212303
_symmetry_Int_Tables_number   1
_chemical_formula_structural   Y12Fe4BiRh
_chemical_formula_sum   'Y12 Fe4 Bi1 Rh1'
_cell_volume   457.01697994
_cell_formula_units_Z   1
loop_
 _symmetry_equiv_pos_site_id
 _symmetry_equiv_pos_as_xyz
  1  'x, y, z'
loop_
 _atom_site_type_symbol
 _atom_site_label
 _atom_site_symmetry_multiplicity
 _atom_site_fract_x
 _atom_site_fract_y
 _atom_site_fract_z
 _atom_site_occupancy
  Y  Y0  1  0.287904  0.185292  0.473197  1
  Y  Y1  1  0.712096  0.814708  0.526803  1
  Y  Y2  1  0.287904  0.814708  0.102613  1
  Y  Y3  1  0.712096  0.185292  0.897387  1
  Y  Y4  1  0.614651  0.308954  0.305697  1
  Y  Y5  1  0.385349  0.691046  0.694303  1
  Y  Y6  1  0.003255  0.308954  0.694303  1
  Y  Y7  1  0.996745  0.691046  0.305697  1
  Y  Y8  1  0.209399  0.406958  0.197559  1
  Y  Y9  1  0.790601  0.593042  0.802441  1
  Y  Y10  1  0.209399  0.011842  0.802441  1
  Y  Y11  1  0.790601  0.988158  0.197559  1
  Fe  Fe12  1  0.000000  0.387244  0.387244  1
  Fe  Fe13  1  0.000000  0.612756  0.612756  1
  Fe  Fe14  1  0.394878  0.894878  0.500000  1
  Fe  Fe15  1  0.605122  0.105122  0.500000  1
  Bi  Bi16  1  0.500000  0.500000  0.000000  1
  Rh  Rh17  1  0.000000  0.000000  0.000000  1
