# generated using pymatgen
data_NpPa3F20
_symmetry_space_group_name_H-M   'P 1'
_cell_length_a   10.70116675
_cell_length_b   5.51513914
_cell_length_c   9.05641526
_cell_angle_alpha   66.28506949
_cell_angle_beta   89.70808394
_cell_angle_gamma   90.39850558
_symmetry_Int_Tables_number   1
_chemical_formula_structural   NpPa3F20
_chemical_formula_sum   'Np1 Pa3 F20'
_cell_volume   489.33138086
_cell_formula_units_Z   1
loop_
 _symmetry_equiv_pos_site_id
 _symmetry_equiv_pos_as_xyz
  1  'x, y, z'
loop_
 _atom_site_type_symbol
 _atom_site_label
 _atom_site_symmetry_multiplicity
 _atom_site_fract_x
 _atom_site_fract_y
 _atom_site_fract_z
 _atom_site_occupancy
  Np  Np0  1  0.743861  0.125420  0.092486  1
  Pa  Pa1  1  0.755400  0.127740  0.591804  1
  Pa  Pa2  1  0.257077  0.872071  0.908537  1
  Pa  Pa3  1  0.242383  0.874380  0.407547  1
  F  F4  1  0.854263  0.477480  0.526702  1
  F  F5  1  0.343930  0.513451  0.973383  1
  F  F6  1  0.151271  0.517268  0.468939  1
  F  F7  1  0.639001  0.453257  0.030483  1
  F  F8  1  0.597114  0.340216  0.506352  1
  F  F9  1  0.094033  0.679575  0.006730  1
  F  F10  1  0.402512  0.677999  0.503437  1
  F  F11  1  0.891500  0.366242  0.001648  1
  F  F12  1  0.424797  0.061594  0.823120  1
  F  F13  1  0.918701  0.921066  0.666147  1
  F  F14  1  0.593255  0.886481  0.177651  1
  F  F15  1  0.079598  0.070890  0.316082  1
  F  F16  1  0.168092  0.229849  0.838458  1
  F  F17  1  0.656038  0.778029  0.663301  1
  F  F18  1  0.848152  0.796337  0.157753  1
  F  F19  1  0.337413  0.228814  0.338012  1
  F  F20  1  0.726767  0.120716  0.843818  1
  F  F21  1  0.215437  0.876195  0.659183  1
  F  F22  1  0.286705  0.875934  0.158584  1
  F  F23  1  0.772699  0.128995  0.339843  1
