# generated using pymatgen
data_Y2Ho5Tm9(Ga3Co)2
_symmetry_space_group_name_H-M   'P 1'
_cell_length_a   9.92269800
_cell_length_b   9.92344872
_cell_length_c   6.91498900
_cell_angle_alpha   89.99878338
_cell_angle_beta   89.99816278
_cell_angle_gamma   119.99067031
_symmetry_Int_Tables_number   1
_chemical_formula_structural   Y2Ho5Tm9(Ga3Co)2
_chemical_formula_sum   'Y2 Ho5 Tm9 Ga6 Co2'
_cell_volume   589.73289034
_cell_formula_units_Z   1
loop_
 _symmetry_equiv_pos_site_id
 _symmetry_equiv_pos_as_xyz
  1  'x, y, z'
loop_
 _atom_site_type_symbol
 _atom_site_label
 _atom_site_symmetry_multiplicity
 _atom_site_fract_x
 _atom_site_fract_y
 _atom_site_fract_z
 _atom_site_occupancy
  Y  Y0  1  0.999994  0.999998  0.269758  1
  Y  Y1  1  0.000045  0.999980  0.769728  1
  Ho  Ho2  1  0.536123  0.463877  0.793077  1
  Ho  Ho3  1  0.463773  0.927394  0.292995  1
  Ho  Ho4  1  0.072615  0.536245  0.292986  1
  Ho  Ho5  1  0.927571  0.463772  0.793026  1
  Ho  Ho6  1  0.536212  0.072400  0.793028  1
  Tm  Tm7  1  0.173892  0.826110  0.990059  1
  Tm  Tm8  1  0.826102  0.173901  0.490046  1
  Tm  Tm9  1  0.174182  0.348013  0.990346  1
  Tm  Tm10  1  0.651979  0.825811  0.990351  1
  Tm  Tm11  1  0.347899  0.174206  0.489816  1
  Tm  Tm12  1  0.825792  0.652102  0.489817  1
  Tm  Tm13  1  0.333493  0.666507  0.673692  1
  Tm  Tm14  1  0.666526  0.333466  0.173979  1
  Tm  Tm15  1  0.463543  0.536456  0.293181  1
  Ga  Ga16  1  0.163616  0.836397  0.541147  1
  Ga  Ga17  1  0.836373  0.163627  0.041015  1
  Ga  Ga18  1  0.163811  0.327421  0.540904  1
  Ga  Ga19  1  0.672575  0.836187  0.540931  1
  Ga  Ga20  1  0.327260  0.163608  0.041217  1
  Ga  Ga21  1  0.836392  0.672754  0.041194  1
  Co  Co22  1  0.333577  0.666439  0.057043  1
  Co  Co23  1  0.666658  0.333330  0.556785  1
