# generated using pymatgen
data_La12Zn(SnI4)3
_symmetry_space_group_name_H-M   'P 1'
_cell_length_a   11.32832364
_cell_length_b   11.21652673
_cell_length_c   11.21652753
_cell_angle_alpha   109.26843411
_cell_angle_beta   109.67324818
_cell_angle_gamma   109.67325125
_symmetry_Int_Tables_number   1
_chemical_formula_structural   La12Zn(SnI4)3
_chemical_formula_sum   'La12 Zn1 Sn3 I12'
_cell_volume   1094.38892887
_cell_formula_units_Z   1
loop_
 _symmetry_equiv_pos_site_id
 _symmetry_equiv_pos_as_xyz
  1  'x, y, z'
loop_
 _atom_site_type_symbol
 _atom_site_label
 _atom_site_symmetry_multiplicity
 _atom_site_fract_x
 _atom_site_fract_y
 _atom_site_fract_z
 _atom_site_occupancy
  La  La0  1  0.475810  0.494480  0.233578  1
  La  La1  1  0.750000  0.242140  0.257860  1
  La  La2  1  0.750000  0.007466  0.492534  1
  La  La3  1  0.242534  0.485069  0.492534  1
  La  La4  1  0.257769  0.739098  0.233578  1
  La  La5  1  0.024190  0.266422  0.005520  1
  La  La6  1  0.007860  0.015721  0.257860  1
  La  La7  1  0.481330  0.739098  0.005520  1
  La  La8  1  0.492140  0.242140  0.484279  1
  La  La9  1  0.018670  0.494480  0.760902  1
  La  La10  1  0.257466  0.007466  0.014931  1
  La  La11  1  0.242231  0.266422  0.760902  1
  Zn  Zn12  1  0.250000  0.500000  0.000000  1
  Sn  Sn13  1  0.250000  0.249654  0.250346  1
  Sn  Sn14  1  0.500346  0.000691  0.250346  1
  Sn  Sn15  1  0.999654  0.249654  0.499309  1
  I  I16  1  0.250000  0.756498  0.743502  1
  I  I17  1  0.511581  0.505891  0.756279  1
  I  I18  1  0.988419  0.743721  0.994109  1
  I  I19  1  0.744698  0.250388  0.756279  1
  I  I20  1  0.993502  0.987004  0.743502  1
  I  I21  1  0.250000  0.995348  0.504652  1
  I  I22  1  0.754652  0.509303  0.504652  1
  I  I23  1  0.505690  0.250388  0.994109  1
  I  I24  1  0.755302  0.743721  0.249612  1
  I  I25  1  0.745348  0.995348  0.990697  1
  I  I26  1  0.994310  0.505891  0.249612  1
  I  I27  1  0.506498  0.756498  0.512996  1
