# generated using pymatgen
data_Tb2Er10Ni4SnAu
_symmetry_space_group_name_H-M   'P 1'
_cell_length_a   8.29137022
_cell_length_b   8.28473199
_cell_length_c   8.29137033
_cell_angle_alpha   106.96258012
_cell_angle_beta   109.05022129
_cell_angle_gamma   112.48217184
_symmetry_Int_Tables_number   1
_chemical_formula_structural   Tb2Er10Ni4SnAu
_chemical_formula_sum   'Tb2 Er10 Ni4 Sn1 Au1'
_cell_volume   437.21726510
_cell_formula_units_Z   1
loop_
 _symmetry_equiv_pos_site_id
 _symmetry_equiv_pos_as_xyz
  1  'x, y, z'
loop_
 _atom_site_type_symbol
 _atom_site_label
 _atom_site_symmetry_multiplicity
 _atom_site_fract_x
 _atom_site_fract_y
 _atom_site_fract_z
 _atom_site_occupancy
  Tb  Tb0  1  0.023063  0.204062  0.818906  1
  Tb  Tb1  1  0.385155  0.204062  0.180999  1
  Er  Er2  1  0.698749  0.279461  0.979015  1
  Er  Er3  1  0.300322  0.719638  0.021099  1
  Er  Er4  1  0.698540  0.719638  0.419316  1
  Er  Er5  1  0.300446  0.279461  0.580713  1
  Er  Er6  1  0.806288  0.130112  0.323823  1
  Er  Er7  1  0.806190  0.482538  0.676348  1
  Er  Er8  1  0.193458  0.868326  0.674870  1
  Er  Er9  1  0.193336  0.517995  0.324659  1
  Er  Er10  1  0.614131  0.794461  0.819532  1
  Er  Er11  1  0.974928  0.794461  0.180329  1
  Ni  Ni12  1  0.864836  0.500766  0.364378  1
  Ni  Ni13  1  0.136388  0.500766  0.635930  1
  Ni  Ni14  1  0.998228  0.125426  0.127198  1
  Ni  Ni15  1  0.998808  0.871585  0.872777  1
  Sn  Sn16  1  0.499957  0.000017  0.500060  1
  Au  Au17  1  0.507177  0.507225  0.000048  1
