# generated using pymatgen
data_Ca2LaHo(Ru2O7)2
_symmetry_space_group_name_H-M   'P 1'
_cell_length_a   7.30541429
_cell_length_b   7.35327004
_cell_length_c   7.30541361
_cell_angle_alpha   59.87032422
_cell_angle_beta   59.75384995
_cell_angle_gamma   59.87032971
_symmetry_Int_Tables_number   1
_chemical_formula_structural   Ca2LaHo(Ru2O7)2
_chemical_formula_sum   'Ca2 La1 Ho1 Ru4 O14'
_cell_volume   276.43301544
_cell_formula_units_Z   1
loop_
 _symmetry_equiv_pos_site_id
 _symmetry_equiv_pos_as_xyz
  1  'x, y, z'
loop_
 _atom_site_type_symbol
 _atom_site_label
 _atom_site_symmetry_multiplicity
 _atom_site_fract_x
 _atom_site_fract_y
 _atom_site_fract_z
 _atom_site_occupancy
  Ca  Ca0  1  0.625000  0.625000  0.125000  1
  Ca  Ca1  1  0.125000  0.625000  0.625000  1
  La  La2  1  0.625000  0.625000  0.625000  1
  Ho  Ho3  1  0.625000  0.125000  0.625000  1
  Ru  Ru4  1  0.625000  0.125000  0.125000  1
  Ru  Ru5  1  0.125000  0.625000  0.125000  1
  Ru  Ru6  1  0.125000  0.125000  0.625000  1
  Ru  Ru7  1  0.125000  0.125000  0.125000  1
  O  O8  1  0.203003  0.195704  0.800237  1
  O  O9  1  0.192204  0.807993  0.192204  1
  O  O10  1  0.449763  0.054296  0.046997  1
  O  O11  1  0.195236  0.802413  0.799452  1
  O  O12  1  0.054764  0.447587  0.450548  1
  O  O13  1  0.799452  0.802413  0.195236  1
  O  O14  1  0.450548  0.447587  0.054764  1
  O  O15  1  0.501771  0.487962  0.501771  1
  O  O16  1  0.046997  0.054296  0.449763  1
  O  O17  1  0.456944  0.051559  0.456944  1
  O  O18  1  0.057796  0.442007  0.057796  1
  O  O19  1  0.748229  0.762038  0.748229  1
  O  O20  1  0.793056  0.198441  0.793056  1
  O  O21  1  0.800237  0.195704  0.203003  1
