# generated using pymatgen
data_Ta2ZnOs3
_symmetry_space_group_name_H-M   'P 1'
_cell_length_a   13.24821400
_cell_length_b   3.21407500
_cell_length_c   4.39504200
_cell_angle_alpha   90.00000000
_cell_angle_beta   90.00000000
_cell_angle_gamma   90.00000000
_symmetry_Int_Tables_number   1
_chemical_formula_structural   Ta2ZnOs3
_chemical_formula_sum   'Ta4 Zn2 Os6'
_cell_volume   187.14419964
_cell_formula_units_Z   2
loop_
 _symmetry_equiv_pos_site_id
 _symmetry_equiv_pos_as_xyz
  1  'x, y, z'
loop_
 _atom_site_type_symbol
 _atom_site_label
 _atom_site_symmetry_multiplicity
 _atom_site_fract_x
 _atom_site_fract_y
 _atom_site_fract_z
 _atom_site_occupancy
  Ta  Ta0  1  0.589491  0.499999  0.248471  1
  Ta  Ta1  1  0.910509  0.499999  0.248471  1
  Ta  Ta2  1  0.089491  0.499999  0.751530  1
  Ta  Ta3  1  0.410509  0.499999  0.751530  1
  Zn  Zn4  1  0.250000  0.499999  0.252572  1
  Zn  Zn5  1  0.750000  0.499999  0.747428  1
  Os  Os6  1  0.750000  0.000000  0.247591  1
  Os  Os7  1  0.079461  0.000000  0.251155  1
  Os  Os8  1  0.420539  0.000000  0.251155  1
  Os  Os9  1  0.579461  0.000000  0.748845  1
  Os  Os10  1  0.920539  0.000000  0.748845  1
  Os  Os11  1  0.250000  0.000000  0.752411  1
