# generated using pymatgen
data_Tb3HoGa4CoRu3
_symmetry_space_group_name_H-M   'P 1'
_cell_length_a   4.48887700
_cell_length_b   7.09368903
_cell_length_c   7.16131210
_cell_angle_alpha   89.80524163
_cell_angle_beta   90.00000000
_cell_angle_gamma   90.00000000
_symmetry_Int_Tables_number   1
_chemical_formula_structural   Tb3HoGa4CoRu3
_chemical_formula_sum   'Tb3 Ho1 Ga4 Co1 Ru3'
_cell_volume   228.03417789
_cell_formula_units_Z   1
loop_
 _symmetry_equiv_pos_site_id
 _symmetry_equiv_pos_as_xyz
  1  'x, y, z'
loop_
 _atom_site_type_symbol
 _atom_site_label
 _atom_site_symmetry_multiplicity
 _atom_site_fract_x
 _atom_site_fract_y
 _atom_site_fract_z
 _atom_site_occupancy
  Tb  Tb0  1  0.250000  0.304428  0.522278  1
  Tb  Tb1  1  0.750000  0.696443  0.478677  1
  Tb  Tb2  1  0.750000  0.802221  0.984404  1
  Ho  Ho3  1  0.250000  0.196686  0.021928  1
  Ga  Ga4  1  0.250000  0.895794  0.698886  1
  Ga  Ga5  1  0.250000  0.598830  0.195121  1
  Ga  Ga6  1  0.750000  0.113166  0.297610  1
  Ga  Ga7  1  0.750000  0.391881  0.810157  1
  Co  Co8  1  0.750000  0.437099  0.155277  1
  Ru  Ru9  1  0.250000  0.935349  0.338897  1
  Ru  Ru10  1  0.250000  0.562875  0.840708  1
  Ru  Ru11  1  0.750000  0.065229  0.656058  1
