# generated using pymatgen
data_DyHo7(ThRh)6
_symmetry_space_group_name_H-M   'P 1'
_cell_length_a   9.87994500
_cell_length_b   9.77459334
_cell_length_c   6.37638909
_cell_angle_alpha   89.98086595
_cell_angle_beta   90.00000000
_cell_angle_gamma   120.35718556
_symmetry_Int_Tables_number   1
_chemical_formula_structural   DyHo7(ThRh)6
_chemical_formula_sum   'Dy1 Ho7 Th6 Rh6'
_cell_volume   531.35433202
_cell_formula_units_Z   1
loop_
 _symmetry_equiv_pos_site_id
 _symmetry_equiv_pos_as_xyz
  1  'x, y, z'
loop_
 _atom_site_type_symbol
 _atom_site_label
 _atom_site_symmetry_multiplicity
 _atom_site_fract_x
 _atom_site_fract_y
 _atom_site_fract_z
 _atom_site_occupancy
  Dy  Dy0  1  0.332774  0.665550  0.462547  1
  Ho  Ho1  1  0.872420  0.744842  0.741037  1
  Ho  Ho2  1  0.539741  0.463104  0.445370  1
  Ho  Ho3  1  0.923362  0.463104  0.445370  1
  Ho  Ho4  1  0.538858  0.077715  0.444254  1
  Ho  Ho5  1  0.462391  0.540289  0.941337  1
  Ho  Ho6  1  0.077897  0.540289  0.941337  1
  Ho  Ho7  1  0.460221  0.920444  0.941519  1
  Th  Th8  1  0.666824  0.333647  0.962859  1
  Th  Th9  1  0.127080  0.870012  0.243365  1
  Th  Th10  1  0.742931  0.870012  0.243365  1
  Th  Th11  1  0.129023  0.258045  0.242459  1
  Th  Th12  1  0.869700  0.124771  0.739512  1
  Th  Th13  1  0.255071  0.124771  0.739512  1
  Rh  Rh14  1  0.813200  0.185077  0.193957  1
  Rh  Rh15  1  0.371874  0.185077  0.193957  1
  Rh  Rh16  1  0.814089  0.628180  0.196155  1
  Rh  Rh17  1  0.191514  0.819429  0.692804  1
  Rh  Rh18  1  0.627916  0.819429  0.692804  1
  Rh  Rh19  1  0.183109  0.366218  0.700021  1
