# generated using pymatgen
data_Tm2ZnCoRu
_symmetry_space_group_name_H-M   'P 1'
_cell_length_a   4.12291330
_cell_length_b   5.57774722
_cell_length_c   5.33954001
_cell_angle_alpha   121.48706532
_cell_angle_beta   112.71042739
_cell_angle_gamma   89.99999368
_symmetry_Int_Tables_number   1
_chemical_formula_structural   Tm2ZnCoRu
_chemical_formula_sum   'Tm2 Zn1 Co1 Ru1'
_cell_volume   93.36511548
_cell_formula_units_Z   1
loop_
 _symmetry_equiv_pos_site_id
 _symmetry_equiv_pos_as_xyz
  1  'x, y, z'
loop_
 _atom_site_type_symbol
 _atom_site_label
 _atom_site_symmetry_multiplicity
 _atom_site_fract_x
 _atom_site_fract_y
 _atom_site_fract_z
 _atom_site_occupancy
  Tm  Tm0  1  0.792615  0.288245  0.585230  1
  Tm  Tm1  1  0.207385  0.703016  0.414770  1
  Zn  Zn2  1  0.000000  0.990953  0.000000  1
  Co  Co3  1  0.500000  0.725865  0.000000  1
  Ru  Ru4  1  0.500000  0.291921  0.000000  1
