# generated using pymatgen
data_Y5AlIrO12
_symmetry_space_group_name_H-M   'P 1'
_cell_length_a   6.83422736
_cell_length_b   6.83422833
_cell_length_c   7.30168400
_cell_angle_alpha   74.50820471
_cell_angle_beta   74.50820244
_cell_angle_gamma   50.56578796
_symmetry_Int_Tables_number   1
_chemical_formula_structural   Y5AlIrO12
_chemical_formula_sum   'Y5 Al1 Ir1 O12'
_cell_volume   251.64734671
_cell_formula_units_Z   1
loop_
 _symmetry_equiv_pos_site_id
 _symmetry_equiv_pos_as_xyz
  1  'x, y, z'
loop_
 _atom_site_type_symbol
 _atom_site_label
 _atom_site_symmetry_multiplicity
 _atom_site_fract_x
 _atom_site_fract_y
 _atom_site_fract_z
 _atom_site_occupancy
  Y  Y0  1  0.695207  0.691006  0.667238  1
  Y  Y1  1  0.686301  0.707849  0.140992  1
  Y  Y2  1  0.997116  0.002884  0.000000  1
  Y  Y3  1  0.292151  0.313699  0.859008  1
  Y  Y4  1  0.308994  0.304793  0.332762  1
  Al  Al5  1  0.250823  0.749177  0.500000  1
  Ir  Ir6  1  0.760970  0.239030  0.500000  1
  O  O7  1  0.399466  0.907969  0.923257  1
  O  O8  1  0.576885  0.095868  0.583103  1
  O  O9  1  0.904132  0.423115  0.416897  1
  O  O10  1  0.092031  0.600534  0.076743  1
  O  O11  1  0.005900  0.994042  0.321214  1
  O  O12  1  0.504231  0.496308  0.680248  1
  O  O13  1  0.898088  0.404561  0.926971  1
  O  O14  1  0.102226  0.579611  0.580155  1
  O  O15  1  0.420389  0.897774  0.419845  1
  O  O16  1  0.595439  0.101912  0.073029  1
  O  O17  1  0.503692  0.495769  0.319752  1
  O  O18  1  0.005958  0.994100  0.678786  1
