# generated using pymatgen
data_Sr4DyPu7N16
_symmetry_space_group_name_H-M   'P 1'
_cell_length_a   9.90266897
_cell_length_b   3.44051800
_cell_length_c   11.61165100
_cell_angle_alpha   90.00000000
_cell_angle_beta   89.86879320
_cell_angle_gamma   90.00000000
_symmetry_Int_Tables_number   1
_chemical_formula_structural   Sr4DyPu7N16
_chemical_formula_sum   'Sr4 Dy1 Pu7 N16'
_cell_volume   395.61152142
_cell_formula_units_Z   1
loop_
 _symmetry_equiv_pos_site_id
 _symmetry_equiv_pos_as_xyz
  1  'x, y, z'
loop_
 _atom_site_type_symbol
 _atom_site_label
 _atom_site_symmetry_multiplicity
 _atom_site_fract_x
 _atom_site_fract_y
 _atom_site_fract_z
 _atom_site_occupancy
  Sr  Sr0  1  0.753816  0.500001  0.143909  1
  Sr  Sr1  1  0.249657  0.500001  0.353987  1
  Sr  Sr2  1  0.748581  0.000000  0.648302  1
  Sr  Sr3  1  0.254241  0.000000  0.850524  1
  Dy  Dy4  1  0.089662  0.500001  0.107327  1
  Pu  Pu5  1  0.422714  0.000000  0.114760  1
  Pu  Pu6  1  0.923655  0.000000  0.387726  1
  Pu  Pu7  1  0.580183  0.500001  0.386853  1
  Pu  Pu8  1  0.421177  0.000000  0.612017  1
  Pu  Pu9  1  0.075061  0.500001  0.614302  1
  Pu  Pu10  1  0.575121  0.500001  0.889286  1
  Pu  Pu11  1  0.928418  0.000000  0.887968  1
  N  N12  1  0.603152  0.000000  0.015245  1
  N  N13  1  0.924591  0.000000  0.060750  1
  N  N14  1  0.231013  0.000000  0.177569  1
  N  N15  1  0.487796  0.500001  0.216474  1
  N  N16  1  0.978843  0.500001  0.288049  1
  N  N17  1  0.710612  0.000000  0.335987  1
  N  N18  1  0.442215  0.000000  0.425254  1
  N  N19  1  0.115198  0.000000  0.495974  1
  N  N20  1  0.883316  0.500001  0.505539  1
  N  N21  1  0.560634  0.500001  0.574909  1
  N  N22  1  0.290096  0.500001  0.664852  1
  N  N23  1  0.001410  0.000000  0.713311  1
  N  N24  1  0.515983  0.000000  0.785385  1
  N  N25  1  0.788205  0.500001  0.842302  1
  N  N26  1  0.064398  0.500001  0.909135  1
  N  N27  1  0.380267  0.500001  0.992313  1
