# generated using pymatgen
data_Dy3Zn3Pd2Rh
_symmetry_space_group_name_H-M   'P 1'
_cell_length_a   7.26175900
_cell_length_b   7.26176032
_cell_length_c   3.85790200
_cell_angle_alpha   90.00000000
_cell_angle_beta   90.00000000
_cell_angle_gamma   119.99999856
_symmetry_Int_Tables_number   1
_chemical_formula_structural   Dy3Zn3Pd2Rh
_chemical_formula_sum   'Dy3 Zn3 Pd2 Rh1'
_cell_volume   176.18363710
_cell_formula_units_Z   1
loop_
 _symmetry_equiv_pos_site_id
 _symmetry_equiv_pos_as_xyz
  1  'x, y, z'
loop_
 _atom_site_type_symbol
 _atom_site_label
 _atom_site_symmetry_multiplicity
 _atom_site_fract_x
 _atom_site_fract_y
 _atom_site_fract_z
 _atom_site_occupancy
  Dy  Dy0  1  0.410830  0.401730  0.500000  1
  Dy  Dy1  1  0.598270  0.009100  0.500000  1
  Dy  Dy2  1  0.990900  0.589170  0.500000  1
  Zn  Zn3  1  0.746362  0.744915  0.000000  1
  Zn  Zn4  1  0.255085  0.001447  0.000000  1
  Zn  Zn5  1  0.998553  0.253638  0.000000  1
  Pd  Pd6  1  0.333333  0.666667  0.000000  1
  Pd  Pd7  1  0.000000  0.000000  0.500000  1
  Rh  Rh8  1  0.666667  0.333333  0.000000  1
