# generated using pymatgen
data_Hf3In2GaCuRh2
_symmetry_space_group_name_H-M   'P 1'
_cell_length_a   7.48291629
_cell_length_b   7.48291486
_cell_length_c   3.35293400
_cell_angle_alpha   90.00000000
_cell_angle_beta   90.00000000
_cell_angle_gamma   120.12271907
_symmetry_Int_Tables_number   1
_chemical_formula_structural   Hf3In2GaCuRh2
_chemical_formula_sum   'Hf3 In2 Ga1 Cu1 Rh2'
_cell_volume   162.38987590
_cell_formula_units_Z   1
loop_
 _symmetry_equiv_pos_site_id
 _symmetry_equiv_pos_as_xyz
  1  'x, y, z'
loop_
 _atom_site_type_symbol
 _atom_site_label
 _atom_site_symmetry_multiplicity
 _atom_site_fract_x
 _atom_site_fract_y
 _atom_site_fract_z
 _atom_site_occupancy
  Hf  Hf0  1  0.396454  0.011737  0.500000  1
  Hf  Hf1  1  0.011737  0.396454  0.500000  1
  Hf  Hf2  1  0.588275  0.588275  0.500000  1
  In  In3  1  0.733584  0.996801  0.000000  1
  In  In4  1  0.996801  0.733584  0.000000  1
  Ga  Ga5  1  0.268672  0.268672  0.000000  1
  Cu  Cu6  1  0.019155  0.019155  0.500000  1
  Rh  Rh7  1  0.328557  0.656766  0.000000  1
  Rh  Rh8  1  0.656766  0.328557  0.000000  1
