# generated using pymatgen
data_Ca5Zn2Ir
_symmetry_space_group_name_H-M   'P 1'
_cell_length_a   9.19189222
_cell_length_b   9.19189295
_cell_length_c   9.19189328
_cell_angle_alpha   129.79249612
_cell_angle_beta   129.32886734
_cell_angle_gamma   74.11069636
_symmetry_Int_Tables_number   1
_chemical_formula_structural   Ca5Zn2Ir
_chemical_formula_sum   'Ca10 Zn4 Ir2'
_cell_volume   450.08997890
_cell_formula_units_Z   2
loop_
 _symmetry_equiv_pos_site_id
 _symmetry_equiv_pos_as_xyz
  1  'x, y, z'
loop_
 _atom_site_type_symbol
 _atom_site_label
 _atom_site_symmetry_multiplicity
 _atom_site_fract_x
 _atom_site_fract_y
 _atom_site_fract_z
 _atom_site_occupancy
  Ca  Ca0  1  0.985607  0.468035  0.174513  1
  Ca  Ca1  1  0.452912  0.307700  0.488076  1
  Ca  Ca2  1  0.706478  0.188905  0.174513  1
  Ca  Ca3  1  0.011632  0.004089  0.015722  1
  Ca  Ca4  1  0.180376  0.035165  0.488076  1
  Ca  Ca5  1  0.793522  0.968035  0.482428  1
  Ca  Ca6  1  0.319624  0.807700  0.854789  1
  Ca  Ca7  1  0.514393  0.688905  0.482428  1
  Ca  Ca8  1  0.488368  0.504089  0.992457  1
  Ca  Ca9  1  0.047088  0.535165  0.854789  1
  Zn  Zn10  1  0.613938  0.117793  0.731730  1
  Zn  Zn11  1  0.750000  0.741682  0.991682  1
  Zn  Zn12  1  0.886062  0.617793  0.503855  1
  Zn  Zn13  1  0.250000  0.241682  0.991682  1
  Ir  Ir14  1  0.115149  0.386630  0.501779  1
  Ir  Ir15  1  0.384851  0.886630  0.271481  1
