# generated using pymatgen
data_Tb5Pr(CoSn6)2
_symmetry_space_group_name_H-M   'P 1'
_cell_length_a   8.53315722
_cell_length_b   8.53315716
_cell_length_c   13.22405032
_cell_angle_alpha   89.96922034
_cell_angle_beta   90.03077944
_cell_angle_gamma   148.84702778
_symmetry_Int_Tables_number   1
_chemical_formula_structural   Tb5Pr(CoSn6)2
_chemical_formula_sum   'Tb5 Pr1 Co2 Sn12'
_cell_volume   498.13514384
_cell_formula_units_Z   1
loop_
 _symmetry_equiv_pos_site_id
 _symmetry_equiv_pos_as_xyz
  1  'x, y, z'
loop_
 _atom_site_type_symbol
 _atom_site_label
 _atom_site_symmetry_multiplicity
 _atom_site_fract_x
 _atom_site_fract_y
 _atom_site_fract_z
 _atom_site_occupancy
  Tb  Tb0  1  0.898782  0.101218  0.091636  1
  Tb  Tb1  1  0.101344  0.898656  0.594039  1
  Tb  Tb2  1  0.899537  0.100463  0.751289  1
  Tb  Tb3  1  0.100695  0.899305  0.907102  1
  Tb  Tb4  1  0.100560  0.899440  0.248911  1
  Pr  Pr5  1  0.900843  0.099157  0.407590  1
  Co  Co6  1  0.298998  0.701002  0.248898  1
  Co  Co7  1  0.700071  0.299929  0.751006  1
  Sn  Sn8  1  0.754016  0.245984  0.572903  1
  Sn  Sn9  1  0.429740  0.570260  0.580365  1
  Sn  Sn10  1  0.572925  0.427075  0.423174  1
  Sn  Sn11  1  0.734122  0.265878  0.248716  1
  Sn  Sn12  1  0.265032  0.734968  0.750475  1
  Sn  Sn13  1  0.244442  0.755558  0.070931  1
  Sn  Sn14  1  0.243221  0.756779  0.427735  1
  Sn  Sn15  1  0.572001  0.427999  0.075447  1
  Sn  Sn16  1  0.454014  0.545986  0.246232  1
  Sn  Sn17  1  0.546464  0.453536  0.751274  1
  Sn  Sn18  1  0.755258  0.244742  0.928448  1
  Sn  Sn19  1  0.427934  0.572066  0.923830  1
