# generated using pymatgen
data_Cs6GdYBr12
_symmetry_space_group_name_H-M   'P 1'
_cell_length_a   10.02693523
_cell_length_b   10.03285002
_cell_length_c   8.32772500
_cell_angle_alpha   90.00000000
_cell_angle_beta   90.00000000
_cell_angle_gamma   89.99096972
_symmetry_Int_Tables_number   1
_chemical_formula_structural   Cs6GdYBr12
_chemical_formula_sum   'Cs6 Gd1 Y1 Br12'
_cell_volume   837.75860873
_cell_formula_units_Z   1
loop_
 _symmetry_equiv_pos_site_id
 _symmetry_equiv_pos_as_xyz
  1  'x, y, z'
loop_
 _atom_site_type_symbol
 _atom_site_label
 _atom_site_symmetry_multiplicity
 _atom_site_fract_x
 _atom_site_fract_y
 _atom_site_fract_z
 _atom_site_occupancy
  Cs  Cs0  1  0.000000  0.000000  0.500000  1
  Cs  Cs1  1  0.000000  0.000000  0.000000  1
  Cs  Cs2  1  0.235931  0.583996  0.500000  1
  Cs  Cs3  1  0.764069  0.416004  0.500000  1
  Cs  Cs4  1  0.415566  0.234355  0.000000  1
  Cs  Cs5  1  0.584434  0.765645  0.000000  1
  Gd  Gd6  1  0.000000  0.500000  0.000000  1
  Y  Y7  1  0.500000  0.000000  0.500000  1
  Br  Br8  1  0.691662  0.057504  0.740080  1
  Br  Br9  1  0.308338  0.942496  0.740080  1
  Br  Br10  1  0.942243  0.693293  0.242102  1
  Br  Br11  1  0.057757  0.306707  0.242102  1
  Br  Br12  1  0.308338  0.942496  0.259920  1
  Br  Br13  1  0.691662  0.057504  0.259920  1
  Br  Br14  1  0.057757  0.306707  0.757898  1
  Br  Br15  1  0.942243  0.693293  0.757898  1
  Br  Br16  1  0.570644  0.729325  0.500000  1
  Br  Br17  1  0.429356  0.270675  0.500000  1
  Br  Br18  1  0.273500  0.569759  0.000000  1
  Br  Br19  1  0.726500  0.430241  0.000000  1
