# generated using pymatgen
data_Tb15HoMgCo4Ag3
_symmetry_space_group_name_H-M   'P 1'
_cell_length_a   9.47964484
_cell_length_b   9.50072826
_cell_length_c   9.47863900
_cell_angle_alpha   60.07687738
_cell_angle_beta   60.00350639
_cell_angle_gamma   60.14305488
_symmetry_Int_Tables_number   1
_chemical_formula_structural   Tb15HoMgCo4Ag3
_chemical_formula_sum   'Tb15 Ho1 Mg1 Co4 Ag3'
_cell_volume   604.65975729
_cell_formula_units_Z   1
loop_
 _symmetry_equiv_pos_site_id
 _symmetry_equiv_pos_as_xyz
  1  'x, y, z'
loop_
 _atom_site_type_symbol
 _atom_site_label
 _atom_site_symmetry_multiplicity
 _atom_site_fract_x
 _atom_site_fract_y
 _atom_site_fract_z
 _atom_site_occupancy
  Tb  Tb0  1  0.345022  0.345238  0.345178  1
  Tb  Tb1  1  0.345022  0.345238  0.964563  1
  Tb  Tb2  1  0.345102  0.964363  0.345268  1
  Tb  Tb3  1  0.951794  0.349864  0.349171  1
  Tb  Tb4  1  0.808986  0.188652  0.190350  1
  Tb  Tb5  1  0.184939  0.813514  0.814074  1
  Tb  Tb6  1  0.184939  0.813514  0.187474  1
  Tb  Tb7  1  0.808986  0.188652  0.812013  1
  Tb  Tb8  1  0.185030  0.185873  0.814549  1
  Tb  Tb9  1  0.808444  0.810928  0.190314  1
  Tb  Tb10  1  0.935843  0.563434  0.562676  1
  Tb  Tb11  1  0.563669  0.936886  0.936974  1
  Tb  Tb12  1  0.563669  0.936886  0.562473  1
  Tb  Tb13  1  0.935843  0.563434  0.938047  1
  Tb  Tb14  1  0.561936  0.562662  0.937702  1
  Ho  Ho15  1  0.937055  0.938967  0.561989  1
  Mg  Mg16  1  0.291462  0.569277  0.569629  1
  Co  Co17  1  0.138035  0.142416  0.142310  1
  Co  Co18  1  0.138035  0.142416  0.577239  1
  Co  Co19  1  0.139531  0.577480  0.141494  1
  Co  Co20  1  0.576916  0.142101  0.140491  1
  Ag  Ag21  1  0.582999  0.583563  0.582734  1
  Ag  Ag22  1  0.582999  0.583563  0.250703  1
  Ag  Ag23  1  0.583743  0.251082  0.582587  1
