# generated using pymatgen
data_Ba(MnS2)4
_symmetry_space_group_name_H-M   'P 1'
_cell_length_a   8.49023934
_cell_length_b   8.49023876
_cell_length_c   8.49023996
_cell_angle_alpha   46.61448164
_cell_angle_beta   46.61447935
_cell_angle_gamma   46.61447233
_symmetry_Int_Tables_number   1
_chemical_formula_structural   Ba(MnS2)4
_chemical_formula_sum   'Ba1 Mn4 S8'
_cell_volume   295.22983399
_cell_formula_units_Z   1
loop_
 _symmetry_equiv_pos_site_id
 _symmetry_equiv_pos_as_xyz
  1  'x, y, z'
loop_
 _atom_site_type_symbol
 _atom_site_label
 _atom_site_symmetry_multiplicity
 _atom_site_fract_x
 _atom_site_fract_y
 _atom_site_fract_z
 _atom_site_occupancy
  Ba  Ba0  1  0.500000  0.500000  0.500000  1
  Mn  Mn1  1  0.000000  0.500000  0.500000  1
  Mn  Mn2  1  0.500000  0.000000  0.500000  1
  Mn  Mn3  1  0.500000  0.500000  0.000000  1
  Mn  Mn4  1  0.000000  0.000000  0.000000  1
  S  S5  1  0.272464  0.777491  0.777491  1
  S  S6  1  0.222509  0.222509  0.727536  1
  S  S7  1  0.727536  0.222509  0.222509  1
  S  S8  1  0.222509  0.727536  0.222509  1
  S  S9  1  0.275295  0.275295  0.275295  1
  S  S10  1  0.724705  0.724705  0.724705  1
  S  S11  1  0.777491  0.272464  0.777491  1
  S  S12  1  0.777491  0.777491  0.272464  1
