# generated using pymatgen
data_Pr10Bi5PbS2
_symmetry_space_group_name_H-M   'P 1'
_cell_length_a   9.59262542
_cell_length_b   9.59262521
_cell_length_c   6.81764100
_cell_angle_alpha   90.00000000
_cell_angle_beta   90.00000000
_cell_angle_gamma   119.78798466
_symmetry_Int_Tables_number   1
_chemical_formula_structural   Pr10Bi5PbS2
_chemical_formula_sum   'Pr10 Bi5 Pb1 S2'
_cell_volume   544.45701014
_cell_formula_units_Z   1
loop_
 _symmetry_equiv_pos_site_id
 _symmetry_equiv_pos_as_xyz
  1  'x, y, z'
loop_
 _atom_site_type_symbol
 _atom_site_label
 _atom_site_symmetry_multiplicity
 _atom_site_fract_x
 _atom_site_fract_y
 _atom_site_fract_z
 _atom_site_occupancy
  Pr  Pr0  1  0.666141  0.333407  0.999475  1
  Pr  Pr1  1  0.333407  0.666141  0.999475  1
  Pr  Pr2  1  0.333407  0.666141  0.500525  1
  Pr  Pr3  1  0.666141  0.333407  0.500525  1
  Pr  Pr4  1  0.754025  0.754025  0.750000  1
  Pr  Pr5  1  0.246166  0.001690  0.750000  1
  Pr  Pr6  1  0.001690  0.246166  0.750000  1
  Pr  Pr7  1  0.245708  0.245708  0.250000  1
  Pr  Pr8  1  0.754602  0.999965  0.250000  1
  Pr  Pr9  1  0.999965  0.754602  0.250000  1
  Bi  Bi10  1  0.605507  0.000057  0.750000  1
  Bi  Bi11  1  0.000057  0.605507  0.750000  1
  Bi  Bi12  1  0.604600  0.604600  0.250000  1
  Bi  Bi13  1  0.394545  0.000175  0.250000  1
  Bi  Bi14  1  0.000175  0.394545  0.250000  1
  Pb  Pb15  1  0.394836  0.394836  0.750000  1
  S  S16  1  0.999514  0.999514  0.000158  1
  S  S17  1  0.999514  0.999514  0.499842  1
