# generated using pymatgen
data_Ta3Nb3Co15Si7Ir
_symmetry_space_group_name_H-M   'P 1'
_cell_length_a   7.96179771
_cell_length_b   7.95715725
_cell_length_c   7.95287164
_cell_angle_alpha   59.88751512
_cell_angle_beta   59.85425257
_cell_angle_gamma   59.80344686
_symmetry_Int_Tables_number   1
_chemical_formula_structural   Ta3Nb3Co15Si7Ir
_chemical_formula_sum   'Ta3 Nb3 Co15 Si7 Ir1'
_cell_volume   355.04295323
_cell_formula_units_Z   1
loop_
 _symmetry_equiv_pos_site_id
 _symmetry_equiv_pos_as_xyz
  1  'x, y, z'
loop_
 _atom_site_type_symbol
 _atom_site_label
 _atom_site_symmetry_multiplicity
 _atom_site_fract_x
 _atom_site_fract_y
 _atom_site_fract_z
 _atom_site_occupancy
  Ta  Ta0  1  0.796976  0.200907  0.797081  1
  Ta  Ta1  1  0.796149  0.796628  0.201285  1
  Ta  Ta2  1  0.200798  0.201013  0.801374  1
  Nb  Nb3  1  0.199673  0.798293  0.798040  1
  Nb  Nb4  1  0.200006  0.802553  0.199766  1
  Nb  Nb5  1  0.802978  0.199469  0.199063  1
  Co  Co6  1  0.499212  0.834745  0.833305  1
  Co  Co7  1  0.621402  0.620987  0.143416  1
  Co  Co8  1  0.162137  0.163547  0.505828  1
  Co  Co9  1  0.833502  0.833704  0.499011  1
  Co  Co10  1  0.167453  0.167718  0.166422  1
  Co  Co11  1  0.833062  0.834248  0.833940  1
  Co  Co12  1  0.381568  0.380276  0.857052  1
  Co  Co13  1  0.834789  0.497710  0.833534  1
  Co  Co14  1  0.620367  0.619252  0.619775  1
  Co  Co15  1  0.381666  0.857170  0.380716  1
  Co  Co16  1  0.143077  0.620432  0.621686  1
  Co  Co17  1  0.621011  0.143220  0.621795  1
  Co  Co18  1  0.162633  0.504418  0.163581  1
  Co  Co19  1  0.857088  0.381065  0.381382  1
  Co  Co20  1  0.505834  0.162712  0.162258  1
  Si  Si21  1  0.999595  0.999448  0.498990  1
  Si  Si22  1  0.500963  0.992124  0.500844  1
  Si  Si23  1  0.504622  0.505106  0.504565  1
  Si  Si24  1  0.999285  0.499359  0.999431  1
  Si  Si25  1  0.500906  0.501363  0.992212  1
  Si  Si26  1  0.498842  0.999453  0.999669  1
  Si  Si27  1  0.992108  0.501360  0.500782  1
  Ir  Ir28  1  0.382299  0.381718  0.383195  1
