# generated using pymatgen
data_CaTm3(NiB4)4
_symmetry_space_group_name_H-M   'P 1'
_cell_length_a   6.79157362
_cell_length_b   6.79157258
_cell_length_c   6.79157317
_cell_angle_alpha   112.95989222
_cell_angle_beta   112.95988964
_cell_angle_gamma   102.69885731
_symmetry_Int_Tables_number   1
_chemical_formula_structural   CaTm3(NiB4)4
_chemical_formula_sum   'Ca1 Tm3 Ni4 B16'
_cell_volume   238.66559130
_cell_formula_units_Z   1
loop_
 _symmetry_equiv_pos_site_id
 _symmetry_equiv_pos_as_xyz
  1  'x, y, z'
loop_
 _atom_site_type_symbol
 _atom_site_label
 _atom_site_symmetry_multiplicity
 _atom_site_fract_x
 _atom_site_fract_y
 _atom_site_fract_z
 _atom_site_occupancy
  Ca  Ca0  1  0.204132  0.204132  0.000000  1
  Tm  Tm1  1  0.249486  0.749486  0.500000  1
  Tm  Tm2  1  0.749486  0.249486  0.500000  1
  Tm  Tm3  1  0.796878  0.796878  0.000000  1
  Ni  Ni4  1  0.500921  0.729605  0.228684  1
  Ni  Ni5  1  0.729605  0.500921  0.228684  1
  Ni  Ni6  1  0.272237  0.500921  0.771316  1
  Ni  Ni7  1  0.500921  0.272237  0.771316  1
  B  B8  1  0.112258  0.112258  0.530435  1
  B  B9  1  0.581824  0.581824  0.469565  1
  B  B10  1  0.885161  0.885161  0.465346  1
  B  B11  1  0.581824  0.112258  0.000000  1
  B  B12  1  0.112258  0.581824  0.000000  1
  B  B13  1  0.885161  0.419816  0.000000  1
  B  B14  1  0.419816  0.885161  0.000000  1
  B  B15  1  0.419816  0.419816  0.534654  1
  B  B16  1  0.111396  0.276130  0.387972  1
  B  B17  1  0.276130  0.888158  0.164734  1
  B  B18  1  0.723425  0.111396  0.835266  1
  B  B19  1  0.111396  0.723425  0.835266  1
  B  B20  1  0.888158  0.276130  0.164734  1
  B  B21  1  0.888158  0.723425  0.612028  1
  B  B22  1  0.723425  0.888158  0.612028  1
  B  B23  1  0.276130  0.111396  0.387972  1
