# generated using pymatgen
data_Ce3HoTm2(ZnCo2)6
_symmetry_space_group_name_H-M   'P 1'
_cell_length_a   5.06862600
_cell_length_b   5.06862611
_cell_length_c   16.40127200
_cell_angle_alpha   90.00000000
_cell_angle_beta   90.00000000
_cell_angle_gamma   119.99999931
_symmetry_Int_Tables_number   1
_chemical_formula_structural   Ce3HoTm2(ZnCo2)6
_chemical_formula_sum   'Ce3 Ho1 Tm2 Zn6 Co12'
_cell_volume   364.91243994
_cell_formula_units_Z   1
loop_
 _symmetry_equiv_pos_site_id
 _symmetry_equiv_pos_as_xyz
  1  'x, y, z'
loop_
 _atom_site_type_symbol
 _atom_site_label
 _atom_site_symmetry_multiplicity
 _atom_site_fract_x
 _atom_site_fract_y
 _atom_site_fract_z
 _atom_site_occupancy
  Ce  Ce0  1  0.666667  0.333333  0.443026  1
  Ce  Ce1  1  0.666667  0.333333  0.050956  1
  Ce  Ce2  1  0.333333  0.666667  0.943499  1
  Ho  Ho3  1  0.333333  0.666667  0.541763  1
  Tm  Tm4  1  0.333333  0.666667  0.741950  1
  Tm  Tm5  1  0.666667  0.333333  0.246811  1
  Zn  Zn6  1  0.000000  0.000000  0.251267  1
  Zn  Zn7  1  0.000000  0.000000  0.754542  1
  Zn  Zn8  1  0.333333  0.666667  0.250795  1
  Zn  Zn9  1  0.666667  0.333333  0.754083  1
  Zn  Zn10  1  0.000000  0.000000  0.000368  1
  Zn  Zn11  1  0.000000  0.000000  0.501755  1
  Co  Co12  1  0.168307  0.336614  0.126019  1
  Co  Co13  1  0.831193  0.662385  0.876903  1
  Co  Co14  1  0.663386  0.831693  0.126019  1
  Co  Co15  1  0.830490  0.660980  0.627954  1
  Co  Co16  1  0.337615  0.168807  0.876903  1
  Co  Co17  1  0.168498  0.336995  0.375519  1
  Co  Co18  1  0.168307  0.831693  0.126019  1
  Co  Co19  1  0.339020  0.169510  0.627954  1
  Co  Co20  1  0.831193  0.168807  0.876903  1
  Co  Co21  1  0.663005  0.831502  0.375519  1
  Co  Co22  1  0.830490  0.169510  0.627954  1
  Co  Co23  1  0.168498  0.831502  0.375519  1
