# generated using pymatgen
data_Ba8ReSb(RhO10)2
_symmetry_space_group_name_H-M   'P 1'
_cell_length_a   5.80753000
_cell_length_b   7.50956092
_cell_length_c   11.72846300
_cell_angle_alpha   89.58824384
_cell_angle_beta   90.00000000
_cell_angle_gamma   90.00000000
_symmetry_Int_Tables_number   1
_chemical_formula_structural   Ba8ReSb(RhO10)2
_chemical_formula_sum   'Ba8 Re1 Sb1 Rh2 O20'
_cell_volume   511.48852367
_cell_formula_units_Z   1
loop_
 _symmetry_equiv_pos_site_id
 _symmetry_equiv_pos_as_xyz
  1  'x, y, z'
loop_
 _atom_site_type_symbol
 _atom_site_label
 _atom_site_symmetry_multiplicity
 _atom_site_fract_x
 _atom_site_fract_y
 _atom_site_fract_z
 _atom_site_occupancy
  Ba  Ba0  1  0.750000  0.487144  0.277243  1
  Ba  Ba1  1  0.250000  0.530692  0.714581  1
  Ba  Ba2  1  0.750000  0.977535  0.204116  1
  Ba  Ba3  1  0.250000  0.024314  0.795465  1
  Ba  Ba4  1  0.750000  0.170628  0.587431  1
  Ba  Ba5  1  0.250000  0.820339  0.410421  1
  Ba  Ba6  1  0.750000  0.662633  0.928508  1
  Ba  Ba7  1  0.250000  0.332545  0.074993  1
  Re  Re8  1  0.250000  0.324860  0.440132  1
  Sb  Sb9  1  0.250000  0.825574  0.067500  1
  Rh  Rh10  1  0.750000  0.171819  0.933778  1
  Rh  Rh11  1  0.750000  0.675666  0.560733  1
  O  O12  1  0.482028  0.176805  0.394042  1
  O  O13  1  0.992094  0.824700  0.609590  1
  O  O14  1  0.997877  0.672603  0.123476  1
  O  O15  1  0.508135  0.321543  0.878783  1
  O  O16  1  0.507906  0.824700  0.609590  1
  O  O17  1  0.017972  0.176805  0.394042  1
  O  O18  1  0.991865  0.321543  0.878783  1
  O  O19  1  0.502123  0.672603  0.123476  1
  O  O20  1  0.491440  0.495097  0.499102  1
  O  O21  1  0.008560  0.495097  0.499102  1
  O  O22  1  0.999233  0.000478  0.997903  1
  O  O23  1  0.500767  0.000478  0.997903  1
  O  O24  1  0.750000  0.287645  0.085914  1
  O  O25  1  0.250000  0.711980  0.911466  1
  O  O26  1  0.750000  0.780804  0.405819  1
  O  O27  1  0.250000  0.227148  0.593178  1
  O  O28  1  0.750000  0.028726  0.798573  1
  O  O29  1  0.250000  0.984097  0.201225  1
  O  O30  1  0.750000  0.531423  0.694370  1
  O  O31  1  0.250000  0.461972  0.308767  1
