# generated using pymatgen
data_Dy5Tm4LuPb6
_symmetry_space_group_name_H-M   'P 1'
_cell_length_a   6.56584000
_cell_length_b   8.99747476
_cell_length_c   9.00788600
_cell_angle_alpha   119.97055915
_cell_angle_beta   90.00049585
_cell_angle_gamma   89.99937918
_symmetry_Int_Tables_number   1
_chemical_formula_structural   Dy5Tm4LuPb6
_chemical_formula_sum   'Dy5 Tm4 Lu1 Pb6'
_cell_volume   460.99180946
_cell_formula_units_Z   1
loop_
 _symmetry_equiv_pos_site_id
 _symmetry_equiv_pos_as_xyz
  1  'x, y, z'
loop_
 _atom_site_type_symbol
 _atom_site_label
 _atom_site_symmetry_multiplicity
 _atom_site_fract_x
 _atom_site_fract_y
 _atom_site_fract_z
 _atom_site_occupancy
  Dy  Dy0  1  0.750133  0.236516  0.000067  1
  Dy  Dy1  1  0.750131  0.763365  0.762896  1
  Dy  Dy2  1  0.750113  0.000529  0.237667  1
  Dy  Dy3  1  0.249907  0.763238  0.999422  1
  Dy  Dy4  1  0.249895  0.236889  0.236854  1
  Tm  Tm5  1  0.249867  0.999622  0.763270  1
  Tm  Tm6  1  0.499887  0.333155  0.666975  1
  Tm  Tm7  1  0.499906  0.666735  0.332972  1
  Tm  Tm8  1  0.000089  0.666730  0.332989  1
  Lu  Lu9  1  0.000106  0.333182  0.667015  1
  Pb  Pb10  1  0.750343  0.603666  0.999591  1
  Pb  Pb11  1  0.750377  0.395526  0.395789  1
  Pb  Pb12  1  0.750393  0.000266  0.603744  1
  Pb  Pb13  1  0.249605  0.394435  0.998645  1
  Pb  Pb14  1  0.249658  0.605777  0.604981  1
  Pb  Pb15  1  0.249588  0.000369  0.397125  1
