# generated using pymatgen
data_Ti3V2GaSi2
_symmetry_space_group_name_H-M   'P 1'
_cell_length_a   7.40594901
_cell_length_b   7.40657739
_cell_length_c   4.98031800
_cell_angle_alpha   90.00000000
_cell_angle_beta   90.00000000
_cell_angle_gamma   120.00281105
_symmetry_Int_Tables_number   1
_chemical_formula_structural   Ti3V2GaSi2
_chemical_formula_sum   'Ti6 V4 Ga2 Si4'
_cell_volume   236.57763489
_cell_formula_units_Z   2
loop_
 _symmetry_equiv_pos_site_id
 _symmetry_equiv_pos_as_xyz
  1  'x, y, z'
loop_
 _atom_site_type_symbol
 _atom_site_label
 _atom_site_symmetry_multiplicity
 _atom_site_fract_x
 _atom_site_fract_y
 _atom_site_fract_z
 _atom_site_occupancy
  Ti  Ti0  1  0.757585  0.753141  0.750000  1
  Ti  Ti1  1  0.242415  0.995556  0.750000  1
  Ti  Ti2  1  0.000000  0.248945  0.750000  1
  Ti  Ti3  1  0.244637  0.244866  0.250000  1
  Ti  Ti4  1  0.755363  0.000229  0.250000  1
  Ti  Ti5  1  0.000000  0.752041  0.250000  1
  V  V6  1  0.671448  0.336945  0.004053  1
  V  V7  1  0.328552  0.665497  0.004053  1
  V  V8  1  0.328552  0.665497  0.495947  1
  V  V9  1  0.671448  0.336945  0.495947  1
  Ga  Ga10  1  0.400358  0.399453  0.750000  1
  Ga  Ga11  1  0.599642  0.999094  0.750000  1
  Si  Si12  1  0.000000  0.600290  0.750000  1
  Si  Si13  1  0.600217  0.602418  0.250000  1
  Si  Si14  1  0.399783  0.002201  0.250000  1
  Si  Si15  1  0.000000  0.396883  0.250000  1
