# generated using pymatgen
data_Tb3Er(Sc3Sn4)2
_symmetry_space_group_name_H-M   'P 1'
_cell_length_a   7.70134820
_cell_length_b   7.95510892
_cell_length_c   14.85204719
_cell_angle_alpha   89.95519712
_cell_angle_beta   89.99105510
_cell_angle_gamma   90.11931446
_symmetry_Int_Tables_number   1
_chemical_formula_structural   Tb3Er(Sc3Sn4)2
_chemical_formula_sum   'Tb6 Er2 Sc12 Sn16'
_cell_volume   909.90935496
_cell_formula_units_Z   2
loop_
 _symmetry_equiv_pos_site_id
 _symmetry_equiv_pos_as_xyz
  1  'x, y, z'
loop_
 _atom_site_type_symbol
 _atom_site_label
 _atom_site_symmetry_multiplicity
 _atom_site_fract_x
 _atom_site_fract_y
 _atom_site_fract_z
 _atom_site_occupancy
  Tb  Tb0  1  0.993089  0.176724  0.094825  1
  Tb  Tb1  1  0.006911  0.823276  0.905175  1
  Tb  Tb2  1  0.506017  0.676636  0.906071  1
  Tb  Tb3  1  0.006184  0.822572  0.593800  1
  Tb  Tb4  1  0.493983  0.323364  0.093929  1
  Tb  Tb5  1  0.993816  0.177428  0.406200  1
  Er  Er6  1  0.491932  0.323150  0.406071  1
  Er  Er7  1  0.508068  0.676850  0.593929  1
  Sc  Sc8  1  0.167519  0.496011  0.749570  1
  Sc  Sc9  1  0.832481  0.503989  0.250430  1
  Sc  Sc10  1  0.332709  0.995473  0.250286  1
  Sc  Sc11  1  0.667291  0.004527  0.749714  1
  Sc  Sc12  1  0.338837  0.161668  0.627358  1
  Sc  Sc13  1  0.661163  0.838332  0.372642  1
  Sc  Sc14  1  0.161127  0.660257  0.373141  1
  Sc  Sc15  1  0.661552  0.839262  0.127896  1
  Sc  Sc16  1  0.838873  0.339743  0.626859  1
  Sc  Sc17  1  0.338448  0.160738  0.872104  1
  Sc  Sc18  1  0.838106  0.338730  0.872476  1
  Sc  Sc19  1  0.161894  0.661270  0.127524  1
  Sn  Sn20  1  0.029652  0.124747  0.749494  1
  Sn  Sn21  1  0.970348  0.875253  0.250506  1
  Sn  Sn22  1  0.469896  0.623936  0.250122  1
  Sn  Sn23  1  0.530104  0.376064  0.749878  1
  Sn  Sn24  1  0.310750  0.849203  0.748974  1
  Sn  Sn25  1  0.689250  0.150797  0.251026  1
  Sn  Sn26  1  0.191415  0.350002  0.250439  1
  Sn  Sn27  1  0.808585  0.649998  0.749561  1
  Sn  Sn28  1  0.184746  0.457650  0.542492  1
  Sn  Sn29  1  0.815254  0.542350  0.457508  1
  Sn  Sn30  1  0.319802  0.957440  0.457456  1
  Sn  Sn31  1  0.819647  0.543325  0.042668  1
  Sn  Sn32  1  0.680198  0.042560  0.542544  1
  Sn  Sn33  1  0.180353  0.456675  0.957332  1
  Sn  Sn34  1  0.680937  0.042403  0.957442  1
  Sn  Sn35  1  0.319063  0.957597  0.042558  1
