# generated using pymatgen
data_DyHoAl2IrPt
_symmetry_space_group_name_H-M   'P 1'
_cell_length_a   4.35882600
_cell_length_b   6.79998177
_cell_length_c   7.85768289
_cell_angle_alpha   89.94534564
_cell_angle_beta   90.00000000
_cell_angle_gamma   90.00000000
_symmetry_Int_Tables_number   1
_chemical_formula_structural   DyHoAl2IrPt
_chemical_formula_sum   'Dy2 Ho2 Al4 Ir2 Pt2'
_cell_volume   232.90112275
_cell_formula_units_Z   2
loop_
 _symmetry_equiv_pos_site_id
 _symmetry_equiv_pos_as_xyz
  1  'x, y, z'
loop_
 _atom_site_type_symbol
 _atom_site_label
 _atom_site_symmetry_multiplicity
 _atom_site_fract_x
 _atom_site_fract_y
 _atom_site_fract_z
 _atom_site_occupancy
  Dy  Dy0  1  0.250000  0.032572  0.679215  1
  Dy  Dy1  1  0.750000  0.972371  0.317776  1
  Ho  Ho2  1  0.250000  0.532654  0.821029  1
  Ho  Ho3  1  0.750000  0.472363  0.181919  1
  Al  Al4  1  0.250000  0.141072  0.064464  1
  Al  Al5  1  0.250000  0.640640  0.435449  1
  Al  Al6  1  0.750000  0.855986  0.940137  1
  Al  Al7  1  0.750000  0.356438  0.559892  1
  Ir  Ir8  1  0.250000  0.267662  0.381734  1
  Ir  Ir9  1  0.250000  0.766807  0.117854  1
  Pt  Pt10  1  0.750000  0.730300  0.620383  1
  Pt  Pt11  1  0.750000  0.231135  0.880147  1
