# generated using pymatgen
data_Dy4U4Re(B8Ru)3
_symmetry_space_group_name_H-M   'P 1'
_cell_length_a   3.60363800
_cell_length_b   9.32140552
_cell_length_c   11.43124664
_cell_angle_alpha   90.03834709
_cell_angle_beta   90.00000000
_cell_angle_gamma   90.00000000
_symmetry_Int_Tables_number   1
_chemical_formula_structural   Dy4U4Re(B8Ru)3
_chemical_formula_sum   'Dy4 U4 Re1 B24 Ru3'
_cell_volume   383.98659012
_cell_formula_units_Z   1
loop_
 _symmetry_equiv_pos_site_id
 _symmetry_equiv_pos_as_xyz
  1  'x, y, z'
loop_
 _atom_site_type_symbol
 _atom_site_label
 _atom_site_symmetry_multiplicity
 _atom_site_fract_x
 _atom_site_fract_y
 _atom_site_fract_z
 _atom_site_occupancy
  Dy  Dy0  1  0.000000  0.336689  0.407691  1
  Dy  Dy1  1  0.000000  0.664595  0.593836  1
  Dy  Dy2  1  0.000000  0.836719  0.091436  1
  Dy  Dy3  1  0.000000  0.162691  0.907077  1
  U  U4  1  0.000000  0.957406  0.397646  1
  U  U5  1  0.000000  0.041159  0.602600  1
  U  U6  1  0.000000  0.456967  0.102162  1
  U  U7  1  0.000000  0.544076  0.898417  1
  Re  Re8  1  0.000000  0.854531  0.818975  1
  B  B9  1  0.500000  0.551660  0.431026  1
  B  B10  1  0.500000  0.448593  0.569109  1
  B  B11  1  0.500000  0.051980  0.069156  1
  B  B12  1  0.500000  0.948699  0.931289  1
  B  B13  1  0.500000  0.742664  0.422826  1
  B  B14  1  0.500000  0.257300  0.577004  1
  B  B15  1  0.500000  0.242986  0.077164  1
  B  B16  1  0.500000  0.757222  0.923494  1
  B  B17  1  0.500000  0.801927  0.274363  1
  B  B18  1  0.500000  0.198438  0.725057  1
  B  B19  1  0.500000  0.302018  0.225684  1
  B  B20  1  0.500000  0.698028  0.775204  1
  B  B21  1  0.500000  0.643842  0.189036  1
  B  B22  1  0.500000  0.355642  0.810992  1
  B  B23  1  0.500000  0.144217  0.311154  1
  B  B24  1  0.500000  0.855953  0.688592  1
  B  B25  1  0.500000  0.988581  0.218767  1
  B  B26  1  0.500000  0.011793  0.780418  1
  B  B27  1  0.500000  0.488293  0.281263  1
  B  B28  1  0.500000  0.510705  0.719070  1
  B  B29  1  0.500000  0.641629  0.039955  1
  B  B30  1  0.500000  0.357408  0.960318  1
  B  B31  1  0.500000  0.142681  0.460512  1
  B  B32  1  0.500000  0.857659  0.538752  1
  Ru  Ru33  1  0.000000  0.645002  0.319478  1
  Ru  Ru34  1  0.000000  0.355342  0.680154  1
  Ru  Ru35  1  0.000000  0.144904  0.180324  1
