# generated using pymatgen
data_YbLu19(SiSb2)4
_symmetry_space_group_name_H-M   'P 1'
_cell_length_a   7.81292338
_cell_length_b   8.92045600
_cell_length_c   11.65515256
_cell_angle_alpha   90.00000000
_cell_angle_beta   89.96430613
_cell_angle_gamma   90.00000000
_symmetry_Int_Tables_number   1
_chemical_formula_structural   YbLu19(SiSb2)4
_chemical_formula_sum   'Yb1 Lu19 Si4 Sb8'
_cell_volume   812.30382667
_cell_formula_units_Z   1
loop_
 _symmetry_equiv_pos_site_id
 _symmetry_equiv_pos_as_xyz
  1  'x, y, z'
loop_
 _atom_site_type_symbol
 _atom_site_label
 _atom_site_symmetry_multiplicity
 _atom_site_fract_x
 _atom_site_fract_y
 _atom_site_fract_z
 _atom_site_occupancy
  Yb  Yb0  1  0.170330  0.750000  0.219370  1
  Lu  Lu1  1  0.458647  0.750000  0.003151  1
  Lu  Lu2  1  0.960079  0.250000  0.498615  1
  Lu  Lu3  1  0.541837  0.250000  0.996889  1
  Lu  Lu4  1  0.037331  0.750000  0.503084  1
  Lu  Lu5  1  0.640599  0.750000  0.295250  1
  Lu  Lu6  1  0.141253  0.250000  0.206144  1
  Lu  Lu7  1  0.359657  0.250000  0.706079  1
  Lu  Lu8  1  0.856957  0.750000  0.792686  1
  Lu  Lu9  1  0.331222  0.750000  0.718004  1
  Lu  Lu10  1  0.832777  0.250000  0.783595  1
  Lu  Lu11  1  0.666393  0.250000  0.285515  1
  Lu  Lu12  1  0.316143  0.447465  0.434500  1
  Lu  Lu13  1  0.816393  0.551725  0.064575  1
  Lu  Lu14  1  0.682331  0.948462  0.565971  1
  Lu  Lu15  1  0.184482  0.053209  0.932900  1
  Lu  Lu16  1  0.682331  0.551538  0.565971  1
  Lu  Lu17  1  0.184482  0.446791  0.932900  1
  Lu  Lu18  1  0.316143  0.052535  0.434500  1
  Lu  Lu19  1  0.816393  0.948275  0.064575  1
  Si  Si20  1  0.087670  0.750000  0.973647  1
  Si  Si21  1  0.583191  0.250000  0.520103  1
  Si  Si22  1  0.916865  0.250000  0.019551  1
  Si  Si23  1  0.414538  0.750000  0.481461  1
  Sb  Sb24  1  0.436625  0.013496  0.172528  1
  Sb  Sb25  1  0.928523  0.991584  0.328182  1
  Sb  Sb26  1  0.568298  0.511003  0.826710  1
  Sb  Sb27  1  0.067532  0.489126  0.673063  1
  Sb  Sb28  1  0.568298  0.988997  0.826710  1
  Sb  Sb29  1  0.067532  0.010874  0.673063  1
  Sb  Sb30  1  0.436625  0.486504  0.172528  1
  Sb  Sb31  1  0.928523  0.508416  0.328182  1
