# generated using pymatgen
data_Pr8Ho10Sc2Si15Ru
_symmetry_space_group_name_H-M   'P 1'
_cell_length_a   7.42216475
_cell_length_b   7.76047558
_cell_length_c   14.83556200
_cell_angle_alpha   90.00000000
_cell_angle_beta   90.00000000
_cell_angle_gamma   90.43108736
_symmetry_Int_Tables_number   1
_chemical_formula_structural   Pr8Ho10Sc2Si15Ru
_chemical_formula_sum   'Pr8 Ho10 Sc2 Si15 Ru1'
_cell_volume   854.49718596
_cell_formula_units_Z   1
loop_
 _symmetry_equiv_pos_site_id
 _symmetry_equiv_pos_as_xyz
  1  'x, y, z'
loop_
 _atom_site_type_symbol
 _atom_site_label
 _atom_site_symmetry_multiplicity
 _atom_site_fract_x
 _atom_site_fract_y
 _atom_site_fract_z
 _atom_site_occupancy
  Pr  Pr0  1  0.019571  0.178316  0.399465  1
  Pr  Pr1  1  0.518869  0.324435  0.400317  1
  Pr  Pr2  1  0.477630  0.679959  0.905503  1
  Pr  Pr3  1  0.477630  0.679959  0.594497  1
  Pr  Pr4  1  0.982023  0.821833  0.596816  1
  Pr  Pr5  1  0.982023  0.821833  0.903184  1
  Pr  Pr6  1  0.518869  0.324435  0.099683  1
  Pr  Pr7  1  0.019571  0.178316  0.100535  1
  Ho  Ho8  1  0.317961  0.172024  0.623993  1
  Ho  Ho9  1  0.678648  0.821110  0.374923  1
  Ho  Ho10  1  0.640009  0.981643  0.750000  1
  Ho  Ho11  1  0.177965  0.678877  0.374193  1
  Ho  Ho12  1  0.824119  0.322403  0.877252  1
  Ho  Ho13  1  0.824119  0.322403  0.622748  1
  Ho  Ho14  1  0.317961  0.172024  0.876007  1
  Ho  Ho15  1  0.177965  0.678877  0.125807  1
  Ho  Ho16  1  0.678648  0.821110  0.125077  1
  Ho  Ho17  1  0.163025  0.521346  0.750000  1
  Sc  Sc18  1  0.846901  0.492207  0.250000  1
  Sc  Sc19  1  0.346360  0.012565  0.250000  1
  Si  Si20  1  0.476173  0.609753  0.250000  1
  Si  Si21  1  0.024688  0.107271  0.750000  1
  Si  Si22  1  0.532974  0.385011  0.750000  1
  Si  Si23  1  0.148215  0.466081  0.536423  1
  Si  Si24  1  0.976802  0.891753  0.250000  1
  Si  Si25  1  0.719443  0.126176  0.250000  1
  Si  Si26  1  0.854466  0.529069  0.042698  1
  Si  Si27  1  0.354786  0.970704  0.043080  1
  Si  Si28  1  0.148215  0.466081  0.963577  1
  Si  Si29  1  0.649125  0.036412  0.535869  1
  Si  Si30  1  0.354786  0.970704  0.456920  1
  Si  Si31  1  0.854466  0.529069  0.457302  1
  Si  Si32  1  0.770271  0.614556  0.750000  1
  Si  Si33  1  0.222213  0.375545  0.250000  1
  Si  Si34  1  0.649125  0.036412  0.964131  1
  Ru  Ru35  1  0.274384  0.879721  0.750000  1
