# generated using pymatgen
data_Sr3LaSi7Hg
_symmetry_space_group_name_H-M   'P 1'
_cell_length_a   4.33506900
_cell_length_b   4.52892000
_cell_length_c   14.37391300
_cell_angle_alpha   90.00000000
_cell_angle_beta   90.00000000
_cell_angle_gamma   90.00000000
_symmetry_Int_Tables_number   1
_chemical_formula_structural   Sr3LaSi7Hg
_chemical_formula_sum   'Sr3 La1 Si7 Hg1'
_cell_volume   282.20563123
_cell_formula_units_Z   1
loop_
 _symmetry_equiv_pos_site_id
 _symmetry_equiv_pos_as_xyz
  1  'x, y, z'
loop_
 _atom_site_type_symbol
 _atom_site_label
 _atom_site_symmetry_multiplicity
 _atom_site_fract_x
 _atom_site_fract_y
 _atom_site_fract_z
 _atom_site_occupancy
  Sr  Sr0  1  0.000000  0.000000  0.506627  1
  Sr  Sr1  1  0.500000  0.000000  0.754641  1
  Sr  Sr2  1  0.000000  0.500000  0.238412  1
  La  La3  1  0.500000  0.500000  0.998902  1
  Si  Si4  1  0.000000  0.000000  0.916915  1
  Si  Si5  1  0.000000  0.500000  0.840704  1
  Si  Si6  1  0.500000  0.000000  0.321924  1
  Si  Si7  1  0.000000  0.000000  0.076507  1
  Si  Si8  1  0.500000  0.500000  0.595361  1
  Si  Si9  1  0.500000  0.000000  0.159979  1
  Si  Si10  1  0.000000  0.500000  0.675516  1
  Hg  Hg11  1  0.500000  0.500000  0.414510  1
