# generated using pymatgen
data_Y2Sn4Pd3
_symmetry_space_group_name_H-M   'P 1'
_cell_length_a   7.26630410
_cell_length_b   7.59917833
_cell_length_c   4.17383600
_cell_angle_alpha   90.00000000
_cell_angle_beta   90.00000000
_cell_angle_gamma   121.52732862
_symmetry_Int_Tables_number   1
_chemical_formula_structural   Y2Sn4Pd3
_chemical_formula_sum   'Y2 Sn4 Pd3'
_cell_volume   196.45105459
_cell_formula_units_Z   1
loop_
 _symmetry_equiv_pos_site_id
 _symmetry_equiv_pos_as_xyz
  1  'x, y, z'
loop_
 _atom_site_type_symbol
 _atom_site_label
 _atom_site_symmetry_multiplicity
 _atom_site_fract_x
 _atom_site_fract_y
 _atom_site_fract_z
 _atom_site_occupancy
  Y  Y0  1  0.415233  0.412435  0.500000  1
  Y  Y1  1  0.584767  0.997200  0.500000  1
  Sn  Sn2  1  0.000000  0.595320  0.500000  1
  Sn  Sn3  1  0.728104  0.744169  0.000000  1
  Sn  Sn4  1  0.271896  0.016065  0.000000  1
  Sn  Sn5  1  0.000000  0.238646  0.000000  1
  Pd  Pd6  1  0.694445  0.354352  0.000000  1
  Pd  Pd7  1  0.305555  0.659908  0.000000  1
  Pd  Pd8  1  0.000000  0.981905  0.500000  1
