# generated using pymatgen
data_NdAl6Cu7
_symmetry_space_group_name_H-M   'P 1'
_cell_length_a   8.38143970
_cell_length_b   8.38144047
_cell_length_c   8.38143976
_cell_angle_alpha   122.10167940
_cell_angle_beta   118.32949479
_cell_angle_gamma   89.65823233
_symmetry_Int_Tables_number   1
_chemical_formula_structural   NdAl6Cu7
_chemical_formula_sum   'Nd2 Al12 Cu14'
_cell_volume   414.40203850
_cell_formula_units_Z   2
loop_
 _symmetry_equiv_pos_site_id
 _symmetry_equiv_pos_as_xyz
  1  'x, y, z'
loop_
 _atom_site_type_symbol
 _atom_site_label
 _atom_site_symmetry_multiplicity
 _atom_site_fract_x
 _atom_site_fract_y
 _atom_site_fract_z
 _atom_site_occupancy
  Nd  Nd0  1  0.250000  0.750000  0.500000  1
  Nd  Nd1  1  0.750000  0.250000  0.500000  1
  Al  Al2  1  0.555466  0.544293  0.356756  1
  Al  Al3  1  0.444534  0.455707  0.643244  1
  Al  Al4  1  0.187536  0.198708  0.643244  1
  Al  Al5  1  0.312464  0.955707  0.011171  1
  Al  Al6  1  0.812464  0.801292  0.356756  1
  Al  Al7  1  0.687536  0.044293  0.988829  1
  Al  Al8  1  0.944534  0.301292  0.988829  1
  Al  Al9  1  0.055466  0.698708  0.011171  1
  Al  Al10  1  0.051534  0.313619  0.365153  1
  Al  Al11  1  0.948466  0.686381  0.634847  1
  Al  Al12  1  0.551534  0.186381  0.737914  1
  Al  Al13  1  0.448466  0.813619  0.262086  1
  Cu  Cu14  1  0.284629  0.300256  0.233448  1
  Cu  Cu15  1  0.715371  0.699744  0.766552  1
  Cu  Cu16  1  0.066808  0.051180  0.766552  1
  Cu  Cu17  1  0.433192  0.199744  0.984373  1
  Cu  Cu18  1  0.933192  0.948820  0.233448  1
  Cu  Cu19  1  0.566808  0.800256  0.015627  1
  Cu  Cu20  1  0.215371  0.448820  0.015627  1
  Cu  Cu21  1  0.784629  0.551180  0.984373  1
  Cu  Cu22  1  0.000000  0.000000  0.000000  1
  Cu  Cu23  1  0.500000  0.500000  0.000000  1
  Cu  Cu24  1  0.284520  0.069039  0.353560  1
  Cu  Cu25  1  0.715480  0.930961  0.646440  1
  Cu  Cu26  1  0.784520  0.430961  0.215482  1
  Cu  Cu27  1  0.215480  0.569039  0.784518  1
