# generated using pymatgen
data_KGdSiS4
_symmetry_space_group_name_H-M   'P 1'
_cell_length_a   16.82154400
_cell_length_b   6.62088000
_cell_length_c   6.42634100
_cell_angle_alpha   90.00000000
_cell_angle_beta   90.00000000
_cell_angle_gamma   90.00000000
_symmetry_Int_Tables_number   1
_chemical_formula_structural   KGdSiS4
_chemical_formula_sum   'K4 Gd4 Si4 S16'
_cell_volume   715.72360250
_cell_formula_units_Z   4
loop_
 _symmetry_equiv_pos_site_id
 _symmetry_equiv_pos_as_xyz
  1  'x, y, z'
loop_
 _atom_site_type_symbol
 _atom_site_label
 _atom_site_symmetry_multiplicity
 _atom_site_fract_x
 _atom_site_fract_y
 _atom_site_fract_z
 _atom_site_occupancy
  K  K0  1  0.283631  0.750001  0.027976  1
  K  K1  1  0.783631  0.750001  0.472025  1
  K  K2  1  0.216370  0.250000  0.527976  1
  K  K3  1  0.716370  0.250000  0.972025  1
  Gd  Gd4  1  0.024857  0.750001  0.207019  1
  Gd  Gd5  1  0.524857  0.750001  0.292981  1
  Gd  Gd6  1  0.475143  0.250000  0.707019  1
  Gd  Gd7  1  0.975143  0.250000  0.792980  1
  Si  Si8  1  0.412913  0.250000  0.208002  1
  Si  Si9  1  0.912913  0.250000  0.291998  1
  Si  Si10  1  0.087087  0.750001  0.708002  1
  Si  Si11  1  0.587087  0.750001  0.791997  1
  S  S12  1  0.663670  0.750001  0.051852  1
  S  S13  1  0.893836  0.500551  0.087864  1
  S  S14  1  0.893836  0.999449  0.087864  1
  S  S15  1  0.534122  0.250000  0.112768  1
  S  S16  1  0.034122  0.250000  0.387232  1
  S  S17  1  0.393836  0.500551  0.412136  1
  S  S18  1  0.393836  0.999449  0.412136  1
  S  S19  1  0.163670  0.750001  0.448147  1
  S  S20  1  0.836330  0.250000  0.551852  1
  S  S21  1  0.606164  0.000551  0.587865  1
  S  S22  1  0.606164  0.499450  0.587865  1
  S  S23  1  0.965878  0.750001  0.612768  1
  S  S24  1  0.465878  0.750001  0.887233  1
  S  S25  1  0.106164  0.000551  0.912135  1
  S  S26  1  0.106164  0.499450  0.912135  1
  S  S27  1  0.336330  0.250000  0.948149  1
