# generated using pymatgen
data_Hf18Ta2Ni2IrW5
_symmetry_space_group_name_H-M   'P 1'
_cell_length_a   8.71674529
_cell_length_b   8.71674506
_cell_length_c   8.50900600
_cell_angle_alpha   90.00000000
_cell_angle_beta   90.00000000
_cell_angle_gamma   120.02945936
_symmetry_Int_Tables_number   1
_chemical_formula_structural   Hf18Ta2Ni2IrW5
_chemical_formula_sum   'Hf18 Ta2 Ni2 Ir1 W5'
_cell_volume   559.74363515
_cell_formula_units_Z   1
loop_
 _symmetry_equiv_pos_site_id
 _symmetry_equiv_pos_as_xyz
  1  'x, y, z'
loop_
 _atom_site_type_symbol
 _atom_site_label
 _atom_site_symmetry_multiplicity
 _atom_site_fract_x
 _atom_site_fract_y
 _atom_site_fract_z
 _atom_site_occupancy
  Hf  Hf0  1  0.200722  0.799278  0.441734  1
  Hf  Hf1  1  0.201901  0.401385  0.442108  1
  Hf  Hf2  1  0.598615  0.798099  0.442108  1
  Hf  Hf3  1  0.799993  0.200007  0.561387  1
  Hf  Hf4  1  0.799780  0.599107  0.557892  1
  Hf  Hf5  1  0.400893  0.200220  0.557892  1
  Hf  Hf6  1  0.799993  0.200007  0.938613  1
  Hf  Hf7  1  0.799780  0.599107  0.942108  1
  Hf  Hf8  1  0.400893  0.200220  0.942108  1
  Hf  Hf9  1  0.200722  0.799278  0.058266  1
  Hf  Hf10  1  0.201901  0.401385  0.057892  1
  Hf  Hf11  1  0.598615  0.798099  0.057892  1
  Hf  Hf12  1  0.542021  0.457979  0.250000  1
  Hf  Hf13  1  0.541928  0.086540  0.250000  1
  Hf  Hf14  1  0.913460  0.458072  0.250000  1
  Hf  Hf15  1  0.457545  0.542455  0.750000  1
  Hf  Hf16  1  0.457849  0.915287  0.750000  1
  Hf  Hf17  1  0.084713  0.542151  0.750000  1
  Ta  Ta18  1  0.999271  0.000729  0.498281  1
  Ta  Ta19  1  0.999271  0.000729  0.001719  1
  Ni  Ni20  1  0.333947  0.666053  0.250000  1
  Ni  Ni21  1  0.666831  0.333169  0.750000  1
  Ir  Ir22  1  0.885733  0.114267  0.250000  1
  W  W23  1  0.885975  0.770801  0.250000  1
  W  W24  1  0.229199  0.114025  0.250000  1
  W  W25  1  0.113941  0.886059  0.750000  1
  W  W26  1  0.111849  0.227339  0.750000  1
  W  W27  1  0.772661  0.888151  0.750000  1
