# generated using pymatgen
data_YTh(AlNi4)2
_symmetry_space_group_name_H-M   'P 1'
_cell_length_a   4.06832700
_cell_length_b   5.08120800
_cell_length_c   8.38996700
_cell_angle_alpha   90.00000000
_cell_angle_beta   90.00000000
_cell_angle_gamma   90.00000000
_symmetry_Int_Tables_number   1
_chemical_formula_structural   YTh(AlNi4)2
_chemical_formula_sum   'Y1 Th1 Al2 Ni8'
_cell_volume   173.43752954
_cell_formula_units_Z   1
loop_
 _symmetry_equiv_pos_site_id
 _symmetry_equiv_pos_as_xyz
  1  'x, y, z'
loop_
 _atom_site_type_symbol
 _atom_site_label
 _atom_site_symmetry_multiplicity
 _atom_site_fract_x
 _atom_site_fract_y
 _atom_site_fract_z
 _atom_site_occupancy
  Y  Y0  1  0.000000  0.500000  0.500000  1
  Th  Th1  1  0.000000  0.000000  0.000000  1
  Al  Al2  1  0.500000  0.000000  0.500000  1
  Al  Al3  1  0.500000  0.500000  0.000000  1
  Ni  Ni4  1  0.000000  0.000000  0.332180  1
  Ni  Ni5  1  0.000000  0.500000  0.832767  1
  Ni  Ni6  1  0.000000  0.500000  0.167233  1
  Ni  Ni7  1  0.000000  0.000000  0.667820  1
  Ni  Ni8  1  0.500000  0.251567  0.250841  1
  Ni  Ni9  1  0.500000  0.748433  0.749159  1
  Ni  Ni10  1  0.500000  0.748433  0.250841  1
  Ni  Ni11  1  0.500000  0.251567  0.749159  1
