# generated using pymatgen
data_Er6Al24GaFe7
_symmetry_space_group_name_H-M   'P 1'
_cell_length_a   8.67859416
_cell_length_b   8.67859369
_cell_length_c   9.30750300
_cell_angle_alpha   90.13520178
_cell_angle_beta   89.86479162
_cell_angle_gamma   119.85397981
_symmetry_Int_Tables_number   1
_chemical_formula_structural   Er6Al24GaFe7
_chemical_formula_sum   'Er6 Al24 Ga1 Fe7'
_cell_volume   607.99229955
_cell_formula_units_Z   1
loop_
 _symmetry_equiv_pos_site_id
 _symmetry_equiv_pos_as_xyz
  1  'x, y, z'
loop_
 _atom_site_type_symbol
 _atom_site_label
 _atom_site_symmetry_multiplicity
 _atom_site_fract_x
 _atom_site_fract_y
 _atom_site_fract_z
 _atom_site_occupancy
  Er  Er0  1  0.193760  0.387202  0.247499  1
  Er  Er1  1  0.806240  0.612798  0.752501  1
  Er  Er2  1  0.612798  0.806240  0.247499  1
  Er  Er3  1  0.387202  0.193760  0.752501  1
  Er  Er4  1  0.195598  0.804402  0.255540  1
  Er  Er5  1  0.804402  0.195598  0.744460  1
  Al  Al6  1  0.324126  0.675874  0.013257  1
  Al  Al7  1  0.675874  0.324126  0.986743  1
  Al  Al8  1  0.666658  0.333342  0.516322  1
  Al  Al9  1  0.333342  0.666658  0.483678  1
  Al  Al10  1  0.160005  0.322325  0.571955  1
  Al  Al11  1  0.839995  0.677675  0.428045  1
  Al  Al12  1  0.677675  0.839995  0.571955  1
  Al  Al13  1  0.856598  0.682410  0.079953  1
  Al  Al14  1  0.322325  0.160005  0.428045  1
  Al  Al15  1  0.143402  0.317590  0.920047  1
  Al  Al16  1  0.161865  0.838135  0.576373  1
  Al  Al17  1  0.317590  0.143402  0.079953  1
  Al  Al18  1  0.838135  0.161865  0.423627  1
  Al  Al19  1  0.682410  0.856598  0.920047  1
  Al  Al20  1  0.839787  0.160213  0.078929  1
  Al  Al21  1  0.160213  0.839787  0.921071  1
  Al  Al22  1  0.558731  0.115217  0.249619  1
  Al  Al23  1  0.441269  0.884783  0.750381  1
  Al  Al24  1  0.884783  0.441269  0.249619  1
  Al  Al25  1  0.115217  0.558731  0.750381  1
  Al  Al26  1  0.564248  0.435752  0.262964  1
  Al  Al27  1  0.435752  0.564248  0.737036  1
  Al  Al28  1  0.999412  0.000588  0.250750  1
  Al  Al29  1  0.000588  0.999412  0.749250  1
  Ga  Ga30  1  0.500000  0.500000  0.000000  1
  Fe  Fe31  1  0.500000  0.000000  0.000000  1
  Fe  Fe32  1  0.000000  0.500000  0.000000  1
  Fe  Fe33  1  0.500000  0.000000  0.500000  1
  Fe  Fe34  1  0.000000  0.500000  0.500000  1
  Fe  Fe35  1  0.500000  0.500000  0.500000  1
  Fe  Fe36  1  0.000000  0.000000  0.000000  1
  Fe  Fe37  1  0.000000  0.000000  0.500000  1
