# generated using pymatgen
data_Zr5ScZn23Sn
_symmetry_space_group_name_H-M   'P 1'
_cell_length_a   8.84563458
_cell_length_b   8.88540569
_cell_length_c   8.88540565
_cell_angle_alpha   59.70398670
_cell_angle_beta   60.14792118
_cell_angle_gamma   60.14792316
_symmetry_Int_Tables_number   1
_chemical_formula_structural   Zr5ScZn23Sn
_chemical_formula_sum   'Zr5 Sc1 Zn23 Sn1'
_cell_volume   493.79948527
_cell_formula_units_Z   1
loop_
 _symmetry_equiv_pos_site_id
 _symmetry_equiv_pos_as_xyz
  1  'x, y, z'
loop_
 _atom_site_type_symbol
 _atom_site_label
 _atom_site_symmetry_multiplicity
 _atom_site_fract_x
 _atom_site_fract_y
 _atom_site_fract_z
 _atom_site_occupancy
  Zr  Zr0  1  0.268862  0.731137  0.731137  1
  Zr  Zr1  1  0.266368  0.733633  0.268350  1
  Zr  Zr2  1  0.731649  0.268349  0.733634  1
  Zr  Zr3  1  0.266368  0.268350  0.733633  1
  Zr  Zr4  1  0.731649  0.733634  0.268349  1
  Sc  Sc5  1  0.732467  0.267528  0.267528  1
  Zn  Zn6  1  0.128788  0.130451  0.130451  1
  Zn  Zn7  1  0.871333  0.869223  0.869223  1
  Zn  Zn8  1  0.130777  0.128666  0.609781  1
  Zn  Zn9  1  0.130777  0.609781  0.128666  1
  Zn  Zn10  1  0.869549  0.871213  0.389688  1
  Zn  Zn11  1  0.869549  0.389688  0.871213  1
  Zn  Zn12  1  0.610311  0.130451  0.130451  1
  Zn  Zn13  1  0.390220  0.869223  0.869223  1
  Zn  Zn14  1  0.499782  0.000218  0.000218  1
  Zn  Zn15  1  0.999782  0.500218  0.500218  1
  Zn  Zn16  1  0.999752  0.499347  0.000248  1
  Zn  Zn17  1  0.500652  0.000248  0.499348  1
  Zn  Zn18  1  0.999752  0.000248  0.499347  1
  Zn  Zn19  1  0.500652  0.499348  0.000248  1
  Zn  Zn20  1  0.344820  0.344772  0.344772  1
  Zn  Zn21  1  0.654342  0.655598  0.655598  1
  Zn  Zn22  1  0.344400  0.345657  0.965541  1
  Zn  Zn23  1  0.344400  0.965541  0.345657  1
  Zn  Zn24  1  0.655230  0.655181  0.034361  1
  Zn  Zn25  1  0.655230  0.034361  0.655181  1
  Zn  Zn26  1  0.965639  0.344770  0.344770  1
  Zn  Zn27  1  0.034459  0.655599  0.655599  1
  Zn  Zn28  1  0.000647  0.999353  0.999353  1
  Sn  Sn29  1  0.501795  0.498212  0.498212  1
