# generated using pymatgen
data_HoZr(Al3Ir)3
_symmetry_space_group_name_H-M   'P 1'
_cell_length_a   7.51853323
_cell_length_b   7.50353920
_cell_length_c   9.36618700
_cell_angle_alpha   90.00000000
_cell_angle_beta   90.00000000
_cell_angle_gamma   119.73241696
_symmetry_Int_Tables_number   1
_chemical_formula_structural   HoZr(Al3Ir)3
_chemical_formula_sum   'Ho2 Zr2 Al18 Ir6'
_cell_volume   458.83595157
_cell_formula_units_Z   2
loop_
 _symmetry_equiv_pos_site_id
 _symmetry_equiv_pos_as_xyz
  1  'x, y, z'
loop_
 _atom_site_type_symbol
 _atom_site_label
 _atom_site_symmetry_multiplicity
 _atom_site_fract_x
 _atom_site_fract_y
 _atom_site_fract_z
 _atom_site_occupancy
  Ho  Ho0  1  0.670021  0.994558  0.250000  1
  Ho  Ho1  1  0.329979  0.005442  0.750000  1
  Zr  Zr2  1  0.995124  0.670290  0.250000  1
  Zr  Zr3  1  0.004876  0.329710  0.750000  1
  Al  Al4  1  0.125613  0.123762  0.250000  1
  Al  Al5  1  0.874387  0.876238  0.750000  1
  Al  Al6  1  0.999880  0.336623  0.074634  1
  Al  Al7  1  0.000120  0.663377  0.925366  1
  Al  Al8  1  0.000120  0.663377  0.574634  1
  Al  Al9  1  0.332095  0.998488  0.422529  1
  Al  Al10  1  0.999880  0.336623  0.425366  1
  Al  Al11  1  0.667905  0.001512  0.577471  1
  Al  Al12  1  0.667905  0.001512  0.922529  1
  Al  Al13  1  0.332095  0.998488  0.077471  1
  Al  Al14  1  0.331485  0.333540  0.556612  1
  Al  Al15  1  0.668515  0.666460  0.443388  1
  Al  Al16  1  0.668515  0.666460  0.056612  1
  Al  Al17  1  0.331485  0.333540  0.943388  1
  Al  Al18  1  0.334429  0.547573  0.250000  1
  Al  Al19  1  0.665571  0.452427  0.750000  1
  Al  Al20  1  0.553204  0.343114  0.250000  1
  Al  Al21  1  0.446796  0.656886  0.750000  1
  Ir  Ir22  1  0.672064  0.327080  0.999273  1
  Ir  Ir23  1  0.327936  0.672920  0.000727  1
  Ir  Ir24  1  0.327936  0.672920  0.499273  1
  Ir  Ir25  1  0.672064  0.327080  0.500727  1
  Ir  Ir26  1  0.000000  0.000000  0.000000  1
  Ir  Ir27  1  0.000000  0.000000  0.500000  1
