# generated using pymatgen
data_TbNd8Er11Pb16
_symmetry_space_group_name_H-M   'P 1'
_cell_length_a   8.26494400
_cell_length_b   8.36219233
_cell_length_c   15.74799300
_cell_angle_alpha   89.99488173
_cell_angle_beta   90.00015251
_cell_angle_gamma   89.96807764
_symmetry_Int_Tables_number   1
_chemical_formula_structural   TbNd8Er11Pb16
_chemical_formula_sum   'Tb1 Nd8 Er11 Pb16'
_cell_volume   1088.39167536
_cell_formula_units_Z   1
loop_
 _symmetry_equiv_pos_site_id
 _symmetry_equiv_pos_as_xyz
  1  'x, y, z'
loop_
 _atom_site_type_symbol
 _atom_site_label
 _atom_site_symmetry_multiplicity
 _atom_site_fract_x
 _atom_site_fract_y
 _atom_site_fract_z
 _atom_site_occupancy
  Tb  Tb0  1  0.627805  0.159993  0.621110  1
  Nd  Nd1  1  0.470178  0.677951  0.599181  1
  Nd  Nd2  1  0.970097  0.821906  0.900896  1
  Nd  Nd3  1  0.529876  0.321954  0.099174  1
  Nd  Nd4  1  0.029811  0.177932  0.400766  1
  Nd  Nd5  1  0.529841  0.321995  0.400647  1
  Nd  Nd6  1  0.029951  0.177962  0.099205  1
  Nd  Nd7  1  0.470108  0.678001  0.900997  1
  Nd  Nd8  1  0.970065  0.821938  0.599192  1
  Er  Er9  1  0.127696  0.340304  0.878813  1
  Er  Er10  1  0.372168  0.840203  0.121407  1
  Er  Er11  1  0.872320  0.659635  0.378313  1
  Er  Er12  1  0.372204  0.840431  0.378650  1
  Er  Er13  1  0.872146  0.659665  0.121381  1
  Er  Er14  1  0.627869  0.159598  0.878733  1
  Er  Er15  1  0.127948  0.340129  0.621456  1
  Er  Er16  1  0.795145  0.494526  0.750200  1
  Er  Er17  1  0.294658  0.005687  0.750174  1
  Er  Er18  1  0.205109  0.505738  0.250001  1
  Er  Er19  1  0.705070  0.994070  0.249877  1
  Pb  Pb20  1  0.711246  0.961696  0.455641  1
  Pb  Pb21  1  0.210981  0.537459  0.043452  1
  Pb  Pb22  1  0.289054  0.037152  0.956522  1
  Pb  Pb23  1  0.790002  0.464182  0.543264  1
  Pb  Pb24  1  0.287669  0.037074  0.543239  1
  Pb  Pb25  1  0.788995  0.462518  0.956589  1
  Pb  Pb26  1  0.710983  0.962699  0.043416  1
  Pb  Pb27  1  0.211046  0.537322  0.456574  1
  Pb  Pb28  1  0.431444  0.371437  0.750587  1
  Pb  Pb29  1  0.932500  0.129204  0.750363  1
  Pb  Pb30  1  0.567862  0.629304  0.249954  1
  Pb  Pb31  1  0.067957  0.870808  0.249930  1
  Pb  Pb32  1  0.659971  0.851047  0.750278  1
  Pb  Pb33  1  0.159919  0.648603  0.750081  1
  Pb  Pb34  1  0.340179  0.148562  0.249966  1
  Pb  Pb35  1  0.840129  0.351311  0.249971  1
