# generated using pymatgen
data_ErRe3Si2Mo
_symmetry_space_group_name_H-M   'P 1'
_cell_length_a   7.78707378
_cell_length_b   7.02928496
_cell_length_c   4.19691000
_cell_angle_alpha   90.00000000
_cell_angle_beta   90.00000000
_cell_angle_gamma   89.75064288
_symmetry_Int_Tables_number   1
_chemical_formula_structural   ErRe3Si2Mo
_chemical_formula_sum   'Er2 Re6 Si4 Mo2'
_cell_volume   229.72643986
_cell_formula_units_Z   2
loop_
 _symmetry_equiv_pos_site_id
 _symmetry_equiv_pos_as_xyz
  1  'x, y, z'
loop_
 _atom_site_type_symbol
 _atom_site_label
 _atom_site_symmetry_multiplicity
 _atom_site_fract_x
 _atom_site_fract_y
 _atom_site_fract_z
 _atom_site_occupancy
  Er  Er0  1  0.500000  0.500000  0.000000  1
  Er  Er1  1  0.000000  0.000000  0.500000  1
  Re  Re2  1  0.109685  0.344862  0.000000  1
  Re  Re3  1  0.890315  0.655138  0.000000  1
  Re  Re4  1  0.157416  0.577219  0.500000  1
  Re  Re5  1  0.842584  0.422781  0.500000  1
  Re  Re6  1  0.335353  0.078155  0.000000  1
  Re  Re7  1  0.664647  0.921845  0.000000  1
  Si  Si8  1  0.688846  0.726926  0.500000  1
  Si  Si9  1  0.311154  0.273074  0.500000  1
  Si  Si10  1  0.188052  0.770096  0.000000  1
  Si  Si11  1  0.811948  0.229904  0.000000  1
  Mo  Mo12  1  0.613182  0.151523  0.500000  1
  Mo  Mo13  1  0.386818  0.848477  0.500000  1
