# generated using pymatgen
data_U2Mn2C3
_symmetry_space_group_name_H-M   'P 1'
_cell_length_a   5.99584743
_cell_length_b   5.99584711
_cell_length_c   5.22354742
_cell_angle_alpha   64.35405694
_cell_angle_beta   64.35405589
_cell_angle_gamma   29.85600017
_symmetry_Int_Tables_number   1
_chemical_formula_structural   U2Mn2C3
_chemical_formula_sum   'U2 Mn2 C3'
_cell_volume   83.58193730
_cell_formula_units_Z   1
loop_
 _symmetry_equiv_pos_site_id
 _symmetry_equiv_pos_as_xyz
  1  'x, y, z'
loop_
 _atom_site_type_symbol
 _atom_site_label
 _atom_site_symmetry_multiplicity
 _atom_site_fract_x
 _atom_site_fract_y
 _atom_site_fract_z
 _atom_site_occupancy
  U  U0  1  0.591455  0.591455  0.229038  1
  U  U1  1  0.408545  0.408545  0.770962  1
  Mn  Mn2  1  0.836466  0.836466  0.326063  1
  Mn  Mn3  1  0.163534  0.163534  0.673937  1
  C  C4  1  0.748708  0.748708  0.745053  1
  C  C5  1  0.251292  0.251292  0.254947  1
  C  C6  1  0.000000  0.000000  0.000000  1
