# generated using pymatgen
data_YHoGa9Ir2Pt
_symmetry_space_group_name_H-M   'P 1'
_cell_length_a   7.62307500
_cell_length_b   7.62304315
_cell_length_c   9.48093402
_cell_angle_alpha   89.99727478
_cell_angle_beta   89.99800545
_cell_angle_gamma   119.88433887
_symmetry_Int_Tables_number   1
_chemical_formula_structural   YHoGa9Ir2Pt
_chemical_formula_sum   'Y2 Ho2 Ga18 Ir4 Pt2'
_cell_volume   477.68907323
_cell_formula_units_Z   2
loop_
 _symmetry_equiv_pos_site_id
 _symmetry_equiv_pos_as_xyz
  1  'x, y, z'
loop_
 _atom_site_type_symbol
 _atom_site_label
 _atom_site_symmetry_multiplicity
 _atom_site_fract_x
 _atom_site_fract_y
 _atom_site_fract_z
 _atom_site_occupancy
  Y  Y0  1  0.670377  0.996491  0.249869  1
  Y  Y1  1  0.329623  0.003509  0.750131  1
  Ho  Ho2  1  0.996531  0.670271  0.249765  1
  Ho  Ho3  1  0.003469  0.329729  0.750235  1
  Ga  Ga4  1  0.132438  0.132097  0.250006  1
  Ga  Ga5  1  0.867562  0.867903  0.749994  1
  Ga  Ga6  1  0.998555  0.338204  0.081167  1
  Ga  Ga7  1  0.001445  0.661796  0.918833  1
  Ga  Ga8  1  0.001425  0.661724  0.581222  1
  Ga  Ga9  1  0.337541  0.998199  0.418533  1
  Ga  Ga10  1  0.998575  0.338276  0.418778  1
  Ga  Ga11  1  0.662459  0.001801  0.581467  1
  Ga  Ga12  1  0.662508  0.001829  0.918595  1
  Ga  Ga13  1  0.337492  0.998171  0.081405  1
  Ga  Ga14  1  0.335424  0.335750  0.567897  1
  Ga  Ga15  1  0.664576  0.664250  0.432103  1
  Ga  Ga16  1  0.664543  0.664212  0.067800  1
  Ga  Ga17  1  0.335457  0.335788  0.932200  1
  Ga  Ga18  1  0.336912  0.546842  0.249989  1
  Ga  Ga19  1  0.663088  0.453158  0.750011  1
  Ga  Ga20  1  0.547238  0.337609  0.249994  1
  Ga  Ga21  1  0.452762  0.662391  0.750006  1
  Ir  Ir22  1  0.671418  0.328986  0.999992  1
  Ir  Ir23  1  0.328582  0.671014  0.000008  1
  Ir  Ir24  1  0.328534  0.671062  0.499995  1
  Ir  Ir25  1  0.671466  0.328938  0.500005  1
  Pt  Pt26  1  0.000000  0.000000  0.000000  1
  Pt  Pt27  1  0.000000  0.000000  0.500000  1
