# generated using pymatgen
data_Th4C2N
_symmetry_space_group_name_H-M   'P 1'
_cell_length_a   12.37808669
_cell_length_b   12.37808662
_cell_length_c   12.37808621
_cell_angle_alpha   17.31860016
_cell_angle_beta   17.31860322
_cell_angle_gamma   17.31860487
_symmetry_Int_Tables_number   1
_chemical_formula_structural   Th4C2N
_chemical_formula_sum   'Th4 C2 N1'
_cell_volume   146.65545406
_cell_formula_units_Z   1
loop_
 _symmetry_equiv_pos_site_id
 _symmetry_equiv_pos_as_xyz
  1  'x, y, z'
loop_
 _atom_site_type_symbol
 _atom_site_label
 _atom_site_symmetry_multiplicity
 _atom_site_fract_x
 _atom_site_fract_y
 _atom_site_fract_z
 _atom_site_occupancy
  Th  Th0  1  0.626004  0.626004  0.626004  1
  Th  Th1  1  0.373996  0.373996  0.373996  1
  Th  Th2  1  0.879797  0.879797  0.879797  1
  Th  Th3  1  0.120203  0.120203  0.120203  1
  C  C4  1  0.751105  0.751105  0.751105  1
  C  C5  1  0.248896  0.248895  0.248895  1
  N  N6  1  0.000000  0.000000  0.000000  1
