# generated using pymatgen
data_Tb2Al2IrRh
_symmetry_space_group_name_H-M   'P 1'
_cell_length_a   4.25398500
_cell_length_b   6.91841929
_cell_length_c   7.94502199
_cell_angle_alpha   90.18069668
_cell_angle_beta   90.00000000
_cell_angle_gamma   90.00000000
_symmetry_Int_Tables_number   1
_chemical_formula_structural   Tb2Al2IrRh
_chemical_formula_sum   'Tb4 Al4 Ir2 Rh2'
_cell_volume   233.82760269
_cell_formula_units_Z   2
loop_
 _symmetry_equiv_pos_site_id
 _symmetry_equiv_pos_as_xyz
  1  'x, y, z'
loop_
 _atom_site_type_symbol
 _atom_site_label
 _atom_site_symmetry_multiplicity
 _atom_site_fract_x
 _atom_site_fract_y
 _atom_site_fract_z
 _atom_site_occupancy
  Tb  Tb0  1  0.250000  0.533418  0.180460  1
  Tb  Tb1  1  0.750000  0.466582  0.819540  1
  Tb  Tb2  1  0.750000  0.965053  0.680943  1
  Tb  Tb3  1  0.250000  0.034947  0.319057  1
  Al  Al4  1  0.250000  0.637407  0.561180  1
  Al  Al5  1  0.750000  0.362593  0.438820  1
  Al  Al6  1  0.750000  0.862217  0.059840  1
  Al  Al7  1  0.250000  0.137783  0.940160  1
  Ir  Ir8  1  0.250000  0.768327  0.878917  1
  Ir  Ir9  1  0.750000  0.231673  0.121083  1
  Rh  Rh10  1  0.750000  0.732941  0.381179  1
  Rh  Rh11  1  0.250000  0.267059  0.618821  1
