# generated using pymatgen
data_Dy4Y6Si6O
_symmetry_space_group_name_H-M   'P 1'
_cell_length_a   8.41932800
_cell_length_b   8.41932806
_cell_length_c   6.31455100
_cell_angle_alpha   90.00000000
_cell_angle_beta   90.00000000
_cell_angle_gamma   119.99999976
_symmetry_Int_Tables_number   1
_chemical_formula_structural   Dy4Y6Si6O
_chemical_formula_sum   'Dy4 Y6 Si6 O1'
_cell_volume   387.63945045
_cell_formula_units_Z   1
loop_
 _symmetry_equiv_pos_site_id
 _symmetry_equiv_pos_as_xyz
  1  'x, y, z'
loop_
 _atom_site_type_symbol
 _atom_site_label
 _atom_site_symmetry_multiplicity
 _atom_site_fract_x
 _atom_site_fract_y
 _atom_site_fract_z
 _atom_site_occupancy
  Dy  Dy0  1  0.333333  0.666667  0.500000  1
  Dy  Dy1  1  0.666667  0.333333  0.500000  1
  Dy  Dy2  1  0.666667  0.333333  0.000000  1
  Dy  Dy3  1  0.333333  0.666667  0.000000  1
  Y  Y4  1  0.000000  0.763521  0.260037  1
  Y  Y5  1  0.236479  0.236479  0.260037  1
  Y  Y6  1  0.763521  0.000000  0.260037  1
  Y  Y7  1  0.000000  0.236479  0.739963  1
  Y  Y8  1  0.763521  0.763521  0.739963  1
  Y  Y9  1  0.236479  0.000000  0.739963  1
  Si  Si10  1  0.000000  0.396764  0.249906  1
  Si  Si11  1  0.603236  0.603236  0.249906  1
  Si  Si12  1  0.396764  0.000000  0.249906  1
  Si  Si13  1  0.000000  0.603236  0.750094  1
  Si  Si14  1  0.396764  0.396764  0.750094  1
  Si  Si15  1  0.603236  0.000000  0.750094  1
  O  O16  1  0.000000  0.000000  0.500000  1
