# generated using pymatgen
data_Y4Tm6(InSb)3
_symmetry_space_group_name_H-M   'P 1'
_cell_length_a   6.45887800
_cell_length_b   8.91271683
_cell_length_c   8.91271800
_cell_angle_alpha   59.92449686
_cell_angle_beta   90.00062983
_cell_angle_gamma   89.99937064
_symmetry_Int_Tables_number   1
_chemical_formula_structural   Y4Tm6(InSb)3
_chemical_formula_sum   'Y4 Tm6 In3 Sb3'
_cell_volume   443.99396240
_cell_formula_units_Z   1
loop_
 _symmetry_equiv_pos_site_id
 _symmetry_equiv_pos_as_xyz
  1  'x, y, z'
loop_
 _atom_site_type_symbol
 _atom_site_label
 _atom_site_symmetry_multiplicity
 _atom_site_fract_x
 _atom_site_fract_y
 _atom_site_fract_z
 _atom_site_occupancy
  Y  Y0  1  0.749975  0.238340  0.761644  1
  Y  Y1  1  0.250009  0.761548  0.238477  1
  Y  Y2  1  0.249985  0.239040  0.000376  1
  Y  Y3  1  0.250053  0.999622  0.760980  1
  Tm  Tm4  1  0.502836  0.333557  0.332960  1
  Tm  Tm5  1  0.502836  0.667037  0.666443  1
  Tm  Tm6  1  0.997141  0.666981  0.666406  1
  Tm  Tm7  1  0.997143  0.333586  0.333015  1
  Tm  Tm8  1  0.750011  0.761283  0.000169  1
  Tm  Tm9  1  0.750016  0.999819  0.238725  1
  In  In10  1  0.749958  0.606556  0.393432  1
  In  In11  1  0.750026  0.394129  0.001077  1
  In  In12  1  0.750033  0.998919  0.605871  1
  Sb  Sb13  1  0.250050  0.396544  0.603459  1
  Sb  Sb14  1  0.249963  0.603336  0.000306  1
  Sb  Sb15  1  0.249965  0.999702  0.396663  1
