# generated using pymatgen
data_Nb10(AlAs)3
_symmetry_space_group_name_H-M   'P 1'
_cell_length_a   5.20872620
_cell_length_b   7.66098739
_cell_length_c   7.72985011
_cell_angle_alpha   96.57694136
_cell_angle_beta   109.68951554
_cell_angle_gamma   70.12608676
_symmetry_Int_Tables_number   1
_chemical_formula_structural   Nb10(AlAs)3
_chemical_formula_sum   'Nb10 Al3 As3'
_cell_volume   273.12094925
_cell_formula_units_Z   1
loop_
 _symmetry_equiv_pos_site_id
 _symmetry_equiv_pos_as_xyz
  1  'x, y, z'
loop_
 _atom_site_type_symbol
 _atom_site_label
 _atom_site_symmetry_multiplicity
 _atom_site_fract_x
 _atom_site_fract_y
 _atom_site_fract_z
 _atom_site_occupancy
  Nb  Nb0  1  0.423628  0.854312  0.701567  1
  Nb  Nb1  1  0.579137  0.143201  0.301476  1
  Nb  Nb2  1  0.923425  0.301432  0.148283  1
  Nb  Nb3  1  0.072581  0.702538  0.847700  1
  Nb  Nb4  1  0.724858  0.698568  0.148283  1
  Nb  Nb5  1  0.275119  0.297462  0.847700  1
  Nb  Nb6  1  0.777939  0.145688  0.701567  1
  Nb  Nb7  1  0.222339  0.856799  0.301476  1
  Nb  Nb8  1  0.252016  0.500000  0.500976  1
  Nb  Nb9  1  0.748961  0.500000  0.500976  1
  Al  Al10  1  0.250449  0.000000  0.000899  1
  Al  Al11  1  0.750449  0.000000  0.000899  1
  Al  Al12  1  0.334896  0.500000  0.169793  1
  As  As13  1  0.665918  0.500000  0.831834  1
  As  As14  1  0.834249  0.829788  0.498286  1
  As  As15  1  0.164037  0.170212  0.498286  1
