# generated using pymatgen
data_Nd4ZnBr6
_symmetry_space_group_name_H-M   'P 1'
_cell_length_a   4.17949400
_cell_length_b   13.94466600
_cell_length_c   14.70171100
_cell_angle_alpha   90.00000000
_cell_angle_beta   90.00000000
_cell_angle_gamma   90.00000000
_symmetry_Int_Tables_number   1
_chemical_formula_structural   Nd4ZnBr6
_chemical_formula_sum   'Nd8 Zn2 Br12'
_cell_volume   856.83994372
_cell_formula_units_Z   2
loop_
 _symmetry_equiv_pos_site_id
 _symmetry_equiv_pos_as_xyz
  1  'x, y, z'
loop_
 _atom_site_type_symbol
 _atom_site_label
 _atom_site_symmetry_multiplicity
 _atom_site_fract_x
 _atom_site_fract_y
 _atom_site_fract_z
 _atom_site_occupancy
  Nd  Nd0  1  0.500000  0.119144  0.340006  1
  Nd  Nd1  1  0.500000  0.880856  0.659994  1
  Nd  Nd2  1  0.500000  0.619144  0.159994  1
  Nd  Nd3  1  0.500000  0.380856  0.840006  1
  Nd  Nd4  1  0.000000  0.122970  0.582662  1
  Nd  Nd5  1  0.000000  0.877030  0.417338  1
  Nd  Nd6  1  0.000000  0.622970  0.917338  1
  Nd  Nd7  1  0.000000  0.377030  0.082662  1
  Zn  Zn8  1  0.500000  0.000000  0.500000  1
  Zn  Zn9  1  0.500000  0.500000  0.000000  1
  Br  Br10  1  0.500000  0.242134  0.163139  1
  Br  Br11  1  0.500000  0.757866  0.836861  1
  Br  Br12  1  0.500000  0.742134  0.336861  1
  Br  Br13  1  0.500000  0.257866  0.663139  1
  Br  Br14  1  0.000000  0.253408  0.411653  1
  Br  Br15  1  0.000000  0.746592  0.588347  1
  Br  Br16  1  0.000000  0.753408  0.088347  1
  Br  Br17  1  0.000000  0.246592  0.911653  1
  Br  Br18  1  0.000000  0.001322  0.244547  1
  Br  Br19  1  0.000000  0.998678  0.755453  1
  Br  Br20  1  0.000000  0.501322  0.255453  1
  Br  Br21  1  0.000000  0.498678  0.744547  1
