# generated using pymatgen
data_Ce4NpAlRu6
_symmetry_space_group_name_H-M   'P 1'
_cell_length_a   5.62259100
_cell_length_b   5.62259279
_cell_length_c   7.93163300
_cell_angle_alpha   90.00000000
_cell_angle_beta   90.00000000
_cell_angle_gamma   119.99998357
_symmetry_Int_Tables_number   1
_chemical_formula_structural   Ce4NpAlRu6
_chemical_formula_sum   'Ce4 Np1 Al1 Ru6'
_cell_volume   217.15330286
_cell_formula_units_Z   1
loop_
 _symmetry_equiv_pos_site_id
 _symmetry_equiv_pos_as_xyz
  1  'x, y, z'
loop_
 _atom_site_type_symbol
 _atom_site_label
 _atom_site_symmetry_multiplicity
 _atom_site_fract_x
 _atom_site_fract_y
 _atom_site_fract_z
 _atom_site_occupancy
  Ce  Ce0  1  0.333333  0.666667  0.423260  1
  Ce  Ce1  1  0.666667  0.333333  0.576740  1
  Ce  Ce2  1  0.666667  0.333333  0.941087  1
  Ce  Ce3  1  0.333333  0.666667  0.058913  1
  Np  Np4  1  0.000000  0.000000  0.500000  1
  Al  Al5  1  0.000000  0.000000  0.000000  1
  Ru  Ru6  1  0.168112  0.336225  0.744504  1
  Ru  Ru7  1  0.168112  0.831888  0.744504  1
  Ru  Ru8  1  0.336225  0.168112  0.255496  1
  Ru  Ru9  1  0.831888  0.663775  0.255496  1
  Ru  Ru10  1  0.663775  0.831888  0.744504  1
  Ru  Ru11  1  0.831888  0.168112  0.255496  1
