# generated using pymatgen
data_Na3LiMn2O6
_symmetry_space_group_name_H-M   'P 1'
_cell_length_a   5.15369403
_cell_length_b   10.81359993
_cell_length_c   5.15370388
_cell_angle_alpha   85.54953841
_cell_angle_beta   119.95590558
_cell_angle_gamma   85.54923899
_symmetry_Int_Tables_number   1
_chemical_formula_structural   Na3LiMn2O6
_chemical_formula_sum   'Na6 Li2 Mn4 O12'
_cell_volume   245.83546464
_cell_formula_units_Z   2
loop_
 _symmetry_equiv_pos_site_id
 _symmetry_equiv_pos_as_xyz
  1  'x, y, z'
loop_
 _atom_site_type_symbol
 _atom_site_label
 _atom_site_symmetry_multiplicity
 _atom_site_fract_x
 _atom_site_fract_y
 _atom_site_fract_z
 _atom_site_occupancy
  Na  Na0  1  0.249848  0.250050  0.249838  1
  Na  Na1  1  0.750168  0.749950  0.750158  1
  Na  Na2  1  0.910386  0.249275  0.592517  1
  Na  Na3  1  0.407487  0.750723  0.089634  1
  Na  Na4  1  0.589339  0.250667  0.907187  1
  Na  Na5  1  0.092798  0.749333  0.410646  1
  Li  Li6  1  0.501229  0.500016  0.498747  1
  Li  Li7  1  0.998735  0.999996  0.001269  1
  Mn  Mn8  1  0.332538  0.999994  0.667474  1
  Mn  Mn9  1  0.833279  0.500010  0.166707  1
  Mn  Mn10  1  0.167458  0.500010  0.832521  1
  Mn  Mn11  1  0.666703  0.999995  0.333305  1
  O  O12  1  0.608291  0.098490  0.609166  1
  O  O13  1  0.109428  0.598407  0.108546  1
  O  O14  1  0.891451  0.401598  0.890566  1
  O  O15  1  0.390847  0.901497  0.391719  1
  O  O16  1  0.327011  0.098454  0.968334  1
  O  O17  1  0.827516  0.598430  0.467405  1
  O  O18  1  0.967378  0.098391  0.327391  1
  O  O19  1  0.468353  0.598492  0.827135  1
  O  O20  1  0.532587  0.401575  0.172466  1
  O  O21  1  0.031682  0.901531  0.673001  1
  O  O22  1  0.172860  0.401518  0.531635  1
  O  O23  1  0.672628  0.901595  0.032635  1
