# generated using pymatgen
data_ErLu3(Si3Rh)2
_symmetry_space_group_name_H-M   'P 1'
_cell_length_a   8.10747700
_cell_length_b   8.10747721
_cell_length_c   7.72637100
_cell_angle_alpha   90.00000000
_cell_angle_beta   90.00000000
_cell_angle_gamma   120.00000321
_symmetry_Int_Tables_number   1
_chemical_formula_structural   ErLu3(Si3Rh)2
_chemical_formula_sum   'Er2 Lu6 Si12 Rh4'
_cell_volume   439.82269734
_cell_formula_units_Z   2
loop_
 _symmetry_equiv_pos_site_id
 _symmetry_equiv_pos_as_xyz
  1  'x, y, z'
loop_
 _atom_site_type_symbol
 _atom_site_label
 _atom_site_symmetry_multiplicity
 _atom_site_fract_x
 _atom_site_fract_y
 _atom_site_fract_z
 _atom_site_occupancy
  Er  Er0  1  0.000000  0.000000  0.750000  1
  Er  Er1  1  0.000000  0.000000  0.250000  1
  Lu  Lu2  1  0.981618  0.490809  0.250000  1
  Lu  Lu3  1  0.509191  0.490809  0.250000  1
  Lu  Lu4  1  0.490809  0.981618  0.750000  1
  Lu  Lu5  1  0.018382  0.509191  0.750000  1
  Lu  Lu6  1  0.490809  0.509191  0.750000  1
  Lu  Lu7  1  0.509191  0.018382  0.250000  1
  Si  Si8  1  0.167122  0.832878  0.499866  1
  Si  Si9  1  0.167122  0.334244  0.499866  1
  Si  Si10  1  0.665756  0.832878  0.499866  1
  Si  Si11  1  0.334244  0.167122  0.999866  1
  Si  Si12  1  0.832878  0.665756  0.500134  1
  Si  Si13  1  0.832878  0.167122  0.999866  1
  Si  Si14  1  0.832878  0.665756  0.999866  1
  Si  Si15  1  0.167122  0.334244  0.000134  1
  Si  Si16  1  0.665756  0.832878  0.000134  1
  Si  Si17  1  0.334244  0.167122  0.500134  1
  Si  Si18  1  0.832878  0.167122  0.500134  1
  Si  Si19  1  0.167122  0.832878  0.000134  1
  Rh  Rh20  1  0.333333  0.666667  0.034405  1
  Rh  Rh21  1  0.666667  0.333333  0.965595  1
  Rh  Rh22  1  0.666667  0.333333  0.534405  1
  Rh  Rh23  1  0.333333  0.666667  0.465595  1
