# generated using pymatgen
data_La2AlAg6
_symmetry_space_group_name_H-M   'P 1'
_cell_length_a   5.52296566
_cell_length_b   5.52296650
_cell_length_c   14.47151100
_cell_angle_alpha   90.00000000
_cell_angle_beta   90.00000000
_cell_angle_gamma   117.14197512
_symmetry_Int_Tables_number   1
_chemical_formula_structural   La2AlAg6
_chemical_formula_sum   'La4 Al2 Ag12'
_cell_volume   392.81630609
_cell_formula_units_Z   2
loop_
 _symmetry_equiv_pos_site_id
 _symmetry_equiv_pos_as_xyz
  1  'x, y, z'
loop_
 _atom_site_type_symbol
 _atom_site_label
 _atom_site_symmetry_multiplicity
 _atom_site_fract_x
 _atom_site_fract_y
 _atom_site_fract_z
 _atom_site_occupancy
  La  La0  1  0.323074  0.323074  0.115753  1
  La  La1  1  0.676926  0.676926  0.615753  1
  La  La2  1  0.323074  0.323074  0.384247  1
  La  La3  1  0.676926  0.676926  0.884247  1
  Al  Al4  1  0.828431  0.828431  0.250000  1
  Al  Al5  1  0.171569  0.171569  0.750000  1
  Ag  Ag6  1  0.831217  0.334863  0.250000  1
  Ag  Ag7  1  0.168783  0.665137  0.750000  1
  Ag  Ag8  1  0.334863  0.831217  0.250000  1
  Ag  Ag9  1  0.665137  0.168783  0.750000  1
  Ag  Ag10  1  0.989634  0.668923  0.076268  1
  Ag  Ag11  1  0.010366  0.331077  0.576268  1
  Ag  Ag12  1  0.668923  0.989634  0.423732  1
  Ag  Ag13  1  0.331077  0.010366  0.923732  1
  Ag  Ag14  1  0.010366  0.331077  0.923732  1
  Ag  Ag15  1  0.989634  0.668923  0.423732  1
  Ag  Ag16  1  0.331077  0.010366  0.576268  1
  Ag  Ag17  1  0.668923  0.989634  0.076268  1
