# generated using pymatgen
data_YbY3Lu4(B6Os)4
_symmetry_space_group_name_H-M   'P 1'
_cell_length_a   3.61825100
_cell_length_b   9.08416861
_cell_length_c   11.48079100
_cell_angle_alpha   89.94076292
_cell_angle_beta   90.00000000
_cell_angle_gamma   90.00000000
_symmetry_Int_Tables_number   1
_chemical_formula_structural   YbY3Lu4(B6Os)4
_chemical_formula_sum   'Yb1 Y3 Lu4 B24 Os4'
_cell_volume   377.35964649
_cell_formula_units_Z   1
loop_
 _symmetry_equiv_pos_site_id
 _symmetry_equiv_pos_as_xyz
  1  'x, y, z'
loop_
 _atom_site_type_symbol
 _atom_site_label
 _atom_site_symmetry_multiplicity
 _atom_site_fract_x
 _atom_site_fract_y
 _atom_site_fract_z
 _atom_site_occupancy
  Yb  Yb0  1  0.000000  0.322235  0.413612  1
  Y  Y1  1  0.000000  0.677244  0.585123  1
  Y  Y2  1  0.000000  0.821393  0.086496  1
  Y  Y3  1  0.000000  0.179228  0.914502  1
  Lu  Lu4  1  0.000000  0.944620  0.372211  1
  Lu  Lu5  1  0.000000  0.057447  0.626798  1
  Lu  Lu6  1  0.000000  0.443327  0.128732  1
  Lu  Lu7  1  0.000000  0.555818  0.872764  1
  B  B8  1  0.500000  0.553685  0.432221  1
  B  B9  1  0.500000  0.445347  0.567328  1
  B  B10  1  0.500000  0.053758  0.066951  1
  B  B11  1  0.500000  0.945542  0.932329  1
  B  B12  1  0.500000  0.749736  0.418770  1
  B  B13  1  0.500000  0.250625  0.580896  1
  B  B14  1  0.500000  0.249268  0.081231  1
  B  B15  1  0.500000  0.750050  0.919085  1
  B  B16  1  0.500000  0.792171  0.266179  1
  B  B17  1  0.500000  0.208768  0.734060  1
  B  B18  1  0.500000  0.291166  0.234118  1
  B  B19  1  0.500000  0.708254  0.766256  1
  B  B20  1  0.500000  0.630616  0.185503  1
  B  B21  1  0.500000  0.369599  0.815596  1
  B  B22  1  0.500000  0.130689  0.314820  1
  B  B23  1  0.500000  0.869547  0.684625  1
  B  B24  1  0.500000  0.982743  0.212896  1
  B  B25  1  0.500000  0.017459  0.786260  1
  B  B26  1  0.500000  0.482408  0.287012  1
  B  B27  1  0.500000  0.517098  0.713565  1
  B  B28  1  0.500000  0.603882  0.028869  1
  B  B29  1  0.500000  0.396300  0.971812  1
  B  B30  1  0.500000  0.101846  0.471853  1
  B  B31  1  0.500000  0.897576  0.528146  1
  Os  Os32  1  0.000000  0.639677  0.319772  1
  Os  Os33  1  0.000000  0.361575  0.680680  1
  Os  Os34  1  0.000000  0.137661  0.178559  1
  Os  Os35  1  0.000000  0.861642  0.820374  1
