# generated using pymatgen
data_Ba12Sn11AsAu12
_symmetry_space_group_name_H-M   'P 1'
_cell_length_a   5.05895000
_cell_length_b   8.55093858
_cell_length_c   25.31135500
_cell_angle_alpha   90.14014162
_cell_angle_beta   90.00000000
_cell_angle_gamma   90.00000000
_symmetry_Int_Tables_number   1
_chemical_formula_structural   Ba12Sn11AsAu12
_chemical_formula_sum   'Ba12 Sn11 As1 Au12'
_cell_volume   1094.93482730
_cell_formula_units_Z   1
loop_
 _symmetry_equiv_pos_site_id
 _symmetry_equiv_pos_as_xyz
  1  'x, y, z'
loop_
 _atom_site_type_symbol
 _atom_site_label
 _atom_site_symmetry_multiplicity
 _atom_site_fract_x
 _atom_site_fract_y
 _atom_site_fract_z
 _atom_site_occupancy
  Ba  Ba0  1  0.750000  0.237589  0.501486  1
  Ba  Ba1  1  0.250000  0.794476  0.165822  1
  Ba  Ba2  1  0.250000  0.770158  0.503817  1
  Ba  Ba3  1  0.250000  0.792439  0.832605  1
  Ba  Ba4  1  0.250000  0.711210  0.333007  1
  Ba  Ba5  1  0.750000  0.205120  0.833700  1
  Ba  Ba6  1  0.750000  0.293859  0.996772  1
  Ba  Ba7  1  0.750000  0.297197  0.665249  1
  Ba  Ba8  1  0.750000  0.293144  0.333371  1
  Ba  Ba9  1  0.250000  0.697593  0.664283  1
  Ba  Ba10  1  0.250000  0.705499  0.002502  1
  Ba  Ba11  1  0.750000  0.206862  0.166523  1
  Sn  Sn12  1  0.250000  0.081934  0.396207  1
  Sn  Sn13  1  0.250000  0.085709  0.061702  1
  Sn  Sn14  1  0.250000  0.418487  0.895268  1
  Sn  Sn15  1  0.750000  0.580639  0.104456  1
  Sn  Sn16  1  0.250000  0.417650  0.771999  1
  Sn  Sn17  1  0.750000  0.581806  0.227490  1
  Sn  Sn18  1  0.750000  0.590013  0.432696  1
  Sn  Sn19  1  0.750000  0.913210  0.938701  1
  Sn  Sn20  1  0.250000  0.081773  0.271697  1
  Sn  Sn21  1  0.750000  0.917491  0.603940  1
  Sn  Sn22  1  0.750000  0.918248  0.727898  1
  As  As23  1  0.250000  0.396501  0.579787  1
  Au  Au24  1  0.250000  0.082290  0.593482  1
  Au  Au25  1  0.250000  0.085180  0.740762  1
  Au  Au26  1  0.750000  0.587030  0.906550  1
  Au  Au27  1  0.750000  0.917384  0.407594  1
  Au  Au28  1  0.750000  0.592064  0.568636  1
  Au  Au29  1  0.750000  0.585789  0.759689  1
  Au  Au30  1  0.250000  0.418396  0.421795  1
  Au  Au31  1  0.250000  0.416237  0.239106  1
  Au  Au32  1  0.750000  0.920532  0.064974  1
  Au  Au33  1  0.250000  0.412802  0.093298  1
  Au  Au34  1  0.250000  0.079072  0.934712  1
  Au  Au35  1  0.750000  0.914625  0.258423  1
