# generated using pymatgen
data_NaDy(Y4S5)2
_symmetry_space_group_name_H-M   'P 1'
_cell_length_a   6.76541260
_cell_length_b   7.82493778
_cell_length_c   8.78383300
_cell_angle_alpha   103.16595256
_cell_angle_beta   97.18425913
_cell_angle_gamma   106.80415648
_symmetry_Int_Tables_number   1
_chemical_formula_structural   NaDy(Y4S5)2
_chemical_formula_sum   'Na1 Dy1 Y8 S10'
_cell_volume   424.26094581
_cell_formula_units_Z   1
loop_
 _symmetry_equiv_pos_site_id
 _symmetry_equiv_pos_as_xyz
  1  'x, y, z'
loop_
 _atom_site_type_symbol
 _atom_site_label
 _atom_site_symmetry_multiplicity
 _atom_site_fract_x
 _atom_site_fract_y
 _atom_site_fract_z
 _atom_site_occupancy
  Na  Na0  1  0.000000  0.500000  0.000000  1
  Dy  Dy1  1  0.000000  0.000000  0.000000  1
  Y  Y2  1  0.798994  0.600920  0.600738  1
  Y  Y3  1  0.604882  0.201965  0.206609  1
  Y  Y4  1  0.395118  0.798035  0.793391  1
  Y  Y5  1  0.600621  0.703497  0.204874  1
  Y  Y6  1  0.201006  0.399080  0.399262  1
  Y  Y7  1  0.399379  0.296503  0.795126  1
  Y  Y8  1  0.201583  0.902018  0.404761  1
  Y  Y9  1  0.798417  0.097982  0.595239  1
  S  S10  1  0.697198  0.651189  0.901793  1
  S  S11  1  0.500691  0.251298  0.500033  1
  S  S12  1  0.698665  0.148345  0.901101  1
  S  S13  1  0.301335  0.851655  0.098899  1
  S  S14  1  0.499309  0.748702  0.499967  1
  S  S15  1  0.098283  0.449033  0.699886  1
  S  S16  1  0.302802  0.348811  0.098207  1
  S  S17  1  0.903272  0.049588  0.298158  1
  S  S18  1  0.096728  0.950412  0.701842  1
  S  S19  1  0.901717  0.550967  0.300114  1
