# generated using pymatgen
data_Dy12InNi4Ir
_symmetry_space_group_name_H-M   'P 1'
_cell_length_a   8.32535896
_cell_length_b   8.32788194
_cell_length_c   8.32536000
_cell_angle_alpha   111.72919676
_cell_angle_beta   109.66939214
_cell_angle_gamma   107.03683997
_symmetry_Int_Tables_number   1
_chemical_formula_structural   Dy12InNi4Ir
_chemical_formula_sum   'Dy12 In1 Ni4 Ir1'
_cell_volume   443.66381831
_cell_formula_units_Z   1
loop_
 _symmetry_equiv_pos_site_id
 _symmetry_equiv_pos_as_xyz
  1  'x, y, z'
loop_
 _atom_site_type_symbol
 _atom_site_label
 _atom_site_symmetry_multiplicity
 _atom_site_fract_x
 _atom_site_fract_y
 _atom_site_fract_z
 _atom_site_occupancy
  Dy  Dy0  1  0.406071  0.215108  0.190972  1
  Dy  Dy1  1  0.593929  0.784892  0.809028  1
  Dy  Dy2  1  0.024134  0.215108  0.809035  1
  Dy  Dy3  1  0.975866  0.784892  0.190965  1
  Dy  Dy4  1  0.181121  0.291458  0.472592  1
  Dy  Dy5  1  0.818879  0.708542  0.527408  1
  Dy  Dy6  1  0.181134  0.708542  0.889662  1
  Dy  Dy7  1  0.818866  0.291458  0.110338  1
  Dy  Dy8  1  0.321793  0.627122  0.305330  1
  Dy  Dy9  1  0.678207  0.372878  0.694670  1
  Dy  Dy10  1  0.321798  0.016498  0.694699  1
  Dy  Dy11  1  0.678202  0.983502  0.305301  1
  In  In12  1  0.500000  0.500000  0.000000  1
  Ni  Ni13  1  0.365489  0.000000  0.365489  1
  Ni  Ni14  1  0.634511  0.000000  0.634511  1
  Ni  Ni15  1  0.123824  0.623918  0.500095  1
  Ni  Ni16  1  0.876176  0.376082  0.499905  1
  Ir  Ir17  1  0.000000  0.000000  0.000000  1
