# generated using pymatgen
data_Y3Tm7Si5As
_symmetry_space_group_name_H-M   'P 1'
_cell_length_a   8.34790973
_cell_length_b   8.38530219
_cell_length_c   6.22168000
_cell_angle_alpha   90.00000000
_cell_angle_beta   90.00000000
_cell_angle_gamma   119.94498802
_symmetry_Int_Tables_number   1
_chemical_formula_structural   Y3Tm7Si5As
_chemical_formula_sum   'Y3 Tm7 Si5 As1'
_cell_volume   377.37683956
_cell_formula_units_Z   1
loop_
 _symmetry_equiv_pos_site_id
 _symmetry_equiv_pos_as_xyz
  1  'x, y, z'
loop_
 _atom_site_type_symbol
 _atom_site_label
 _atom_site_symmetry_multiplicity
 _atom_site_fract_x
 _atom_site_fract_y
 _atom_site_fract_z
 _atom_site_occupancy
  Y  Y0  1  0.758267  0.999715  0.750000  1
  Y  Y1  1  0.242956  0.246957  0.750000  1
  Y  Y2  1  0.242548  0.999378  0.250000  1
  Tm  Tm3  1  0.995453  0.751797  0.750000  1
  Tm  Tm4  1  0.000097  0.245189  0.250000  1
  Tm  Tm5  1  0.756191  0.755495  0.250000  1
  Tm  Tm6  1  0.332765  0.663590  0.498490  1
  Tm  Tm7  1  0.669983  0.336990  0.001501  1
  Tm  Tm8  1  0.669983  0.336990  0.498499  1
  Tm  Tm9  1  0.332765  0.663590  0.001510  1
  Si  Si10  1  0.394492  0.394381  0.250000  1
  Si  Si11  1  0.000162  0.605477  0.250000  1
  Si  Si12  1  0.999676  0.396332  0.750000  1
  Si  Si13  1  0.606490  0.605612  0.750000  1
  Si  Si14  1  0.608558  0.999991  0.250000  1
  As  As15  1  0.389615  0.998517  0.750000  1
