# generated using pymatgen
data_LiAc3Ir8
_symmetry_space_group_name_H-M   'P 1'
_cell_length_a   9.40413928
_cell_length_b   9.40413854
_cell_length_c   9.40413806
_cell_angle_alpha   33.95829004
_cell_angle_beta   33.95828748
_cell_angle_gamma   33.95828391
_symmetry_Int_Tables_number   1
_chemical_formula_structural   LiAc3Ir8
_chemical_formula_sum   'Li1 Ac3 Ir8'
_cell_volume   231.29859497
_cell_formula_units_Z   1
loop_
 _symmetry_equiv_pos_site_id
 _symmetry_equiv_pos_as_xyz
  1  'x, y, z'
loop_
 _atom_site_type_symbol
 _atom_site_label
 _atom_site_symmetry_multiplicity
 _atom_site_fract_x
 _atom_site_fract_y
 _atom_site_fract_z
 _atom_site_occupancy
  Li  Li0  1  0.335395  0.335395  0.335395  1
  Ac  Ac1  1  0.858263  0.858263  0.858263  1
  Ac  Ac2  1  0.138671  0.138671  0.138671  1
  Ac  Ac3  1  0.999180  0.999180  0.999180  1
  Ir  Ir4  1  0.417754  0.923768  0.417754  1
  Ir  Ir5  1  0.417754  0.417754  0.923768  1
  Ir  Ir6  1  0.923768  0.417754  0.417754  1
  Ir  Ir7  1  0.577609  0.085222  0.577609  1
  Ir  Ir8  1  0.577609  0.577609  0.085222  1
  Ir  Ir9  1  0.085222  0.577609  0.577609  1
  Ir  Ir10  1  0.667870  0.667870  0.667870  1
  Ir  Ir11  1  0.500904  0.500904  0.500904  1
