# generated using pymatgen
data_LaTb5ErMnBr12
_symmetry_space_group_name_H-M   'P 1'
_cell_length_a   9.38803096
_cell_length_b   9.41517185
_cell_length_c   9.13531772
_cell_angle_alpha   106.41257682
_cell_angle_beta   107.38636530
_cell_angle_gamma   106.84789935
_symmetry_Int_Tables_number   1
_chemical_formula_structural   LaTb5ErMnBr12
_chemical_formula_sum   'La1 Tb5 Er1 Mn1 Br12'
_cell_volume   674.57869183
_cell_formula_units_Z   1
loop_
 _symmetry_equiv_pos_site_id
 _symmetry_equiv_pos_as_xyz
  1  'x, y, z'
loop_
 _atom_site_type_symbol
 _atom_site_label
 _atom_site_symmetry_multiplicity
 _atom_site_fract_x
 _atom_site_fract_y
 _atom_site_fract_z
 _atom_site_occupancy
  La  La0  1  0.594157  0.520833  0.789807  1
  Tb  Tb1  1  0.520541  0.805075  0.599449  1
  Tb  Tb2  1  0.808871  0.600436  0.524412  1
  Tb  Tb3  1  0.403859  0.477427  0.210915  1
  Tb  Tb4  1  0.479049  0.192000  0.399162  1
  Tb  Tb5  1  0.190669  0.398989  0.481082  1
  Er  Er6  1  0.000447  0.003101  0.996473  1
  Mn  Mn7  1  0.508097  0.500009  0.526304  1
  Br  Br8  1  0.567090  0.164853  0.712946  1
  Br  Br9  1  0.178364  0.716688  0.564136  1
  Br  Br10  1  0.713756  0.566210  0.181081  1
  Br  Br11  1  0.426123  0.809323  0.272562  1
  Br  Br12  1  0.818000  0.280930  0.425401  1
  Br  Br13  1  0.261813  0.424065  0.817659  1
  Br  Br14  1  0.678980  0.901803  0.966837  1
  Br  Br15  1  0.882978  0.960123  0.661560  1
  Br  Br16  1  0.978308  0.685704  0.889280  1
  Br  Br17  1  0.329113  0.122213  0.036889  1
  Br  Br18  1  0.116727  0.039492  0.329698  1
  Br  Br19  1  0.043059  0.330725  0.114347  1
