# generated using pymatgen
data_Ce6LuScAu10
_symmetry_space_group_name_H-M   'P 1'
_cell_length_a   8.15657450
_cell_length_b   8.15657371
_cell_length_c   8.15657400
_cell_angle_alpha   65.94736706
_cell_angle_beta   65.94736955
_cell_angle_gamma   65.94734668
_symmetry_Int_Tables_number   1
_chemical_formula_structural   Ce6LuScAu10
_chemical_formula_sum   'Ce6 Lu1 Sc1 Au10'
_cell_volume   433.12436193
_cell_formula_units_Z   1
loop_
 _symmetry_equiv_pos_site_id
 _symmetry_equiv_pos_as_xyz
  1  'x, y, z'
loop_
 _atom_site_type_symbol
 _atom_site_label
 _atom_site_symmetry_multiplicity
 _atom_site_fract_x
 _atom_site_fract_y
 _atom_site_fract_z
 _atom_site_occupancy
  Ce  Ce0  1  0.893988  0.184318  0.623691  1
  Ce  Ce1  1  0.623691  0.893988  0.184318  1
  Ce  Ce2  1  0.184318  0.623691  0.893988  1
  Ce  Ce3  1  0.107234  0.816688  0.376891  1
  Ce  Ce4  1  0.376891  0.107234  0.816688  1
  Ce  Ce5  1  0.816688  0.376891  0.107234  1
  Lu  Lu6  1  0.655843  0.655843  0.655843  1
  Sc  Sc7  1  0.342710  0.342710  0.342710  1
  Au  Au8  1  0.999148  0.999148  0.999148  1
  Au  Au9  1  0.497156  0.497156  0.497156  1
  Au  Au10  1  0.803932  0.803932  0.803932  1
  Au  Au11  1  0.198167  0.198167  0.198167  1
  Au  Au12  1  0.941466  0.546982  0.321575  1
  Au  Au13  1  0.321575  0.941466  0.546982  1
  Au  Au14  1  0.546982  0.321575  0.941466  1
  Au  Au15  1  0.064925  0.451654  0.673630  1
  Au  Au16  1  0.673630  0.064925  0.451654  1
  Au  Au17  1  0.451654  0.673630  0.064925  1
