# generated using pymatgen
data_CsAs(PO3)4
_symmetry_space_group_name_H-M   'P 1'
_cell_length_a   13.94320000
_cell_length_b   5.37831253
_cell_length_c   7.69560899
_cell_angle_alpha   80.14168671
_cell_angle_beta   90.00000000
_cell_angle_gamma   90.00000000
_symmetry_Int_Tables_number   1
_chemical_formula_structural   CsAs(PO3)4
_chemical_formula_sum   'Cs2 As2 P8 O24'
_cell_volume   568.57916952
_cell_formula_units_Z   2
loop_
 _symmetry_equiv_pos_site_id
 _symmetry_equiv_pos_as_xyz
  1  'x, y, z'
loop_
 _atom_site_type_symbol
 _atom_site_label
 _atom_site_symmetry_multiplicity
 _atom_site_fract_x
 _atom_site_fract_y
 _atom_site_fract_z
 _atom_site_occupancy
  Cs  Cs0  1  0.002867  0.398129  0.839835  1
  Cs  Cs1  1  0.502867  0.601871  0.160165  1
  As  As2  1  0.235522  0.499381  0.486242  1
  As  As3  1  0.735522  0.500619  0.513758  1
  P  P4  1  0.876949  0.015839  0.440009  1
  P  P5  1  0.815825  0.791656  0.136503  1
  P  P6  1  0.376949  0.984161  0.559991  1
  P  P7  1  0.178091  0.867882  0.090815  1
  P  P8  1  0.097739  0.016598  0.422170  1
  P  P9  1  0.597739  0.983402  0.577830  1
  P  P10  1  0.678091  0.132118  0.909185  1
  P  P11  1  0.315825  0.208344  0.863497  1
  O  O12  1  0.152118  0.802509  0.534043  1
  O  O13  1  0.107598  0.275334  0.472656  1
  O  O14  1  0.620309  0.963489  0.782057  1
  O  O15  1  0.987903  0.931646  0.439993  1
  O  O16  1  0.869383  0.274871  0.488529  1
  O  O17  1  0.844238  0.026891  0.240261  1
  O  O18  1  0.120309  0.036511  0.217943  1
  O  O19  1  0.616511  0.147556  0.062992  1
  O  O20  1  0.116511  0.852444  0.937008  1
  O  O21  1  0.235471  0.357099  0.755395  1
  O  O22  1  0.369383  0.725129  0.511471  1
  O  O23  1  0.607598  0.724666  0.527344  1
  O  O24  1  0.652118  0.197491  0.465957  1
  O  O25  1  0.487903  0.068354  0.560007  1
  O  O26  1  0.270337  0.051040  0.040156  1
  O  O27  1  0.903055  0.661741  0.091403  1
  O  O28  1  0.717854  0.366531  0.794198  1
  O  O29  1  0.770337  0.948960  0.959844  1
  O  O30  1  0.403055  0.338259  0.908597  1
  O  O31  1  0.827994  0.801120  0.561462  1
  O  O32  1  0.327994  0.198880  0.438538  1
  O  O33  1  0.344238  0.973109  0.759739  1
  O  O34  1  0.735471  0.642901  0.244605  1
  O  O35  1  0.217854  0.633469  0.205802  1
