# generated using pymatgen
data_NdAlSi2Rh
_symmetry_space_group_name_H-M   'P 1'
_cell_length_a   6.06673831
_cell_length_b   6.06673840
_cell_length_c   6.06673888
_cell_angle_alpha   141.06613188
_cell_angle_beta   141.06613423
_cell_angle_gamma   56.23805089
_symmetry_Int_Tables_number   1
_chemical_formula_structural   NdAlSi2Rh
_chemical_formula_sum   'Nd1 Al1 Si2 Rh1'
_cell_volume   87.48900654
_cell_formula_units_Z   1
loop_
 _symmetry_equiv_pos_site_id
 _symmetry_equiv_pos_as_xyz
  1  'x, y, z'
loop_
 _atom_site_type_symbol
 _atom_site_label
 _atom_site_symmetry_multiplicity
 _atom_site_fract_x
 _atom_site_fract_y
 _atom_site_fract_z
 _atom_site_occupancy
  Nd  Nd0  1  0.000000  0.000000  0.000000  1
  Al  Al1  1  0.750000  0.250000  0.500000  1
  Si  Si2  1  0.612888  0.612888  0.000000  1
  Si  Si3  1  0.387112  0.387112  0.000000  1
  Rh  Rh4  1  0.250000  0.750000  0.500000  1
