# generated using pymatgen
data_TeCl30
_symmetry_space_group_name_H-M   'P 1'
_cell_length_a   14.22120157
_cell_length_b   14.22120212
_cell_length_c   15.51938155
_cell_angle_alpha   84.81333381
_cell_angle_beta   84.81333450
_cell_angle_gamma   130.67912631
_symmetry_Int_Tables_number   1
_chemical_formula_structural   TeCl30
_chemical_formula_sum   'Te1 Cl30'
_cell_volume   2323.74565281
_cell_formula_units_Z   1
loop_
 _symmetry_equiv_pos_site_id
 _symmetry_equiv_pos_as_xyz
  1  'x, y, z'
loop_
 _atom_site_type_symbol
 _atom_site_label
 _atom_site_symmetry_multiplicity
 _atom_site_fract_x
 _atom_site_fract_y
 _atom_site_fract_z
 _atom_site_occupancy
  Te  Te0  1  0.000000  0.000000  0.000000  1
  Cl  Cl1  1  0.944235  0.944235  0.158053  1
  Cl  Cl2  1  0.055765  0.055765  0.841947  1
  Cl  Cl3  1  0.074599  0.203551  0.006425  1
  Cl  Cl4  1  0.925401  0.796449  0.993575  1
  Cl  Cl5  1  0.203551  0.074599  0.006425  1
  Cl  Cl6  1  0.796449  0.925401  0.993575  1
  Cl  Cl7  1  0.202874  0.739179  0.065802  1
  Cl  Cl8  1  0.797126  0.260821  0.934198  1
  Cl  Cl9  1  0.691032  0.077992  0.270758  1
  Cl  Cl10  1  0.260821  0.797126  0.934198  1
  Cl  Cl11  1  0.308968  0.922008  0.729242  1
  Cl  Cl12  1  0.739179  0.202874  0.065802  1
  Cl  Cl13  1  0.972760  0.214032  0.772502  1
  Cl  Cl14  1  0.922008  0.308968  0.729242  1
  Cl  Cl15  1  0.027240  0.785968  0.227498  1
  Cl  Cl16  1  0.077992  0.691032  0.270758  1
  Cl  Cl17  1  0.785968  0.027240  0.227498  1
  Cl  Cl18  1  0.214032  0.972760  0.772502  1
  Cl  Cl19  1  0.470901  0.548116  0.263903  1
  Cl  Cl20  1  0.529099  0.451884  0.736097  1
  Cl  Cl21  1  0.502474  0.202493  0.452620  1
  Cl  Cl22  1  0.451884  0.529099  0.736097  1
  Cl  Cl23  1  0.497526  0.797507  0.547380  1
  Cl  Cl24  1  0.548116  0.470901  0.263903  1
  Cl  Cl25  1  0.236890  0.428240  0.546116  1
  Cl  Cl26  1  0.797507  0.497526  0.547380  1
  Cl  Cl27  1  0.763110  0.571760  0.453884  1
  Cl  Cl28  1  0.202493  0.502474  0.452620  1
  Cl  Cl29  1  0.571760  0.763110  0.453884  1
  Cl  Cl30  1  0.428240  0.236890  0.546116  1
