# generated using pymatgen
data_Yb5Y3AlPd24
_symmetry_space_group_name_H-M   'P 1'
_cell_length_a   8.32225700
_cell_length_b   8.32225700
_cell_length_c   8.32255600
_cell_angle_alpha   89.99929779
_cell_angle_beta   90.00070221
_cell_angle_gamma   89.99628229
_symmetry_Int_Tables_number   1
_chemical_formula_structural   Yb5Y3AlPd24
_chemical_formula_sum   'Yb5 Y3 Al1 Pd24'
_cell_volume   576.41990811
_cell_formula_units_Z   1
loop_
 _symmetry_equiv_pos_site_id
 _symmetry_equiv_pos_as_xyz
  1  'x, y, z'
loop_
 _atom_site_type_symbol
 _atom_site_label
 _atom_site_symmetry_multiplicity
 _atom_site_fract_x
 _atom_site_fract_y
 _atom_site_fract_z
 _atom_site_occupancy
  Yb  Yb0  1  0.251094  0.251114  0.251079  1
  Yb  Yb1  1  0.748974  0.749005  0.748977  1
  Yb  Yb2  1  0.748886  0.748906  0.251079  1
  Yb  Yb3  1  0.748916  0.251084  0.748885  1
  Yb  Yb4  1  0.250995  0.251026  0.748977  1
  Y  Y5  1  0.251395  0.748605  0.251395  1
  Y  Y6  1  0.251499  0.748501  0.748457  1
  Y  Y7  1  0.748573  0.251427  0.251402  1
  Al  Al8  1  0.999802  0.000198  0.999848  1
  Pd  Pd9  1  0.260238  0.499284  0.000273  1
  Pd  Pd10  1  0.739700  0.500257  0.999540  1
  Pd  Pd11  1  0.000746  0.260249  0.500323  1
  Pd  Pd12  1  0.499743  0.260300  0.999540  1
  Pd  Pd13  1  0.998922  0.739800  0.499913  1
  Pd  Pd14  1  0.500716  0.739762  0.000273  1
  Pd  Pd15  1  0.499993  0.999779  0.260270  1
  Pd  Pd16  1  0.260200  0.001078  0.499913  1
  Pd  Pd17  1  0.500391  0.000508  0.739737  1
  Pd  Pd18  1  0.739751  0.999254  0.500323  1
  Pd  Pd19  1  0.000221  0.500007  0.260270  1
  Pd  Pd20  1  0.999492  0.499609  0.739737  1
  Pd  Pd21  1  0.253126  0.499000  0.499822  1
  Pd  Pd22  1  0.746951  0.500544  0.500430  1
  Pd  Pd23  1  0.499456  0.253049  0.500430  1
  Pd  Pd24  1  0.501000  0.746874  0.499822  1
  Pd  Pd25  1  0.499887  0.500113  0.253138  1
  Pd  Pd26  1  0.500488  0.499512  0.746970  1
  Pd  Pd27  1  0.290708  0.001364  0.000077  1
  Pd  Pd28  1  0.709503  0.999342  0.999338  1
  Pd  Pd29  1  0.000658  0.290497  0.999338  1
  Pd  Pd30  1  0.998636  0.709292  0.000077  1
  Pd  Pd31  1  0.000037  0.999963  0.290805  1
  Pd  Pd32  1  0.999305  0.000695  0.709539  1
