# generated using pymatgen
data_Yb2YNi19B10
_symmetry_space_group_name_H-M   'P 1'
_cell_length_a   7.84426615
_cell_length_b   7.84426636
_cell_length_c   5.71932922
_cell_angle_alpha   88.88663567
_cell_angle_beta   88.88663263
_cell_angle_gamma   67.27944601
_symmetry_Int_Tables_number   1
_chemical_formula_structural   Yb2YNi19B10
_chemical_formula_sum   'Yb2 Y1 Ni19 B10'
_cell_volume   324.52677609
_cell_formula_units_Z   1
loop_
 _symmetry_equiv_pos_site_id
 _symmetry_equiv_pos_as_xyz
  1  'x, y, z'
loop_
 _atom_site_type_symbol
 _atom_site_label
 _atom_site_symmetry_multiplicity
 _atom_site_fract_x
 _atom_site_fract_y
 _atom_site_fract_z
 _atom_site_occupancy
  Yb  Yb0  1  0.373975  0.373975  0.390356  1
  Yb  Yb1  1  0.999972  0.999972  0.000130  1
  Y  Y2  1  0.624122  0.624122  0.610905  1
  Ni  Ni3  1  0.622246  0.622246  0.124885  1
  Ni  Ni4  1  0.377522  0.377522  0.875184  1
  Ni  Ni5  1  0.837083  0.837083  0.703489  1
  Ni  Ni6  1  0.164140  0.164140  0.295215  1
  Ni  Ni7  1  0.818653  0.818653  0.268543  1
  Ni  Ni8  1  0.181174  0.181174  0.730335  1
  Ni  Ni9  1  0.000459  0.000459  0.499860  1
  Ni  Ni10  1  0.621994  0.123740  0.076621  1
  Ni  Ni11  1  0.375827  0.878332  0.925867  1
  Ni  Ni12  1  0.878332  0.375827  0.925867  1
  Ni  Ni13  1  0.123740  0.621994  0.076621  1
  Ni  Ni14  1  0.286880  0.771304  0.299898  1
  Ni  Ni15  1  0.713077  0.227050  0.700219  1
  Ni  Ni16  1  0.227050  0.713077  0.700219  1
  Ni  Ni17  1  0.771304  0.286880  0.299898  1
  Ni  Ni18  1  0.482746  0.954741  0.301954  1
  Ni  Ni19  1  0.517193  0.046118  0.697956  1
  Ni  Ni20  1  0.046118  0.517193  0.697956  1
  Ni  Ni21  1  0.954741  0.482746  0.301954  1
  B  B22  1  0.701134  0.064427  0.430274  1
  B  B23  1  0.299220  0.936151  0.568889  1
  B  B24  1  0.936151  0.299220  0.568889  1
  B  B25  1  0.064427  0.701134  0.430274  1
  B  B26  1  0.349681  0.141868  0.025163  1
  B  B27  1  0.650454  0.859061  0.973828  1
  B  B28  1  0.859061  0.650454  0.973828  1
  B  B29  1  0.141868  0.349681  0.025163  1
  B  B30  1  0.615947  0.383710  0.999879  1
  B  B31  1  0.383710  0.615947  0.999879  1
