# generated using pymatgen
data_Ho16Mg3HgPt4
_symmetry_space_group_name_H-M   'P 1'
_cell_length_a   9.65908369
_cell_length_b   9.71643987
_cell_length_c   9.71644000
_cell_angle_alpha   59.99999955
_cell_angle_beta   59.80337506
_cell_angle_gamma   59.80337649
_symmetry_Int_Tables_number   1
_chemical_formula_structural   Ho16Mg3HgPt4
_chemical_formula_sum   'Ho16 Mg3 Hg1 Pt4'
_cell_volume   642.89218179
_cell_formula_units_Z   1
loop_
 _symmetry_equiv_pos_site_id
 _symmetry_equiv_pos_as_xyz
  1  'x, y, z'
loop_
 _atom_site_type_symbol
 _atom_site_label
 _atom_site_symmetry_multiplicity
 _atom_site_fract_x
 _atom_site_fract_y
 _atom_site_fract_z
 _atom_site_occupancy
  Ho  Ho0  1  0.599888  0.601446  0.601446  1
  Ho  Ho1  1  0.599888  0.601446  0.197220  1
  Ho  Ho2  1  0.599888  0.197220  0.601446  1
  Ho  Ho3  1  0.200056  0.599982  0.599982  1
  Ho  Ho4  1  0.062520  0.437754  0.437754  1
  Ho  Ho5  1  0.439454  0.061098  0.061098  1
  Ho  Ho6  1  0.439454  0.061098  0.438350  1
  Ho  Ho7  1  0.062520  0.437754  0.061970  1
  Ho  Ho8  1  0.439454  0.438350  0.061098  1
  Ho  Ho9  1  0.062520  0.061970  0.437754  1
  Ho  Ho10  1  0.189215  0.815037  0.815037  1
  Ho  Ho11  1  0.816760  0.183402  0.183402  1
  Ho  Ho12  1  0.816760  0.183402  0.816435  1
  Ho  Ho13  1  0.189215  0.815037  0.180711  1
  Ho  Ho14  1  0.816760  0.816435  0.183402  1
  Ho  Ho15  1  0.189215  0.180711  0.815037  1
  Mg  Mg16  1  0.826507  0.830678  0.830678  1
  Mg  Mg17  1  0.826507  0.830678  0.512136  1
  Mg  Mg18  1  0.826507  0.512136  0.830678  1
  Hg  Hg19  1  0.497361  0.834213  0.834213  1
  Pt  Pt20  1  0.393212  0.392791  0.392791  1
  Pt  Pt21  1  0.393212  0.392791  0.821204  1
  Pt  Pt22  1  0.393212  0.821204  0.392791  1
  Pt  Pt23  1  0.819912  0.393362  0.393362  1
