# generated using pymatgen
data_CaYb(Pr3Ir2)6
_symmetry_space_group_name_H-M   'P 1'
_cell_length_a   11.35047200
_cell_length_b   11.35047200
_cell_length_c   6.56431100
_cell_angle_alpha   90.00000000
_cell_angle_beta   90.00000000
_cell_angle_gamma   90.00000000
_symmetry_Int_Tables_number   1
_chemical_formula_structural   CaYb(Pr3Ir2)6
_chemical_formula_sum   'Ca1 Yb1 Pr18 Ir12'
_cell_volume   845.70128791
_cell_formula_units_Z   1
loop_
 _symmetry_equiv_pos_site_id
 _symmetry_equiv_pos_as_xyz
  1  'x, y, z'
loop_
 _atom_site_type_symbol
 _atom_site_label
 _atom_site_symmetry_multiplicity
 _atom_site_fract_x
 _atom_site_fract_y
 _atom_site_fract_z
 _atom_site_occupancy
  Ca  Ca0  1  0.500000  0.500000  0.000000  1
  Yb  Yb1  1  0.000000  0.000000  0.500000  1
  Pr  Pr2  1  0.287129  0.088392  0.385442  1
  Pr  Pr3  1  0.291479  0.910434  0.884315  1
  Pr  Pr4  1  0.708521  0.089566  0.884315  1
  Pr  Pr5  1  0.712871  0.911608  0.385442  1
  Pr  Pr6  1  0.589806  0.788601  0.885058  1
  Pr  Pr7  1  0.588406  0.208189  0.384221  1
  Pr  Pr8  1  0.411594  0.791811  0.384221  1
  Pr  Pr9  1  0.410194  0.211399  0.885058  1
  Pr  Pr10  1  0.208189  0.411594  0.615779  1
  Pr  Pr11  1  0.211399  0.589806  0.114942  1
  Pr  Pr12  1  0.788601  0.410194  0.114942  1
  Pr  Pr13  1  0.791811  0.588406  0.615779  1
  Pr  Pr14  1  0.910434  0.708521  0.115685  1
  Pr  Pr15  1  0.911608  0.287129  0.614558  1
  Pr  Pr16  1  0.088392  0.712871  0.614558  1
  Pr  Pr17  1  0.089566  0.291479  0.115685  1
  Pr  Pr18  1  0.000000  0.000000  0.000000  1
  Pr  Pr19  1  0.500000  0.500000  0.500000  1
  Ir  Ir20  1  0.846210  0.154608  0.246853  1
  Ir  Ir21  1  0.845392  0.846210  0.753147  1
  Ir  Ir22  1  0.154608  0.153790  0.753147  1
  Ir  Ir23  1  0.153790  0.845392  0.246853  1
  Ir  Ir24  1  0.656252  0.345311  0.744445  1
  Ir  Ir25  1  0.654689  0.656252  0.255555  1
  Ir  Ir26  1  0.345311  0.343748  0.255555  1
  Ir  Ir27  1  0.343748  0.654689  0.744445  1
  Ir  Ir28  1  0.500000  0.000000  0.117281  1
  Ir  Ir29  1  0.500000  0.000000  0.616317  1
  Ir  Ir30  1  0.000000  0.500000  0.882719  1
  Ir  Ir31  1  0.000000  0.500000  0.383683  1
