# generated using pymatgen
data_Ce2SmHo13(CdRu)4
_symmetry_space_group_name_H-M   'P 1'
_cell_length_a   9.72178257
_cell_length_b   9.61268598
_cell_length_c   9.60786449
_cell_angle_alpha   59.46516681
_cell_angle_beta   59.43533096
_cell_angle_gamma   59.48801689
_symmetry_Int_Tables_number   1
_chemical_formula_structural   Ce2SmHo13(CdRu)4
_chemical_formula_sum   'Ce2 Sm1 Ho13 Cd4 Ru4'
_cell_volume   627.13768810
_cell_formula_units_Z   1
loop_
 _symmetry_equiv_pos_site_id
 _symmetry_equiv_pos_as_xyz
  1  'x, y, z'
loop_
 _atom_site_type_symbol
 _atom_site_label
 _atom_site_symmetry_multiplicity
 _atom_site_fract_x
 _atom_site_fract_y
 _atom_site_fract_z
 _atom_site_occupancy
  Ce  Ce0  1  0.970039  0.340769  0.342124  1
  Ce  Ce1  1  0.348503  0.340204  0.339878  1
  Sm  Sm2  1  0.565083  0.563325  0.935788  1
  Ho  Ho3  1  0.939662  0.561466  0.937761  1
  Ho  Ho4  1  0.561624  0.939882  0.937648  1
  Ho  Ho5  1  0.937148  0.938598  0.561232  1
  Ho  Ho6  1  0.564133  0.937949  0.560494  1
  Ho  Ho7  1  0.940826  0.560267  0.558981  1
  Ho  Ho8  1  0.189660  0.188620  0.812066  1
  Ho  Ho9  1  0.809689  0.187494  0.812314  1
  Ho  Ho10  1  0.186750  0.811938  0.811448  1
  Ho  Ho11  1  0.808609  0.811430  0.188302  1
  Ho  Ho12  1  0.188237  0.812861  0.188823  1
  Ho  Ho13  1  0.811521  0.188306  0.189566  1
  Ho  Ho14  1  0.347956  0.349568  0.953810  1
  Ho  Ho15  1  0.348127  0.952647  0.350528  1
  Cd  Cd16  1  0.582199  0.579650  0.257754  1
  Cd  Cd17  1  0.581253  0.256375  0.579812  1
  Cd  Cd18  1  0.258837  0.579346  0.580036  1
  Cd  Cd19  1  0.580731  0.579606  0.577812  1
  Ru  Ru20  1  0.138627  0.152222  0.573294  1
  Ru  Ru21  1  0.136161  0.573702  0.152705  1
  Ru  Ru22  1  0.573074  0.146401  0.149913  1
  Ru  Ru23  1  0.131549  0.147374  0.147907  1
