# generated using pymatgen
data_Ba4FeTcO8
_symmetry_space_group_name_H-M   'P 1'
_cell_length_a   7.30754051
_cell_length_b   7.30754070
_cell_length_c   5.78871300
_cell_angle_alpha   90.00000000
_cell_angle_beta   90.00000000
_cell_angle_gamma   133.30608165
_symmetry_Int_Tables_number   1
_chemical_formula_structural   Ba4FeTcO8
_chemical_formula_sum   'Ba4 Fe1 Tc1 O8'
_cell_volume   224.94525791
_cell_formula_units_Z   1
loop_
 _symmetry_equiv_pos_site_id
 _symmetry_equiv_pos_as_xyz
  1  'x, y, z'
loop_
 _atom_site_type_symbol
 _atom_site_label
 _atom_site_symmetry_multiplicity
 _atom_site_fract_x
 _atom_site_fract_y
 _atom_site_fract_z
 _atom_site_occupancy
  Ba  Ba0  1  0.643717  0.356283  0.000000  1
  Ba  Ba1  1  0.145292  0.854708  0.500000  1
  Ba  Ba2  1  0.854708  0.145292  0.500000  1
  Ba  Ba3  1  0.356283  0.643717  0.000000  1
  Fe  Fe4  1  0.500000  0.500000  0.500000  1
  Tc  Tc5  1  0.000000  0.000000  0.000000  1
  O  O6  1  0.756413  0.756413  0.757792  1
  O  O7  1  0.243587  0.243587  0.242208  1
  O  O8  1  0.243587  0.243587  0.757792  1
  O  O9  1  0.756413  0.756413  0.242208  1
  O  O10  1  0.848570  0.151430  0.000000  1
  O  O11  1  0.349122  0.650878  0.500000  1
  O  O12  1  0.650878  0.349122  0.500000  1
  O  O13  1  0.151430  0.848570  0.000000  1
