# generated using pymatgen
data_Dy3Lu2Mn3(P3Ir4)4
_symmetry_space_group_name_H-M   'P 1'
_cell_length_a   12.65586200
_cell_length_b   12.65586200
_cell_length_c   3.95243500
_cell_angle_alpha   90.00000000
_cell_angle_beta   90.00000000
_cell_angle_gamma   120.00000000
_symmetry_Int_Tables_number   1
_chemical_formula_structural   Dy3Lu2Mn3(P3Ir4)4
_chemical_formula_sum   'Dy3 Lu2 Mn3 P12 Ir16'
_cell_volume   548.25023869
_cell_formula_units_Z   1
loop_
 _symmetry_equiv_pos_site_id
 _symmetry_equiv_pos_as_xyz
  1  'x, y, z'
loop_
 _atom_site_type_symbol
 _atom_site_label
 _atom_site_symmetry_multiplicity
 _atom_site_fract_x
 _atom_site_fract_y
 _atom_site_fract_z
 _atom_site_occupancy
  Dy  Dy0  1  0.000000  0.810159  0.000000  1
  Dy  Dy1  1  0.189841  0.189841  0.000000  1
  Dy  Dy2  1  0.810159  0.000000  0.000000  1
  Lu  Lu3  1  0.333333  0.666667  0.500000  1
  Lu  Lu4  1  0.666667  0.333333  0.500000  1
  Mn  Mn5  1  0.000000  0.457955  0.500000  1
  Mn  Mn6  1  0.542045  0.542045  0.500000  1
  Mn  Mn7  1  0.457955  0.000000  0.500000  1
  P  P8  1  0.000000  0.635415  0.500000  1
  P  P9  1  0.364585  0.364585  0.500000  1
  P  P10  1  0.635415  0.000000  0.500000  1
  P  P11  1  0.516409  0.685875  0.000000  1
  P  P12  1  0.314125  0.830533  0.000000  1
  P  P13  1  0.169467  0.483591  0.000000  1
  P  P14  1  0.483591  0.169467  0.000000  1
  P  P15  1  0.685875  0.516409  0.000000  1
  P  P16  1  0.830533  0.314125  0.000000  1
  P  P17  1  0.000000  0.178536  0.500000  1
  P  P18  1  0.821464  0.821464  0.500000  1
  P  P19  1  0.178536  0.000000  0.500000  1
  Ir  Ir20  1  0.507048  0.866832  0.000000  1
  Ir  Ir21  1  0.133168  0.640217  0.000000  1
  Ir  Ir22  1  0.359783  0.492952  0.000000  1
  Ir  Ir23  1  0.492952  0.359783  0.000000  1
  Ir  Ir24  1  0.866832  0.507048  0.000000  1
  Ir  Ir25  1  0.640217  0.133168  0.000000  1
  Ir  Ir26  1  0.000000  0.282563  0.000000  1
  Ir  Ir27  1  0.717437  0.717437  0.000000  1
  Ir  Ir28  1  0.282563  0.000000  0.000000  1
  Ir  Ir29  1  0.623411  0.802579  0.500000  1
  Ir  Ir30  1  0.197421  0.820832  0.500000  1
  Ir  Ir31  1  0.179168  0.376589  0.500000  1
  Ir  Ir32  1  0.376589  0.179168  0.500000  1
  Ir  Ir33  1  0.802579  0.623411  0.500000  1
  Ir  Ir34  1  0.820832  0.197421  0.500000  1
  Ir  Ir35  1  0.000000  0.000000  0.500000  1
