# generated using pymatgen
data_Tb3Th(Pd2Pb)2
_symmetry_space_group_name_H-M   'P 1'
_cell_length_a   8.00620282
_cell_length_b   8.00620282
_cell_length_c   3.67697600
_cell_angle_alpha   90.00000000
_cell_angle_beta   90.00000000
_cell_angle_gamma   90.93379481
_symmetry_Int_Tables_number   1
_chemical_formula_structural   Tb3Th(Pd2Pb)2
_chemical_formula_sum   'Tb3 Th1 Pd4 Pb2'
_cell_volume   235.66022627
_cell_formula_units_Z   1
loop_
 _symmetry_equiv_pos_site_id
 _symmetry_equiv_pos_as_xyz
  1  'x, y, z'
loop_
 _atom_site_type_symbol
 _atom_site_label
 _atom_site_symmetry_multiplicity
 _atom_site_fract_x
 _atom_site_fract_y
 _atom_site_fract_z
 _atom_site_occupancy
  Tb  Tb0  1  0.172209  0.330636  0.500000  1
  Tb  Tb1  1  0.830636  0.672209  0.500000  1
  Tb  Tb2  1  0.325796  0.825796  0.500000  1
  Th  Th3  1  0.670757  0.170757  0.500000  1
  Pd  Pd4  1  0.376579  0.125442  0.000000  1
  Pd  Pd5  1  0.123731  0.623731  0.000000  1
  Pd  Pd6  1  0.625442  0.876579  0.000000  1
  Pd  Pd7  1  0.872586  0.372586  0.000000  1
  Pb  Pb8  1  0.005314  0.996952  0.000000  1
  Pb  Pb9  1  0.496952  0.505314  0.000000  1
