# generated using pymatgen
data_Tb16Hg4Ru3Pt
_symmetry_space_group_name_H-M   'P 1'
_cell_length_a   9.65962493
_cell_length_b   9.65804945
_cell_length_c   9.65881241
_cell_angle_alpha   59.85603492
_cell_angle_beta   59.86278746
_cell_angle_gamma   59.85894545
_symmetry_Int_Tables_number   1
_chemical_formula_structural   Tb16Hg4Ru3Pt
_chemical_formula_sum   'Tb16 Hg4 Ru3 Pt1'
_cell_volume   635.13951784
_cell_formula_units_Z   1
loop_
 _symmetry_equiv_pos_site_id
 _symmetry_equiv_pos_as_xyz
  1  'x, y, z'
loop_
 _atom_site_type_symbol
 _atom_site_label
 _atom_site_symmetry_multiplicity
 _atom_site_fract_x
 _atom_site_fract_y
 _atom_site_fract_z
 _atom_site_occupancy
  Tb  Tb0  1  0.598656  0.598901  0.598777  1
  Tb  Tb1  1  0.602546  0.602843  0.198417  1
  Tb  Tb2  1  0.602617  0.198339  0.602769  1
  Tb  Tb3  1  0.198500  0.602770  0.602620  1
  Tb  Tb4  1  0.053743  0.440992  0.440992  1
  Tb  Tb5  1  0.438272  0.059808  0.059958  1
  Tb  Tb6  1  0.440959  0.053622  0.440953  1
  Tb  Tb7  1  0.059925  0.438291  0.059793  1
  Tb  Tb8  1  0.440982  0.440979  0.053674  1
  Tb  Tb9  1  0.060011  0.059734  0.438278  1
  Tb  Tb10  1  0.189230  0.811523  0.811535  1
  Tb  Tb11  1  0.814186  0.188334  0.188334  1
  Tb  Tb12  1  0.811520  0.189241  0.811507  1
  Tb  Tb13  1  0.188325  0.814190  0.188318  1
  Tb  Tb14  1  0.811533  0.811508  0.189236  1
  Tb  Tb15  1  0.188334  0.188324  0.814187  1
  Hg  Hg16  1  0.833877  0.833857  0.833864  1
  Hg  Hg17  1  0.834058  0.834052  0.497413  1
  Hg  Hg18  1  0.834052  0.497433  0.834047  1
  Hg  Hg19  1  0.497400  0.834058  0.834056  1
  Ru  Ru20  1  0.390635  0.390645  0.828529  1
  Ru  Ru21  1  0.390669  0.828450  0.390666  1
  Ru  Ru22  1  0.828548  0.390648  0.390640  1
  Pt  Pt23  1  0.391423  0.391457  0.391439  1
