# generated using pymatgen
data_AcY2(AlNi2)2
_symmetry_space_group_name_H-M   'P 1'
_cell_length_a   5.57550868
_cell_length_b   5.57550912
_cell_length_c   8.17096039
_cell_angle_alpha   81.70629418
_cell_angle_beta   81.70629293
_cell_angle_gamma   43.89435512
_symmetry_Int_Tables_number   1
_chemical_formula_structural   AcY2(AlNi2)2
_chemical_formula_sum   'Ac1 Y2 Al2 Ni4'
_cell_volume   173.96672876
_cell_formula_units_Z   1
loop_
 _symmetry_equiv_pos_site_id
 _symmetry_equiv_pos_as_xyz
  1  'x, y, z'
loop_
 _atom_site_type_symbol
 _atom_site_label
 _atom_site_symmetry_multiplicity
 _atom_site_fract_x
 _atom_site_fract_y
 _atom_site_fract_z
 _atom_site_occupancy
  Ac  Ac0  1  0.000000  0.000000  0.000000  1
  Y  Y1  1  0.374977  0.374977  0.388029  1
  Y  Y2  1  0.625023  0.625023  0.611971  1
  Al  Al3  1  0.320319  0.320319  0.776967  1
  Al  Al4  1  0.679681  0.679681  0.223033  1
  Ni  Ni5  1  0.736853  0.736853  0.909899  1
  Ni  Ni6  1  0.088082  0.088082  0.369855  1
  Ni  Ni7  1  0.911918  0.911918  0.630145  1
  Ni  Ni8  1  0.263147  0.263147  0.090101  1
