# generated using pymatgen
data_Tb8Lu12Si15P
_symmetry_space_group_name_H-M   'P 1'
_cell_length_a   7.29503199
_cell_length_b   7.59222823
_cell_length_c   14.35528900
_cell_angle_alpha   90.00000000
_cell_angle_beta   90.00000000
_cell_angle_gamma   90.26448323
_symmetry_Int_Tables_number   1
_chemical_formula_structural   Tb8Lu12Si15P
_chemical_formula_sum   'Tb8 Lu12 Si15 P1'
_cell_volume   795.06707428
_cell_formula_units_Z   1
loop_
 _symmetry_equiv_pos_site_id
 _symmetry_equiv_pos_as_xyz
  1  'x, y, z'
loop_
 _atom_site_type_symbol
 _atom_site_label
 _atom_site_symmetry_multiplicity
 _atom_site_fract_x
 _atom_site_fract_y
 _atom_site_fract_z
 _atom_site_occupancy
  Tb  Tb0  1  0.012150  0.175745  0.097119  1
  Tb  Tb1  1  0.989371  0.825291  0.899703  1
  Tb  Tb2  1  0.488445  0.676114  0.902950  1
  Tb  Tb3  1  0.989371  0.825291  0.600297  1
  Tb  Tb4  1  0.513281  0.323381  0.097002  1
  Tb  Tb5  1  0.012150  0.175745  0.402881  1
  Tb  Tb6  1  0.513281  0.323381  0.402998  1
  Tb  Tb7  1  0.488445  0.676114  0.597050  1
  Lu  Lu8  1  0.161426  0.507912  0.750000  1
  Lu  Lu9  1  0.837192  0.492004  0.250000  1
  Lu  Lu10  1  0.337805  0.008096  0.250000  1
  Lu  Lu11  1  0.663480  0.993587  0.750000  1
  Lu  Lu12  1  0.326074  0.172396  0.625939  1
  Lu  Lu13  1  0.669491  0.823091  0.376882  1
  Lu  Lu14  1  0.169234  0.677470  0.376735  1
  Lu  Lu15  1  0.669491  0.823091  0.123118  1
  Lu  Lu16  1  0.830229  0.323736  0.624776  1
  Lu  Lu17  1  0.326074  0.172396  0.874061  1
  Lu  Lu18  1  0.830229  0.323736  0.875224  1
  Lu  Lu19  1  0.169234  0.677470  0.123265  1
  Si  Si20  1  0.964646  0.888000  0.250000  1
  Si  Si21  1  0.465205  0.611341  0.250000  1
  Si  Si22  1  0.531631  0.385427  0.750000  1
  Si  Si23  1  0.296374  0.859599  0.750000  1
  Si  Si24  1  0.716621  0.127848  0.250000  1
  Si  Si25  1  0.217181  0.372064  0.250000  1
  Si  Si26  1  0.785483  0.631000  0.750000  1
  Si  Si27  1  0.158201  0.464904  0.539597  1
  Si  Si28  1  0.841581  0.534063  0.461749  1
  Si  Si29  1  0.339661  0.967391  0.461062  1
  Si  Si30  1  0.841581  0.534063  0.038251  1
  Si  Si31  1  0.660360  0.034555  0.539976  1
  Si  Si32  1  0.158201  0.464904  0.960403  1
  Si  Si33  1  0.660360  0.034555  0.960024  1
  Si  Si34  1  0.339661  0.967391  0.038938  1
  P  P35  1  0.026799  0.126845  0.750000  1
