# generated using pymatgen
data_Tm19MgIr12
_symmetry_space_group_name_H-M   'P 1'
_cell_length_a   10.72151500
_cell_length_b   10.72151500
_cell_length_c   6.26787900
_cell_angle_alpha   90.00000000
_cell_angle_beta   90.00000000
_cell_angle_gamma   90.00000000
_symmetry_Int_Tables_number   1
_chemical_formula_structural   Tm19MgIr12
_chemical_formula_sum   'Tm19 Mg1 Ir12'
_cell_volume   720.49823120
_cell_formula_units_Z   1
loop_
 _symmetry_equiv_pos_site_id
 _symmetry_equiv_pos_as_xyz
  1  'x, y, z'
loop_
 _atom_site_type_symbol
 _atom_site_label
 _atom_site_symmetry_multiplicity
 _atom_site_fract_x
 _atom_site_fract_y
 _atom_site_fract_z
 _atom_site_occupancy
  Tm  Tm0  1  0.284694  0.084494  0.377893  1
  Tm  Tm1  1  0.291031  0.912560  0.879054  1
  Tm  Tm2  1  0.708969  0.087440  0.879054  1
  Tm  Tm3  1  0.715306  0.915506  0.377893  1
  Tm  Tm4  1  0.588134  0.792376  0.877075  1
  Tm  Tm5  1  0.587175  0.207480  0.375805  1
  Tm  Tm6  1  0.412825  0.792520  0.375805  1
  Tm  Tm7  1  0.411866  0.207624  0.877075  1
  Tm  Tm8  1  0.207480  0.412825  0.624195  1
  Tm  Tm9  1  0.207624  0.588134  0.122925  1
  Tm  Tm10  1  0.792376  0.411866  0.122925  1
  Tm  Tm11  1  0.792520  0.587175  0.624195  1
  Tm  Tm12  1  0.912560  0.708969  0.120946  1
  Tm  Tm13  1  0.915506  0.284694  0.622107  1
  Tm  Tm14  1  0.084494  0.715306  0.622107  1
  Tm  Tm15  1  0.087440  0.291031  0.120946  1
  Tm  Tm16  1  0.000000  0.000000  0.000000  1
  Tm  Tm17  1  0.500000  0.500000  0.000000  1
  Tm  Tm18  1  0.500000  0.500000  0.500000  1
  Mg  Mg19  1  0.000000  0.000000  0.500000  1
  Ir  Ir20  1  0.845820  0.154813  0.246668  1
  Ir  Ir21  1  0.845187  0.845820  0.753332  1
  Ir  Ir22  1  0.154813  0.154180  0.753332  1
  Ir  Ir23  1  0.154180  0.845187  0.246668  1
  Ir  Ir24  1  0.653880  0.346455  0.748940  1
  Ir  Ir25  1  0.653545  0.653880  0.251060  1
  Ir  Ir26  1  0.346455  0.346120  0.251060  1
  Ir  Ir27  1  0.346120  0.653545  0.748940  1
  Ir  Ir28  1  0.500000  0.000000  0.124073  1
  Ir  Ir29  1  0.500000  0.000000  0.621155  1
  Ir  Ir30  1  0.000000  0.500000  0.875927  1
  Ir  Ir31  1  0.000000  0.500000  0.378845  1
