# generated using pymatgen
data_Sm3ScCdPt3O14
_symmetry_space_group_name_H-M   'P 1'
_cell_length_a   7.34628707
_cell_length_b   7.34628667
_cell_length_c   7.41352700
_cell_angle_alpha   60.29957272
_cell_angle_beta   60.29958346
_cell_angle_gamma   60.00000038
_symmetry_Int_Tables_number   1
_chemical_formula_structural   Sm3ScCdPt3O14
_chemical_formula_sum   'Sm3 Sc1 Cd1 Pt3 O14'
_cell_volume   284.18255322
_cell_formula_units_Z   1
loop_
 _symmetry_equiv_pos_site_id
 _symmetry_equiv_pos_as_xyz
  1  'x, y, z'
loop_
 _atom_site_type_symbol
 _atom_site_label
 _atom_site_symmetry_multiplicity
 _atom_site_fract_x
 _atom_site_fract_y
 _atom_site_fract_z
 _atom_site_occupancy
  Sm  Sm0  1  0.625000  0.625000  0.625000  1
  Sm  Sm1  1  0.625000  0.125000  0.625000  1
  Sm  Sm2  1  0.125000  0.625000  0.625000  1
  Sc  Sc3  1  0.125000  0.125000  0.625000  1
  Cd  Cd4  1  0.625000  0.625000  0.125000  1
  Pt  Pt5  1  0.125000  0.125000  0.125000  1
  Pt  Pt6  1  0.625000  0.125000  0.125000  1
  Pt  Pt7  1  0.125000  0.625000  0.125000  1
  O  O8  1  0.034768  0.473134  0.457331  1
  O  O9  1  0.797292  0.797292  0.198567  1
  O  O10  1  0.797292  0.206848  0.198567  1
  O  O11  1  0.473134  0.034768  0.457331  1
  O  O12  1  0.043152  0.452708  0.051433  1
  O  O13  1  0.744937  0.744937  0.765189  1
  O  O14  1  0.034768  0.034768  0.457331  1
  O  O15  1  0.206848  0.797292  0.198567  1
  O  O16  1  0.215232  0.215232  0.792669  1
  O  O17  1  0.505063  0.505063  0.484811  1
  O  O18  1  0.776866  0.215232  0.792669  1
  O  O19  1  0.452708  0.043152  0.051433  1
  O  O20  1  0.452708  0.452708  0.051433  1
  O  O21  1  0.215232  0.776866  0.792669  1
