# generated using pymatgen
data_LaTh5(SnIr)6
_symmetry_space_group_name_H-M   'P 1'
_cell_length_a   7.57774680
_cell_length_b   7.60168055
_cell_length_c   8.32275100
_cell_angle_alpha   90.00000000
_cell_angle_beta   90.00000000
_cell_angle_gamma   119.92077997
_symmetry_Int_Tables_number   1
_chemical_formula_structural   LaTh5(SnIr)6
_chemical_formula_sum   'La1 Th5 Sn6 Ir6'
_cell_volume   415.52137634
_cell_formula_units_Z   1
loop_
 _symmetry_equiv_pos_site_id
 _symmetry_equiv_pos_as_xyz
  1  'x, y, z'
loop_
 _atom_site_type_symbol
 _atom_site_label
 _atom_site_symmetry_multiplicity
 _atom_site_fract_x
 _atom_site_fract_y
 _atom_site_fract_z
 _atom_site_occupancy
  La  La0  1  0.412607  0.999826  0.750000  1
  Th  Th1  1  0.412545  0.000950  0.250000  1
  Th  Th2  1  0.586507  0.586962  0.750000  1
  Th  Th3  1  0.588094  0.587445  0.250000  1
  Th  Th4  1  0.999087  0.411989  0.250000  1
  Th  Th5  1  0.001873  0.414202  0.750000  1
  Sn  Sn6  1  0.250175  0.247909  0.500151  1
  Sn  Sn7  1  0.250175  0.247909  0.999849  1
  Sn  Sn8  1  0.746588  0.000048  0.000587  1
  Sn  Sn9  1  0.002191  0.751996  0.500592  1
  Sn  Sn10  1  0.746588  0.000048  0.499413  1
  Sn  Sn11  1  0.002191  0.751996  0.999408  1
  Ir  Ir12  1  0.673994  0.341383  0.495582  1
  Ir  Ir13  1  0.673994  0.341383  0.004418  1
  Ir  Ir14  1  0.332292  0.657909  0.006569  1
  Ir  Ir15  1  0.332292  0.657909  0.493431  1
  Ir  Ir16  1  0.990431  0.000537  0.750000  1
  Ir  Ir17  1  0.998377  0.999596  0.250000  1
