# generated using pymatgen
data_Ho11TmCo4SnRh
_symmetry_space_group_name_H-M   'P 1'
_cell_length_a   8.25956105
_cell_length_b   8.26488791
_cell_length_c   8.26488677
_cell_angle_alpha   110.96865134
_cell_angle_beta   110.70203931
_cell_angle_gamma   106.80101244
_symmetry_Int_Tables_number   1
_chemical_formula_structural   Ho11TmCo4SnRh
_chemical_formula_sum   'Ho11 Tm1 Co4 Sn1 Rh1'
_cell_volume   433.47402124
_cell_formula_units_Z   1
loop_
 _symmetry_equiv_pos_site_id
 _symmetry_equiv_pos_as_xyz
  1  'x, y, z'
loop_
 _atom_site_type_symbol
 _atom_site_label
 _atom_site_symmetry_multiplicity
 _atom_site_fract_x
 _atom_site_fract_y
 _atom_site_fract_z
 _atom_site_occupancy
  Ho  Ho0  1  0.591657  0.786989  0.804668  1
  Ho  Ho1  1  0.018431  0.213274  0.805157  1
  Ho  Ho2  1  0.982829  0.787162  0.195668  1
  Ho  Ho3  1  0.186049  0.290045  0.475630  1
  Ho  Ho4  1  0.813137  0.708505  0.522575  1
  Ho  Ho5  1  0.186049  0.710418  0.896004  1
  Ho  Ho6  1  0.813137  0.290563  0.104634  1
  Ho  Ho7  1  0.313865  0.619203  0.306258  1
  Ho  Ho8  1  0.685741  0.379783  0.692664  1
  Ho  Ho9  1  0.313865  0.007606  0.694662  1
  Ho  Ho10  1  0.685741  0.993078  0.305959  1
  Tm  Tm11  1  0.408453  0.212740  0.195713  1
  Co  Co12  1  0.377222  0.000433  0.376789  1
  Co  Co13  1  0.621933  0.999621  0.622312  1
  Co  Co14  1  0.111860  0.611604  0.500256  1
  Co  Co15  1  0.887308  0.388121  0.499186  1
  Sn  Sn16  1  0.500168  0.499682  0.000485  1
  Rh  Rh17  1  0.002552  0.001174  0.001378  1
