# generated using pymatgen
data_Mn3InP7N12
_symmetry_space_group_name_H-M   'P 1'
_cell_length_a   7.27978208
_cell_length_b   7.27978232
_cell_length_c   7.27978200
_cell_angle_alpha   109.46212073
_cell_angle_beta   109.46211305
_cell_angle_gamma   109.46210192
_symmetry_Int_Tables_number   1
_chemical_formula_structural   Mn3InP7N12
_chemical_formula_sum   'Mn3 In1 P7 N12'
_cell_volume   297.08425201
_cell_formula_units_Z   1
loop_
 _symmetry_equiv_pos_site_id
 _symmetry_equiv_pos_as_xyz
  1  'x, y, z'
loop_
 _atom_site_type_symbol
 _atom_site_label
 _atom_site_symmetry_multiplicity
 _atom_site_fract_x
 _atom_site_fract_y
 _atom_site_fract_z
 _atom_site_occupancy
  Mn  Mn0  1  0.002724  0.662894  0.002724  1
  Mn  Mn1  1  0.662894  0.002724  0.002724  1
  Mn  Mn2  1  0.002724  0.002724  0.662894  1
  In  In3  1  0.312678  0.312678  0.312678  1
  P  P4  1  0.502348  0.252209  0.753690  1
  P  P5  1  0.502348  0.753690  0.252209  1
  P  P6  1  0.753690  0.252209  0.502348  1
  P  P7  1  0.252209  0.502348  0.753690  1
  P  P8  1  0.753690  0.502348  0.252209  1
  P  P9  1  0.252209  0.753690  0.502348  1
  P  P10  1  0.977696  0.977696  0.977696  1
  N  N11  1  0.002227  0.725087  0.437623  1
  N  N12  1  0.279158  0.713529  0.279158  1
  N  N13  1  0.289399  0.566837  0.566837  1
  N  N14  1  0.566837  0.566837  0.289399  1
  N  N15  1  0.566837  0.289399  0.566837  1
  N  N16  1  0.725087  0.002227  0.437623  1
  N  N17  1  0.437623  0.002227  0.725087  1
  N  N18  1  0.725087  0.437623  0.002227  1
  N  N19  1  0.279158  0.279158  0.713529  1
  N  N20  1  0.713529  0.279158  0.279158  1
  N  N21  1  0.002227  0.437623  0.725087  1
  N  N22  1  0.437623  0.725087  0.002227  1
