# generated using pymatgen
data_TbNdDy(Co3P2)3
_symmetry_space_group_name_H-M   'P 1'
_cell_length_a   3.72660100
_cell_length_b   10.57182900
_cell_length_c   12.25378500
_cell_angle_alpha   90.00000000
_cell_angle_beta   90.00000000
_cell_angle_gamma   90.00000000
_symmetry_Int_Tables_number   1
_chemical_formula_structural   TbNdDy(Co3P2)3
_chemical_formula_sum   'Tb2 Nd2 Dy2 Co18 P12'
_cell_volume   482.76222701
_cell_formula_units_Z   2
loop_
 _symmetry_equiv_pos_site_id
 _symmetry_equiv_pos_as_xyz
  1  'x, y, z'
loop_
 _atom_site_type_symbol
 _atom_site_label
 _atom_site_symmetry_multiplicity
 _atom_site_fract_x
 _atom_site_fract_y
 _atom_site_fract_z
 _atom_site_occupancy
  Tb  Tb0  1  0.000000  0.682646  0.795121  1
  Tb  Tb1  1  0.000000  0.317354  0.795121  1
  Nd  Nd2  1  0.000000  0.500000  0.521555  1
  Nd  Nd3  1  0.500000  0.000000  0.477895  1
  Dy  Dy4  1  0.500000  0.817900  0.205023  1
  Dy  Dy5  1  0.500000  0.182100  0.205023  1
  Co  Co6  1  0.500000  0.500000  0.156660  1
  Co  Co7  1  0.000000  0.000000  0.843201  1
  Co  Co8  1  0.500000  0.500000  0.706829  1
  Co  Co9  1  0.000000  0.000000  0.293591  1
  Co  Co10  1  0.000000  0.500000  0.988149  1
  Co  Co11  1  0.500000  0.000000  0.013883  1
  Co  Co12  1  0.500000  0.332932  0.995890  1
  Co  Co13  1  0.500000  0.667068  0.995890  1
  Co  Co14  1  0.000000  0.166239  0.005186  1
  Co  Co15  1  0.000000  0.833761  0.005186  1
  Co  Co16  1  0.500000  0.296805  0.428271  1
  Co  Co17  1  0.500000  0.703195  0.428271  1
  Co  Co18  1  0.000000  0.203323  0.570250  1
  Co  Co19  1  0.000000  0.796677  0.570250  1
  Co  Co20  1  0.500000  0.879904  0.712245  1
  Co  Co21  1  0.500000  0.120096  0.712245  1
  Co  Co22  1  0.000000  0.620329  0.287129  1
  Co  Co23  1  0.000000  0.379671  0.287129  1
  P  P24  1  0.500000  0.500000  0.885262  1
  P  P25  1  0.000000  0.000000  0.116243  1
  P  P26  1  0.500000  0.500000  0.339159  1
  P  P27  1  0.000000  0.000000  0.660367  1
  P  P28  1  0.500000  0.307184  0.616520  1
  P  P29  1  0.500000  0.692816  0.616520  1
  P  P30  1  0.000000  0.192610  0.382334  1
  P  P31  1  0.000000  0.807390  0.382334  1
  P  P32  1  0.500000  0.847351  0.894614  1
  P  P33  1  0.500000  0.152649  0.894614  1
  P  P34  1  0.000000  0.653992  0.106021  1
  P  P35  1  0.000000  0.346008  0.106021  1
