# generated using pymatgen
data_Mn5Al2Zn15(B4Rh9)4
_symmetry_space_group_name_H-M   'P 1'
_cell_length_a   17.87171385
_cell_length_b   17.87696185
_cell_length_c   2.89351400
_cell_angle_alpha   90.00000000
_cell_angle_beta   90.00000000
_cell_angle_gamma   90.05216273
_symmetry_Int_Tables_number   1
_chemical_formula_structural   Mn5Al2Zn15(B4Rh9)4
_chemical_formula_sum   'Mn5 Al2 Zn15 B16 Rh36'
_cell_volume   924.45403772
_cell_formula_units_Z   1
loop_
 _symmetry_equiv_pos_site_id
 _symmetry_equiv_pos_as_xyz
  1  'x, y, z'
loop_
 _atom_site_type_symbol
 _atom_site_label
 _atom_site_symmetry_multiplicity
 _atom_site_fract_x
 _atom_site_fract_y
 _atom_site_fract_z
 _atom_site_occupancy
  Mn  Mn0  1  0.030930  0.189881  0.000000  1
  Mn  Mn1  1  0.968977  0.810170  0.000000  1
  Mn  Mn2  1  0.189757  0.969144  0.000000  1
  Mn  Mn3  1  0.530878  0.311535  0.000000  1
  Mn  Mn4  1  0.810174  0.031108  0.000000  1
  Al  Al5  1  0.999973  0.000013  0.000000  1
  Al  Al6  1  0.500355  0.499596  0.000000  1
  Zn  Zn7  1  0.550101  0.050355  0.000000  1
  Zn  Zn8  1  0.449832  0.949691  0.000000  1
  Zn  Zn9  1  0.050282  0.449883  0.000000  1
  Zn  Zn10  1  0.949610  0.549923  0.000000  1
  Zn  Zn11  1  0.468218  0.688466  0.000000  1
  Zn  Zn12  1  0.688741  0.531843  0.000000  1
  Zn  Zn13  1  0.311047  0.467971  0.000000  1
  Zn  Zn14  1  0.210549  0.709757  0.000000  1
  Zn  Zn15  1  0.790193  0.290548  0.000000  1
  Zn  Zn16  1  0.709886  0.789368  0.000000  1
  Zn  Zn17  1  0.289682  0.210782  0.000000  1
  Zn  Zn18  1  0.668441  0.168311  0.000000  1
  Zn  Zn19  1  0.331469  0.831658  0.000000  1
  Zn  Zn20  1  0.168498  0.331517  0.000000  1
  Zn  Zn21  1  0.831682  0.668366  0.000000  1
  B  B22  1  0.333373  0.038622  0.000000  1
  B  B23  1  0.667180  0.961683  0.000000  1
  B  B24  1  0.038350  0.666841  0.000000  1
  B  B25  1  0.834507  0.460552  0.000000  1
  B  B26  1  0.961666  0.333026  0.000000  1
  B  B27  1  0.165131  0.539169  0.000000  1
  B  B28  1  0.539235  0.834815  0.000000  1
  B  B29  1  0.461769  0.166418  0.000000  1
  B  B30  1  0.165778  0.124291  0.000000  1
  B  B31  1  0.834203  0.875656  0.000000  1
  B  B32  1  0.124217  0.834215  0.000000  1
  B  B33  1  0.665305  0.374215  0.000000  1
  B  B34  1  0.875633  0.165614  0.000000  1
  B  B35  1  0.332834  0.624703  0.000000  1
  B  B36  1  0.624609  0.667436  0.000000  1
  B  B37  1  0.376445  0.332692  0.000000  1
  Rh  Rh38  1  0.255514  0.088394  0.500000  1
  Rh  Rh39  1  0.744655  0.911666  0.500000  1
  Rh  Rh40  1  0.088240  0.744432  0.500000  1
  Rh  Rh41  1  0.755486  0.411847  0.500000  1
  Rh  Rh42  1  0.911839  0.255402  0.500000  1
  Rh  Rh43  1  0.244231  0.588259  0.500000  1
  Rh  Rh44  1  0.588618  0.755879  0.500000  1
  Rh  Rh45  1  0.411715  0.244473  0.500000  1
  Rh  Rh46  1  0.047713  0.325959  0.500000  1
  Rh  Rh47  1  0.952314  0.674072  0.500000  1
  Rh  Rh48  1  0.325657  0.952437  0.500000  1
  Rh  Rh49  1  0.547603  0.174408  0.500000  1
  Rh  Rh50  1  0.674090  0.047641  0.500000  1
  Rh  Rh51  1  0.452865  0.825630  0.500000  1
  Rh  Rh52  1  0.825747  0.547109  0.500000  1
  Rh  Rh53  1  0.174007  0.452804  0.500000  1
  Rh  Rh54  1  0.160689  0.211249  0.500000  1
  Rh  Rh55  1  0.839176  0.788600  0.500000  1
  Rh  Rh56  1  0.211183  0.839070  0.500000  1
  Rh  Rh57  1  0.660889  0.288582  0.500000  1
  Rh  Rh58  1  0.788749  0.161038  0.500000  1
  Rh  Rh59  1  0.340657  0.710880  0.500000  1
  Rh  Rh60  1  0.710921  0.659175  0.500000  1
  Rh  Rh61  1  0.289188  0.340494  0.500000  1
  Rh  Rh62  1  0.097379  0.067962  0.500000  1
  Rh  Rh63  1  0.902617  0.931961  0.500000  1
  Rh  Rh64  1  0.067904  0.902455  0.500000  1
  Rh  Rh65  1  0.598654  0.433385  0.500000  1
  Rh  Rh66  1  0.932096  0.097463  0.500000  1
  Rh  Rh67  1  0.401167  0.566166  0.500000  1
  Rh  Rh68  1  0.566155  0.598767  0.500000  1
  Rh  Rh69  1  0.432816  0.402290  0.500000  1
  Rh  Rh70  1  0.081536  0.582010  0.500000  1
  Rh  Rh71  1  0.918199  0.417857  0.500000  1
  Rh  Rh72  1  0.582052  0.918453  0.500000  1
  Rh  Rh73  1  0.418171  0.081900  0.500000  1
