# generated using pymatgen
data_PuU5(Cu2Se7)2
_symmetry_space_group_name_H-M   'P 1'
_cell_length_a   10.13734012
_cell_length_b   10.15613808
_cell_length_c   5.96873401
_cell_angle_alpha   90.00831444
_cell_angle_beta   89.99862231
_cell_angle_gamma   119.95892009
_symmetry_Int_Tables_number   1
_chemical_formula_structural   PuU5(Cu2Se7)2
_chemical_formula_sum   'Pu1 U5 Cu4 Se14'
_cell_volume   532.40863810
_cell_formula_units_Z   1
loop_
 _symmetry_equiv_pos_site_id
 _symmetry_equiv_pos_as_xyz
  1  'x, y, z'
loop_
 _atom_site_type_symbol
 _atom_site_label
 _atom_site_symmetry_multiplicity
 _atom_site_fract_x
 _atom_site_fract_y
 _atom_site_fract_z
 _atom_site_occupancy
  Pu  Pu0  1  0.848064  0.623286  0.526530  1
  U  U1  1  0.225017  0.848136  0.027442  1
  U  U2  1  0.151127  0.379049  0.029466  1
  U  U3  1  0.379425  0.227325  0.526149  1
  U  U4  1  0.622330  0.772127  0.028161  1
  U  U5  1  0.774334  0.154093  0.527080  1
  Cu  Cu6  1  0.666703  0.332808  0.157568  1
  Cu  Cu7  1  0.000339  0.000040  0.999443  1
  Cu  Cu8  1  0.333453  0.666214  0.658623  1
  Cu  Cu9  1  0.999789  0.999858  0.499593  1
  Se  Se10  1  0.077512  0.563626  0.782656  1
  Se  Se11  1  0.264919  0.154704  0.011657  1
  Se  Se12  1  0.436262  0.512476  0.779435  1
  Se  Se13  1  0.663467  0.328764  0.753463  1
  Se  Se14  1  0.159609  0.895375  0.512690  1
  Se  Se15  1  0.890654  0.736284  0.014446  1
  Se  Se16  1  0.333302  0.667278  0.253505  1
  Se  Se17  1  0.110638  0.264532  0.513343  1
  Se  Se18  1  0.512837  0.075981  0.280228  1
  Se  Se19  1  0.924062  0.432295  0.279724  1
  Se  Se20  1  0.559867  0.485159  0.277045  1
  Se  Se21  1  0.733977  0.849354  0.510237  1
  Se  Se22  1  0.487011  0.921932  0.782514  1
  Se  Se23  1  0.845301  0.109303  0.011200  1
