# generated using pymatgen
data_Rb8Na3Li(InBi2)4
_symmetry_space_group_name_H-M   'P 1'
_cell_length_a   11.46605476
_cell_length_b   11.46605542
_cell_length_c   7.31609230
_cell_angle_alpha   89.91016591
_cell_angle_beta   90.08983920
_cell_angle_gamma   100.37011809
_symmetry_Int_Tables_number   1
_chemical_formula_structural   Rb8Na3Li(InBi2)4
_chemical_formula_sum   'Rb8 Na3 Li1 In4 Bi8'
_cell_volume   946.13640230
_cell_formula_units_Z   1
loop_
 _symmetry_equiv_pos_site_id
 _symmetry_equiv_pos_as_xyz
  1  'x, y, z'
loop_
 _atom_site_type_symbol
 _atom_site_label
 _atom_site_symmetry_multiplicity
 _atom_site_fract_x
 _atom_site_fract_y
 _atom_site_fract_z
 _atom_site_occupancy
  Rb  Rb0  1  0.082058  0.419196  0.249575  1
  Rb  Rb1  1  0.419196  0.082058  0.750425  1
  Rb  Rb2  1  0.920050  0.579992  0.750525  1
  Rb  Rb3  1  0.579992  0.920050  0.249475  1
  Rb  Rb4  1  0.668194  0.330076  0.221194  1
  Rb  Rb5  1  0.829492  0.171050  0.722260  1
  Rb  Rb6  1  0.330076  0.668194  0.778806  1
  Rb  Rb7  1  0.171050  0.829492  0.277740  1
  Na  Na8  1  0.119903  0.119903  0.500000  1
  Na  Na9  1  0.617681  0.617681  0.000000  1
  Na  Na10  1  0.880330  0.880330  0.500000  1
  Li  Li11  1  0.379082  0.379082  0.000000  1
  In  In12  1  0.132702  0.132702  0.000000  1
  In  In13  1  0.368091  0.368091  0.500000  1
  In  In14  1  0.867491  0.867491  0.000000  1
  In  In15  1  0.631255  0.631255  0.500000  1
  Bi  Bi16  1  0.852219  0.647144  0.250154  1
  Bi  Bi17  1  0.647144  0.852219  0.749846  1
  Bi  Bi18  1  0.155484  0.353890  0.758822  1
  Bi  Bi19  1  0.353890  0.155484  0.241178  1
  Bi  Bi20  1  0.897931  0.101916  0.207122  1
  Bi  Bi21  1  0.596791  0.397981  0.714548  1
  Bi  Bi22  1  0.101916  0.897931  0.792878  1
  Bi  Bi23  1  0.397981  0.596791  0.285452  1
