# generated using pymatgen
data_Zr6Al16Fe3Cu4
_symmetry_space_group_name_H-M   'P 1'
_cell_length_a   8.62832191
_cell_length_b   8.62811354
_cell_length_c   8.55868101
_cell_angle_alpha   60.26777797
_cell_angle_beta   60.26330370
_cell_angle_gamma   59.47795573
_symmetry_Int_Tables_number   1
_chemical_formula_structural   Zr6Al16Fe3Cu4
_chemical_formula_sum   'Zr6 Al16 Fe3 Cu4'
_cell_volume   450.51501940
_cell_formula_units_Z   1
loop_
 _symmetry_equiv_pos_site_id
 _symmetry_equiv_pos_as_xyz
  1  'x, y, z'
loop_
 _atom_site_type_symbol
 _atom_site_label
 _atom_site_symmetry_multiplicity
 _atom_site_fract_x
 _atom_site_fract_y
 _atom_site_fract_z
 _atom_site_occupancy
  Zr  Zr0  1  0.703507  0.703495  0.296501  1
  Zr  Zr1  1  0.308068  0.691926  0.308063  1
  Zr  Zr2  1  0.691865  0.308138  0.308120  1
  Zr  Zr3  1  0.296493  0.296505  0.703499  1
  Zr  Zr4  1  0.691932  0.308074  0.691937  1
  Zr  Zr5  1  0.308135  0.691862  0.691880  1
  Al  Al6  1  0.888240  0.888253  0.350774  1
  Al  Al7  1  0.872709  0.350806  0.888245  1
  Al  Al8  1  0.350800  0.872710  0.888244  1
  Al  Al9  1  0.888246  0.888244  0.872734  1
  Al  Al10  1  0.111760  0.111747  0.649226  1
  Al  Al11  1  0.127291  0.649194  0.111755  1
  Al  Al12  1  0.649200  0.127290  0.111756  1
  Al  Al13  1  0.111754  0.111756  0.127266  1
  Al  Al14  1  0.663324  0.663340  0.002235  1
  Al  Al15  1  0.671095  0.002203  0.663357  1
  Al  Al16  1  0.002194  0.671101  0.663346  1
  Al  Al17  1  0.663340  0.663328  0.671102  1
  Al  Al18  1  0.336676  0.336660  0.997765  1
  Al  Al19  1  0.328905  0.997797  0.336643  1
  Al  Al20  1  0.997806  0.328899  0.336654  1
  Al  Al21  1  0.336660  0.336672  0.328898  1
  Fe  Fe22  1  0.000000  0.000000  0.000000  1
  Fe  Fe23  1  0.000000  0.000000  0.500000  1
  Fe  Fe24  1  0.500000  0.500000  0.000000  1
  Cu  Cu25  1  0.500000  0.000000  0.500000  1
  Cu  Cu26  1  0.000000  0.500000  0.500000  1
  Cu  Cu27  1  0.000000  0.500000  0.000000  1
  Cu  Cu28  1  0.500000  0.000000  0.000000  1
