# generated using pymatgen
data_DyZr2PtF15
_symmetry_space_group_name_H-M   'P 1'
_cell_length_a   8.16206278
_cell_length_b   8.16206122
_cell_length_c   8.13161070
_cell_angle_alpha   79.88835311
_cell_angle_beta   79.88835194
_cell_angle_gamma   99.99276797
_symmetry_Int_Tables_number   1
_chemical_formula_structural   DyZr2PtF15
_chemical_formula_sum   'Dy2 Zr4 Pt2 F30'
_cell_volume   513.22098472
_cell_formula_units_Z   2
loop_
 _symmetry_equiv_pos_site_id
 _symmetry_equiv_pos_as_xyz
  1  'x, y, z'
loop_
 _atom_site_type_symbol
 _atom_site_label
 _atom_site_symmetry_multiplicity
 _atom_site_fract_x
 _atom_site_fract_y
 _atom_site_fract_z
 _atom_site_occupancy
  Dy  Dy0  1  0.677408  0.322592  0.750000  1
  Dy  Dy1  1  0.322592  0.677408  0.250000  1
  Zr  Zr2  1  0.823158  0.752754  0.327320  1
  Zr  Zr3  1  0.247246  0.176842  0.172680  1
  Zr  Zr4  1  0.176842  0.247246  0.672680  1
  Zr  Zr5  1  0.752754  0.823158  0.827320  1
  Pt  Pt6  1  0.249681  0.750319  0.750000  1
  Pt  Pt7  1  0.750319  0.249681  0.250000  1
  F  F8  1  0.150199  0.186452  0.944572  1
  F  F9  1  0.689314  0.566308  0.846013  1
  F  F10  1  0.039672  0.656529  0.314167  1
  F  F11  1  0.656529  0.039672  0.814167  1
  F  F12  1  0.566308  0.689314  0.346013  1
  F  F13  1  0.186452  0.150199  0.444572  1
  F  F14  1  0.849801  0.813548  0.055428  1
  F  F15  1  0.310686  0.433692  0.153987  1
  F  F16  1  0.960328  0.343471  0.685833  1
  F  F17  1  0.343471  0.960328  0.185833  1
  F  F18  1  0.433692  0.310686  0.653987  1
  F  F19  1  0.813548  0.849801  0.555428  1
  F  F20  1  0.970136  0.029864  0.750000  1
  F  F21  1  0.543580  0.753461  0.026470  1
  F  F22  1  0.246539  0.456420  0.473530  1
  F  F23  1  0.456420  0.246539  0.973530  1
  F  F24  1  0.753461  0.543580  0.526470  1
  F  F25  1  0.029864  0.970136  0.250000  1
  F  F26  1  0.213569  0.725698  0.999566  1
  F  F27  1  0.226433  0.500473  0.789584  1
  F  F28  1  0.998125  0.714424  0.776052  1
  F  F29  1  0.714424  0.998125  0.276052  1
  F  F30  1  0.500473  0.226433  0.289584  1
  F  F31  1  0.725698  0.213569  0.499566  1
  F  F32  1  0.786431  0.274302  0.000434  1
  F  F33  1  0.773567  0.499527  0.210416  1
  F  F34  1  0.001875  0.285576  0.223948  1
  F  F35  1  0.285576  0.001875  0.723948  1
  F  F36  1  0.499527  0.773567  0.710416  1
  F  F37  1  0.274302  0.786431  0.500434  1
