# generated using pymatgen
data_MnH4F6
_symmetry_space_group_name_H-M   'P 1'
_cell_length_a   5.75045520
_cell_length_b   5.23621398
_cell_length_c   4.95417152
_cell_angle_alpha   83.75327014
_cell_angle_beta   74.75725204
_cell_angle_gamma   64.21114600
_symmetry_Int_Tables_number   1
_chemical_formula_structural   MnH4F6
_chemical_formula_sum   'Mn1 H4 F6'
_cell_volume   129.58819177
_cell_formula_units_Z   1
loop_
 _symmetry_equiv_pos_site_id
 _symmetry_equiv_pos_as_xyz
  1  'x, y, z'
loop_
 _atom_site_type_symbol
 _atom_site_label
 _atom_site_symmetry_multiplicity
 _atom_site_fract_x
 _atom_site_fract_y
 _atom_site_fract_z
 _atom_site_occupancy
  Mn  Mn0  1  0.178195  0.507590  0.325871  1
  H  H1  1  0.053170  0.272315  0.906664  1
  H  H2  1  0.081707  0.021862  0.616171  1
  H  H3  1  0.504948  0.377714  0.770379  1
  H  H4  1  0.681830  0.024876  0.401933  1
  F  F5  1  0.149084  0.803992  0.606319  1
  F  F6  1  0.514675  0.266515  0.525675  1
  F  F7  1  0.799838  0.836320  0.288957  1
  F  F8  1  0.101575  0.237274  0.097815  1
  F  F9  1  0.009064  0.289270  0.656920  1
  F  F10  1  0.485960  0.461826  0.955793  1
