# generated using pymatgen
data_K2Rb3SrTaP4
_symmetry_space_group_name_H-M   'P 1'
_cell_length_a   10.47134211
_cell_length_b   10.47134100
_cell_length_c   7.78663766
_cell_angle_alpha   88.26002080
_cell_angle_beta   88.26002893
_cell_angle_gamma   120.58041762
_symmetry_Int_Tables_number   1
_chemical_formula_structural   K2Rb3SrTaP4
_chemical_formula_sum   'K4 Rb6 Sr2 Ta2 P8'
_cell_volume   733.66666334
_cell_formula_units_Z   2
loop_
 _symmetry_equiv_pos_site_id
 _symmetry_equiv_pos_as_xyz
  1  'x, y, z'
loop_
 _atom_site_type_symbol
 _atom_site_label
 _atom_site_symmetry_multiplicity
 _atom_site_fract_x
 _atom_site_fract_y
 _atom_site_fract_z
 _atom_site_occupancy
  K  K0  1  0.464892  0.528291  0.497103  1
  K  K1  1  0.061531  0.530837  0.501235  1
  K  K2  1  0.528291  0.464892  0.997103  1
  K  K3  1  0.530837  0.061531  0.001235  1
  Rb  Rb4  1  0.865080  0.140627  0.683178  1
  Rb  Rb5  1  0.291809  0.152839  0.726694  1
  Rb  Rb6  1  0.855052  0.717288  0.656787  1
  Rb  Rb7  1  0.140627  0.865080  0.183178  1
  Rb  Rb8  1  0.717288  0.855052  0.156787  1
  Rb  Rb9  1  0.152839  0.291809  0.226694  1
  Sr  Sr10  1  0.462354  0.933689  0.492851  1
  Sr  Sr11  1  0.933689  0.462354  0.992851  1
  Ta  Ta12  1  0.670171  0.329733  0.391733  1
  Ta  Ta13  1  0.329733  0.670171  0.891733  1
  P  P14  1  0.689607  0.340310  0.701437  1
  P  P15  1  0.340310  0.689607  0.201437  1
  P  P16  1  0.789439  0.199519  0.282048  1
  P  P17  1  0.411782  0.191595  0.321997  1
  P  P18  1  0.795723  0.577827  0.259225  1
  P  P19  1  0.199519  0.789439  0.782048  1
  P  P20  1  0.577827  0.795723  0.759225  1
  P  P21  1  0.191595  0.411782  0.821997  1
