# generated using pymatgen
data_Cs2SnAs4O13
_symmetry_space_group_name_H-M   'P 1'
_cell_length_a   5.48948801
_cell_length_b   8.46806668
_cell_length_c   16.57421600
_cell_angle_alpha   83.79367554
_cell_angle_beta   83.82956548
_cell_angle_gamma   80.76435429
_symmetry_Int_Tables_number   1
_chemical_formula_structural   Cs2SnAs4O13
_chemical_formula_sum   'Cs4 Sn2 As8 O26'
_cell_volume   752.81709383
_cell_formula_units_Z   2
loop_
 _symmetry_equiv_pos_site_id
 _symmetry_equiv_pos_as_xyz
  1  'x, y, z'
loop_
 _atom_site_type_symbol
 _atom_site_label
 _atom_site_symmetry_multiplicity
 _atom_site_fract_x
 _atom_site_fract_y
 _atom_site_fract_z
 _atom_site_occupancy
  Cs  Cs0  1  0.321347  0.255672  0.010721  1
  Cs  Cs1  1  0.735861  0.697248  0.471388  1
  Cs  Cs2  1  0.264138  0.302752  0.528613  1
  Cs  Cs3  1  0.678662  0.744329  0.989280  1
  Sn  Sn4  1  0.442010  0.056381  0.261658  1
  Sn  Sn5  1  0.557988  0.943618  0.738340  1
  As  As6  1  0.008912  0.905415  0.161456  1
  As  As7  1  0.672881  0.406145  0.189153  1
  As  As8  1  0.312982  0.667953  0.289533  1
  As  As9  1  0.879286  0.216461  0.355397  1
  As  As10  1  0.120713  0.783535  0.644605  1
  As  As11  1  0.687020  0.332048  0.710466  1
  As  As12  1  0.327119  0.593856  0.810848  1
  As  As13  1  0.991088  0.094585  0.838543  1
  O  O14  1  0.115298  0.837873  0.072149  1
  O  O15  1  0.820408  0.419449  0.096929  1
  O  O16  1  0.693778  0.971189  0.166481  1
  O  O17  1  0.157739  0.055598  0.187767  1
  O  O18  1  0.444045  0.287814  0.204855  1
  O  O19  1  0.514335  0.605332  0.202359  1
  O  O20  1  0.032378  0.746638  0.245194  1
  O  O21  1  0.866906  0.370675  0.270046  1
  O  O22  1  0.434848  0.825495  0.318478  1
  O  O23  1  0.722044  0.065226  0.335549  1
  O  O24  1  0.189788  0.139994  0.355447  1
  O  O25  1  0.266941  0.529631  0.365089  1
  O  O26  1  0.782036  0.299734  0.441634  1
  O  O27  1  0.217961  0.700264  0.558365  1
  O  O28  1  0.733063  0.470368  0.634910  1
  O  O29  1  0.810209  0.860004  0.644553  1
  O  O30  1  0.277950  0.934768  0.664452  1
  O  O31  1  0.565152  0.174506  0.681521  1
  O  O32  1  0.133090  0.629323  0.729955  1
  O  O33  1  0.967622  0.253365  0.754807  1
  O  O34  1  0.485666  0.394670  0.797640  1
  O  O35  1  0.555955  0.712186  0.795145  1
  O  O36  1  0.842257  0.944405  0.812233  1
  O  O37  1  0.306221  0.028811  0.833518  1
  O  O38  1  0.179594  0.580551  0.903071  1
  O  O39  1  0.884699  0.162131  0.927851  1
