# generated using pymatgen
data_MgPa(GaRh)2
_symmetry_space_group_name_H-M   'P 1'
_cell_length_a   4.13629200
_cell_length_b   6.75192000
_cell_length_c   7.82910400
_cell_angle_alpha   90.00000000
_cell_angle_beta   90.00000000
_cell_angle_gamma   90.00000000
_symmetry_Int_Tables_number   1
_chemical_formula_structural   MgPa(GaRh)2
_chemical_formula_sum   'Mg2 Pa2 Ga4 Rh4'
_cell_volume   218.65053288
_cell_formula_units_Z   2
loop_
 _symmetry_equiv_pos_site_id
 _symmetry_equiv_pos_as_xyz
  1  'x, y, z'
loop_
 _atom_site_type_symbol
 _atom_site_label
 _atom_site_symmetry_multiplicity
 _atom_site_fract_x
 _atom_site_fract_y
 _atom_site_fract_z
 _atom_site_occupancy
  Mg  Mg0  1  0.750000  0.036242  0.683837  1
  Mg  Mg1  1  0.750000  0.536242  0.816163  1
  Pa  Pa2  1  0.250000  0.968280  0.331429  1
  Pa  Pa3  1  0.250000  0.468280  0.168571  1
  Ga  Ga4  1  0.250000  0.365094  0.569153  1
  Ga  Ga5  1  0.250000  0.865094  0.930847  1
  Ga  Ga6  1  0.750000  0.631058  0.454521  1
  Ga  Ga7  1  0.750000  0.131058  0.045479  1
  Rh  Rh8  1  0.250000  0.247746  0.880426  1
  Rh  Rh9  1  0.250000  0.747746  0.619574  1
  Rh  Rh10  1  0.750000  0.751579  0.140482  1
  Rh  Rh11  1  0.750000  0.251579  0.359518  1
