# generated using pymatgen
data_TbIO4
_symmetry_space_group_name_H-M   'P 1'
_cell_length_a   5.03954961
_cell_length_b   5.03955062
_cell_length_c   7.26030600
_cell_angle_alpha   90.00000000
_cell_angle_beta   90.00000000
_cell_angle_gamma   94.35544547
_symmetry_Int_Tables_number   1
_chemical_formula_structural   TbIO4
_chemical_formula_sum   'Tb2 I2 O8'
_cell_volume   183.85796638
_cell_formula_units_Z   2
loop_
 _symmetry_equiv_pos_site_id
 _symmetry_equiv_pos_as_xyz
  1  'x, y, z'
loop_
 _atom_site_type_symbol
 _atom_site_label
 _atom_site_symmetry_multiplicity
 _atom_site_fract_x
 _atom_site_fract_y
 _atom_site_fract_z
 _atom_site_occupancy
  Tb  Tb0  1  0.000000  0.000000  0.000000  1
  Tb  Tb1  1  0.000000  0.000000  0.500000  1
  I  I2  1  0.469911  0.530089  0.750000  1
  I  I3  1  0.530089  0.469911  0.250000  1
  O  O4  1  0.309852  0.690148  0.947591  1
  O  O5  1  0.309852  0.690148  0.552409  1
  O  O6  1  0.690148  0.309852  0.052409  1
  O  O7  1  0.690148  0.309852  0.447591  1
  O  O8  1  0.829807  0.762332  0.250000  1
  O  O9  1  0.237668  0.170193  0.250000  1
  O  O10  1  0.762332  0.829807  0.750000  1
  O  O11  1  0.170193  0.237668  0.750000  1
