# generated using pymatgen
data_Nb6CdFeS12
_symmetry_space_group_name_H-M   'P 1'
_cell_length_a   5.82809300
_cell_length_b   5.82809447
_cell_length_c   12.55186500
_cell_angle_alpha   90.00000000
_cell_angle_beta   90.00000000
_cell_angle_gamma   119.99999734
_symmetry_Int_Tables_number   1
_chemical_formula_structural   Nb6CdFeS12
_chemical_formula_sum   'Nb6 Cd1 Fe1 S12'
_cell_volume   369.22573089
_cell_formula_units_Z   1
loop_
 _symmetry_equiv_pos_site_id
 _symmetry_equiv_pos_as_xyz
  1  'x, y, z'
loop_
 _atom_site_type_symbol
 _atom_site_label
 _atom_site_symmetry_multiplicity
 _atom_site_fract_x
 _atom_site_fract_y
 _atom_site_fract_z
 _atom_site_occupancy
  Nb  Nb0  1  0.000000  0.000000  0.522352  1
  Nb  Nb1  1  0.000000  0.000000  0.977648  1
  Nb  Nb2  1  0.333333  0.666667  0.977277  1
  Nb  Nb3  1  0.666667  0.333333  0.982865  1
  Nb  Nb4  1  0.666667  0.333333  0.517135  1
  Nb  Nb5  1  0.333333  0.666667  0.522723  1
  Cd  Cd6  1  0.333333  0.666667  0.250000  1
  Fe  Fe7  1  0.666667  0.333333  0.750000  1
  S  S8  1  0.329232  0.326304  0.394324  1
  S  S9  1  0.673696  0.002926  0.394324  1
  S  S10  1  0.997074  0.670768  0.394324  1
  S  S11  1  0.339636  0.333737  0.644001  1
  S  S12  1  0.994102  0.660364  0.644001  1
  S  S13  1  0.666263  0.005898  0.644001  1
  S  S14  1  0.666263  0.660364  0.855999  1
  S  S15  1  0.339636  0.005898  0.855999  1
  S  S16  1  0.994102  0.333737  0.855999  1
  S  S17  1  0.673696  0.670768  0.105676  1
  S  S18  1  0.997074  0.326304  0.105676  1
  S  S19  1  0.329232  0.002926  0.105676  1
