# generated using pymatgen
data_Sr4CrCuH12
_symmetry_space_group_name_H-M   'P 1'
_cell_length_a   7.58108258
_cell_length_b   7.58108297
_cell_length_c   5.51678606
_cell_angle_alpha   90.00600677
_cell_angle_beta   90.00601031
_cell_angle_gamma   137.33587209
_symmetry_Int_Tables_number   1
_chemical_formula_structural   Sr4CrCuH12
_chemical_formula_sum   'Sr4 Cr1 Cu1 H12'
_cell_volume   214.87491287
_cell_formula_units_Z   1
loop_
 _symmetry_equiv_pos_site_id
 _symmetry_equiv_pos_as_xyz
  1  'x, y, z'
loop_
 _atom_site_type_symbol
 _atom_site_label
 _atom_site_symmetry_multiplicity
 _atom_site_fract_x
 _atom_site_fract_y
 _atom_site_fract_z
 _atom_site_occupancy
  Sr  Sr0  1  0.148181  0.851819  0.500000  1
  Sr  Sr1  1  0.647381  0.352619  0.000000  1
  Sr  Sr2  1  0.851819  0.148181  0.500000  1
  Sr  Sr3  1  0.352619  0.647381  0.000000  1
  Cr  Cr4  1  0.500000  0.500000  0.500000  1
  Cu  Cu5  1  0.000000  0.000000  0.000000  1
  H  H6  1  0.999765  0.500330  0.751629  1
  H  H7  1  0.499670  0.000235  0.248371  1
  H  H8  1  0.000235  0.499670  0.248371  1
  H  H9  1  0.500330  0.999765  0.751629  1
  H  H10  1  0.378107  0.621893  0.500000  1
  H  H11  1  0.887067  0.112933  0.000000  1
  H  H12  1  0.621893  0.378107  0.500000  1
  H  H13  1  0.112933  0.887067  0.000000  1
  H  H14  1  0.272761  0.272761  0.727429  1
  H  H15  1  0.727239  0.727239  0.272571  1
  H  H16  1  0.272568  0.272568  0.272782  1
  H  H17  1  0.727432  0.727432  0.727218  1
