# generated using pymatgen
data_Er2PtPbAu
_symmetry_space_group_name_H-M   'P 1'
_cell_length_a   8.02958600
_cell_length_b   8.05461300
_cell_length_c   3.59625400
_cell_angle_alpha   90.00000000
_cell_angle_beta   90.00000000
_cell_angle_gamma   90.00000000
_symmetry_Int_Tables_number   1
_chemical_formula_structural   Er2PtPbAu
_chemical_formula_sum   'Er4 Pt2 Pb2 Au2'
_cell_volume   232.58847468
_cell_formula_units_Z   2
loop_
 _symmetry_equiv_pos_site_id
 _symmetry_equiv_pos_as_xyz
  1  'x, y, z'
loop_
 _atom_site_type_symbol
 _atom_site_label
 _atom_site_symmetry_multiplicity
 _atom_site_fract_x
 _atom_site_fract_y
 _atom_site_fract_z
 _atom_site_occupancy
  Er  Er0  1  0.328895  0.149485  0.499999  1
  Er  Er1  1  0.828896  0.350515  0.499999  1
  Er  Er2  1  0.165850  0.682500  0.499999  1
  Er  Er3  1  0.665850  0.817501  0.499999  1
  Pt  Pt4  1  0.878307  0.627332  0.000000  1
  Pt  Pt5  1  0.378308  0.872667  0.000000  1
  Pb  Pb6  1  0.996611  0.000453  0.000000  1
  Pb  Pb7  1  0.496611  0.499547  0.000000  1
  Au  Au8  1  0.630336  0.125380  0.000000  1
  Au  Au9  1  0.130336  0.374620  0.000000  1
