# generated using pymatgen
data_Sc2Si2Pd3
_symmetry_space_group_name_H-M   'P 1'
_cell_length_a   4.05587400
_cell_length_b   6.43355600
_cell_length_c   8.82609700
_cell_angle_alpha   90.00000000
_cell_angle_beta   90.00000000
_cell_angle_gamma   90.00000000
_symmetry_Int_Tables_number   1
_chemical_formula_structural   Sc2Si2Pd3
_chemical_formula_sum   'Sc4 Si4 Pd6'
_cell_volume   230.30546116
_cell_formula_units_Z   2
loop_
 _symmetry_equiv_pos_site_id
 _symmetry_equiv_pos_as_xyz
  1  'x, y, z'
loop_
 _atom_site_type_symbol
 _atom_site_label
 _atom_site_symmetry_multiplicity
 _atom_site_fract_x
 _atom_site_fract_y
 _atom_site_fract_z
 _atom_site_occupancy
  Sc  Sc0  1  0.000000  0.890481  0.328610  1
  Sc  Sc1  1  0.000000  0.109519  0.671390  1
  Sc  Sc2  1  0.000000  0.390481  0.171390  1
  Sc  Sc3  1  0.000000  0.609519  0.828610  1
  Si  Si4  1  0.500000  0.576361  0.351309  1
  Si  Si5  1  0.500000  0.423639  0.648691  1
  Si  Si6  1  0.500000  0.076361  0.148691  1
  Si  Si7  1  0.500000  0.923639  0.851309  1
  Pd  Pd8  1  0.500000  0.691314  0.084589  1
  Pd  Pd9  1  0.500000  0.308686  0.915411  1
  Pd  Pd10  1  0.500000  0.191314  0.415411  1
  Pd  Pd11  1  0.500000  0.808686  0.584589  1
  Pd  Pd12  1  0.000000  0.500000  0.500000  1
  Pd  Pd13  1  0.000000  0.000000  0.000000  1
