# generated using pymatgen
data_VB3W4
_symmetry_space_group_name_H-M   'P 1'
_cell_length_a   5.83902051
_cell_length_b   5.83902101
_cell_length_c   6.83794558
_cell_angle_alpha   115.27461073
_cell_angle_beta   115.27461792
_cell_angle_gamma   89.99999658
_symmetry_Int_Tables_number   1
_chemical_formula_structural   VB3W4
_chemical_formula_sum   'V2 B6 W8'
_cell_volume   185.83795551
_cell_formula_units_Z   2
loop_
 _symmetry_equiv_pos_site_id
 _symmetry_equiv_pos_as_xyz
  1  'x, y, z'
loop_
 _atom_site_type_symbol
 _atom_site_label
 _atom_site_symmetry_multiplicity
 _atom_site_fract_x
 _atom_site_fract_y
 _atom_site_fract_z
 _atom_site_occupancy
  V  V0  1  0.500000  0.500000  0.000000  1
  V  V1  1  0.000000  0.000000  0.000000  1
  B  B2  1  0.250000  0.250000  0.500000  1
  B  B3  1  0.750000  0.750000  0.500000  1
  B  B4  1  0.622138  0.122138  0.000000  1
  B  B5  1  0.377862  0.877862  0.000000  1
  B  B6  1  0.877862  0.622138  0.000000  1
  B  B7  1  0.122138  0.377862  0.000000  1
  W  W8  1  0.025417  0.525417  0.713154  1
  W  W9  1  0.687736  0.187736  0.713154  1
  W  W10  1  0.187736  0.025417  0.713154  1
  W  W11  1  0.525417  0.687736  0.713154  1
  W  W12  1  0.974583  0.474583  0.286846  1
  W  W13  1  0.312264  0.812264  0.286846  1
  W  W14  1  0.812264  0.974583  0.286846  1
  W  W15  1  0.474583  0.312264  0.286846  1
