# generated using pymatgen
data_Dy4P7Ir8
_symmetry_space_group_name_H-M   'P 1'
_cell_length_a   3.94949000
_cell_length_b   12.66652558
_cell_length_c   13.11404358
_cell_angle_alpha   80.91556983
_cell_angle_beta   90.00000000
_cell_angle_gamma   90.00000000
_symmetry_Int_Tables_number   1
_chemical_formula_structural   Dy4P7Ir8
_chemical_formula_sum   'Dy8 P14 Ir16'
_cell_volume   647.81832406
_cell_formula_units_Z   2
loop_
 _symmetry_equiv_pos_site_id
 _symmetry_equiv_pos_as_xyz
  1  'x, y, z'
loop_
 _atom_site_type_symbol
 _atom_site_label
 _atom_site_symmetry_multiplicity
 _atom_site_fract_x
 _atom_site_fract_y
 _atom_site_fract_z
 _atom_site_occupancy
  Dy  Dy0  1  0.250000  0.102305  0.790576  1
  Dy  Dy1  1  0.750000  0.897695  0.209424  1
  Dy  Dy2  1  0.250000  0.279625  0.101849  1
  Dy  Dy3  1  0.750000  0.720375  0.898151  1
  Dy  Dy4  1  0.250000  0.520369  0.293885  1
  Dy  Dy5  1  0.750000  0.479631  0.706115  1
  Dy  Dy6  1  0.250000  0.209161  0.437653  1
  Dy  Dy7  1  0.750000  0.790839  0.562347  1
  P  P8  1  0.250000  0.052030  0.100156  1
  P  P9  1  0.750000  0.947970  0.899844  1
  P  P10  1  0.250000  0.311976  0.688863  1
  P  P11  1  0.750000  0.688024  0.311137  1
  P  P12  1  0.250000  0.607810  0.567097  1
  P  P13  1  0.750000  0.392190  0.432903  1
  P  P14  1  0.250000  0.843977  0.717844  1
  P  P15  1  0.750000  0.156023  0.282156  1
  P  P16  1  0.750000  0.258134  0.919793  1
  P  P17  1  0.250000  0.741866  0.080207  1
  P  P18  1  0.750000  0.093476  0.587939  1
  P  P19  1  0.250000  0.906524  0.412061  1
  P  P20  1  0.750000  0.472104  0.129364  1
  P  P21  1  0.250000  0.527896  0.870636  1
  Ir  Ir22  1  0.250000  0.990908  0.576105  1
  Ir  Ir23  1  0.750000  0.009092  0.423895  1
  Ir  Ir24  1  0.250000  0.663183  0.731357  1
  Ir  Ir25  1  0.750000  0.336817  0.268643  1
  Ir  Ir26  1  0.250000  0.555371  0.044501  1
  Ir  Ir27  1  0.750000  0.444629  0.955499  1
  Ir  Ir28  1  0.250000  0.059166  0.272745  1
  Ir  Ir29  1  0.750000  0.940834  0.727255  1
  Ir  Ir30  1  0.250000  0.421798  0.523386  1
  Ir  Ir31  1  0.750000  0.578202  0.476614  1
  Ir  Ir32  1  0.250000  0.914925  0.997748  1
  Ir  Ir33  1  0.750000  0.085075  0.002252  1
  Ir  Ir34  1  0.250000  0.728913  0.395501  1
  Ir  Ir35  1  0.750000  0.271087  0.604499  1
  Ir  Ir36  1  0.250000  0.341862  0.857672  1
  Ir  Ir37  1  0.750000  0.658138  0.142328  1
