# generated using pymatgen
data_Hf3Sc4TaIr4
_symmetry_space_group_name_H-M   'P 1'
_cell_length_a   4.49259900
_cell_length_b   6.72393299
_cell_length_c   7.97768634
_cell_angle_alpha   89.97113237
_cell_angle_beta   90.00000000
_cell_angle_gamma   90.00000000
_symmetry_Int_Tables_number   1
_chemical_formula_structural   Hf3Sc4TaIr4
_chemical_formula_sum   'Hf3 Sc4 Ta1 Ir4'
_cell_volume   240.98939678
_cell_formula_units_Z   1
loop_
 _symmetry_equiv_pos_site_id
 _symmetry_equiv_pos_as_xyz
  1  'x, y, z'
loop_
 _atom_site_type_symbol
 _atom_site_label
 _atom_site_symmetry_multiplicity
 _atom_site_fract_x
 _atom_site_fract_y
 _atom_site_fract_z
 _atom_site_occupancy
  Hf  Hf0  1  0.250000  0.354853  0.577500  1
  Hf  Hf1  1  0.250000  0.846043  0.922971  1
  Hf  Hf2  1  0.750000  0.649813  0.425819  1
  Sc  Sc3  1  0.250000  0.989715  0.317978  1
  Sc  Sc4  1  0.250000  0.479652  0.177545  1
  Sc  Sc5  1  0.750000  0.019777  0.675068  1
  Sc  Sc6  1  0.750000  0.508814  0.828245  1
  Ta  Ta7  1  0.750000  0.143564  0.074083  1
  Ir  Ir8  1  0.250000  0.235516  0.915103  1
  Ir  Ir9  1  0.250000  0.749858  0.591742  1
  Ir  Ir10  1  0.750000  0.763606  0.095286  1
  Ir  Ir11  1  0.750000  0.258789  0.398658  1
