# generated using pymatgen
data_Lu4PtAu3
_symmetry_space_group_name_H-M   'P 1'
_cell_length_a   4.61201100
_cell_length_b   5.58080596
_cell_length_c   6.93557111
_cell_angle_alpha   89.31464530
_cell_angle_beta   90.00000000
_cell_angle_gamma   90.00000000
_symmetry_Int_Tables_number   1
_chemical_formula_structural   Lu4PtAu3
_chemical_formula_sum   'Lu4 Pt1 Au3'
_cell_volume   178.50008013
_cell_formula_units_Z   1
loop_
 _symmetry_equiv_pos_site_id
 _symmetry_equiv_pos_as_xyz
  1  'x, y, z'
loop_
 _atom_site_type_symbol
 _atom_site_label
 _atom_site_symmetry_multiplicity
 _atom_site_fract_x
 _atom_site_fract_y
 _atom_site_fract_z
 _atom_site_occupancy
  Lu  Lu0  1  0.250000  0.641026  0.186304  1
  Lu  Lu1  1  0.750000  0.349532  0.807992  1
  Lu  Lu2  1  0.750000  0.155202  0.325297  1
  Lu  Lu3  1  0.250000  0.857475  0.678913  1
  Pt  Pt4  1  0.250000  0.340853  0.542647  1
  Au  Au5  1  0.250000  0.155208  0.043894  1
  Au  Au6  1  0.750000  0.839328  0.959212  1
  Au  Au7  1  0.750000  0.661375  0.455741  1
