# generated using pymatgen
data_Nd16Ho3InIr12
_symmetry_space_group_name_H-M   'P 1'
_cell_length_a   11.21921900
_cell_length_b   11.21921900
_cell_length_c   6.44338500
_cell_angle_alpha   90.00000000
_cell_angle_beta   90.00000000
_cell_angle_gamma   90.00000000
_symmetry_Int_Tables_number   1
_chemical_formula_structural   Nd16Ho3InIr12
_chemical_formula_sum   'Nd16 Ho3 In1 Ir12'
_cell_volume   811.03450772
_cell_formula_units_Z   1
loop_
 _symmetry_equiv_pos_site_id
 _symmetry_equiv_pos_as_xyz
  1  'x, y, z'
loop_
 _atom_site_type_symbol
 _atom_site_label
 _atom_site_symmetry_multiplicity
 _atom_site_fract_x
 _atom_site_fract_y
 _atom_site_fract_z
 _atom_site_occupancy
  Nd  Nd0  1  0.281319  0.085172  0.381406  1
  Nd  Nd1  1  0.289044  0.912077  0.880945  1
  Nd  Nd2  1  0.710956  0.087923  0.880945  1
  Nd  Nd3  1  0.718681  0.914828  0.381406  1
  Nd  Nd4  1  0.588218  0.789346  0.883101  1
  Nd  Nd5  1  0.587691  0.210450  0.379467  1
  Nd  Nd6  1  0.412309  0.789550  0.379467  1
  Nd  Nd7  1  0.411782  0.210654  0.883101  1
  Nd  Nd8  1  0.210450  0.412309  0.620533  1
  Nd  Nd9  1  0.210654  0.588218  0.116899  1
  Nd  Nd10  1  0.789346  0.411782  0.116899  1
  Nd  Nd11  1  0.789550  0.587691  0.620533  1
  Nd  Nd12  1  0.912077  0.710956  0.119055  1
  Nd  Nd13  1  0.914828  0.281319  0.618594  1
  Nd  Nd14  1  0.085172  0.718681  0.618594  1
  Nd  Nd15  1  0.087923  0.289044  0.119055  1
  Ho  Ho16  1  0.000000  0.000000  0.000000  1
  Ho  Ho17  1  0.500000  0.500000  0.000000  1
  Ho  Ho18  1  0.500000  0.500000  0.500000  1
  In  In19  1  0.000000  0.000000  0.500000  1
  Ir  Ir20  1  0.849674  0.152477  0.243893  1
  Ir  Ir21  1  0.847523  0.849674  0.756107  1
  Ir  Ir22  1  0.152477  0.150326  0.756107  1
  Ir  Ir23  1  0.150326  0.847523  0.243893  1
  Ir  Ir24  1  0.650162  0.351239  0.746963  1
  Ir  Ir25  1  0.648761  0.650162  0.253037  1
  Ir  Ir26  1  0.351239  0.349838  0.253037  1
  Ir  Ir27  1  0.349838  0.648761  0.746963  1
  Ir  Ir28  1  0.500000  0.000000  0.121894  1
  Ir  Ir29  1  0.500000  0.000000  0.617324  1
  Ir  Ir30  1  0.000000  0.500000  0.878106  1
  Ir  Ir31  1  0.000000  0.500000  0.382676  1
