# generated using pymatgen
data_Pd2Pt6W
_symmetry_space_group_name_H-M   'P 1'
_cell_length_a   6.33077745
_cell_length_b   6.33077713
_cell_length_c   6.24902264
_cell_angle_alpha   95.58987878
_cell_angle_beta   95.58987075
_cell_angle_gamma   143.87198407
_symmetry_Int_Tables_number   1
_chemical_formula_structural   Pd2Pt6W
_chemical_formula_sum   'Pd2 Pt6 W1'
_cell_volume   140.18981648
_cell_formula_units_Z   1
loop_
 _symmetry_equiv_pos_site_id
 _symmetry_equiv_pos_as_xyz
  1  'x, y, z'
loop_
 _atom_site_type_symbol
 _atom_site_label
 _atom_site_symmetry_multiplicity
 _atom_site_fract_x
 _atom_site_fract_y
 _atom_site_fract_z
 _atom_site_occupancy
  Pd  Pd0  1  0.336631  0.336631  0.673260  1
  Pd  Pd1  1  0.663369  0.663369  0.326740  1
  Pt  Pt2  1  0.658514  0.341486  0.000000  1
  Pt  Pt3  1  0.341486  0.658514  0.000000  1
  Pt  Pt4  1  0.999454  0.328012  0.327465  1
  Pt  Pt5  1  0.000546  0.671988  0.672535  1
  Pt  Pt6  1  0.671988  0.000546  0.672535  1
  Pt  Pt7  1  0.328012  0.999454  0.327465  1
  W  W8  1  0.000000  0.000000  0.000000  1
