# generated using pymatgen
data_Er8ScCd5Ni4
_symmetry_space_group_name_H-M   'P 1'
_cell_length_a   10.62488900
_cell_length_b   10.62488900
_cell_length_c   3.57317000
_cell_angle_alpha   90.00000000
_cell_angle_beta   90.00000000
_cell_angle_gamma   90.00000000
_symmetry_Int_Tables_number   1
_chemical_formula_structural   Er8ScCd5Ni4
_chemical_formula_sum   'Er8 Sc1 Cd5 Ni4'
_cell_volume   403.36896636
_cell_formula_units_Z   1
loop_
 _symmetry_equiv_pos_site_id
 _symmetry_equiv_pos_as_xyz
  1  'x, y, z'
loop_
 _atom_site_type_symbol
 _atom_site_label
 _atom_site_symmetry_multiplicity
 _atom_site_fract_x
 _atom_site_fract_y
 _atom_site_fract_z
 _atom_site_occupancy
  Er  Er0  1  0.324947  0.324947  0.500000  1
  Er  Er1  1  0.675053  0.675053  0.500000  1
  Er  Er2  1  0.324947  0.675053  0.500000  1
  Er  Er3  1  0.675053  0.324947  0.500000  1
  Er  Er4  1  0.000000  0.279565  0.500000  1
  Er  Er5  1  0.000000  0.720435  0.500000  1
  Er  Er6  1  0.279565  0.000000  0.500000  1
  Er  Er7  1  0.720435  0.000000  0.500000  1
  Sc  Sc8  1  0.000000  0.000000  0.000000  1
  Cd  Cd9  1  0.500000  0.143082  0.000000  1
  Cd  Cd10  1  0.500000  0.856918  0.000000  1
  Cd  Cd11  1  0.143082  0.500000  0.000000  1
  Cd  Cd12  1  0.856918  0.500000  0.000000  1
  Cd  Cd13  1  0.500000  0.500000  0.000000  1
  Ni  Ni14  1  0.185122  0.185122  0.000000  1
  Ni  Ni15  1  0.814878  0.814878  0.000000  1
  Ni  Ni16  1  0.185122  0.814878  0.000000  1
  Ni  Ni17  1  0.814878  0.185122  0.000000  1
