# generated using pymatgen
data_Li2GeSbPt3
_symmetry_space_group_name_H-M   'P 1'
_cell_length_a   7.56307534
_cell_length_b   7.56307522
_cell_length_c   7.56307513
_cell_angle_alpha   33.07242812
_cell_angle_beta   33.07242652
_cell_angle_gamma   33.07242780
_symmetry_Int_Tables_number   1
_chemical_formula_structural   Li2GeSbPt3
_chemical_formula_sum   'Li2 Ge1 Sb1 Pt3'
_cell_volume   114.65687978
_cell_formula_units_Z   1
loop_
 _symmetry_equiv_pos_site_id
 _symmetry_equiv_pos_as_xyz
  1  'x, y, z'
loop_
 _atom_site_type_symbol
 _atom_site_label
 _atom_site_symmetry_multiplicity
 _atom_site_fract_x
 _atom_site_fract_y
 _atom_site_fract_z
 _atom_site_occupancy
  Li  Li0  1  0.242674  0.242674  0.242674  1
  Li  Li1  1  0.754736  0.754736  0.754736  1
  Ge  Ge2  1  0.004253  0.004253  0.004253  1
  Sb  Sb3  1  0.495632  0.495632  0.495632  1
  Pt  Pt4  1  0.367649  0.367649  0.367649  1
  Pt  Pt5  1  0.628205  0.628205  0.628205  1
  Pt  Pt6  1  0.881849  0.881849  0.881849  1
