# generated using pymatgen
data_MgInAg(MoO4)3
_symmetry_space_group_name_H-M   'P 1'
_cell_length_a   9.70382954
_cell_length_b   9.70382324
_cell_length_c   9.64407871
_cell_angle_alpha   120.21841000
_cell_angle_beta   120.21850855
_cell_angle_gamma   60.00099061
_symmetry_Int_Tables_number   1
_chemical_formula_structural   MgInAg(MoO4)3
_chemical_formula_sum   'Mg2 In2 Ag2 Mo6 O24'
_cell_volume   640.01926784
_cell_formula_units_Z   2
loop_
 _symmetry_equiv_pos_site_id
 _symmetry_equiv_pos_as_xyz
  1  'x, y, z'
loop_
 _atom_site_type_symbol
 _atom_site_label
 _atom_site_symmetry_multiplicity
 _atom_site_fract_x
 _atom_site_fract_y
 _atom_site_fract_z
 _atom_site_occupancy
  Mg  Mg0  1  0.027893  0.752216  0.170451  1
  Mg  Mg1  1  0.247785  0.972107  0.829550  1
  In  In2  1  0.750522  0.474746  0.337661  1
  In  In3  1  0.525253  0.249479  0.662338  1
  Ag  Ag4  1  0.383761  0.108834  0.237767  1
  Ag  Ag5  1  0.891167  0.616239  0.762233  1
  Mo  Mo6  1  0.930807  0.069193  0.999999  1
  Mo  Mo7  1  0.344961  0.362255  0.000277  1
  Mo  Mo8  1  0.137820  0.577264  0.499252  1
  Mo  Mo9  1  0.853381  0.146619  0.499999  1
  Mo  Mo10  1  0.422740  0.862182  0.500753  1
  Mo  Mo11  1  0.637745  0.655037  0.999722  1
  O  O12  1  0.811862  0.677258  0.002595  1
  O  O13  1  0.151759  0.536668  0.003312  1
  O  O14  1  0.953159  0.876116  0.003625  1
  O  O15  1  0.689777  0.614904  0.186335  1
  O  O16  1  0.890943  0.244268  0.186487  1
  O  O17  1  0.519829  0.414178  0.186749  1
  O  O18  1  0.071293  0.622752  0.314868  1
  O  O19  1  0.899573  0.982128  0.316367  1
  O  O20  1  0.257937  0.796322  0.317973  1
  O  O21  1  0.837552  0.348444  0.513899  1
  O  O22  1  0.624674  0.689984  0.514526  1
  O  O23  1  0.966147  0.561817  0.514356  1
  O  O24  1  0.438181  0.033853  0.485643  1
  O  O25  1  0.310016  0.375327  0.485474  1
  O  O26  1  0.651556  0.162449  0.486100  1
  O  O27  1  0.203678  0.742065  0.682028  1
  O  O28  1  0.017871  0.100429  0.683633  1
  O  O29  1  0.377250  0.928705  0.685133  1
  O  O30  1  0.585824  0.480169  0.813249  1
  O  O31  1  0.755732  0.109059  0.813512  1
  O  O32  1  0.385096  0.310222  0.813665  1
  O  O33  1  0.123884  0.046841  0.996374  1
  O  O34  1  0.463333  0.848239  0.996687  1
  O  O35  1  0.322740  0.188138  0.997405  1
