# generated using pymatgen
data_AcScS3
_symmetry_space_group_name_H-M   'P 1'
_cell_length_a   6.73387600
_cell_length_b   7.27800400
_cell_length_c   9.78254300
_cell_angle_alpha   90.00000000
_cell_angle_beta   90.00000000
_cell_angle_gamma   90.00000000
_symmetry_Int_Tables_number   1
_chemical_formula_structural   AcScS3
_chemical_formula_sum   'Ac4 Sc4 S12'
_cell_volume   479.43437615
_cell_formula_units_Z   4
loop_
 _symmetry_equiv_pos_site_id
 _symmetry_equiv_pos_as_xyz
  1  'x, y, z'
loop_
 _atom_site_type_symbol
 _atom_site_label
 _atom_site_symmetry_multiplicity
 _atom_site_fract_x
 _atom_site_fract_y
 _atom_site_fract_z
 _atom_site_occupancy
  Ac  Ac0  1  0.526562  0.413828  0.750000  1
  Ac  Ac1  1  0.473438  0.586172  0.250000  1
  Ac  Ac2  1  0.026562  0.086172  0.250000  1
  Ac  Ac3  1  0.973438  0.913828  0.750000  1
  Sc  Sc4  1  0.000000  0.500000  0.000000  1
  Sc  Sc5  1  0.000000  0.500000  0.500000  1
  Sc  Sc6  1  0.500000  0.000000  0.500000  1
  Sc  Sc7  1  0.500000  0.000000  0.000000  1
  S  S8  1  0.812435  0.192528  0.551399  1
  S  S9  1  0.187565  0.807472  0.051399  1
  S  S10  1  0.312435  0.307472  0.051399  1
  S  S11  1  0.687565  0.692528  0.551399  1
  S  S12  1  0.812435  0.192528  0.948601  1
  S  S13  1  0.187565  0.807472  0.448601  1
  S  S14  1  0.312435  0.307472  0.448601  1
  S  S15  1  0.687565  0.692528  0.948601  1
  S  S16  1  0.899565  0.478719  0.250000  1
  S  S17  1  0.100435  0.521281  0.750000  1
  S  S18  1  0.399565  0.021281  0.750000  1
  S  S19  1  0.600435  0.978719  0.250000  1
