# generated using pymatgen
data_Th4ZrSn3N
_symmetry_space_group_name_H-M   'P 1'
_cell_length_a   9.20083900
_cell_length_b   9.20083935
_cell_length_c   6.28182700
_cell_angle_alpha   90.00000000
_cell_angle_beta   90.00000000
_cell_angle_gamma   119.99999516
_symmetry_Int_Tables_number   1
_chemical_formula_structural   Th4ZrSn3N
_chemical_formula_sum   'Th8 Zr2 Sn6 N2'
_cell_volume   460.54439779
_cell_formula_units_Z   2
loop_
 _symmetry_equiv_pos_site_id
 _symmetry_equiv_pos_as_xyz
  1  'x, y, z'
loop_
 _atom_site_type_symbol
 _atom_site_label
 _atom_site_symmetry_multiplicity
 _atom_site_fract_x
 _atom_site_fract_y
 _atom_site_fract_z
 _atom_site_occupancy
  Th  Th0  1  0.666667  0.333333  0.000000  1
  Th  Th1  1  0.333333  0.666667  0.000000  1
  Th  Th2  1  0.772709  0.772709  0.749984  1
  Th  Th3  1  0.227291  0.000000  0.749984  1
  Th  Th4  1  0.000000  0.227291  0.749984  1
  Th  Th5  1  0.227291  0.227291  0.250016  1
  Th  Th6  1  0.772709  0.000000  0.250016  1
  Th  Th7  1  0.000000  0.772709  0.250016  1
  Zr  Zr8  1  0.333333  0.666667  0.500000  1
  Zr  Zr9  1  0.666667  0.333333  0.500000  1
  Sn  Sn10  1  0.405970  0.405970  0.729586  1
  Sn  Sn11  1  0.594030  0.000000  0.729586  1
  Sn  Sn12  1  0.000000  0.594030  0.729586  1
  Sn  Sn13  1  0.594030  0.594030  0.270414  1
  Sn  Sn14  1  0.405970  0.000000  0.270414  1
  Sn  Sn15  1  0.000000  0.405970  0.270414  1
  N  N16  1  0.000000  0.000000  0.000000  1
  N  N17  1  0.000000  0.000000  0.500000  1
