# generated using pymatgen
data_MgTa5(SiTc)6
_symmetry_space_group_name_H-M   'P 1'
_cell_length_a   7.64843355
_cell_length_b   7.55549563
_cell_length_c   7.64843394
_cell_angle_alpha   126.01595171
_cell_angle_beta   128.94621124
_cell_angle_gamma   77.75852772
_symmetry_Int_Tables_number   1
_chemical_formula_structural   MgTa5(SiTc)6
_chemical_formula_sum   'Mg1 Ta5 Si6 Tc6'
_cell_volume   269.17666631
_cell_formula_units_Z   1
loop_
 _symmetry_equiv_pos_site_id
 _symmetry_equiv_pos_as_xyz
  1  'x, y, z'
loop_
 _atom_site_type_symbol
 _atom_site_label
 _atom_site_symmetry_multiplicity
 _atom_site_fract_x
 _atom_site_fract_y
 _atom_site_fract_z
 _atom_site_occupancy
  Mg  Mg0  1  0.551390  0.100951  0.049561  1
  Ta  Ta1  1  0.449401  0.490111  0.540711  1
  Ta  Ta2  1  0.949697  0.493543  0.043846  1
  Ta  Ta3  1  0.049618  0.095598  0.545981  1
  Ta  Ta4  1  0.748709  0.898031  0.649321  1
  Ta  Ta5  1  0.245686  0.893087  0.147401  1
  Si  Si6  1  0.748631  0.496270  0.247639  1
  Si  Si7  1  0.253783  0.501512  0.747729  1
  Si  Si8  1  0.335369  0.829543  0.500576  1
  Si  Si9  1  0.664709  0.161591  0.493397  1
  Si  Si10  1  0.828967  0.829543  0.994174  1
  Si  Si11  1  0.168192  0.161591  0.996880  1
  Tc  Tc12  1  0.499969  0.241030  0.738980  1
  Tc  Tc13  1  0.002049  0.241030  0.241061  1
  Tc  Tc14  1  0.124049  0.755801  0.620802  1
  Tc  Tc15  1  0.878099  0.498582  0.631901  1
  Tc  Tc16  1  0.634999  0.755801  0.131753  1
  Tc  Tc17  1  0.366681  0.498582  0.120484  1
