# generated using pymatgen
data_Tb3Nd3Zn4Pt13
_symmetry_space_group_name_H-M   'P 1'
_cell_length_a   8.34250540
_cell_length_b   8.34250557
_cell_length_c   8.33981100
_cell_angle_alpha   109.46467786
_cell_angle_beta   109.46467828
_cell_angle_gamma   109.47776522
_symmetry_Int_Tables_number   1
_chemical_formula_structural   Tb3Nd3Zn4Pt13
_chemical_formula_sum   'Tb3 Nd3 Zn4 Pt13'
_cell_volume   446.85061984
_cell_formula_units_Z   1
loop_
 _symmetry_equiv_pos_site_id
 _symmetry_equiv_pos_as_xyz
  1  'x, y, z'
loop_
 _atom_site_type_symbol
 _atom_site_label
 _atom_site_symmetry_multiplicity
 _atom_site_fract_x
 _atom_site_fract_y
 _atom_site_fract_z
 _atom_site_occupancy
  Tb  Tb0  1  0.695380  0.695380  0.999706  1
  Tb  Tb1  1  0.304620  0.000000  0.304325  1
  Tb  Tb2  1  0.000000  0.304620  0.304325  1
  Nd  Nd3  1  0.297967  0.297967  0.000188  1
  Nd  Nd4  1  0.702033  0.000000  0.702221  1
  Nd  Nd5  1  0.000000  0.702033  0.702221  1
  Zn  Zn6  1  0.000000  0.000000  0.494672  1
  Zn  Zn7  1  0.000000  0.501344  0.998749  1
  Zn  Zn8  1  0.501344  0.000000  0.998749  1
  Zn  Zn9  1  0.498656  0.498656  0.497405  1
  Pt  Pt10  1  0.329232  0.329232  0.656648  1
  Pt  Pt11  1  0.670768  0.000000  0.327417  1
  Pt  Pt12  1  0.000000  0.670768  0.327417  1
  Pt  Pt13  1  0.670804  0.332353  0.001461  1
  Pt  Pt14  1  0.329196  0.661548  0.330657  1
  Pt  Pt15  1  0.000000  0.331502  0.666880  1
  Pt  Pt16  1  0.332353  0.670804  0.001461  1
  Pt  Pt17  1  0.331502  0.000000  0.666880  1
  Pt  Pt18  1  0.661548  0.329196  0.330657  1
  Pt  Pt19  1  0.668498  0.668498  0.335380  1
  Pt  Pt20  1  0.667647  0.338452  0.669108  1
  Pt  Pt21  1  0.338452  0.667647  0.669108  1
  Pt  Pt22  1  0.000000  0.000000  0.014367  1
