# generated using pymatgen
data_Tc5RuRh2
_symmetry_space_group_name_H-M   'P 1'
_cell_length_a   5.52156764
_cell_length_b   5.52156731
_cell_length_c   4.35864700
_cell_angle_alpha   90.00000000
_cell_angle_beta   90.00000000
_cell_angle_gamma   120.14861620
_symmetry_Int_Tables_number   1
_chemical_formula_structural   Tc5RuRh2
_chemical_formula_sum   'Tc5 Ru1 Rh2'
_cell_volume   114.90919094
_cell_formula_units_Z   1
loop_
 _symmetry_equiv_pos_site_id
 _symmetry_equiv_pos_as_xyz
  1  'x, y, z'
loop_
 _atom_site_type_symbol
 _atom_site_label
 _atom_site_symmetry_multiplicity
 _atom_site_fract_x
 _atom_site_fract_y
 _atom_site_fract_z
 _atom_site_occupancy
  Tc  Tc0  1  0.157966  0.321540  0.250000  1
  Tc  Tc1  1  0.678460  0.842034  0.250000  1
  Tc  Tc2  1  0.161425  0.838575  0.250000  1
  Tc  Tc3  1  0.839044  0.677996  0.750000  1
  Tc  Tc4  1  0.322004  0.160956  0.750000  1
  Ru  Ru5  1  0.838276  0.161724  0.750000  1
  Rh  Rh6  1  0.334724  0.665276  0.750000  1
  Rh  Rh7  1  0.668100  0.331900  0.250000  1
