# generated using pymatgen
data_Lu8Re9Si16Os3
_symmetry_space_group_name_H-M   'P 1'
_cell_length_a   6.73406394
_cell_length_b   6.73137918
_cell_length_c   12.61634400
_cell_angle_alpha   89.95178096
_cell_angle_beta   90.04353724
_cell_angle_gamma   89.80551743
_symmetry_Int_Tables_number   1
_chemical_formula_structural   Lu8Re9Si16Os3
_chemical_formula_sum   'Lu8 Re9 Si16 Os3'
_cell_volume   571.88937890
_cell_formula_units_Z   1
loop_
 _symmetry_equiv_pos_site_id
 _symmetry_equiv_pos_as_xyz
  1  'x, y, z'
loop_
 _atom_site_type_symbol
 _atom_site_label
 _atom_site_symmetry_multiplicity
 _atom_site_fract_x
 _atom_site_fract_y
 _atom_site_fract_z
 _atom_site_occupancy
  Lu  Lu0  1  0.007892  0.661538  0.030254  1
  Lu  Lu1  1  0.992104  0.340168  0.530999  1
  Lu  Lu2  1  0.340299  0.992906  0.468743  1
  Lu  Lu3  1  0.157931  0.492218  0.781086  1
  Lu  Lu4  1  0.843037  0.507024  0.279594  1
  Lu  Lu5  1  0.493503  0.158364  0.219970  1
  Lu  Lu6  1  0.505474  0.840527  0.719690  1
  Lu  Lu7  1  0.659606  0.008780  0.967967  1
  Re  Re8  1  0.665346  0.665381  0.499514  1
  Re  Re9  1  0.168223  0.832656  0.250187  1
  Re  Re10  1  0.334465  0.334988  0.002660  1
  Re  Re11  1  0.304282  0.468601  0.382957  1
  Re  Re12  1  0.691833  0.524586  0.882179  1
  Re  Re13  1  0.469410  0.306078  0.615815  1
  Re  Re14  1  0.533938  0.695587  0.118333  1
  Re  Re15  1  0.186525  0.976108  0.868536  1
  Re  Re16  1  0.832447  0.166288  0.747235  1
  Si  Si17  1  0.018827  0.731961  0.439177  1
  Si  Si18  1  0.612672  0.307668  0.432956  1
  Si  Si19  1  0.387270  0.694410  0.933281  1
  Si  Si20  1  0.191161  0.112701  0.683099  1
  Si  Si21  1  0.306955  0.612916  0.566208  1
  Si  Si22  1  0.692739  0.387199  0.067184  1
  Si  Si23  1  0.811764  0.889893  0.184739  1
  Si  Si24  1  0.111119  0.189826  0.315560  1
  Si  Si25  1  0.980981  0.270043  0.940157  1
  Si  Si26  1  0.732866  0.018118  0.561595  1
  Si  Si27  1  0.237727  0.481857  0.187666  1
  Si  Si28  1  0.763289  0.517045  0.687736  1
  Si  Si29  1  0.479346  0.232637  0.810491  1
  Si  Si30  1  0.518983  0.762279  0.312521  1
  Si  Si31  1  0.271687  0.979312  0.062133  1
  Si  Si32  1  0.885192  0.807238  0.815903  1
  Os  Os33  1  0.032622  0.808070  0.632251  1
  Os  Os34  1  0.969184  0.193044  0.132019  1
  Os  Os35  1  0.809305  0.031985  0.369600  1
