# generated using pymatgen
data_Pr13NdPd5Rh
_symmetry_space_group_name_H-M   'P 1'
_cell_length_a   10.27673200
_cell_length_b   10.27692110
_cell_length_c   6.52442600
_cell_angle_alpha   89.97960596
_cell_angle_beta   90.00000000
_cell_angle_gamma   119.99939777
_symmetry_Int_Tables_number   1
_chemical_formula_structural   Pr13NdPd5Rh
_chemical_formula_sum   'Pr13 Nd1 Pd5 Rh1'
_cell_volume   596.75160173
_cell_formula_units_Z   1
loop_
 _symmetry_equiv_pos_site_id
 _symmetry_equiv_pos_as_xyz
  1  'x, y, z'
loop_
 _atom_site_type_symbol
 _atom_site_label
 _atom_site_symmetry_multiplicity
 _atom_site_fract_x
 _atom_site_fract_y
 _atom_site_fract_z
 _atom_site_occupancy
  Pr  Pr0  1  0.666598  0.333194  0.952196  1
  Pr  Pr1  1  0.126036  0.872789  0.242162  1
  Pr  Pr2  1  0.746754  0.872789  0.242162  1
  Pr  Pr3  1  0.127719  0.255437  0.249838  1
  Pr  Pr4  1  0.880416  0.130915  0.740543  1
  Pr  Pr5  1  0.250498  0.130915  0.740543  1
  Pr  Pr6  1  0.872584  0.745168  0.739300  1
  Pr  Pr7  1  0.536566  0.460197  0.444657  1
  Pr  Pr8  1  0.923631  0.460197  0.444657  1
  Pr  Pr9  1  0.537678  0.075356  0.448543  1
  Pr  Pr10  1  0.455934  0.536024  0.943789  1
  Pr  Pr11  1  0.080090  0.536024  0.943789  1
  Pr  Pr12  1  0.462404  0.924806  0.949034  1
  Nd  Nd13  1  0.331476  0.662953  0.462960  1
  Pd  Pd14  1  0.810345  0.187612  0.193154  1
  Pd  Pd15  1  0.377268  0.187612  0.193154  1
  Pd  Pd16  1  0.811294  0.622590  0.193082  1
  Pd  Pd17  1  0.189209  0.813134  0.693959  1
  Pd  Pd18  1  0.623925  0.813134  0.693959  1
  Rh  Rh19  1  0.189579  0.379156  0.690606  1
