# generated using pymatgen
data_Ho3Er3Co2
_symmetry_space_group_name_H-M   'P 1'
_cell_length_a   6.15494666
_cell_length_b   6.91623900
_cell_length_c   9.34451553
_cell_angle_alpha   90.00000000
_cell_angle_beta   90.08419024
_cell_angle_gamma   90.00000000
_symmetry_Int_Tables_number   1
_chemical_formula_structural   Ho3Er3Co2
_chemical_formula_sum   'Ho6 Er6 Co4'
_cell_volume   397.78701939
_cell_formula_units_Z   2
loop_
 _symmetry_equiv_pos_site_id
 _symmetry_equiv_pos_as_xyz
  1  'x, y, z'
loop_
 _atom_site_type_symbol
 _atom_site_label
 _atom_site_symmetry_multiplicity
 _atom_site_fract_x
 _atom_site_fract_y
 _atom_site_fract_z
 _atom_site_occupancy
  Ho  Ho0  1  0.324043  0.675525  0.067118  1
  Ho  Ho1  1  0.175957  0.175525  0.432882  1
  Ho  Ho2  1  0.861363  0.539969  0.250153  1
  Ho  Ho3  1  0.638637  0.039969  0.249847  1
  Ho  Ho4  1  0.137251  0.459545  0.750013  1
  Ho  Ho5  1  0.362749  0.959545  0.749987  1
  Er  Er6  1  0.675548  0.324970  0.567574  1
  Er  Er7  1  0.824452  0.824970  0.932426  1
  Er  Er8  1  0.675416  0.325083  0.932510  1
  Er  Er9  1  0.824584  0.825083  0.567490  1
  Er  Er10  1  0.324587  0.675157  0.433497  1
  Er  Er11  1  0.175413  0.175157  0.066503  1
  Co  Co12  1  0.050358  0.885275  0.250373  1
  Co  Co13  1  0.449642  0.385275  0.249627  1
  Co  Co14  1  0.950958  0.114477  0.751295  1
  Co  Co15  1  0.549042  0.614477  0.748705  1
