# generated using pymatgen
data_Si2Tc(Ni2Mo)3
_symmetry_space_group_name_H-M   'P 1'
_cell_length_a   4.74739500
_cell_length_b   4.74739417
_cell_length_c   7.48650000
_cell_angle_alpha   90.00000000
_cell_angle_beta   90.00000000
_cell_angle_gamma   119.99999883
_symmetry_Int_Tables_number   1
_chemical_formula_structural   Si2Tc(Ni2Mo)3
_chemical_formula_sum   'Si2 Tc1 Ni6 Mo3'
_cell_volume   146.12352010
_cell_formula_units_Z   1
loop_
 _symmetry_equiv_pos_site_id
 _symmetry_equiv_pos_as_xyz
  1  'x, y, z'
loop_
 _atom_site_type_symbol
 _atom_site_label
 _atom_site_symmetry_multiplicity
 _atom_site_fract_x
 _atom_site_fract_y
 _atom_site_fract_z
 _atom_site_occupancy
  Si  Si0  1  0.000000  0.000000  0.499142  1
  Si  Si1  1  0.000000  0.000000  0.998696  1
  Tc  Tc2  1  0.333333  0.666667  0.437087  1
  Ni  Ni3  1  0.830422  0.169578  0.249968  1
  Ni  Ni4  1  0.830422  0.660845  0.249968  1
  Ni  Ni5  1  0.339155  0.169578  0.249968  1
  Ni  Ni6  1  0.169782  0.830218  0.749346  1
  Ni  Ni7  1  0.169782  0.339563  0.749346  1
  Ni  Ni8  1  0.660437  0.830218  0.749346  1
  Mo  Mo9  1  0.666667  0.333333  0.563053  1
  Mo  Mo10  1  0.666667  0.333333  0.934610  1
  Mo  Mo11  1  0.333333  0.666667  0.069470  1
