# generated using pymatgen
data_Tm4TiTc3F28
_symmetry_space_group_name_H-M   'P 1'
_cell_length_a   5.52425816
_cell_length_b   8.80750521
_cell_length_c   11.90199100
_cell_angle_alpha   62.59292890
_cell_angle_beta   90.03707872
_cell_angle_gamma   90.03229667
_symmetry_Int_Tables_number   1
_chemical_formula_structural   Tm4TiTc3F28
_chemical_formula_sum   'Tm4 Ti1 Tc3 F28'
_cell_volume   514.09249235
_cell_formula_units_Z   1
loop_
 _symmetry_equiv_pos_site_id
 _symmetry_equiv_pos_as_xyz
  1  'x, y, z'
loop_
 _atom_site_type_symbol
 _atom_site_label
 _atom_site_symmetry_multiplicity
 _atom_site_fract_x
 _atom_site_fract_y
 _atom_site_fract_z
 _atom_site_occupancy
  Tm  Tm0  1  0.259809  0.813108  0.267568  1
  Tm  Tm1  1  0.741352  0.185856  0.734951  1
  Tm  Tm2  1  0.758982  0.183264  0.236841  1
  Tm  Tm3  1  0.242343  0.813830  0.762517  1
  Ti  Ti4  1  0.742204  0.725228  0.544026  1
  Tc  Tc5  1  0.758906  0.726571  0.043668  1
  Tc  Tc6  1  0.241952  0.273287  0.956576  1
  Tc  Tc7  1  0.258048  0.272879  0.457188  1
  F  F8  1  0.944827  0.709236  0.423164  1
  F  F9  1  0.051622  0.294503  0.582512  1
  F  F10  1  0.448262  0.293423  0.082617  1
  F  F11  1  0.552488  0.706574  0.917269  1
  F  F12  1  0.475834  0.729449  0.142550  1
  F  F13  1  0.525488  0.271752  0.857390  1
  F  F14  1  0.973137  0.268133  0.360383  1
  F  F15  1  0.012323  0.732616  0.639186  1
  F  F16  1  0.959914  0.746030  0.174084  1
  F  F17  1  0.040627  0.255245  0.825995  1
  F  F18  1  0.459122  0.252809  0.327719  1
  F  F19  1  0.542585  0.747054  0.667714  1
  F  F20  1  0.773359  0.476317  0.142641  1
  F  F21  1  0.226855  0.523657  0.856078  1
  F  F22  1  0.271322  0.523203  0.359792  1
  F  F23  1  0.725793  0.484725  0.637114  1
  F  F24  1  0.946321  0.277091  0.048295  1
  F  F25  1  0.053858  0.722265  0.951520  1
  F  F26  1  0.454461  0.723249  0.454528  1
  F  F27  1  0.555005  0.279296  0.547080  1
  F  F28  1  0.741431  0.965356  0.447166  1
  F  F29  1  0.258131  0.023825  0.552965  1
  F  F30  1  0.242620  0.024618  0.054423  1
  F  F31  1  0.757787  0.975883  0.945911  1
  F  F32  1  0.578995  0.971677  0.231984  1
  F  F33  1  0.421670  0.027682  0.766230  1
  F  F34  1  0.080317  0.027239  0.269031  1
  F  F35  1  0.922255  0.973074  0.731325  1
