# generated using pymatgen
data_RbHf4TlCl18
_symmetry_space_group_name_H-M   'P 1'
_cell_length_a   6.72276700
_cell_length_b   9.75631026
_cell_length_c   12.63418100
_cell_angle_alpha   65.47977829
_cell_angle_beta   90.00000000
_cell_angle_gamma   90.00000000
_symmetry_Int_Tables_number   1
_chemical_formula_structural   RbHf4TlCl18
_chemical_formula_sum   'Rb1 Hf4 Tl1 Cl18'
_cell_volume   753.93478304
_cell_formula_units_Z   1
loop_
 _symmetry_equiv_pos_site_id
 _symmetry_equiv_pos_as_xyz
  1  'x, y, z'
loop_
 _atom_site_type_symbol
 _atom_site_label
 _atom_site_symmetry_multiplicity
 _atom_site_fract_x
 _atom_site_fract_y
 _atom_site_fract_z
 _atom_site_occupancy
  Rb  Rb0  1  0.412873  0.500000  0.250000  1
  Hf  Hf1  1  0.260264  0.821060  0.868004  1
  Hf  Hf2  1  0.739771  0.179178  0.131735  1
  Hf  Hf3  1  0.260264  0.178940  0.631996  1
  Hf  Hf4  1  0.739771  0.820822  0.368265  1
  Tl  Tl5  1  0.586329  0.500000  0.750000  1
  Cl  Cl6  1  0.114362  0.783794  0.047001  1
  Cl  Cl7  1  0.884648  0.218067  0.951969  1
  Cl  Cl8  1  0.114362  0.216206  0.452999  1
  Cl  Cl9  1  0.884648  0.781933  0.548031  1
  Cl  Cl10  1  0.119043  0.615194  0.841833  1
  Cl  Cl11  1  0.881767  0.384349  0.158434  1
  Cl  Cl12  1  0.119043  0.384806  0.658167  1
  Cl  Cl13  1  0.881767  0.615651  0.341566  1
  Cl  Cl14  1  0.981075  0.000000  0.750000  1
  Cl  Cl15  1  0.018748  0.000000  0.250000  1
  Cl  Cl16  1  0.404002  0.078816  0.841989  1
  Cl  Cl17  1  0.595857  0.921294  0.158089  1
  Cl  Cl18  1  0.404002  0.921184  0.658011  1
  Cl  Cl19  1  0.595857  0.078706  0.341911  1
  Cl  Cl20  1  0.570271  0.703114  0.941412  1
  Cl  Cl21  1  0.430504  0.297467  0.057457  1
  Cl  Cl22  1  0.570271  0.296886  0.558588  1
  Cl  Cl23  1  0.430504  0.702533  0.442543  1
