# generated using pymatgen
data_Y4Er2Tm6TlCo5
_symmetry_space_group_name_H-M   'P 1'
_cell_length_a   8.23521363
_cell_length_b   8.23392407
_cell_length_c   8.23521374
_cell_angle_alpha   110.88832143
_cell_angle_beta   110.52419284
_cell_angle_gamma   107.03473170
_symmetry_Int_Tables_number   1
_chemical_formula_structural   Y4Er2Tm6TlCo5
_chemical_formula_sum   'Y4 Er2 Tm6 Tl1 Co5'
_cell_volume   429.24936001
_cell_formula_units_Z   1
loop_
 _symmetry_equiv_pos_site_id
 _symmetry_equiv_pos_as_xyz
  1  'x, y, z'
loop_
 _atom_site_type_symbol
 _atom_site_label
 _atom_site_symmetry_multiplicity
 _atom_site_fract_x
 _atom_site_fract_y
 _atom_site_fract_z
 _atom_site_occupancy
  Y  Y0  1  0.290790  0.188123  0.478353  1
  Y  Y1  1  0.709210  0.811877  0.521647  1
  Y  Y2  1  0.290232  0.811877  0.102667  1
  Y  Y3  1  0.709768  0.188123  0.897333  1
  Er  Er4  1  0.209407  0.017954  0.808547  1
  Er  Er5  1  0.790593  0.982046  0.191453  1
  Tm  Tm6  1  0.621504  0.314454  0.307860  1
  Tm  Tm7  1  0.378496  0.685546  0.692140  1
  Tm  Tm8  1  0.006594  0.314454  0.692950  1
  Tm  Tm9  1  0.993406  0.685546  0.307050  1
  Tm  Tm10  1  0.209572  0.401250  0.191678  1
  Tm  Tm11  1  0.790428  0.598750  0.808322  1
  Tl  Tl12  1  0.500000  0.500000  0.000000  1
  Co  Co13  1  0.000228  0.378962  0.378735  1
  Co  Co14  1  0.999772  0.621038  0.621265  1
  Co  Co15  1  0.386885  0.886494  0.499609  1
  Co  Co16  1  0.613115  0.113506  0.500391  1
  Co  Co17  1  0.000000  0.000000  0.000000  1
