# generated using pymatgen
data_Na6As4W
_symmetry_space_group_name_H-M   'P 1'
_cell_length_a   9.43004400
_cell_length_b   9.43004379
_cell_length_c   7.38569000
_cell_angle_alpha   90.00000000
_cell_angle_beta   90.00000000
_cell_angle_gamma   119.99999371
_symmetry_Int_Tables_number   1
_chemical_formula_structural   Na6As4W
_chemical_formula_sum   'Na12 As8 W2'
_cell_volume   568.78634670
_cell_formula_units_Z   2
loop_
 _symmetry_equiv_pos_site_id
 _symmetry_equiv_pos_as_xyz
  1  'x, y, z'
loop_
 _atom_site_type_symbol
 _atom_site_label
 _atom_site_symmetry_multiplicity
 _atom_site_fract_x
 _atom_site_fract_y
 _atom_site_fract_z
 _atom_site_occupancy
  Na  Na0  1  0.148234  0.296468  0.285089  1
  Na  Na1  1  0.851766  0.148234  0.785089  1
  Na  Na2  1  0.532443  0.467557  0.108199  1
  Na  Na3  1  0.064885  0.532443  0.608199  1
  Na  Na4  1  0.467557  0.935115  0.608199  1
  Na  Na5  1  0.532443  0.064885  0.108199  1
  Na  Na6  1  0.935115  0.467557  0.108199  1
  Na  Na7  1  0.467557  0.532443  0.608199  1
  Na  Na8  1  0.148234  0.851766  0.285089  1
  Na  Na9  1  0.703532  0.851766  0.285089  1
  Na  Na10  1  0.851766  0.703532  0.785089  1
  Na  Na11  1  0.296468  0.148234  0.785089  1
  As  As12  1  0.807515  0.615030  0.392205  1
  As  As13  1  0.384970  0.192485  0.392205  1
  As  As14  1  0.333333  0.666667  0.322867  1
  As  As15  1  0.666667  0.333333  0.822867  1
  As  As16  1  0.807515  0.192485  0.392205  1
  As  As17  1  0.192485  0.807515  0.892205  1
  As  As18  1  0.192485  0.384970  0.892205  1
  As  As19  1  0.615030  0.807515  0.892205  1
  W  W20  1  0.666667  0.333333  0.495555  1
  W  W21  1  0.333333  0.666667  0.995555  1
