# generated using pymatgen
data_Li(Nd4Pt3)2
_symmetry_space_group_name_H-M   'P 1'
_cell_length_a   7.75730991
_cell_length_b   7.75731003
_cell_length_c   7.75731039
_cell_angle_alpha   69.83077485
_cell_angle_beta   69.83077625
_cell_angle_gamma   69.83078236
_symmetry_Int_Tables_number   1
_chemical_formula_structural   Li(Nd4Pt3)2
_chemical_formula_sum   'Li1 Nd8 Pt6'
_cell_volume   397.55912721
_cell_formula_units_Z   1
loop_
 _symmetry_equiv_pos_site_id
 _symmetry_equiv_pos_as_xyz
  1  'x, y, z'
loop_
 _atom_site_type_symbol
 _atom_site_label
 _atom_site_symmetry_multiplicity
 _atom_site_fract_x
 _atom_site_fract_y
 _atom_site_fract_z
 _atom_site_occupancy
  Li  Li0  1  0.000000  0.000000  0.000000  1
  Nd  Nd1  1  0.816224  0.816224  0.816224  1
  Nd  Nd2  1  0.183776  0.183776  0.183776  1
  Nd  Nd3  1  0.321358  0.611092  0.857418  1
  Nd  Nd4  1  0.857418  0.321358  0.611092  1
  Nd  Nd5  1  0.611092  0.857418  0.321358  1
  Nd  Nd6  1  0.678642  0.388908  0.142582  1
  Nd  Nd7  1  0.142582  0.678642  0.388908  1
  Nd  Nd8  1  0.388908  0.142582  0.678642  1
  Pt  Pt9  1  0.179269  0.952481  0.576132  1
  Pt  Pt10  1  0.576132  0.179269  0.952481  1
  Pt  Pt11  1  0.952481  0.576132  0.179269  1
  Pt  Pt12  1  0.820731  0.047519  0.423868  1
  Pt  Pt13  1  0.423868  0.820731  0.047519  1
  Pt  Pt14  1  0.047519  0.423868  0.820731  1
