# generated using pymatgen
data_Nd2Fe2P7(Ir3Ru2)2
_symmetry_space_group_name_H-M   'P 1'
_cell_length_a   9.43387823
_cell_length_b   9.51069835
_cell_length_c   3.90215100
_cell_angle_alpha   90.00000000
_cell_angle_beta   90.00000000
_cell_angle_gamma   119.90733578
_symmetry_Int_Tables_number   1
_chemical_formula_structural   Nd2Fe2P7(Ir3Ru2)2
_chemical_formula_sum   'Nd2 Fe2 P7 Ir6 Ru4'
_cell_volume   303.48843101
_cell_formula_units_Z   1
loop_
 _symmetry_equiv_pos_site_id
 _symmetry_equiv_pos_as_xyz
  1  'x, y, z'
loop_
 _atom_site_type_symbol
 _atom_site_label
 _atom_site_symmetry_multiplicity
 _atom_site_fract_x
 _atom_site_fract_y
 _atom_site_fract_z
 _atom_site_occupancy
  Nd  Nd0  1  0.666884  0.333354  0.000000  1
  Nd  Nd1  1  0.332167  0.665983  0.500000  1
  Fe  Fe2  1  0.843492  0.729408  0.000000  1
  Fe  Fe3  1  0.885177  0.156279  0.000000  1
  P  P4  1  0.290985  0.884843  0.000000  1
  P  P5  1  0.601395  0.708798  0.000000  1
  P  P6  1  0.106683  0.398506  0.000000  1
  P  P7  1  0.398463  0.283961  0.500000  1
  P  P8  1  0.882592  0.602240  0.500000  1
  P  P9  1  0.721924  0.116279  0.500000  1
  P  P10  1  0.987421  0.994609  0.000000  1
  Ir  Ir11  1  0.061143  0.625953  0.000000  1
  Ir  Ir12  1  0.568218  0.935380  0.000000  1
  Ir  Ir13  1  0.373174  0.440459  0.000000  1
  Ir  Ir14  1  0.444594  0.056568  0.500000  1
  Ir  Ir15  1  0.617294  0.562040  0.500000  1
  Ir  Ir16  1  0.940614  0.383784  0.500000  1
  Ru  Ru17  1  0.264725  0.112226  0.000000  1
  Ru  Ru18  1  0.098379  0.859590  0.500000  1
  Ru  Ru19  1  0.778672  0.907522  0.500000  1
  Ru  Ru20  1  0.136002  0.242217  0.500000  1
