# generated using pymatgen
data_Er9Cd5Pt4
_symmetry_space_group_name_H-M   'P 1'
_cell_length_a   10.77987900
_cell_length_b   10.77987900
_cell_length_c   3.73765400
_cell_angle_alpha   90.00000000
_cell_angle_beta   90.00000000
_cell_angle_gamma   90.00000000
_symmetry_Int_Tables_number   1
_chemical_formula_structural   Er9Cd5Pt4
_chemical_formula_sum   'Er9 Cd5 Pt4'
_cell_volume   434.33704051
_cell_formula_units_Z   1
loop_
 _symmetry_equiv_pos_site_id
 _symmetry_equiv_pos_as_xyz
  1  'x, y, z'
loop_
 _atom_site_type_symbol
 _atom_site_label
 _atom_site_symmetry_multiplicity
 _atom_site_fract_x
 _atom_site_fract_y
 _atom_site_fract_z
 _atom_site_occupancy
  Er  Er0  1  0.329943  0.329943  0.500000  1
  Er  Er1  1  0.670057  0.670057  0.500000  1
  Er  Er2  1  0.329943  0.670057  0.500000  1
  Er  Er3  1  0.670057  0.329943  0.500000  1
  Er  Er4  1  0.000000  0.284767  0.500000  1
  Er  Er5  1  0.000000  0.715233  0.500000  1
  Er  Er6  1  0.284767  0.000000  0.500000  1
  Er  Er7  1  0.715233  0.000000  0.500000  1
  Er  Er8  1  0.000000  0.000000  0.000000  1
  Cd  Cd9  1  0.500000  0.146787  0.000000  1
  Cd  Cd10  1  0.500000  0.853213  0.000000  1
  Cd  Cd11  1  0.146787  0.500000  0.000000  1
  Cd  Cd12  1  0.853213  0.500000  0.000000  1
  Cd  Cd13  1  0.500000  0.500000  0.000000  1
  Pt  Pt14  1  0.192029  0.192029  0.000000  1
  Pt  Pt15  1  0.807971  0.807971  0.000000  1
  Pt  Pt16  1  0.192029  0.807971  0.000000  1
  Pt  Pt17  1  0.807971  0.192029  0.000000  1
