# generated using pymatgen
data_Zr9Sc3(AlIr2)4
_symmetry_space_group_name_H-M   'P 1'
_cell_length_a   8.56050958
_cell_length_b   8.56789056
_cell_length_c   8.55238485
_cell_angle_alpha   60.00270510
_cell_angle_beta   59.96607654
_cell_angle_gamma   59.90878387
_symmetry_Int_Tables_number   1
_chemical_formula_structural   Zr9Sc3(AlIr2)4
_chemical_formula_sum   'Zr9 Sc3 Al4 Ir8'
_cell_volume   443.14212033
_cell_formula_units_Z   1
loop_
 _symmetry_equiv_pos_site_id
 _symmetry_equiv_pos_as_xyz
  1  'x, y, z'
loop_
 _atom_site_type_symbol
 _atom_site_label
 _atom_site_symmetry_multiplicity
 _atom_site_fract_x
 _atom_site_fract_y
 _atom_site_fract_z
 _atom_site_occupancy
  Zr  Zr0  1  0.194226  0.805774  0.194226  1
  Zr  Zr1  1  0.193267  0.806465  0.805641  1
  Zr  Zr2  1  0.805642  0.194627  0.193266  1
  Zr  Zr3  1  0.445208  0.442918  0.055155  1
  Zr  Zr4  1  0.055154  0.056721  0.445208  1
  Zr  Zr5  1  0.444598  0.055402  0.444599  1
  Zr  Zr6  1  0.055276  0.444724  0.055276  1
  Zr  Zr7  1  0.053882  0.444340  0.446552  1
  Zr  Zr8  1  0.446551  0.055226  0.053883  1
  Sc  Sc9  1  0.804640  0.805441  0.194664  1
  Sc  Sc10  1  0.194665  0.195254  0.804640  1
  Sc  Sc11  1  0.805268  0.194732  0.805267  1
  Al  Al12  1  0.126198  0.622957  0.625294  1
  Al  Al13  1  0.623802  0.126170  0.626140  1
  Al  Al14  1  0.625294  0.625551  0.126198  1
  Al  Al15  1  0.626140  0.623887  0.623802  1
  Ir  Ir16  1  0.761973  0.412136  0.412226  1
  Ir  Ir17  1  0.411674  0.762241  0.412766  1
  Ir  Ir18  1  0.412226  0.413666  0.761973  1
  Ir  Ir19  1  0.412766  0.413318  0.411674  1
  Ir  Ir20  1  0.487665  0.836026  0.838110  1
  Ir  Ir21  1  0.836376  0.488057  0.839399  1
  Ir  Ir22  1  0.838110  0.838199  0.487665  1
  Ir  Ir23  1  0.839399  0.836169  0.836376  1
