# generated using pymatgen
data_CsRbZr4Al2(PO4)8
_symmetry_space_group_name_H-M   'P 1'
_cell_length_a   8.86450100
_cell_length_b   9.55197000
_cell_length_c   18.27578300
_cell_angle_alpha   90.00000000
_cell_angle_beta   90.00000000
_cell_angle_gamma   90.00000000
_symmetry_Int_Tables_number   1
_chemical_formula_structural   CsRbZr4Al2(PO4)8
_chemical_formula_sum   'Cs2 Rb2 Zr8 Al4 P16 O64'
_cell_volume   1547.47355451
_cell_formula_units_Z   2
loop_
 _symmetry_equiv_pos_site_id
 _symmetry_equiv_pos_as_xyz
  1  'x, y, z'
loop_
 _atom_site_type_symbol
 _atom_site_label
 _atom_site_symmetry_multiplicity
 _atom_site_fract_x
 _atom_site_fract_y
 _atom_site_fract_z
 _atom_site_occupancy
  Cs  Cs0  1  0.345443  0.748464  0.750000  1
  Cs  Cs1  1  0.654557  0.251536  0.250000  1
  Rb  Rb2  1  0.333659  0.760154  0.250000  1
  Rb  Rb3  1  0.666341  0.239846  0.750000  1
  Zr  Zr4  1  0.249564  0.030948  0.428651  1
  Zr  Zr5  1  0.750436  0.969052  0.928651  1
  Zr  Zr6  1  0.248374  0.469044  0.571537  1
  Zr  Zr7  1  0.751626  0.530956  0.071537  1
  Zr  Zr8  1  0.750436  0.969052  0.571349  1
  Zr  Zr9  1  0.249564  0.030948  0.071349  1
  Zr  Zr10  1  0.751626  0.530956  0.428463  1
  Zr  Zr11  1  0.248374  0.469044  0.928463  1
  Al  Al12  1  0.800745  0.898337  0.250000  1
  Al  Al13  1  0.199255  0.101663  0.750000  1
  Al  Al14  1  0.798779  0.600960  0.750000  1
  Al  Al15  1  0.201221  0.399040  0.250000  1
  P  P16  1  0.099291  0.077075  0.250000  1
  P  P17  1  0.900709  0.922925  0.750000  1
  P  P18  1  0.096644  0.422155  0.750000  1
  P  P19  1  0.903356  0.577845  0.250000  1
  P  P20  1  0.034719  0.750330  0.500184  1
  P  P21  1  0.965281  0.249670  0.000184  1
  P  P22  1  0.965281  0.249670  0.499816  1
  P  P23  1  0.034719  0.750330  0.999816  1
  P  P24  1  0.607192  0.872591  0.397641  1
  P  P25  1  0.392808  0.127409  0.897641  1
  P  P26  1  0.607980  0.626109  0.601873  1
  P  P27  1  0.392020  0.373891  0.101873  1
  P  P28  1  0.392808  0.127409  0.602359  1
  P  P29  1  0.607192  0.872591  0.102359  1
  P  P30  1  0.392020  0.373891  0.398127  1
  P  P31  1  0.607980  0.626109  0.898127  1
  O  O32  1  0.106527  0.238907  0.250000  1
  O  O33  1  0.893473  0.761093  0.750000  1
  O  O34  1  0.102905  0.260382  0.750000  1
  O  O35  1  0.897095  0.739618  0.250000  1
  O  O36  1  0.929259  0.038856  0.250000  1
  O  O37  1  0.070741  0.961144  0.750000  1
  O  O38  1  0.926373  0.459815  0.750000  1
  O  O39  1  0.073627  0.540185  0.250000  1
  O  O40  1  0.177243  0.015455  0.317818  1
  O  O41  1  0.822757  0.984545  0.817818  1
  O  O42  1  0.174596  0.483043  0.682048  1
  O  O43  1  0.825404  0.516957  0.182048  1
  O  O44  1  0.822757  0.984545  0.682182  1
  O  O45  1  0.177243  0.015455  0.182182  1
  O  O46  1  0.825404  0.516957  0.317952  1
  O  O47  1  0.174596  0.483043  0.817952  1
  O  O48  1  0.064841  0.159707  0.448744  1
  O  O49  1  0.935159  0.840293  0.948744  1
  O  O50  1  0.064137  0.339494  0.551208  1
  O  O51  1  0.935862  0.660506  0.051207  1
  O  O52  1  0.935159  0.840293  0.551256  1
  O  O53  1  0.064841  0.159707  0.051256  1
  O  O54  1  0.935863  0.660506  0.448792  1
  O  O55  1  0.064138  0.339494  0.948793  1
  O  O56  1  0.135112  0.847775  0.453351  1
  O  O57  1  0.864888  0.152225  0.953351  1
  O  O58  1  0.134574  0.652995  0.547304  1
  O  O59  1  0.865426  0.347005  0.047304  1
  O  O60  1  0.864888  0.152225  0.546649  1
  O  O61  1  0.135112  0.847775  0.046649  1
  O  O62  1  0.865426  0.347005  0.452696  1
  O  O63  1  0.134574  0.652995  0.952696  1
  O  O64  1  0.438113  0.910666  0.393847  1
  O  O65  1  0.561887  0.089334  0.893847  1
  O  O66  1  0.438954  0.587570  0.603944  1
  O  O67  1  0.561046  0.412430  0.103944  1
  O  O68  1  0.561887  0.089334  0.606153  1
  O  O69  1  0.438113  0.910666  0.106153  1
  O  O70  1  0.561046  0.412430  0.396056  1
  O  O71  1  0.438954  0.587570  0.896056  1
  O  O72  1  0.681577  0.946880  0.463053  1
  O  O73  1  0.318423  0.053120  0.963053  1
  O  O74  1  0.685139  0.552829  0.537052  1
  O  O75  1  0.314861  0.447171  0.037052  1
  O  O76  1  0.318423  0.053120  0.536947  1
  O  O77  1  0.681577  0.946880  0.036947  1
  O  O78  1  0.314861  0.447171  0.462948  1
  O  O79  1  0.685139  0.552829  0.962948  1
  O  O80  1  0.624636  0.712649  0.401116  1
  O  O81  1  0.375364  0.287351  0.901116  1
  O  O82  1  0.624806  0.786343  0.599114  1
  O  O83  1  0.375194  0.213657  0.099114  1
  O  O84  1  0.375364  0.287351  0.598884  1
  O  O85  1  0.624636  0.712649  0.098884  1
  O  O86  1  0.375194  0.213657  0.400886  1
  O  O87  1  0.624806  0.786343  0.900886  1
  O  O88  1  0.681609  0.925957  0.325388  1
  O  O89  1  0.318391  0.074043  0.825388  1
  O  O90  1  0.679701  0.572240  0.674676  1
  O  O91  1  0.320299  0.427760  0.174676  1
  O  O92  1  0.318391  0.074043  0.674612  1
  O  O93  1  0.681609  0.925957  0.174612  1
  O  O94  1  0.320299  0.427760  0.325324  1
  O  O95  1  0.679701  0.572240  0.825324  1
