# generated using pymatgen
data_Dy5Er11Zn3InRh4
_symmetry_space_group_name_H-M   'P 1'
_cell_length_a   9.49559327
_cell_length_b   9.48198775
_cell_length_c   9.50357924
_cell_angle_alpha   59.76419034
_cell_angle_beta   59.74342329
_cell_angle_gamma   59.81575824
_symmetry_Int_Tables_number   1
_chemical_formula_structural   Dy5Er11Zn3InRh4
_chemical_formula_sum   'Dy5 Er11 Zn3 In1 Rh4'
_cell_volume   601.95450293
_cell_formula_units_Z   1
loop_
 _symmetry_equiv_pos_site_id
 _symmetry_equiv_pos_as_xyz
  1  'x, y, z'
loop_
 _atom_site_type_symbol
 _atom_site_label
 _atom_site_symmetry_multiplicity
 _atom_site_fract_x
 _atom_site_fract_y
 _atom_site_fract_z
 _atom_site_occupancy
  Dy  Dy0  1  0.189420  0.189735  0.810647  1
  Dy  Dy1  1  0.436505  0.062983  0.062869  1
  Dy  Dy2  1  0.433345  0.059679  0.433680  1
  Dy  Dy3  1  0.062258  0.437083  0.063542  1
  Dy  Dy4  1  0.647588  0.057613  0.646296  1
  Er  Er5  1  0.192104  0.808839  0.809879  1
  Er  Er6  1  0.062022  0.063323  0.436700  1
  Er  Er7  1  0.810361  0.189796  0.189734  1
  Er  Er8  1  0.810282  0.809440  0.191828  1
  Er  Er9  1  0.646814  0.646625  0.058736  1
  Er  Er10  1  0.648007  0.647992  0.647285  1
  Er  Er11  1  0.058405  0.435104  0.434305  1
  Er  Er12  1  0.057832  0.647511  0.646238  1
  Er  Er13  1  0.809558  0.192101  0.809667  1
  Er  Er14  1  0.434679  0.435660  0.058695  1
  Er  Er15  1  0.190164  0.809486  0.190467  1
  Zn  Zn16  1  0.421444  0.742095  0.422357  1
  Zn  Zn17  1  0.422060  0.422778  0.741946  1
  Zn  Zn18  1  0.742993  0.421811  0.421994  1
  In  In19  1  0.422368  0.423519  0.422138  1
  Rh  Rh20  1  0.854723  0.431724  0.856050  1
  Rh  Rh21  1  0.857768  0.855236  0.430168  1
  Rh  Rh22  1  0.430987  0.853562  0.857514  1
  Rh  Rh23  1  0.858313  0.856305  0.857264  1
