# generated using pymatgen
data_Tb13Y3(ZnCo)4
_symmetry_space_group_name_H-M   'P 1'
_cell_length_a   9.38106126
_cell_length_b   9.37490460
_cell_length_c   9.38163329
_cell_angle_alpha   60.01969850
_cell_angle_beta   60.06353890
_cell_angle_gamma   60.02573161
_symmetry_Int_Tables_number   1
_chemical_formula_structural   Tb13Y3(ZnCo)4
_chemical_formula_sum   'Tb13 Y3 Zn4 Co4'
_cell_volume   583.90146032
_cell_formula_units_Z   1
loop_
 _symmetry_equiv_pos_site_id
 _symmetry_equiv_pos_as_xyz
  1  'x, y, z'
loop_
 _atom_site_type_symbol
 _atom_site_label
 _atom_site_symmetry_multiplicity
 _atom_site_fract_x
 _atom_site_fract_y
 _atom_site_fract_z
 _atom_site_occupancy
  Tb  Tb0  1  0.599607  0.599960  0.599731  1
  Tb  Tb1  1  0.599917  0.600007  0.199712  1
  Tb  Tb2  1  0.599731  0.200702  0.599607  1
  Tb  Tb3  1  0.199712  0.600365  0.599917  1
  Tb  Tb4  1  0.059013  0.440611  0.441480  1
  Tb  Tb5  1  0.441480  0.058896  0.059013  1
  Tb  Tb6  1  0.441117  0.058883  0.441117  1
  Tb  Tb7  1  0.059317  0.440683  0.059317  1
  Tb  Tb8  1  0.441041  0.440289  0.059378  1
  Tb  Tb9  1  0.059378  0.059293  0.441041  1
  Tb  Tb10  1  0.188383  0.811510  0.812026  1
  Tb  Tb11  1  0.812026  0.188080  0.188383  1
  Tb  Tb12  1  0.812196  0.187804  0.812196  1
  Y  Y13  1  0.188035  0.811965  0.188035  1
  Y  Y14  1  0.812397  0.812184  0.187786  1
  Y  Y15  1  0.187786  0.187633  0.812397  1
  Zn  Zn16  1  0.827281  0.827433  0.827588  1
  Zn  Zn17  1  0.827502  0.827482  0.517238  1
  Zn  Zn18  1  0.827588  0.517697  0.827281  1
  Zn  Zn19  1  0.517238  0.827777  0.827502  1
  Co  Co20  1  0.391056  0.391881  0.391692  1
  Co  Co21  1  0.391155  0.391580  0.825352  1
  Co  Co22  1  0.391692  0.825371  0.391056  1
  Co  Co23  1  0.825352  0.391914  0.391155  1
