# generated using pymatgen
data_Ca2Ho(Si3Pd10)2
_symmetry_space_group_name_H-M   'P 1'
_cell_length_a   8.72883761
_cell_length_b   8.72883784
_cell_length_c   8.72883700
_cell_angle_alpha   59.99999938
_cell_angle_beta   59.99999851
_cell_angle_gamma   59.99999550
_symmetry_Int_Tables_number   1
_chemical_formula_structural   Ca2Ho(Si3Pd10)2
_chemical_formula_sum   'Ca2 Ho1 Si6 Pd20'
_cell_volume   470.27750271
_cell_formula_units_Z   1
loop_
 _symmetry_equiv_pos_site_id
 _symmetry_equiv_pos_as_xyz
  1  'x, y, z'
loop_
 _atom_site_type_symbol
 _atom_site_label
 _atom_site_symmetry_multiplicity
 _atom_site_fract_x
 _atom_site_fract_y
 _atom_site_fract_z
 _atom_site_occupancy
  Ca  Ca0  1  0.250000  0.250000  0.250000  1
  Ca  Ca1  1  0.750000  0.750000  0.750000  1
  Ho  Ho2  1  0.000000  0.000000  0.000000  1
  Si  Si3  1  0.731112  0.268888  0.268888  1
  Si  Si4  1  0.268888  0.731112  0.731112  1
  Si  Si5  1  0.268888  0.731112  0.268888  1
  Si  Si6  1  0.731112  0.268888  0.731112  1
  Si  Si7  1  0.268888  0.268888  0.731112  1
  Si  Si8  1  0.731112  0.731112  0.268888  1
  Pd  Pd9  1  0.384247  0.384247  0.384247  1
  Pd  Pd10  1  0.615753  0.615753  0.615753  1
  Pd  Pd11  1  0.384247  0.384247  0.847259  1
  Pd  Pd12  1  0.384247  0.847259  0.384247  1
  Pd  Pd13  1  0.615753  0.615753  0.152741  1
  Pd  Pd14  1  0.615753  0.152741  0.615753  1
  Pd  Pd15  1  0.847259  0.384247  0.384247  1
  Pd  Pd16  1  0.152741  0.615753  0.615753  1
  Pd  Pd17  1  0.343361  0.000000  0.000000  1
  Pd  Pd18  1  0.656639  0.000000  0.000000  1
  Pd  Pd19  1  0.000000  0.343361  0.656639  1
  Pd  Pd20  1  0.000000  0.656639  0.343361  1
  Pd  Pd21  1  0.000000  0.343361  0.000000  1
  Pd  Pd22  1  0.656639  0.000000  0.343361  1
  Pd  Pd23  1  0.000000  0.656639  0.000000  1
  Pd  Pd24  1  0.343361  0.000000  0.656639  1
  Pd  Pd25  1  0.000000  0.000000  0.343361  1
  Pd  Pd26  1  0.000000  0.000000  0.656639  1
  Pd  Pd27  1  0.656639  0.343361  0.000000  1
  Pd  Pd28  1  0.343361  0.656639  0.000000  1
