# generated using pymatgen
data_Mn5Si2W
_symmetry_space_group_name_H-M   'P 1'
_cell_length_a   7.00479013
_cell_length_b   7.00478982
_cell_length_c   7.00479010
_cell_angle_alpha   33.63938901
_cell_angle_beta   33.63939509
_cell_angle_gamma   33.63939489
_symmetry_Int_Tables_number   1
_chemical_formula_structural   Mn5Si2W
_chemical_formula_sum   'Mn5 Si2 W1'
_cell_volume   93.96155562
_cell_formula_units_Z   1
loop_
 _symmetry_equiv_pos_site_id
 _symmetry_equiv_pos_as_xyz
  1  'x, y, z'
loop_
 _atom_site_type_symbol
 _atom_site_label
 _atom_site_symmetry_multiplicity
 _atom_site_fract_x
 _atom_site_fract_y
 _atom_site_fract_z
 _atom_site_occupancy
  Mn  Mn0  1  0.000000  0.000000  0.000000  1
  Mn  Mn1  1  0.626885  0.626885  0.626885  1
  Mn  Mn2  1  0.123120  0.123120  0.123120  1
  Mn  Mn3  1  0.876880  0.876880  0.876880  1
  Mn  Mn4  1  0.373115  0.373115  0.373115  1
  Si  Si5  1  0.251472  0.251472  0.251472  1
  Si  Si6  1  0.748528  0.748528  0.748528  1
  W  W7  1  0.500000  0.500000  0.500000  1
