# generated using pymatgen
data_Dy4Si4IrOsRh2
_symmetry_space_group_name_H-M   'P 1'
_cell_length_a   4.28730000
_cell_length_b   6.92569298
_cell_length_c   7.29748316
_cell_angle_alpha   90.07432692
_cell_angle_beta   90.00000000
_cell_angle_gamma   90.00000000
_symmetry_Int_Tables_number   1
_chemical_formula_structural   Dy4Si4IrOsRh2
_chemical_formula_sum   'Dy4 Si4 Ir1 Os1 Rh2'
_cell_volume   216.68050803
_cell_formula_units_Z   1
loop_
 _symmetry_equiv_pos_site_id
 _symmetry_equiv_pos_as_xyz
  1  'x, y, z'
loop_
 _atom_site_type_symbol
 _atom_site_label
 _atom_site_symmetry_multiplicity
 _atom_site_fract_x
 _atom_site_fract_y
 _atom_site_fract_z
 _atom_site_occupancy
  Dy  Dy0  1  0.250000  0.495941  0.185909  1
  Dy  Dy1  1  0.750000  0.503050  0.814673  1
  Dy  Dy2  1  0.750000  0.005991  0.687975  1
  Dy  Dy3  1  0.250000  0.990730  0.312492  1
  Si  Si4  1  0.250000  0.799030  0.884959  1
  Si  Si5  1  0.750000  0.200176  0.106085  1
  Si  Si6  1  0.750000  0.700636  0.402022  1
  Si  Si7  1  0.250000  0.301615  0.606473  1
  Ir  Ir8  1  0.250000  0.158566  0.931467  1
  Os  Os9  1  0.250000  0.655138  0.567882  1
  Rh  Rh10  1  0.750000  0.344515  0.430293  1
  Rh  Rh11  1  0.750000  0.844610  0.069770  1
