# generated using pymatgen
data_Tb2Ho6CdNi2Hg
_symmetry_space_group_name_H-M   'P 1'
_cell_length_a   9.49862015
_cell_length_b   9.49862014
_cell_length_c   9.49863500
_cell_angle_alpha   59.99995172
_cell_angle_beta   59.99995177
_cell_angle_gamma   60.10979247
_symmetry_Int_Tables_number   1
_chemical_formula_structural   Tb2Ho6CdNi2Hg
_chemical_formula_sum   'Tb4 Ho12 Cd2 Ni4 Hg2'
_cell_volume   606.49327316
_cell_formula_units_Z   2
loop_
 _symmetry_equiv_pos_site_id
 _symmetry_equiv_pos_as_xyz
  1  'x, y, z'
loop_
 _atom_site_type_symbol
 _atom_site_label
 _atom_site_symmetry_multiplicity
 _atom_site_fract_x
 _atom_site_fract_y
 _atom_site_fract_z
 _atom_site_occupancy
  Tb  Tb0  1  0.349429  0.349429  0.348258  1
  Tb  Tb1  1  0.349429  0.349429  0.952882  1
  Tb  Tb2  1  0.352255  0.946779  0.350483  1
  Tb  Tb3  1  0.946779  0.352255  0.350483  1
  Ho  Ho4  1  0.812336  0.187592  0.188671  1
  Ho  Ho5  1  0.187592  0.812336  0.811401  1
  Ho  Ho6  1  0.187592  0.812336  0.188671  1
  Ho  Ho7  1  0.812336  0.187592  0.811401  1
  Ho  Ho8  1  0.188106  0.188106  0.811894  1
  Ho  Ho9  1  0.811496  0.811496  0.188504  1
  Ho  Ho10  1  0.935806  0.563526  0.564408  1
  Ho  Ho11  1  0.563526  0.935806  0.936259  1
  Ho  Ho12  1  0.563526  0.935806  0.564408  1
  Ho  Ho13  1  0.935806  0.563526  0.936259  1
  Ho  Ho14  1  0.563977  0.563977  0.936023  1
  Ho  Ho15  1  0.936385  0.936385  0.563615  1
  Cd  Cd16  1  0.580202  0.256621  0.581589  1
  Cd  Cd17  1  0.256621  0.580202  0.581589  1
  Ni  Ni18  1  0.141948  0.141948  0.144185  1
  Ni  Ni19  1  0.141948  0.141948  0.571920  1
  Ni  Ni20  1  0.140629  0.573351  0.143010  1
  Ni  Ni21  1  0.573351  0.140629  0.143010  1
  Hg  Hg22  1  0.584462  0.584462  0.587143  1
  Hg  Hg23  1  0.584462  0.584462  0.243935  1
