# generated using pymatgen
data_Hf4Al6RePt
_symmetry_space_group_name_H-M   'P 1'
_cell_length_a   5.26748915
_cell_length_b   5.24281407
_cell_length_c   8.61487400
_cell_angle_alpha   90.00000000
_cell_angle_beta   90.00000000
_cell_angle_gamma   120.45506396
_symmetry_Int_Tables_number   1
_chemical_formula_structural   Hf4Al6RePt
_chemical_formula_sum   'Hf4 Al6 Re1 Pt1'
_cell_volume   205.08688014
_cell_formula_units_Z   1
loop_
 _symmetry_equiv_pos_site_id
 _symmetry_equiv_pos_as_xyz
  1  'x, y, z'
loop_
 _atom_site_type_symbol
 _atom_site_label
 _atom_site_symmetry_multiplicity
 _atom_site_fract_x
 _atom_site_fract_y
 _atom_site_fract_z
 _atom_site_occupancy
  Hf  Hf0  1  0.335238  0.667953  0.430816  1
  Hf  Hf1  1  0.670551  0.327791  0.941952  1
  Hf  Hf2  1  0.670551  0.327791  0.558048  1
  Hf  Hf3  1  0.335238  0.667953  0.069184  1
  Al  Al4  1  0.342124  0.173456  0.250000  1
  Al  Al5  1  0.647658  0.814050  0.750000  1
  Al  Al6  1  0.000854  0.012052  0.997611  1
  Al  Al7  1  0.000854  0.012052  0.502389  1
  Al  Al8  1  0.829572  0.664316  0.250000  1
  Al  Al9  1  0.170409  0.825636  0.750000  1
  Re  Re10  1  0.835920  0.175509  0.250000  1
  Pt  Pt11  1  0.161029  0.331439  0.750000  1
