# generated using pymatgen
data_HfZr3P4Os3Ru
_symmetry_space_group_name_H-M   'P 1'
_cell_length_a   3.91146200
_cell_length_b   6.46234971
_cell_length_c   7.35100315
_cell_angle_alpha   89.96152441
_cell_angle_beta   90.00000000
_cell_angle_gamma   90.00000000
_symmetry_Int_Tables_number   1
_chemical_formula_structural   HfZr3P4Os3Ru
_chemical_formula_sum   'Hf1 Zr3 P4 Os3 Ru1'
_cell_volume   185.81299459
_cell_formula_units_Z   1
loop_
 _symmetry_equiv_pos_site_id
 _symmetry_equiv_pos_as_xyz
  1  'x, y, z'
loop_
 _atom_site_type_symbol
 _atom_site_label
 _atom_site_symmetry_multiplicity
 _atom_site_fract_x
 _atom_site_fract_y
 _atom_site_fract_z
 _atom_site_occupancy
  Hf  Hf0  1  0.750000  0.522217  0.319491  1
  Zr  Zr1  1  0.250000  0.979066  0.822193  1
  Zr  Zr2  1  0.750000  0.021428  0.178465  1
  Zr  Zr3  1  0.250000  0.478063  0.678949  1
  P  P4  1  0.250000  0.722577  0.123190  1
  P  P5  1  0.250000  0.223737  0.376103  1
  P  P6  1  0.750000  0.276125  0.877881  1
  P  P7  1  0.750000  0.776580  0.622785  1
  Os  Os8  1  0.250000  0.349019  0.063582  1
  Os  Os9  1  0.250000  0.845075  0.440105  1
  Os  Os10  1  0.750000  0.155362  0.557633  1
  Ru  Ru11  1  0.750000  0.650749  0.939623  1
