# generated using pymatgen
data_AuIO4
_symmetry_space_group_name_H-M   'P 1'
_cell_length_a   5.83075800
_cell_length_b   6.88530800
_cell_length_c   11.23139100
_cell_angle_alpha   90.00000000
_cell_angle_beta   90.00000000
_cell_angle_gamma   90.00000000
_symmetry_Int_Tables_number   1
_chemical_formula_structural   AuIO4
_chemical_formula_sum   'Au4 I4 O16'
_cell_volume   450.90176549
_cell_formula_units_Z   4
loop_
 _symmetry_equiv_pos_site_id
 _symmetry_equiv_pos_as_xyz
  1  'x, y, z'
loop_
 _atom_site_type_symbol
 _atom_site_label
 _atom_site_symmetry_multiplicity
 _atom_site_fract_x
 _atom_site_fract_y
 _atom_site_fract_z
 _atom_site_occupancy
  Au  Au0  1  0.000000  0.500000  0.000000  1
  Au  Au1  1  0.500000  0.000000  0.500000  1
  Au  Au2  1  0.000000  0.000000  0.000000  1
  Au  Au3  1  0.500000  0.500000  0.500000  1
  I  I4  1  0.019740  0.750000  0.242953  1
  I  I5  1  0.480260  0.750000  0.742953  1
  I  I6  1  0.980260  0.250000  0.757047  1
  I  I7  1  0.519740  0.250000  0.257047  1
  O  O8  1  0.161252  0.750000  0.043645  1
  O  O9  1  0.338748  0.750000  0.543645  1
  O  O10  1  0.838748  0.250000  0.956355  1
  O  O11  1  0.661252  0.250000  0.456355  1
  O  O12  1  0.828958  0.750000  0.368428  1
  O  O13  1  0.671042  0.750000  0.868428  1
  O  O14  1  0.171042  0.250000  0.631572  1
  O  O15  1  0.328958  0.250000  0.131572  1
  O  O16  1  0.867815  0.535072  0.166637  1
  O  O17  1  0.632185  0.964928  0.666637  1
  O  O18  1  0.132185  0.035072  0.833363  1
  O  O19  1  0.367815  0.464928  0.333363  1
  O  O20  1  0.132185  0.464928  0.833363  1
  O  O21  1  0.367815  0.035072  0.333363  1
  O  O22  1  0.867815  0.964928  0.166637  1
  O  O23  1  0.632185  0.535072  0.666637  1
