# generated using pymatgen
data_Ho8TaTi10Si16W
_symmetry_space_group_name_H-M   'P 1'
_cell_length_a   7.01519098
_cell_length_b   7.01518986
_cell_length_c   12.90891118
_cell_angle_alpha   90.02297344
_cell_angle_beta   89.97702575
_cell_angle_gamma   90.12145888
_symmetry_Int_Tables_number   1
_chemical_formula_structural   Ho8TaTi10Si16W
_chemical_formula_sum   'Ho8 Ta1 Ti10 Si16 W1'
_cell_volume   635.28338145
_cell_formula_units_Z   1
loop_
 _symmetry_equiv_pos_site_id
 _symmetry_equiv_pos_as_xyz
  1  'x, y, z'
loop_
 _atom_site_type_symbol
 _atom_site_label
 _atom_site_symmetry_multiplicity
 _atom_site_fract_x
 _atom_site_fract_y
 _atom_site_fract_z
 _atom_site_occupancy
  Ho  Ho0  1  0.340825  0.002974  0.467189  1
  Ho  Ho1  1  0.497414  0.840411  0.717265  1
  Ho  Ho2  1  0.501170  0.159778  0.215718  1
  Ho  Ho3  1  0.840411  0.497414  0.282735  1
  Ho  Ho4  1  0.159778  0.501170  0.784282  1
  Ho  Ho5  1  0.658484  0.998157  0.967336  1
  Ho  Ho6  1  0.002974  0.340825  0.532811  1
  Ho  Ho7  1  0.998157  0.658484  0.032664  1
  Ta  Ta8  1  0.673534  0.673534  0.500000  1
  Ti  Ti9  1  0.174146  0.826676  0.249485  1
  Ti  Ti10  1  0.826676  0.174146  0.750515  1
  Ti  Ti11  1  0.153918  0.008821  0.876930  1
  Ti  Ti12  1  0.491854  0.651573  0.124215  1
  Ti  Ti13  1  0.507537  0.348743  0.625571  1
  Ti  Ti14  1  0.651573  0.491854  0.875785  1
  Ti  Ti15  1  0.348743  0.507537  0.374429  1
  Ti  Ti16  1  0.847167  0.991923  0.376072  1
  Ti  Ti17  1  0.008821  0.153918  0.123070  1
  Ti  Ti18  1  0.991923  0.847167  0.623928  1
  Si  Si19  1  0.202388  0.131038  0.684379  1
  Si  Si20  1  0.369399  0.700750  0.934363  1
  Si  Si21  1  0.631017  0.297333  0.434175  1
  Si  Si22  1  0.700750  0.369399  0.065637  1
  Si  Si23  1  0.297333  0.631017  0.565825  1
  Si  Si24  1  0.797601  0.869110  0.184032  1
  Si  Si25  1  0.131038  0.202388  0.315621  1
  Si  Si26  1  0.869110  0.797601  0.815968  1
  Si  Si27  1  0.291002  0.954007  0.064702  1
  Si  Si28  1  0.546119  0.792366  0.314174  1
  Si  Si29  1  0.452713  0.208326  0.815675  1
  Si  Si30  1  0.792366  0.546119  0.685826  1
  Si  Si31  1  0.208326  0.452713  0.184325  1
  Si  Si32  1  0.708424  0.047308  0.565047  1
  Si  Si33  1  0.954007  0.291002  0.935298  1
  Si  Si34  1  0.047308  0.708424  0.434953  1
  W  W35  1  0.325991  0.325991  0.000000  1
