# generated using pymatgen
data_La10Cd(SnRu2)3
_symmetry_space_group_name_H-M   'P 1'
_cell_length_a   8.80314321
_cell_length_b   8.81585537
_cell_length_c   8.80314415
_cell_angle_alpha   109.50046741
_cell_angle_beta   109.44195398
_cell_angle_gamma   109.50047743
_symmetry_Int_Tables_number   1
_chemical_formula_structural   La10Cd(SnRu2)3
_chemical_formula_sum   'La10 Cd1 Sn3 Ru6'
_cell_volume   525.72814871
_cell_formula_units_Z   1
loop_
 _symmetry_equiv_pos_site_id
 _symmetry_equiv_pos_as_xyz
  1  'x, y, z'
loop_
 _atom_site_type_symbol
 _atom_site_label
 _atom_site_symmetry_multiplicity
 _atom_site_fract_x
 _atom_site_fract_y
 _atom_site_fract_z
 _atom_site_occupancy
  La  La0  1  0.251718  0.690113  0.436911  1
  La  La1  1  0.752888  0.811052  0.063280  1
  La  La2  1  0.436721  0.247772  0.689608  1
  La  La3  1  0.685192  0.438397  0.248282  1
  La  La4  1  0.063090  0.753204  0.814808  1
  La  La5  1  0.810392  0.058164  0.747112  1
  La  La6  1  0.205458  0.207917  0.205912  1
  La  La7  1  0.500456  0.002460  0.294542  1
  La  La8  1  0.294088  0.502006  0.999545  1
  La  La9  1  0.000000  0.296053  0.500001  1
  Cd  Cd10  1  0.000000  0.913065  0.500001  1
  Sn  Sn11  1  0.500971  0.998857  0.906960  1
  Sn  Sn12  1  0.593040  0.591897  0.594010  1
  Sn  Sn13  1  0.905990  0.497888  0.999030  1
  Ru  Ru14  1  0.257257  0.134914  0.893702  1
  Ru  Ru15  1  0.752403  0.370401  0.621429  1
  Ru  Ru16  1  0.878570  0.248974  0.130974  1
  Ru  Ru17  1  0.136447  0.877658  0.242745  1
  Ru  Ru18  1  0.606297  0.741211  0.363552  1
  Ru  Ru19  1  0.369025  0.617998  0.747597  1
