# generated using pymatgen
data_FeCoTeBr2O3
_symmetry_space_group_name_H-M   'P 1'
_cell_length_a   8.01402100
_cell_length_b   10.79083000
_cell_length_c   16.35134800
_cell_angle_alpha   90.00000000
_cell_angle_beta   90.00000000
_cell_angle_gamma   90.00000000
_symmetry_Int_Tables_number   1
_chemical_formula_structural   FeCoTeBr2O3
_chemical_formula_sum   'Fe8 Co8 Te8 Br16 O24'
_cell_volume   1414.03086228
_cell_formula_units_Z   8
loop_
 _symmetry_equiv_pos_site_id
 _symmetry_equiv_pos_as_xyz
  1  'x, y, z'
loop_
 _atom_site_type_symbol
 _atom_site_label
 _atom_site_symmetry_multiplicity
 _atom_site_fract_x
 _atom_site_fract_y
 _atom_site_fract_z
 _atom_site_occupancy
  Fe  Fe0  1  0.602053  0.772226  0.963049  1
  Fe  Fe1  1  0.397947  0.272226  0.463049  1
  Fe  Fe2  1  0.897947  0.272226  0.036951  1
  Fe  Fe3  1  0.602053  0.727774  0.536951  1
  Fe  Fe4  1  0.102053  0.727774  0.963049  1
  Fe  Fe5  1  0.897947  0.227774  0.463049  1
  Fe  Fe6  1  0.102053  0.772226  0.536951  1
  Fe  Fe7  1  0.397947  0.227774  0.036951  1
  Co  Co8  1  0.348431  0.993887  0.600033  1
  Co  Co9  1  0.651569  0.493887  0.100033  1
  Co  Co10  1  0.151569  0.006113  0.100033  1
  Co  Co11  1  0.848431  0.506113  0.600033  1
  Co  Co12  1  0.848431  0.993887  0.899967  1
  Co  Co13  1  0.348431  0.506113  0.899967  1
  Co  Co14  1  0.151569  0.493887  0.399967  1
  Co  Co15  1  0.651569  0.006113  0.399967  1
  Te  Te16  1  0.782987  0.972880  0.598131  1
  Te  Te17  1  0.282987  0.527120  0.598131  1
  Te  Te18  1  0.282987  0.972880  0.901869  1
  Te  Te19  1  0.217013  0.027120  0.401869  1
  Te  Te20  1  0.782987  0.527120  0.901869  1
  Te  Te21  1  0.717013  0.472880  0.401869  1
  Te  Te22  1  0.217013  0.472880  0.098131  1
  Te  Te23  1  0.717013  0.027120  0.098131  1
  Br  Br24  1  0.656566  0.910202  0.800332  1
  Br  Br25  1  0.156566  0.910202  0.699668  1
  Br  Br26  1  0.438922  0.292466  0.879822  1
  Br  Br27  1  0.438922  0.207534  0.620178  1
  Br  Br28  1  0.156566  0.589798  0.800332  1
  Br  Br29  1  0.343434  0.410202  0.300332  1
  Br  Br30  1  0.061078  0.792466  0.120178  1
  Br  Br31  1  0.561078  0.707534  0.120178  1
  Br  Br32  1  0.843434  0.089798  0.300332  1
  Br  Br33  1  0.561078  0.792466  0.379822  1
  Br  Br34  1  0.938922  0.207534  0.879822  1
  Br  Br35  1  0.343434  0.089798  0.199668  1
  Br  Br36  1  0.061078  0.707534  0.379822  1
  Br  Br37  1  0.656566  0.589798  0.699668  1
  Br  Br38  1  0.843434  0.410202  0.199668  1
  Br  Br39  1  0.938922  0.292466  0.620178  1
  O  O40  1  0.204761  0.944232  0.505937  1
  O  O41  1  0.561959  0.588734  0.916152  1
  O  O42  1  0.853983  0.684755  0.941523  1
  O  O43  1  0.295239  0.444232  0.494063  1
  O  O44  1  0.146017  0.184755  0.441523  1
  O  O45  1  0.061959  0.588734  0.583848  1
  O  O46  1  0.438041  0.088734  0.416152  1
  O  O47  1  0.646017  0.315245  0.441523  1
  O  O48  1  0.704761  0.555768  0.505937  1
  O  O49  1  0.204761  0.555768  0.994063  1
  O  O50  1  0.061959  0.911266  0.916152  1
  O  O51  1  0.938041  0.411266  0.416152  1
  O  O52  1  0.295239  0.055768  0.005937  1
  O  O53  1  0.938041  0.088734  0.083848  1
  O  O54  1  0.561959  0.911266  0.583848  1
  O  O55  1  0.646017  0.184755  0.058477  1
  O  O56  1  0.704761  0.944232  0.994063  1
  O  O57  1  0.795239  0.444232  0.005937  1
  O  O58  1  0.353983  0.815245  0.941523  1
  O  O59  1  0.853983  0.815245  0.558477  1
  O  O60  1  0.353983  0.684755  0.558477  1
  O  O61  1  0.795239  0.055768  0.494063  1
  O  O62  1  0.146017  0.315245  0.058477  1
  O  O63  1  0.438041  0.411266  0.083848  1
