# generated using pymatgen
data_Nb12Ir3Rh
_symmetry_space_group_name_H-M   'P 1'
_cell_length_a   5.18510500
_cell_length_b   5.19104600
_cell_length_c   10.38139400
_cell_angle_alpha   90.00000000
_cell_angle_beta   90.00000000
_cell_angle_gamma   90.00000000
_symmetry_Int_Tables_number   1
_chemical_formula_structural   Nb12Ir3Rh
_chemical_formula_sum   'Nb12 Ir3 Rh1'
_cell_volume   279.42683182
_cell_formula_units_Z   1
loop_
 _symmetry_equiv_pos_site_id
 _symmetry_equiv_pos_as_xyz
  1  'x, y, z'
loop_
 _atom_site_type_symbol
 _atom_site_label
 _atom_site_symmetry_multiplicity
 _atom_site_fract_x
 _atom_site_fract_y
 _atom_site_fract_z
 _atom_site_occupancy
  Nb  Nb0  1  0.500000  0.000000  0.374707  1
  Nb  Nb1  1  0.500000  0.000000  0.875084  1
  Nb  Nb2  1  0.750194  0.500000  0.000000  1
  Nb  Nb3  1  0.749369  0.500000  0.500000  1
  Nb  Nb4  1  0.000000  0.749788  0.249732  1
  Nb  Nb5  1  0.000000  0.749788  0.750268  1
  Nb  Nb6  1  0.500000  0.000000  0.124916  1
  Nb  Nb7  1  0.500000  0.000000  0.625293  1
  Nb  Nb8  1  0.249806  0.500000  0.000000  1
  Nb  Nb9  1  0.250631  0.500000  0.500000  1
  Nb  Nb10  1  0.000000  0.250212  0.249732  1
  Nb  Nb11  1  0.000000  0.250212  0.750268  1
  Ir  Ir12  1  0.500000  0.500000  0.249494  1
  Ir  Ir13  1  0.500000  0.500000  0.750506  1
  Ir  Ir14  1  0.000000  0.000000  0.000000  1
  Rh  Rh15  1  0.000000  0.000000  0.500000  1
