# generated using pymatgen
data_Er4MgZn2Te
_symmetry_space_group_name_H-M   'P 1'
_cell_length_a   8.48770444
_cell_length_b   8.48770434
_cell_length_c   8.48770300
_cell_angle_alpha   125.96444221
_cell_angle_beta   125.96444171
_cell_angle_gamma   79.94659053
_symmetry_Int_Tables_number   1
_chemical_formula_structural   Er4MgZn2Te
_chemical_formula_sum   'Er8 Mg2 Zn4 Te2'
_cell_volume   386.79129570
_cell_formula_units_Z   2
loop_
 _symmetry_equiv_pos_site_id
 _symmetry_equiv_pos_as_xyz
  1  'x, y, z'
loop_
 _atom_site_type_symbol
 _atom_site_label
 _atom_site_symmetry_multiplicity
 _atom_site_fract_x
 _atom_site_fract_y
 _atom_site_fract_z
 _atom_site_occupancy
  Er  Er0  1  0.801682  0.301682  0.816453  1
  Er  Er1  1  0.198318  0.698318  0.183547  1
  Er  Er2  1  0.485205  0.985205  0.183469  1
  Er  Er3  1  0.301654  0.485228  0.499959  1
  Er  Er4  1  0.014772  0.198346  0.500041  1
  Er  Er5  1  0.514795  0.014795  0.816531  1
  Er  Er6  1  0.698346  0.514772  0.500041  1
  Er  Er7  1  0.985228  0.801654  0.499959  1
  Mg  Mg8  1  0.000000  0.000000  0.000000  1
  Mg  Mg9  1  0.500000  0.500000  0.000000  1
  Zn  Zn10  1  0.133450  0.633450  0.766945  1
  Zn  Zn11  1  0.866550  0.366550  0.233055  1
  Zn  Zn12  1  0.633534  0.866466  0.500000  1
  Zn  Zn13  1  0.366466  0.133534  0.500000  1
  Te  Te14  1  0.249990  0.250010  0.000000  1
  Te  Te15  1  0.750010  0.749990  0.000000  1
