# generated using pymatgen
data_ThAl2CuAg
_symmetry_space_group_name_H-M   'P 1'
_cell_length_a   4.28385000
_cell_length_b   4.28385000
_cell_length_c   10.42486600
_cell_angle_alpha   90.00000000
_cell_angle_beta   90.00000000
_cell_angle_gamma   90.00000000
_symmetry_Int_Tables_number   1
_chemical_formula_structural   ThAl2CuAg
_chemical_formula_sum   'Th2 Al4 Cu2 Ag2'
_cell_volume   191.31058174
_cell_formula_units_Z   2
loop_
 _symmetry_equiv_pos_site_id
 _symmetry_equiv_pos_as_xyz
  1  'x, y, z'
loop_
 _atom_site_type_symbol
 _atom_site_label
 _atom_site_symmetry_multiplicity
 _atom_site_fract_x
 _atom_site_fract_y
 _atom_site_fract_z
 _atom_site_occupancy
  Th  Th0  1  0.000000  0.500000  0.262699  1
  Th  Th1  1  0.500000  0.000000  0.737301  1
  Al  Al2  1  0.000000  0.000000  0.500000  1
  Al  Al3  1  0.500000  0.500000  0.500000  1
  Al  Al4  1  0.000000  0.500000  0.851901  1
  Al  Al5  1  0.500000  0.000000  0.148099  1
  Cu  Cu6  1  0.000000  0.500000  0.622457  1
  Cu  Cu7  1  0.500000  0.000000  0.377543  1
  Ag  Ag8  1  0.000000  0.000000  0.000000  1
  Ag  Ag9  1  0.500000  0.500000  0.000000  1
