# generated using pymatgen
data_Dy6Tm2Ti11Si16Rh
_symmetry_space_group_name_H-M   'P 1'
_cell_length_a   7.04264319
_cell_length_b   7.03952934
_cell_length_c   12.86562730
_cell_angle_alpha   89.86811830
_cell_angle_beta   90.11866865
_cell_angle_gamma   89.77318877
_symmetry_Int_Tables_number   1
_chemical_formula_structural   Dy6Tm2Ti11Si16Rh
_chemical_formula_sum   'Dy6 Tm2 Ti11 Si16 Rh1'
_cell_volume   637.82976520
_cell_formula_units_Z   1
loop_
 _symmetry_equiv_pos_site_id
 _symmetry_equiv_pos_as_xyz
  1  'x, y, z'
loop_
 _atom_site_type_symbol
 _atom_site_label
 _atom_site_symmetry_multiplicity
 _atom_site_fract_x
 _atom_site_fract_y
 _atom_site_fract_z
 _atom_site_occupancy
  Dy  Dy0  1  0.659808  0.996478  0.967630  1
  Dy  Dy1  1  0.158864  0.502631  0.782055  1
  Dy  Dy2  1  0.841528  0.498975  0.285044  1
  Dy  Dy3  1  0.502593  0.159164  0.217907  1
  Dy  Dy4  1  0.499076  0.841281  0.714870  1
  Dy  Dy5  1  0.342592  0.001653  0.468076  1
  Tm  Tm6  1  0.997577  0.659122  0.032550  1
  Tm  Tm7  1  0.000799  0.342914  0.532062  1
  Ti  Ti8  1  0.344065  0.505656  0.374543  1
  Ti  Ti9  1  0.849575  0.996687  0.376364  1
  Ti  Ti10  1  0.005852  0.150679  0.124552  1
  Ti  Ti11  1  0.996722  0.849608  0.623756  1
  Ti  Ti12  1  0.505924  0.344466  0.625531  1
  Ti  Ti13  1  0.150646  0.005910  0.875558  1
  Ti  Ti14  1  0.825031  0.173126  0.747997  1
  Ti  Ti15  1  0.172711  0.824745  0.251822  1
  Ti  Ti16  1  0.326935  0.327538  0.999992  1
  Ti  Ti17  1  0.492829  0.650131  0.127565  1
  Ti  Ti18  1  0.650364  0.493154  0.872468  1
  Si  Si19  1  0.049274  0.711995  0.436735  1
  Si  Si20  1  0.952197  0.292007  0.935025  1
  Si  Si21  1  0.713961  0.050590  0.563582  1
  Si  Si22  1  0.208130  0.453494  0.184474  1
  Si  Si23  1  0.790442  0.550358  0.681771  1
  Si  Si24  1  0.452754  0.208778  0.815190  1
  Si  Si25  1  0.551003  0.789734  0.317718  1
  Si  Si26  1  0.290357  0.951302  0.065226  1
  Si  Si27  1  0.798239  0.867177  0.185086  1
  Si  Si28  1  0.295587  0.627188  0.565431  1
  Si  Si29  1  0.705002  0.370130  0.065864  1
  Si  Si30  1  0.629075  0.297080  0.434874  1
  Si  Si31  1  0.368325  0.703995  0.934342  1
  Si  Si32  1  0.131573  0.203484  0.316091  1
  Si  Si33  1  0.202659  0.132409  0.683658  1
  Si  Si34  1  0.867939  0.797286  0.814656  1
  Rh  Rh35  1  0.669995  0.669076  0.499933  1
