# generated using pymatgen
data_Tm4Ta3Ti3Si8
_symmetry_space_group_name_H-M   'P 1'
_cell_length_a   7.00245405
_cell_length_b   7.00219077
_cell_length_c   12.89010201
_cell_angle_alpha   90.10109158
_cell_angle_beta   90.00256277
_cell_angle_gamma   90.01299250
_symmetry_Int_Tables_number   1
_chemical_formula_structural   Tm4Ta3Ti3Si8
_chemical_formula_sum   'Tm8 Ta6 Ti6 Si16'
_cell_volume   632.03317269
_cell_formula_units_Z   2
loop_
 _symmetry_equiv_pos_site_id
 _symmetry_equiv_pos_as_xyz
  1  'x, y, z'
loop_
 _atom_site_type_symbol
 _atom_site_label
 _atom_site_symmetry_multiplicity
 _atom_site_fract_x
 _atom_site_fract_y
 _atom_site_fract_z
 _atom_site_occupancy
  Tm  Tm0  1  0.341246  0.001328  0.466574  1
  Tm  Tm1  1  0.498260  0.841197  0.716835  1
  Tm  Tm2  1  0.501969  0.158231  0.216967  1
  Tm  Tm3  1  0.839980  0.498789  0.283198  1
  Tm  Tm4  1  0.159044  0.501657  0.782786  1
  Tm  Tm5  1  0.658489  0.997853  0.967080  1
  Tm  Tm6  1  0.001041  0.341005  0.533020  1
  Tm  Tm7  1  0.998251  0.660261  0.032945  1
  Ta  Ta8  1  0.327573  0.327797  0.000206  1
  Ta  Ta9  1  0.172753  0.827235  0.250162  1
  Ta  Ta10  1  0.828583  0.172341  0.750218  1
  Ta  Ta11  1  0.672242  0.671726  0.500131  1
  Ta  Ta12  1  0.151537  0.007455  0.875330  1
  Ta  Ta13  1  0.492192  0.651858  0.124394  1
  Ti  Ti14  1  0.507558  0.347810  0.625464  1
  Ti  Ti15  1  0.652998  0.492061  0.874902  1
  Ti  Ti16  1  0.348970  0.507573  0.374962  1
  Ti  Ti17  1  0.847821  0.992295  0.374504  1
  Ti  Ti18  1  0.007396  0.151419  0.124634  1
  Ti  Ti19  1  0.992489  0.847463  0.625326  1
  Si  Si20  1  0.204182  0.132468  0.682542  1
  Si  Si21  1  0.368333  0.703514  0.932017  1
  Si  Si22  1  0.631785  0.297266  0.433775  1
  Si  Si23  1  0.704261  0.365000  0.067013  1
  Si  Si24  1  0.297438  0.631743  0.566290  1
  Si  Si25  1  0.797453  0.868916  0.183597  1
  Si  Si26  1  0.131934  0.202623  0.316786  1
  Si  Si27  1  0.865238  0.795705  0.816626  1
  Si  Si28  1  0.293675  0.954810  0.064948  1
  Si  Si29  1  0.546586  0.794898  0.315334  1
  Si  Si30  1  0.454689  0.207909  0.813588  1
  Si  Si31  1  0.794158  0.545600  0.685434  1
  Si  Si32  1  0.203969  0.452197  0.186410  1
  Si  Si33  1  0.706754  0.046421  0.564213  1
  Si  Si34  1  0.952839  0.296960  0.935817  1
  Si  Si35  1  0.046314  0.706618  0.435973  1
