# generated using pymatgen
data_Y4Hf3GaIr4
_symmetry_space_group_name_H-M   'P 1'
_cell_length_a   4.42623700
_cell_length_b   7.10186209
_cell_length_c   8.24590525
_cell_angle_alpha   93.14751972
_cell_angle_beta   90.00000000
_cell_angle_gamma   90.00000000
_symmetry_Int_Tables_number   1
_chemical_formula_structural   Y4Hf3GaIr4
_chemical_formula_sum   'Y4 Hf3 Ga1 Ir4'
_cell_volume   258.81509367
_cell_formula_units_Z   1
loop_
 _symmetry_equiv_pos_site_id
 _symmetry_equiv_pos_as_xyz
  1  'x, y, z'
loop_
 _atom_site_type_symbol
 _atom_site_label
 _atom_site_symmetry_multiplicity
 _atom_site_fract_x
 _atom_site_fract_y
 _atom_site_fract_z
 _atom_site_occupancy
  Y  Y0  1  0.250000  0.983975  0.314729  1
  Y  Y1  1  0.250000  0.459824  0.165392  1
  Y  Y2  1  0.750000  0.033590  0.687108  1
  Y  Y3  1  0.750000  0.504992  0.836897  1
  Hf  Hf4  1  0.250000  0.368312  0.571139  1
  Hf  Hf5  1  0.250000  0.860295  0.939132  1
  Hf  Hf6  1  0.750000  0.640508  0.427875  1
  Ga  Ga7  1  0.750000  0.141770  0.071804  1
  Ir  Ir8  1  0.250000  0.225884  0.873607  1
  Ir  Ir9  1  0.250000  0.741030  0.602367  1
  Ir  Ir10  1  0.750000  0.769373  0.113785  1
  Ir  Ir11  1  0.750000  0.270446  0.396164  1
