# generated using pymatgen
data_NbAgP2F12
_symmetry_space_group_name_H-M   'P 1'
_cell_length_a   8.71432113
_cell_length_b   9.00051600
_cell_length_c   8.21807395
_cell_angle_alpha   90.00000000
_cell_angle_beta   117.98876494
_cell_angle_gamma   90.00000000
_symmetry_Int_Tables_number   1
_chemical_formula_structural   NbAgP2F12
_chemical_formula_sum   'Nb2 Ag2 P4 F24'
_cell_volume   569.18206909
_cell_formula_units_Z   2
loop_
 _symmetry_equiv_pos_site_id
 _symmetry_equiv_pos_as_xyz
  1  'x, y, z'
loop_
 _atom_site_type_symbol
 _atom_site_label
 _atom_site_symmetry_multiplicity
 _atom_site_fract_x
 _atom_site_fract_y
 _atom_site_fract_z
 _atom_site_occupancy
  Nb  Nb0  1  0.000000  0.500000  0.500000  1
  Nb  Nb1  1  0.000000  0.000000  0.000000  1
  Ag  Ag2  1  0.000000  0.000000  0.500000  1
  Ag  Ag3  1  0.000000  0.500000  0.000000  1
  P  P4  1  0.687909  0.026881  0.347120  1
  P  P5  1  0.312091  0.526881  0.152880  1
  P  P6  1  0.312091  0.973119  0.652880  1
  P  P7  1  0.687909  0.473119  0.847120  1
  F  F8  1  0.158720  0.422342  0.741599  1
  F  F9  1  0.841280  0.922342  0.758401  1
  F  F10  1  0.841280  0.577658  0.258401  1
  F  F11  1  0.158720  0.077658  0.241599  1
  F  F12  1  0.138203  0.415186  0.394110  1
  F  F13  1  0.861797  0.915186  0.105890  1
  F  F14  1  0.861797  0.584814  0.605890  1
  F  F15  1  0.138203  0.084814  0.894110  1
  F  F16  1  0.132814  0.683787  0.554411  1
  F  F17  1  0.867186  0.183787  0.945589  1
  F  F18  1  0.867186  0.316213  0.445589  1
  F  F19  1  0.132814  0.816213  0.054411  1
  F  F20  1  0.599925  0.113191  0.446335  1
  F  F21  1  0.400075  0.613191  0.053665  1
  F  F22  1  0.400075  0.886809  0.553665  1
  F  F23  1  0.599925  0.386809  0.946335  1
  F  F24  1  0.602248  0.106521  0.155443  1
  F  F25  1  0.397752  0.606521  0.344557  1
  F  F26  1  0.397752  0.893479  0.844557  1
  F  F27  1  0.602248  0.393479  0.655443  1
  F  F28  1  0.580285  0.879028  0.296781  1
  F  F29  1  0.419715  0.379028  0.203219  1
  F  F30  1  0.419715  0.120972  0.703219  1
  F  F31  1  0.580285  0.620972  0.796781  1
