# generated using pymatgen
data_Pr5InGaRu3
_symmetry_space_group_name_H-M   'P 1'
_cell_length_a   8.66537889
_cell_length_b   8.66537949
_cell_length_c   8.71431742
_cell_angle_alpha   109.61205875
_cell_angle_beta   109.46421459
_cell_angle_gamma   109.10829763
_symmetry_Int_Tables_number   1
_chemical_formula_structural   Pr5InGaRu3
_chemical_formula_sum   'Pr10 In2 Ga2 Ru6'
_cell_volume   505.12841891
_cell_formula_units_Z   2
loop_
 _symmetry_equiv_pos_site_id
 _symmetry_equiv_pos_as_xyz
  1  'x, y, z'
loop_
 _atom_site_type_symbol
 _atom_site_label
 _atom_site_symmetry_multiplicity
 _atom_site_fract_x
 _atom_site_fract_y
 _atom_site_fract_z
 _atom_site_occupancy
  Pr  Pr0  1  0.258716  0.689607  0.439172  1
  Pr  Pr1  1  0.750435  0.819543  0.060828  1
  Pr  Pr2  1  0.437392  0.252472  0.683555  1
  Pr  Pr3  1  0.678275  0.428275  0.250000  1
  Pr  Pr4  1  0.068917  0.753838  0.816445  1
  Pr  Pr5  1  0.807892  0.057892  0.750000  1
  Pr  Pr6  1  0.215292  0.217953  0.217397  1
  Pr  Pr7  1  0.500556  0.997895  0.282603  1
  Pr  Pr8  1  0.291580  0.497831  0.997844  1
  Pr  Pr9  1  0.999987  0.293736  0.502156  1
  In  In10  1  0.909227  0.500085  0.001662  1
  In  In11  1  0.998423  0.907565  0.498338  1
  Ga  Ga12  1  0.588511  0.588012  0.588492  1
  Ga  Ga13  1  0.499520  0.000019  0.911508  1
  Ru  Ru14  1  0.260298  0.126719  0.884115  1
  Ru  Ru15  1  0.742604  0.376183  0.615885  1
  Ru  Ru16  1  0.863667  0.236559  0.124323  1
  Ru  Ru17  1  0.135029  0.885028  0.250000  1
  Ru  Ru18  1  0.612236  0.739345  0.375677  1
  Ru  Ru19  1  0.381442  0.631442  0.750000  1
