# generated using pymatgen
data_Nd7Tm(SiBr6)2
_symmetry_space_group_name_H-M   'P 1'
_cell_length_a   4.19042600
_cell_length_b   13.67292232
_cell_length_c   14.46684433
_cell_angle_alpha   90.63504722
_cell_angle_beta   90.00000000
_cell_angle_gamma   90.00000000
_symmetry_Int_Tables_number   1
_chemical_formula_structural   Nd7Tm(SiBr6)2
_chemical_formula_sum   'Nd7 Tm1 Si2 Br12'
_cell_volume   828.83227394
_cell_formula_units_Z   1
loop_
 _symmetry_equiv_pos_site_id
 _symmetry_equiv_pos_as_xyz
  1  'x, y, z'
loop_
 _atom_site_type_symbol
 _atom_site_label
 _atom_site_symmetry_multiplicity
 _atom_site_fract_x
 _atom_site_fract_y
 _atom_site_fract_z
 _atom_site_occupancy
  Nd  Nd0  1  0.500000  0.118984  0.340791  1
  Nd  Nd1  1  0.500000  0.882063  0.659933  1
  Nd  Nd2  1  0.500000  0.617642  0.158216  1
  Nd  Nd3  1  0.000000  0.121569  0.581238  1
  Nd  Nd4  1  0.000000  0.880810  0.420723  1
  Nd  Nd5  1  0.000000  0.618777  0.920254  1
  Nd  Nd6  1  0.000000  0.380095  0.078166  1
  Tm  Tm7  1  0.500000  0.382452  0.841469  1
  Si  Si8  1  0.500000  0.001413  0.500980  1
  Si  Si9  1  0.500000  0.497352  0.996313  1
  Br  Br10  1  0.500000  0.243017  0.161334  1
  Br  Br11  1  0.500000  0.755630  0.836934  1
  Br  Br12  1  0.500000  0.742591  0.337024  1
  Br  Br13  1  0.500000  0.260699  0.671428  1
  Br  Br14  1  0.000000  0.256018  0.413045  1
  Br  Br15  1  0.000000  0.744820  0.587739  1
  Br  Br16  1  0.000000  0.754641  0.088132  1
  Br  Br17  1  0.000000  0.253991  0.901617  1
  Br  Br18  1  0.000000  0.000377  0.243685  1
  Br  Br19  1  0.000000  0.000064  0.757298  1
  Br  Br20  1  0.000000  0.500969  0.255670  1
  Br  Br21  1  0.000000  0.486023  0.748014  1
