# generated using pymatgen
data_Yb3Pt4PbO14
_symmetry_space_group_name_H-M   'P 1'
_cell_length_a   7.21667158
_cell_length_b   7.28744455
_cell_length_c   7.28744300
_cell_angle_alpha   59.99999342
_cell_angle_beta   59.67505090
_cell_angle_gamma   59.67506113
_symmetry_Int_Tables_number   1
_chemical_formula_structural   Yb3Pt4PbO14
_chemical_formula_sum   'Yb3 Pt4 Pb1 O14'
_cell_volume   269.66324373
_cell_formula_units_Z   1
loop_
 _symmetry_equiv_pos_site_id
 _symmetry_equiv_pos_as_xyz
  1  'x, y, z'
loop_
 _atom_site_type_symbol
 _atom_site_label
 _atom_site_symmetry_multiplicity
 _atom_site_fract_x
 _atom_site_fract_y
 _atom_site_fract_z
 _atom_site_occupancy
  Yb  Yb0  1  0.625000  0.625000  0.125000  1
  Yb  Yb1  1  0.625000  0.625000  0.625000  1
  Yb  Yb2  1  0.625000  0.125000  0.625000  1
  Pt  Pt3  1  0.625000  0.125000  0.125000  1
  Pt  Pt4  1  0.125000  0.125000  0.125000  1
  Pt  Pt5  1  0.125000  0.625000  0.125000  1
  Pt  Pt6  1  0.125000  0.125000  0.625000  1
  Pb  Pb7  1  0.125000  0.625000  0.625000  1
  O  O8  1  0.046921  0.458591  0.458591  1
  O  O9  1  0.788588  0.789527  0.210942  1
  O  O10  1  0.788588  0.210942  0.210942  1
  O  O11  1  0.046921  0.458591  0.035896  1
  O  O12  1  0.461412  0.039058  0.460473  1
  O  O13  1  0.770104  0.743298  0.743298  1
  O  O14  1  0.046921  0.035896  0.458591  1
  O  O15  1  0.788588  0.210942  0.789527  1
  O  O16  1  0.479896  0.506702  0.506702  1
  O  O17  1  0.203079  0.214104  0.791409  1
  O  O18  1  0.203079  0.791409  0.214104  1
  O  O19  1  0.461412  0.039058  0.039058  1
  O  O20  1  0.461412  0.460473  0.039058  1
  O  O21  1  0.203079  0.791409  0.791409  1
