# generated using pymatgen
data_Dy2Er9Th5(MgOs)4
_symmetry_space_group_name_H-M   'P 1'
_cell_length_a   9.71898757
_cell_length_b   9.76724646
_cell_length_c   9.76272016
_cell_angle_alpha   59.73947434
_cell_angle_beta   60.16897090
_cell_angle_gamma   60.12810143
_symmetry_Int_Tables_number   1
_chemical_formula_structural   Dy2Er9Th5(MgOs)4
_chemical_formula_sum   'Dy2 Er9 Th5 Mg4 Os4'
_cell_volume   655.47196205
_cell_formula_units_Z   1
loop_
 _symmetry_equiv_pos_site_id
 _symmetry_equiv_pos_as_xyz
  1  'x, y, z'
loop_
 _atom_site_type_symbol
 _atom_site_label
 _atom_site_symmetry_multiplicity
 _atom_site_fract_x
 _atom_site_fract_y
 _atom_site_fract_z
 _atom_site_occupancy
  Dy  Dy0  1  0.562662  0.563964  0.936305  1
  Dy  Dy1  1  0.937069  0.936295  0.563973  1
  Er  Er2  1  0.186559  0.813428  0.813439  1
  Er  Er3  1  0.191433  0.810133  0.184485  1
  Er  Er4  1  0.813940  0.184481  0.810131  1
  Er  Er5  1  0.191620  0.184518  0.809998  1
  Er  Er6  1  0.813844  0.810015  0.184504  1
  Er  Er7  1  0.933705  0.566296  0.566295  1
  Er  Er8  1  0.564552  0.935437  0.935417  1
  Er  Er9  1  0.561495  0.937185  0.563249  1
  Er  Er10  1  0.938074  0.563234  0.937179  1
  Th  Th11  1  0.341146  0.349812  0.349708  1
  Th  Th12  1  0.347158  0.346834  0.958997  1
  Th  Th13  1  0.347056  0.958990  0.346816  1
  Th  Th14  1  0.959316  0.349717  0.349797  1
  Th  Th15  1  0.816179  0.183841  0.183824  1
  Mg  Mg16  1  0.581082  0.579860  0.579496  1
  Mg  Mg17  1  0.579489  0.582162  0.259265  1
  Mg  Mg18  1  0.579136  0.259229  0.582118  1
  Mg  Mg19  1  0.259578  0.579477  0.579912  1
  Os  Os20  1  0.131547  0.145982  0.145027  1
  Os  Os21  1  0.143330  0.141175  0.572869  1
  Os  Os22  1  0.142587  0.572857  0.141203  1
  Os  Os23  1  0.577448  0.145074  0.145993  1
