# generated using pymatgen
data_CeDy(Co3P2)2
_symmetry_space_group_name_H-M   'P 1'
_cell_length_a   3.74573800
_cell_length_b   10.58560196
_cell_length_c   12.26834506
_cell_angle_alpha   90.18680317
_cell_angle_beta   90.00000000
_cell_angle_gamma   90.00000000
_symmetry_Int_Tables_number   1
_chemical_formula_structural   CeDy(Co3P2)2
_chemical_formula_sum   'Ce3 Dy3 Co18 P12'
_cell_volume   486.44823343
_cell_formula_units_Z   3
loop_
 _symmetry_equiv_pos_site_id
 _symmetry_equiv_pos_as_xyz
  1  'x, y, z'
loop_
 _atom_site_type_symbol
 _atom_site_label
 _atom_site_symmetry_multiplicity
 _atom_site_fract_x
 _atom_site_fract_y
 _atom_site_fract_z
 _atom_site_occupancy
  Ce  Ce0  1  0.000000  0.499384  0.526566  1
  Ce  Ce1  1  0.500000  0.000909  0.475129  1
  Ce  Ce2  1  0.500000  0.818682  0.207178  1
  Dy  Dy3  1  0.500000  0.186151  0.204363  1
  Dy  Dy4  1  0.000000  0.684194  0.795608  1
  Dy  Dy5  1  0.000000  0.315191  0.794518  1
  Co  Co6  1  0.500000  0.499869  0.158703  1
  Co  Co7  1  0.000000  0.999787  0.841930  1
  Co  Co8  1  0.500000  0.499414  0.700230  1
  Co  Co9  1  0.000000  0.996925  0.297958  1
  Co  Co10  1  0.000000  0.499476  0.983936  1
  Co  Co11  1  0.500000  0.001196  0.013626  1
  Co  Co12  1  0.500000  0.334203  0.994061  1
  Co  Co13  1  0.500000  0.665839  0.994571  1
  Co  Co14  1  0.000000  0.167778  0.004757  1
  Co  Co15  1  0.000000  0.834273  0.004694  1
  Co  Co16  1  0.500000  0.298582  0.429737  1
  Co  Co17  1  0.500000  0.699780  0.431422  1
  Co  Co18  1  0.000000  0.200095  0.569457  1
  Co  Co19  1  0.000000  0.799166  0.571583  1
  Co  Co20  1  0.500000  0.880169  0.712181  1
  Co  Co21  1  0.500000  0.119405  0.711085  1
  Co  Co22  1  0.000000  0.620218  0.288828  1
  Co  Co23  1  0.000000  0.380277  0.288570  1
  P  P24  1  0.500000  0.499671  0.880477  1
  P  P25  1  0.000000  0.002874  0.115873  1
  P  P26  1  0.500000  0.499421  0.342453  1
  P  P27  1  0.000000  0.999693  0.658525  1
  P  P28  1  0.500000  0.306336  0.616131  1
  P  P29  1  0.500000  0.692511  0.617783  1
  P  P30  1  0.000000  0.192336  0.382784  1
  P  P31  1  0.000000  0.805471  0.388050  1
  P  P32  1  0.500000  0.847365  0.894550  1
  P  P33  1  0.500000  0.153294  0.893721  1
  P  P34  1  0.000000  0.651443  0.103776  1
  P  P35  1  0.000000  0.348625  0.105186  1
