# generated using pymatgen
data_SrGd2Si3O10
_symmetry_space_group_name_H-M   'P 1'
_cell_length_a   6.88209141
_cell_length_b   7.03814520
_cell_length_c   9.45479976
_cell_angle_alpha   72.67629662
_cell_angle_beta   86.12775220
_cell_angle_gamma   87.94396851
_symmetry_Int_Tables_number   1
_chemical_formula_structural   SrGd2Si3O10
_chemical_formula_sum   'Sr2 Gd4 Si6 O20'
_cell_volume   436.13151563
_cell_formula_units_Z   2
loop_
 _symmetry_equiv_pos_site_id
 _symmetry_equiv_pos_as_xyz
  1  'x, y, z'
loop_
 _atom_site_type_symbol
 _atom_site_label
 _atom_site_symmetry_multiplicity
 _atom_site_fract_x
 _atom_site_fract_y
 _atom_site_fract_z
 _atom_site_occupancy
  Sr  Sr0  1  0.601081  0.907442  0.818309  1
  Sr  Sr1  1  0.398919  0.092558  0.181691  1
  Gd  Gd2  1  0.857181  0.246214  0.490335  1
  Gd  Gd3  1  0.142819  0.753786  0.509665  1
  Gd  Gd4  1  0.839966  0.737921  0.189350  1
  Gd  Gd5  1  0.160034  0.262079  0.810650  1
  Si  Si6  1  0.326004  0.275646  0.456046  1
  Si  Si7  1  0.673996  0.724354  0.543954  1
  Si  Si8  1  0.333054  0.641091  0.168764  1
  Si  Si9  1  0.666946  0.358909  0.831236  1
  Si  Si10  1  0.876407  0.255188  0.124656  1
  Si  Si11  1  0.123593  0.744812  0.875344  1
  O  O12  1  0.530370  0.212023  0.532384  1
  O  O13  1  0.469630  0.787977  0.467616  1
  O  O14  1  0.822013  0.602833  0.455261  1
  O  O15  1  0.177987  0.397167  0.544739  1
  O  O16  1  0.815667  0.897913  0.566887  1
  O  O17  1  0.184333  0.102087  0.433113  1
  O  O18  1  0.619192  0.584673  0.720862  1
  O  O19  1  0.380808  0.415327  0.279138  1
  O  O20  1  0.527269  0.775932  0.117454  1
  O  O21  1  0.472731  0.224068  0.882546  1
  O  O22  1  0.828934  0.242095  0.749329  1
  O  O23  1  0.171066  0.757905  0.250671  1
  O  O24  1  0.254526  0.612584  0.015853  1
  O  O25  1  0.745474  0.387416  0.984147  1
  O  O26  1  0.912689  0.795540  0.945997  1
  O  O27  1  0.087311  0.204460  0.054003  1
  O  O28  1  0.763017  0.048999  0.210288  1
  O  O29  1  0.236983  0.951001  0.789712  1
  O  O30  1  0.880895  0.392897  0.237949  1
  O  O31  1  0.119105  0.607103  0.762051  1
