# generated using pymatgen
data_TbNd3Th4(Si3Pd)4
_symmetry_space_group_name_H-M   'P 1'
_cell_length_a   8.24982000
_cell_length_b   8.24981940
_cell_length_c   8.47302600
_cell_angle_alpha   90.00000000
_cell_angle_beta   90.00000000
_cell_angle_gamma   120.00000242
_symmetry_Int_Tables_number   1
_chemical_formula_structural   TbNd3Th4(Si3Pd)4
_chemical_formula_sum   'Tb1 Nd3 Th4 Si12 Pd4'
_cell_volume   499.41096597
_cell_formula_units_Z   1
loop_
 _symmetry_equiv_pos_site_id
 _symmetry_equiv_pos_as_xyz
  1  'x, y, z'
loop_
 _atom_site_type_symbol
 _atom_site_label
 _atom_site_symmetry_multiplicity
 _atom_site_fract_x
 _atom_site_fract_y
 _atom_site_fract_z
 _atom_site_occupancy
  Tb  Tb0  1  0.000000  0.000000  0.750000  1
  Nd  Nd1  1  0.500309  0.000616  0.250000  1
  Nd  Nd2  1  0.999384  0.499691  0.250000  1
  Nd  Nd3  1  0.500309  0.499691  0.250000  1
  Th  Th4  1  0.499740  0.999481  0.750000  1
  Th  Th5  1  0.000519  0.500260  0.750000  1
  Th  Th6  1  0.499740  0.500260  0.750000  1
  Th  Th7  1  0.000000  0.000000  0.250000  1
  Si  Si8  1  0.165321  0.330641  0.997388  1
  Si  Si9  1  0.834685  0.669371  0.996416  1
  Si  Si10  1  0.669359  0.834679  0.997388  1
  Si  Si11  1  0.834685  0.669371  0.503584  1
  Si  Si12  1  0.330629  0.165315  0.996416  1
  Si  Si13  1  0.165321  0.330641  0.502612  1
  Si  Si14  1  0.165321  0.834679  0.997388  1
  Si  Si15  1  0.330629  0.165315  0.503584  1
  Si  Si16  1  0.834685  0.165315  0.996416  1
  Si  Si17  1  0.669359  0.834679  0.502612  1
  Si  Si18  1  0.834685  0.165315  0.503584  1
  Si  Si19  1  0.165321  0.834679  0.502612  1
  Pd  Pd20  1  0.333333  0.666667  0.999521  1
  Pd  Pd21  1  0.666667  0.333333  0.997952  1
  Pd  Pd22  1  0.666667  0.333333  0.502048  1
  Pd  Pd23  1  0.333333  0.666667  0.500479  1
