# generated using pymatgen
data_TaTi2GeC2
_symmetry_space_group_name_H-M   'P 1'
_cell_length_a   3.13690700
_cell_length_b   3.13690848
_cell_length_c   17.99562800
_cell_angle_alpha   90.00000000
_cell_angle_beta   90.00000000
_cell_angle_gamma   120.00001598
_symmetry_Int_Tables_number   1
_chemical_formula_structural   TaTi2GeC2
_chemical_formula_sum   'Ta2 Ti4 Ge2 C4'
_cell_volume   153.35610197
_cell_formula_units_Z   2
loop_
 _symmetry_equiv_pos_site_id
 _symmetry_equiv_pos_as_xyz
  1  'x, y, z'
loop_
 _atom_site_type_symbol
 _atom_site_label
 _atom_site_symmetry_multiplicity
 _atom_site_fract_x
 _atom_site_fract_y
 _atom_site_fract_z
 _atom_site_occupancy
  Ta  Ta0  1  0.000000  0.000000  0.500000  1
  Ta  Ta1  1  0.000000  0.000000  0.000000  1
  Ti  Ti2  1  0.333333  0.666667  0.365258  1
  Ti  Ti3  1  0.666667  0.333333  0.634742  1
  Ti  Ti4  1  0.666667  0.333333  0.865258  1
  Ti  Ti5  1  0.333333  0.666667  0.134742  1
  Ge  Ge6  1  0.000000  0.000000  0.250000  1
  Ge  Ge7  1  0.000000  0.000000  0.750000  1
  C  C8  1  0.333333  0.666667  0.926669  1
  C  C9  1  0.666667  0.333333  0.073331  1
  C  C10  1  0.666667  0.333333  0.426669  1
  C  C11  1  0.333333  0.666667  0.573331  1
