# generated using pymatgen
data_SmDy10Y9Sn16
_symmetry_space_group_name_H-M   'P 1'
_cell_length_a   8.07240722
_cell_length_b   8.19165806
_cell_length_c   15.50861600
_cell_angle_alpha   90.09032579
_cell_angle_beta   89.79000604
_cell_angle_gamma   89.88751897
_symmetry_Int_Tables_number   1
_chemical_formula_structural   SmDy10Y9Sn16
_chemical_formula_sum   'Sm1 Dy10 Y9 Sn16'
_cell_volume   1025.51878925
_cell_formula_units_Z   1
loop_
 _symmetry_equiv_pos_site_id
 _symmetry_equiv_pos_as_xyz
  1  'x, y, z'
loop_
 _atom_site_type_symbol
 _atom_site_label
 _atom_site_symmetry_multiplicity
 _atom_site_fract_x
 _atom_site_fract_y
 _atom_site_fract_z
 _atom_site_occupancy
  Sm  Sm0  1  0.017755  0.180105  0.903101  1
  Dy  Dy1  1  0.366859  0.836197  0.877833  1
  Dy  Dy2  1  0.868172  0.663966  0.621382  1
  Dy  Dy3  1  0.631551  0.162852  0.377906  1
  Dy  Dy4  1  0.133172  0.337121  0.122413  1
  Dy  Dy5  1  0.633023  0.162832  0.122374  1
  Dy  Dy6  1  0.131978  0.337284  0.378165  1
  Dy  Dy7  1  0.368161  0.837162  0.621899  1
  Dy  Dy8  1  0.867190  0.662610  0.878061  1
  Dy  Dy9  1  0.522125  0.321932  0.902134  1
  Dy  Dy10  1  0.022583  0.178922  0.598619  1
  Y  Y11  1  0.478419  0.678611  0.402027  1
  Y  Y12  1  0.979359  0.821050  0.098196  1
  Y  Y13  1  0.479612  0.678346  0.097785  1
  Y  Y14  1  0.978589  0.821221  0.402078  1
  Y  Y15  1  0.521427  0.322435  0.597137  1
  Y  Y16  1  0.198481  0.501720  0.749401  1
  Y  Y17  1  0.698527  0.997408  0.749054  1
  Y  Y18  1  0.801452  0.497547  0.250427  1
  Y  Y19  1  0.301581  0.002242  0.250121  1
  Sn  Sn20  1  0.294388  0.035478  0.042428  1
  Sn  Sn21  1  0.791820  0.463581  0.458171  1
  Sn  Sn22  1  0.708784  0.965674  0.541770  1
  Sn  Sn23  1  0.208759  0.536186  0.958251  1
  Sn  Sn24  1  0.703965  0.960949  0.958928  1
  Sn  Sn25  1  0.207797  0.536756  0.541573  1
  Sn  Sn26  1  0.291892  0.036437  0.458394  1
  Sn  Sn27  1  0.793364  0.462068  0.041389  1
  Sn  Sn28  1  0.564992  0.619615  0.749798  1
  Sn  Sn29  1  0.065363  0.879828  0.750536  1
  Sn  Sn30  1  0.434930  0.381013  0.250024  1
  Sn  Sn31  1  0.934948  0.119274  0.250251  1
  Sn  Sn32  1  0.331204  0.146903  0.749913  1
  Sn  Sn33  1  0.827514  0.354841  0.748600  1
  Sn  Sn34  1  0.670207  0.852895  0.249880  1
  Sn  Sn35  1  0.170054  0.646937  0.249980  1
