# generated using pymatgen
data_MnSn(As2O7)2
_symmetry_space_group_name_H-M   'P 1'
_cell_length_a   5.04723228
_cell_length_b   8.30435186
_cell_length_c   7.35384478
_cell_angle_alpha   90.38449820
_cell_angle_beta   105.99821908
_cell_angle_gamma   90.65095019
_symmetry_Int_Tables_number   1
_chemical_formula_structural   MnSn(As2O7)2
_chemical_formula_sum   'Mn1 Sn1 As4 O14'
_cell_volume   296.25671628
_cell_formula_units_Z   1
loop_
 _symmetry_equiv_pos_site_id
 _symmetry_equiv_pos_as_xyz
  1  'x, y, z'
loop_
 _atom_site_type_symbol
 _atom_site_label
 _atom_site_symmetry_multiplicity
 _atom_site_fract_x
 _atom_site_fract_y
 _atom_site_fract_z
 _atom_site_occupancy
  Mn  Mn0  1  0.779789  0.006384  0.270739  1
  Sn  Sn1  1  0.223437  0.506741  0.735512  1
  As  As2  1  0.394053  0.180168  0.499757  1
  As  As3  1  0.217607  0.783949  0.105362  1
  As  As4  1  0.770366  0.262699  0.904694  1
  As  As5  1  0.612550  0.690376  0.490009  1
  O  O6  1  0.054963  0.308360  0.831700  1
  O  O7  1  0.103174  0.680328  0.897563  1
  O  O8  1  0.139782  0.037193  0.450272  1
  O  O9  1  0.299742  0.375447  0.512862  1
  O  O10  1  0.421266  0.697903  0.647852  1
  O  O11  1  0.589848  0.431651  0.926860  1
  O  O12  1  0.569833  0.122295  0.736914  1
  O  O13  1  0.404613  0.634120  0.259779  1
  O  O14  1  0.423675  0.948488  0.097083  1
  O  O15  1  0.616484  0.187817  0.360133  1
  O  O16  1  0.708246  0.887456  0.474723  1
  O  O17  1  0.858364  0.547879  0.528726  1
  O  O18  1  0.894174  0.153258  0.103996  1
  O  O19  1  0.923336  0.821049  0.170067  1
