# generated using pymatgen
data_LaTb3Ho3CoI12
_symmetry_space_group_name_H-M   'P 1'
_cell_length_a   9.76979009
_cell_length_b   9.76979019
_cell_length_c   9.76979004
_cell_angle_alpha   106.28989283
_cell_angle_beta   106.28989076
_cell_angle_gamma   106.28989842
_symmetry_Int_Tables_number   1
_chemical_formula_structural   LaTb3Ho3CoI12
_chemical_formula_sum   'La1 Tb3 Ho3 Co1 I12'
_cell_volume   791.16893529
_cell_formula_units_Z   1
loop_
 _symmetry_equiv_pos_site_id
 _symmetry_equiv_pos_as_xyz
  1  'x, y, z'
loop_
 _atom_site_type_symbol
 _atom_site_label
 _atom_site_symmetry_multiplicity
 _atom_site_fract_x
 _atom_site_fract_y
 _atom_site_fract_z
 _atom_site_occupancy
  La  La0  1  0.995816  0.995816  0.995816  1
  Tb  Tb1  1  0.516196  0.588179  0.784803  1
  Tb  Tb2  1  0.784803  0.516196  0.588179  1
  Tb  Tb3  1  0.588179  0.784803  0.516196  1
  Ho  Ho4  1  0.481300  0.410114  0.216744  1
  Ho  Ho5  1  0.216744  0.481300  0.410114  1
  Ho  Ho6  1  0.410114  0.216744  0.481300  1
  Co  Co7  1  0.499720  0.499720  0.499720  1
  I  I8  1  0.274769  0.822448  0.426258  1
  I  I9  1  0.426258  0.274769  0.822448  1
  I  I10  1  0.822448  0.426258  0.274769  1
  I  I11  1  0.721421  0.175119  0.571466  1
  I  I12  1  0.571466  0.721421  0.175119  1
  I  I13  1  0.175119  0.571466  0.721421  1
  I  I14  1  0.046074  0.124079  0.350786  1
  I  I15  1  0.350786  0.046074  0.124079  1
  I  I16  1  0.124079  0.350786  0.046074  1
  I  I17  1  0.953171  0.874244  0.642664  1
  I  I18  1  0.642664  0.953171  0.874244  1
  I  I19  1  0.874244  0.642664  0.953171  1
