# generated using pymatgen
data_Ba3Sc2O5F2
_symmetry_space_group_name_H-M   'P 1'
_cell_length_a   4.19686072
_cell_length_b   4.19685957
_cell_length_c   11.63489609
_cell_angle_alpha   100.39052483
_cell_angle_beta   100.39052460
_cell_angle_gamma   89.99999990
_symmetry_Int_Tables_number   1
_chemical_formula_structural   Ba3Sc2O5F2
_chemical_formula_sum   'Ba3 Sc2 O5 F2'
_cell_volume   198.15456763
_cell_formula_units_Z   1
loop_
 _symmetry_equiv_pos_site_id
 _symmetry_equiv_pos_as_xyz
  1  'x, y, z'
loop_
 _atom_site_type_symbol
 _atom_site_label
 _atom_site_symmetry_multiplicity
 _atom_site_fract_x
 _atom_site_fract_y
 _atom_site_fract_z
 _atom_site_occupancy
  Ba  Ba0  1  0.500000  0.500000  0.000000  1
  Ba  Ba1  1  0.675114  0.675114  0.350228  1
  Ba  Ba2  1  0.324886  0.324886  0.649772  1
  Sc  Sc3  1  0.089606  0.089606  0.179211  1
  Sc  Sc4  1  0.910394  0.910394  0.820789  1
  O  O5  1  0.000000  0.000000  0.000000  1
  O  O6  1  0.601063  0.101063  0.202126  1
  O  O7  1  0.101063  0.601063  0.202126  1
  O  O8  1  0.898936  0.398936  0.797873  1
  O  O9  1  0.398936  0.898936  0.797873  1
  F  F10  1  0.201552  0.201552  0.403106  1
  F  F11  1  0.798447  0.798447  0.596893  1
