# generated using pymatgen
data_Ce4DyHo3(Si3Rh4)2
_symmetry_space_group_name_H-M   'P 1'
_cell_length_a   10.70150192
_cell_length_b   10.70249208
_cell_length_c   7.82950317
_cell_angle_alpha   71.13001244
_cell_angle_beta   71.13534967
_cell_angle_gamma   29.74760276
_symmetry_Int_Tables_number   1
_chemical_formula_structural   Ce4DyHo3(Si3Rh4)2
_chemical_formula_sum   'Ce4 Dy1 Ho3 Si6 Rh8'
_cell_volume   419.29731383
_cell_formula_units_Z   1
loop_
 _symmetry_equiv_pos_site_id
 _symmetry_equiv_pos_as_xyz
  1  'x, y, z'
loop_
 _atom_site_type_symbol
 _atom_site_label
 _atom_site_symmetry_multiplicity
 _atom_site_fract_x
 _atom_site_fract_y
 _atom_site_fract_z
 _atom_site_occupancy
  Ce  Ce0  1  0.789105  0.080172  0.169811  1
  Ce  Ce1  1  0.919861  0.210782  0.330284  1
  Ce  Ce2  1  0.210784  0.919897  0.830167  1
  Ce  Ce3  1  0.080139  0.789138  0.669797  1
  Dy  Dy4  1  0.546583  0.794822  0.100471  1
  Ho  Ho5  1  0.794628  0.546881  0.600476  1
  Ho  Ho6  1  0.453115  0.205476  0.899468  1
  Ho  Ho7  1  0.205375  0.453137  0.399499  1
  Si  Si8  1  0.951895  0.702939  0.057216  1
  Si  Si9  1  0.296986  0.048239  0.442992  1
  Si  Si10  1  0.048154  0.297076  0.942569  1
  Si  Si11  1  0.702883  0.951909  0.557211  1
  Si  Si12  1  0.653561  0.346435  0.750007  1
  Si  Si13  1  0.346406  0.653490  0.250049  1
  Rh  Rh14  1  0.567615  0.303641  0.517442  1
  Rh  Rh15  1  0.696451  0.432135  0.982468  1
  Rh  Rh16  1  0.432328  0.696300  0.482784  1
  Rh  Rh17  1  0.303682  0.567552  0.017456  1
  Rh  Rh18  1  0.634410  0.925111  0.312202  1
  Rh  Rh19  1  0.075095  0.365598  0.187988  1
  Rh  Rh20  1  0.365598  0.075028  0.687766  1
  Rh  Rh21  1  0.925347  0.634242  0.811876  1
