# generated using pymatgen
data_Er4Tm4Ti12Si15Sn
_symmetry_space_group_name_H-M   'P 1'
_cell_length_a   7.08068051
_cell_length_b   7.04438611
_cell_length_c   12.95478105
_cell_angle_alpha   89.99178814
_cell_angle_beta   89.73500835
_cell_angle_gamma   89.90448452
_symmetry_Int_Tables_number   1
_chemical_formula_structural   Er4Tm4Ti12Si15Sn
_chemical_formula_sum   'Er4 Tm4 Ti12 Si15 Sn1'
_cell_volume   646.16432351
_cell_formula_units_Z   1
loop_
 _symmetry_equiv_pos_site_id
 _symmetry_equiv_pos_as_xyz
  1  'x, y, z'
loop_
 _atom_site_type_symbol
 _atom_site_label
 _atom_site_symmetry_multiplicity
 _atom_site_fract_x
 _atom_site_fract_y
 _atom_site_fract_z
 _atom_site_occupancy
  Er  Er0  1  0.159572  0.510191  0.786096  1
  Er  Er1  1  0.661833  0.996528  0.968965  1
  Er  Er2  1  0.992143  0.348380  0.527240  1
  Er  Er3  1  0.999512  0.659214  0.034118  1
  Tm  Tm4  1  0.343024  0.998683  0.461212  1
  Tm  Tm5  1  0.506390  0.835065  0.718161  1
  Tm  Tm6  1  0.502038  0.159755  0.216990  1
  Tm  Tm7  1  0.840822  0.497174  0.282159  1
  Ti  Ti8  1  0.326737  0.326617  0.001312  1
  Ti  Ti9  1  0.173932  0.826035  0.249715  1
  Ti  Ti10  1  0.816536  0.174875  0.751926  1
  Ti  Ti11  1  0.672037  0.673228  0.499455  1
  Ti  Ti12  1  0.152690  0.007616  0.883337  1
  Ti  Ti13  1  0.493057  0.649524  0.126881  1
  Ti  Ti14  1  0.514580  0.354729  0.626421  1
  Ti  Ti15  1  0.653994  0.493618  0.875819  1
  Ti  Ti16  1  0.347579  0.509020  0.372748  1
  Ti  Ti17  1  0.846832  0.992959  0.375497  1
  Ti  Ti18  1  0.009607  0.150878  0.123491  1
  Ti  Ti19  1  0.979041  0.835892  0.618556  1
  Si  Si20  1  0.371163  0.703133  0.935467  1
  Si  Si21  1  0.627928  0.297201  0.432056  1
  Si  Si22  1  0.704508  0.368598  0.067506  1
  Si  Si23  1  0.296325  0.631852  0.566101  1
  Si  Si24  1  0.797280  0.869069  0.183788  1
  Si  Si25  1  0.130539  0.202711  0.315459  1
  Si  Si26  1  0.870183  0.799877  0.816444  1
  Si  Si27  1  0.294073  0.952188  0.067184  1
  Si  Si28  1  0.549156  0.790154  0.313612  1
  Si  Si29  1  0.459577  0.209622  0.820037  1
  Si  Si30  1  0.793981  0.544890  0.686915  1
  Si  Si31  1  0.208779  0.452462  0.185209  1
  Si  Si32  1  0.704910  0.048208  0.564424  1
  Si  Si33  1  0.952941  0.292251  0.935349  1
  Si  Si34  1  0.047138  0.710418  0.432453  1
  Sn  Sn35  1  0.199561  0.127383  0.677897  1
