# generated using pymatgen
data_Dy7YTi11Si16Mo
_symmetry_space_group_name_H-M   'P 1'
_cell_length_a   7.04138569
_cell_length_b   7.04140108
_cell_length_c   12.94511200
_cell_angle_alpha   90.02188489
_cell_angle_beta   89.97534199
_cell_angle_gamma   90.01483531
_symmetry_Int_Tables_number   1
_chemical_formula_structural   Dy7YTi11Si16Mo
_chemical_formula_sum   'Dy7 Y1 Ti11 Si16 Mo1'
_cell_volume   641.83432862
_cell_formula_units_Z   1
loop_
 _symmetry_equiv_pos_site_id
 _symmetry_equiv_pos_as_xyz
  1  'x, y, z'
loop_
 _atom_site_type_symbol
 _atom_site_label
 _atom_site_symmetry_multiplicity
 _atom_site_fract_x
 _atom_site_fract_y
 _atom_site_fract_z
 _atom_site_occupancy
  Dy  Dy0  1  0.001358  0.341414  0.532942  1
  Dy  Dy1  1  0.659943  0.996921  0.966995  1
  Dy  Dy2  1  0.160031  0.502781  0.782642  1
  Dy  Dy3  1  0.840040  0.498844  0.284407  1
  Dy  Dy4  1  0.502801  0.160024  0.217341  1
  Dy  Dy5  1  0.498858  0.840041  0.715591  1
  Dy  Dy6  1  0.341429  0.001378  0.467076  1
  Y  Y7  1  0.996876  0.659944  0.032993  1
  Ti  Ti8  1  0.348167  0.508330  0.375074  1
  Ti  Ti9  1  0.846339  0.990737  0.376872  1
  Ti  Ti10  1  0.007921  0.152060  0.123901  1
  Ti  Ti11  1  0.990731  0.846339  0.623123  1
  Ti  Ti12  1  0.508353  0.348175  0.624922  1
  Ti  Ti13  1  0.152069  0.007937  0.876093  1
  Ti  Ti14  1  0.826132  0.172626  0.749638  1
  Ti  Ti15  1  0.172608  0.826183  0.250366  1
  Ti  Ti16  1  0.327104  0.327075  0.000005  1
  Ti  Ti17  1  0.492323  0.651963  0.126653  1
  Ti  Ti18  1  0.651950  0.492322  0.873329  1
  Si  Si19  1  0.046602  0.709329  0.435071  1
  Si  Si20  1  0.952658  0.291205  0.934912  1
  Si  Si21  1  0.709322  0.046626  0.564935  1
  Si  Si22  1  0.208430  0.453657  0.185069  1
  Si  Si23  1  0.791432  0.547289  0.684609  1
  Si  Si24  1  0.453724  0.208422  0.814935  1
  Si  Si25  1  0.547323  0.791462  0.315390  1
  Si  Si26  1  0.291244  0.952718  0.065107  1
  Si  Si27  1  0.797951  0.870081  0.184852  1
  Si  Si28  1  0.298727  0.629383  0.565354  1
  Si  Si29  1  0.702478  0.370122  0.065379  1
  Si  Si30  1  0.629400  0.298704  0.434678  1
  Si  Si31  1  0.370203  0.702480  0.934619  1
  Si  Si32  1  0.129752  0.202149  0.315295  1
  Si  Si33  1  0.202167  0.129774  0.684681  1
  Si  Si34  1  0.870002  0.797959  0.815145  1
  Mo  Mo35  1  0.673549  0.673541  0.500007  1
