# generated using pymatgen
data_NdDy(SbAu)2
_symmetry_space_group_name_H-M   'P 1'
_cell_length_a   4.60654200
_cell_length_b   4.60654216
_cell_length_c   16.48263200
_cell_angle_alpha   90.00000000
_cell_angle_beta   90.00000000
_cell_angle_gamma   120.00001323
_symmetry_Int_Tables_number   1
_chemical_formula_structural   NdDy(SbAu)2
_chemical_formula_sum   'Nd2 Dy2 Sb4 Au4'
_cell_volume   302.90554348
_cell_formula_units_Z   2
loop_
 _symmetry_equiv_pos_site_id
 _symmetry_equiv_pos_as_xyz
  1  'x, y, z'
loop_
 _atom_site_type_symbol
 _atom_site_label
 _atom_site_symmetry_multiplicity
 _atom_site_fract_x
 _atom_site_fract_y
 _atom_site_fract_z
 _atom_site_occupancy
  Nd  Nd0  1  0.000000  0.000000  0.500000  1
  Nd  Nd1  1  0.000000  0.000000  0.000000  1
  Dy  Dy2  1  0.000000  0.000000  0.250000  1
  Dy  Dy3  1  0.000000  0.000000  0.750000  1
  Sb  Sb4  1  0.333333  0.666667  0.387866  1
  Sb  Sb5  1  0.666667  0.333333  0.612134  1
  Sb  Sb6  1  0.666667  0.333333  0.887866  1
  Sb  Sb7  1  0.333333  0.666667  0.112134  1
  Au  Au8  1  0.666667  0.333333  0.337514  1
  Au  Au9  1  0.333333  0.666667  0.662486  1
  Au  Au10  1  0.333333  0.666667  0.837514  1
  Au  Au11  1  0.666667  0.333333  0.162486  1
