# generated using pymatgen
data_TbCe9Se10
_symmetry_space_group_name_H-M   'P 1'
_cell_length_a   7.25491325
_cell_length_b   8.33031402
_cell_length_c   9.42721800
_cell_angle_alpha   103.13628201
_cell_angle_beta   96.93209731
_cell_angle_gamma   106.95706965
_symmetry_Int_Tables_number   1
_chemical_formula_structural   TbCe9Se10
_chemical_formula_sum   'Tb1 Ce9 Se10'
_cell_volume   519.90810106
_cell_formula_units_Z   1
loop_
 _symmetry_equiv_pos_site_id
 _symmetry_equiv_pos_as_xyz
  1  'x, y, z'
loop_
 _atom_site_type_symbol
 _atom_site_label
 _atom_site_symmetry_multiplicity
 _atom_site_fract_x
 _atom_site_fract_y
 _atom_site_fract_z
 _atom_site_occupancy
  Tb  Tb0  1  0.000000  0.500000  0.000000  1
  Ce  Ce1  1  0.800506  0.599579  0.598097  1
  Ce  Ce2  1  0.595691  0.198425  0.198479  1
  Ce  Ce3  1  0.404309  0.801575  0.801521  1
  Ce  Ce4  1  0.599382  0.700635  0.200250  1
  Ce  Ce5  1  0.199494  0.400421  0.401903  1
  Ce  Ce6  1  0.400618  0.299365  0.799750  1
  Ce  Ce7  1  0.000000  0.000000  0.000000  1
  Ce  Ce8  1  0.198821  0.899849  0.399998  1
  Ce  Ce9  1  0.801179  0.100151  0.600002  1
  Se  Se10  1  0.704910  0.646803  0.900987  1
  Se  Se11  1  0.500231  0.250127  0.499856  1
  Se  Se12  1  0.705490  0.156214  0.901963  1
  Se  Se13  1  0.294510  0.843786  0.098037  1
  Se  Se14  1  0.499769  0.749873  0.500144  1
  Se  Se15  1  0.100677  0.452551  0.705734  1
  Se  Se16  1  0.295090  0.353197  0.099013  1
  Se  Se17  1  0.898049  0.050616  0.299452  1
  Se  Se18  1  0.101951  0.949384  0.700548  1
  Se  Se19  1  0.899323  0.547449  0.294266  1
