# generated using pymatgen
data_PrDy4Th3(ReB6)4
_symmetry_space_group_name_H-M   'P 1'
_cell_length_a   3.76914100
_cell_length_b   9.27573619
_cell_length_c   11.71085438
_cell_angle_alpha   90.10358093
_cell_angle_beta   90.00000000
_cell_angle_gamma   90.00000000
_symmetry_Int_Tables_number   1
_chemical_formula_structural   PrDy4Th3(ReB6)4
_chemical_formula_sum   'Pr1 Dy4 Th3 Re4 B24'
_cell_volume   409.42904057
_cell_formula_units_Z   1
loop_
 _symmetry_equiv_pos_site_id
 _symmetry_equiv_pos_as_xyz
  1  'x, y, z'
loop_
 _atom_site_type_symbol
 _atom_site_label
 _atom_site_symmetry_multiplicity
 _atom_site_fract_x
 _atom_site_fract_y
 _atom_site_fract_z
 _atom_site_occupancy
  Pr  Pr0  1  0.000000  0.177456  0.913579  1
  Dy  Dy1  1  0.000000  0.944696  0.372880  1
  Dy  Dy2  1  0.000000  0.056168  0.628511  1
  Dy  Dy3  1  0.000000  0.442855  0.128185  1
  Dy  Dy4  1  0.000000  0.555835  0.871340  1
  Th  Th5  1  0.000000  0.321528  0.414496  1
  Th  Th6  1  0.000000  0.678512  0.586049  1
  Th  Th7  1  0.000000  0.823618  0.085597  1
  Re  Re8  1  0.000000  0.638736  0.319873  1
  Re  Re9  1  0.000000  0.362877  0.678743  1
  Re  Re10  1  0.000000  0.139104  0.180923  1
  Re  Re11  1  0.000000  0.859136  0.819837  1
  B  B12  1  0.500000  0.556066  0.429428  1
  B  B13  1  0.500000  0.444321  0.570174  1
  B  B14  1  0.500000  0.055365  0.070246  1
  B  B15  1  0.500000  0.943493  0.930214  1
  B  B16  1  0.500000  0.749406  0.416542  1
  B  B17  1  0.500000  0.250577  0.583328  1
  B  B18  1  0.500000  0.248767  0.083976  1
  B  B19  1  0.500000  0.750876  0.916583  1
  B  B20  1  0.500000  0.790652  0.266708  1
  B  B21  1  0.500000  0.209507  0.732721  1
  B  B22  1  0.500000  0.290331  0.233449  1
  B  B23  1  0.500000  0.709264  0.766790  1
  B  B24  1  0.500000  0.630534  0.186356  1
  B  B25  1  0.500000  0.369908  0.813161  1
  B  B26  1  0.500000  0.130700  0.313713  1
  B  B27  1  0.500000  0.869127  0.686552  1
  B  B28  1  0.500000  0.985391  0.213687  1
  B  B29  1  0.500000  0.014272  0.786095  1
  B  B30  1  0.500000  0.485413  0.286228  1
  B  B31  1  0.500000  0.514987  0.713509  1
  B  B32  1  0.500000  0.600648  0.028011  1
  B  B33  1  0.500000  0.399853  0.971921  1
  B  B34  1  0.500000  0.104120  0.471717  1
  B  B35  1  0.500000  0.895903  0.528879  1
