# generated using pymatgen
data_InSbAs2Cl2O5
_symmetry_space_group_name_H-M   'P 1'
_cell_length_a   6.86845174
_cell_length_b   7.31542515
_cell_length_c   9.57751065
_cell_angle_alpha   111.85767236
_cell_angle_beta   100.65211287
_cell_angle_gamma   97.82765923
_symmetry_Int_Tables_number   1
_chemical_formula_structural   InSbAs2Cl2O5
_chemical_formula_sum   'In2 Sb2 As4 Cl4 O10'
_cell_volume   427.70582129
_cell_formula_units_Z   2
loop_
 _symmetry_equiv_pos_site_id
 _symmetry_equiv_pos_as_xyz
  1  'x, y, z'
loop_
 _atom_site_type_symbol
 _atom_site_label
 _atom_site_symmetry_multiplicity
 _atom_site_fract_x
 _atom_site_fract_y
 _atom_site_fract_z
 _atom_site_occupancy
  In  In0  1  0.860059  0.768084  0.332575  1
  In  In1  1  0.139941  0.231916  0.667425  1
  Sb  Sb2  1  0.391925  0.711657  0.520016  1
  Sb  Sb3  1  0.608075  0.288343  0.479984  1
  As  As4  1  0.883271  0.830830  0.728280  1
  As  As5  1  0.116729  0.169170  0.271720  1
  As  As6  1  0.680567  0.251291  0.803543  1
  As  As7  1  0.319433  0.748709  0.196457  1
  Cl  Cl8  1  0.255242  0.606685  0.764960  1
  Cl  Cl9  1  0.744758  0.393315  0.235040  1
  Cl  Cl10  1  0.780218  0.786610  0.076707  1
  Cl  Cl11  1  0.219782  0.213390  0.923293  1
  O  O12  1  0.842788  0.312974  0.692360  1
  O  O13  1  0.157212  0.687026  0.307640  1
  O  O14  1  0.541301  0.783363  0.358896  1
  O  O15  1  0.458699  0.216637  0.641104  1
  O  O16  1  0.682728  0.980524  0.739450  1
  O  O17  1  0.317272  0.019476  0.260550  1
  O  O18  1  0.669285  0.611413  0.586621  1
  O  O19  1  0.330715  0.388587  0.413379  1
  O  O20  1  0.982577  0.888825  0.583544  1
  O  O21  1  0.017423  0.111175  0.416456  1
