# generated using pymatgen
data_Ho2Er3(Hg2Pd)2
_symmetry_space_group_name_H-M   'P 1'
_cell_length_a   3.59523500
_cell_length_b   7.93849204
_cell_length_c   18.16551834
_cell_angle_alpha   90.05841933
_cell_angle_beta   90.00000000
_cell_angle_gamma   90.00000000
_symmetry_Int_Tables_number   1
_chemical_formula_structural   Ho2Er3(Hg2Pd)2
_chemical_formula_sum   'Ho4 Er6 Hg8 Pd4'
_cell_volume   518.45714692
_cell_formula_units_Z   2
loop_
 _symmetry_equiv_pos_site_id
 _symmetry_equiv_pos_as_xyz
  1  'x, y, z'
loop_
 _atom_site_type_symbol
 _atom_site_label
 _atom_site_symmetry_multiplicity
 _atom_site_fract_x
 _atom_site_fract_y
 _atom_site_fract_z
 _atom_site_occupancy
  Ho  Ho0  1  0.000000  0.500000  0.500000  1
  Ho  Ho1  1  0.000000  0.000000  0.000000  1
  Ho  Ho2  1  0.000000  0.735525  0.284435  1
  Ho  Ho3  1  0.000000  0.264475  0.715565  1
  Er  Er4  1  0.000000  0.764570  0.784485  1
  Er  Er5  1  0.000000  0.235430  0.215515  1
  Er  Er6  1  0.000000  0.613117  0.083072  1
  Er  Er7  1  0.000000  0.386883  0.916928  1
  Er  Er8  1  0.000000  0.886427  0.583138  1
  Er  Er9  1  0.000000  0.113573  0.416862  1
  Hg  Hg10  1  0.500000  0.712551  0.934469  1
  Hg  Hg11  1  0.500000  0.287449  0.065531  1
  Hg  Hg12  1  0.500000  0.787823  0.434576  1
  Hg  Hg13  1  0.500000  0.212177  0.565424  1
  Hg  Hg14  1  0.500000  0.584187  0.648322  1
  Hg  Hg15  1  0.500000  0.415813  0.351678  1
  Hg  Hg16  1  0.500000  0.916276  0.148274  1
  Hg  Hg17  1  0.500000  0.083724  0.851726  1
  Pd  Pd18  1  0.500000  0.524542  0.195578  1
  Pd  Pd19  1  0.500000  0.475458  0.804422  1
  Pd  Pd20  1  0.500000  0.972327  0.695753  1
  Pd  Pd21  1  0.500000  0.027673  0.304247  1
