# generated using pymatgen
data_Sc4Al24Pt7Au2
_symmetry_space_group_name_H-M   'P 1'
_cell_length_a   7.50126534
_cell_length_b   7.50889544
_cell_length_c   13.05419085
_cell_angle_alpha   84.61631022
_cell_angle_beta   79.04764882
_cell_angle_gamma   59.94916138
_symmetry_Int_Tables_number   1
_chemical_formula_structural   Sc4Al24Pt7Au2
_chemical_formula_sum   'Sc4 Al24 Pt7 Au2'
_cell_volume   624.86265255
_cell_formula_units_Z   1
loop_
 _symmetry_equiv_pos_site_id
 _symmetry_equiv_pos_as_xyz
  1  'x, y, z'
loop_
 _atom_site_type_symbol
 _atom_site_label
 _atom_site_symmetry_multiplicity
 _atom_site_fract_x
 _atom_site_fract_y
 _atom_site_fract_z
 _atom_site_occupancy
  Sc  Sc0  1  0.392691  0.169654  0.809421  1
  Sc  Sc1  1  0.607309  0.830346  0.190579  1
  Sc  Sc2  1  0.733450  0.499558  0.810258  1
  Sc  Sc3  1  0.266550  0.500442  0.189742  1
  Al  Al4  1  0.680946  0.834074  0.942429  1
  Al  Al5  1  0.319054  0.165926  0.057571  1
  Al  Al6  1  0.145552  0.839343  0.563412  1
  Al  Al7  1  0.854448  0.160657  0.436588  1
  Al  Al8  1  0.488147  0.159090  0.560609  1
  Al  Al9  1  0.511853  0.840910  0.439391  1
  Al  Al10  1  0.228318  0.160540  0.319132  1
  Al  Al11  1  0.771682  0.839460  0.680868  1
  Al  Al12  1  0.440919  0.503595  0.681007  1
  Al  Al13  1  0.559081  0.496405  0.318993  1
  Al  Al14  1  0.107193  0.158100  0.678848  1
  Al  Al15  1  0.892807  0.841900  0.321152  1
  Al  Al16  1  0.357145  0.495683  0.942281  1
  Al  Al17  1  0.642855  0.504317  0.057719  1
  Al  Al18  1  0.016804  0.170484  0.949771  1
  Al  Al19  1  0.983196  0.829516  0.050229  1
  Al  Al20  1  0.196070  0.499280  0.436112  1
  Al  Al21  1  0.803930  0.500720  0.563888  1
  Al  Al22  1  0.728867  0.164531  0.182439  1
  Al  Al23  1  0.271133  0.835469  0.817561  1
  Al  Al24  1  0.060199  0.630391  0.818084  1
  Al  Al25  1  0.939801  0.369609  0.181916  1
  Al  Al26  1  0.850044  0.046739  0.816932  1
  Al  Al27  1  0.149956  0.953261  0.183069  1
  Pt  Pt28  1  0.657346  0.171591  0.999716  1
  Pt  Pt29  1  0.342654  0.828409  0.000284  1
  Pt  Pt30  1  0.537342  0.166826  0.361445  1
  Pt  Pt31  1  0.462658  0.833174  0.638555  1
  Pt  Pt32  1  0.779478  0.175468  0.637161  1
  Pt  Pt33  1  0.220522  0.824532  0.362839  1
  Pt  Pt34  1  0.000000  0.500000  0.000000  1
  Au  Au35  1  0.120120  0.490682  0.638155  1
  Au  Au36  1  0.879880  0.509318  0.361845  1
