# generated using pymatgen
data_La8Zn8IrRh7
_symmetry_space_group_name_H-M   'P 1'
_cell_length_a   4.05866200
_cell_length_b   7.47241959
_cell_length_c   16.65789245
_cell_angle_alpha   89.91000920
_cell_angle_beta   90.00000000
_cell_angle_gamma   90.00000000
_symmetry_Int_Tables_number   1
_chemical_formula_structural   La8Zn8IrRh7
_chemical_formula_sum   'La8 Zn8 Ir1 Rh7'
_cell_volume   505.20036288
_cell_formula_units_Z   1
loop_
 _symmetry_equiv_pos_site_id
 _symmetry_equiv_pos_as_xyz
  1  'x, y, z'
loop_
 _atom_site_type_symbol
 _atom_site_label
 _atom_site_symmetry_multiplicity
 _atom_site_fract_x
 _atom_site_fract_y
 _atom_site_fract_z
 _atom_site_occupancy
  La  La0  1  0.750000  0.326783  0.440341  1
  La  La1  1  0.250000  0.050684  0.717108  1
  La  La2  1  0.250000  0.547187  0.783223  1
  La  La3  1  0.250000  0.671666  0.558547  1
  La  La4  1  0.750000  0.826144  0.060201  1
  La  La5  1  0.250000  0.171633  0.940514  1
  La  La6  1  0.750000  0.451382  0.217318  1
  La  La7  1  0.750000  0.952052  0.282957  1
  Zn  Zn8  1  0.250000  0.127297  0.150400  1
  Zn  Zn9  1  0.250000  0.997868  0.440216  1
  Zn  Zn10  1  0.750000  0.875080  0.850803  1
  Zn  Zn11  1  0.750000  0.000695  0.558109  1
  Zn  Zn12  1  0.250000  0.497642  0.059986  1
  Zn  Zn13  1  0.750000  0.373900  0.648911  1
  Zn  Zn14  1  0.750000  0.501505  0.940692  1
  Zn  Zn15  1  0.250000  0.627505  0.350227  1
  Ir  Ir16  1  0.750000  0.260228  0.814550  1
  Rh  Rh17  1  0.250000  0.242009  0.314314  1
  Rh  Rh18  1  0.250000  0.743068  0.935442  1
  Rh  Rh19  1  0.250000  0.241818  0.564625  1
  Rh  Rh20  1  0.250000  0.741754  0.186411  1
  Rh  Rh21  1  0.750000  0.756876  0.433627  1
  Rh  Rh22  1  0.750000  0.258367  0.067260  1
  Rh  Rh23  1  0.750000  0.756857  0.684215  1
