# generated using pymatgen
data_Tb8Y12Si15Hg
_symmetry_space_group_name_H-M   'P 1'
_cell_length_a   7.44649813
_cell_length_b   7.74502269
_cell_length_c   14.74304139
_cell_angle_alpha   89.92400152
_cell_angle_beta   89.26118989
_cell_angle_gamma   90.06564825
_symmetry_Int_Tables_number   1
_chemical_formula_structural   Tb8Y12Si15Hg
_chemical_formula_sum   'Tb8 Y12 Si15 Hg1'
_cell_volume   850.20779325
_cell_formula_units_Z   1
loop_
 _symmetry_equiv_pos_site_id
 _symmetry_equiv_pos_as_xyz
  1  'x, y, z'
loop_
 _atom_site_type_symbol
 _atom_site_label
 _atom_site_symmetry_multiplicity
 _atom_site_fract_x
 _atom_site_fract_y
 _atom_site_fract_z
 _atom_site_occupancy
  Tb  Tb0  1  0.020602  0.181476  0.098778  1
  Tb  Tb1  1  0.978850  0.819343  0.903312  1
  Tb  Tb2  1  0.479215  0.682892  0.903151  1
  Tb  Tb3  1  0.982928  0.827088  0.599298  1
  Tb  Tb4  1  0.519547  0.316806  0.097790  1
  Tb  Tb5  1  0.013853  0.175303  0.397867  1
  Tb  Tb6  1  0.516999  0.316180  0.398846  1
  Tb  Tb7  1  0.490034  0.688535  0.600728  1
  Y  Y8  1  0.162125  0.511219  0.752833  1
  Y  Y9  1  0.837797  0.488564  0.250689  1
  Y  Y10  1  0.338207  0.009719  0.249664  1
  Y  Y11  1  0.664512  0.987354  0.750931  1
  Y  Y12  1  0.338188  0.170035  0.625718  1
  Y  Y13  1  0.666156  0.822516  0.376345  1
  Y  Y14  1  0.168326  0.679663  0.372980  1
  Y  Y15  1  0.672632  0.820393  0.122278  1
  Y  Y16  1  0.826169  0.324911  0.622948  1
  Y  Y17  1  0.326282  0.178785  0.878338  1
  Y  Y18  1  0.825688  0.319354  0.878392  1
  Y  Y19  1  0.172680  0.679654  0.122688  1
  Si  Si20  1  0.036168  0.109213  0.751927  1
  Si  Si21  1  0.963862  0.895397  0.247791  1
  Si  Si22  1  0.465932  0.603200  0.247870  1
  Si  Si23  1  0.534227  0.397232  0.752134  1
  Si  Si24  1  0.276730  0.874339  0.752158  1
  Si  Si25  1  0.721210  0.126440  0.247793  1
  Si  Si26  1  0.221938  0.370973  0.247781  1
  Si  Si27  1  0.779786  0.626838  0.753090  1
  Si  Si28  1  0.833367  0.531197  0.458213  1
  Si  Si29  1  0.335584  0.968206  0.459630  1
  Si  Si30  1  0.847375  0.530494  0.038401  1
  Si  Si31  1  0.662662  0.032799  0.538098  1
  Si  Si32  1  0.150884  0.468516  0.962537  1
  Si  Si33  1  0.651933  0.029419  0.961027  1
  Si  Si34  1  0.346946  0.970160  0.039604  1
  Hg  Hg35  1  0.170605  0.465787  0.538368  1
