# generated using pymatgen
data_NaCa3Ag2Bi3
_symmetry_space_group_name_H-M   'P 1'
_cell_length_a   7.83070002
_cell_length_b   8.06177936
_cell_length_c   4.70287500
_cell_angle_alpha   90.00000000
_cell_angle_beta   90.00000000
_cell_angle_gamma   120.98106222
_symmetry_Int_Tables_number   1
_chemical_formula_structural   NaCa3Ag2Bi3
_chemical_formula_sum   'Na1 Ca3 Ag2 Bi3'
_cell_volume   254.53455222
_cell_formula_units_Z   1
loop_
 _symmetry_equiv_pos_site_id
 _symmetry_equiv_pos_as_xyz
  1  'x, y, z'
loop_
 _atom_site_type_symbol
 _atom_site_label
 _atom_site_symmetry_multiplicity
 _atom_site_fract_x
 _atom_site_fract_y
 _atom_site_fract_z
 _atom_site_occupancy
  Na  Na0  1  0.000000  0.233156  0.000000  1
  Ca  Ca1  1  0.000000  0.596889  0.500000  1
  Ca  Ca2  1  0.432937  0.431409  0.500000  1
  Ca  Ca3  1  0.567063  0.998473  0.500000  1
  Ag  Ag4  1  0.755417  0.747700  0.000000  1
  Ag  Ag5  1  0.244583  0.992283  0.000000  1
  Bi  Bi6  1  0.000000  0.991616  0.500000  1
  Bi  Bi7  1  0.336778  0.672628  0.000000  1
  Bi  Bi8  1  0.663222  0.335849  0.000000  1
