# generated using pymatgen
data_ThCo4B
_symmetry_space_group_name_H-M   'P 1'
_cell_length_a   5.02692100
_cell_length_b   5.02699937
_cell_length_c   6.94690100
_cell_angle_alpha   90.00000000
_cell_angle_beta   90.00000000
_cell_angle_gamma   119.99913742
_symmetry_Int_Tables_number   1
_chemical_formula_structural   ThCo4B
_chemical_formula_sum   'Th2 Co8 B2'
_cell_volume   152.03248961
_cell_formula_units_Z   2
loop_
 _symmetry_equiv_pos_site_id
 _symmetry_equiv_pos_as_xyz
  1  'x, y, z'
loop_
 _atom_site_type_symbol
 _atom_site_label
 _atom_site_symmetry_multiplicity
 _atom_site_fract_x
 _atom_site_fract_y
 _atom_site_fract_z
 _atom_site_occupancy
  Th  Th0  1  0.999978  0.999998  0.000000  1
  Th  Th1  1  0.999991  0.000001  0.500000  1
  Co  Co2  1  0.333355  0.666785  0.000000  1
  Co  Co3  1  0.666579  0.333215  0.000000  1
  Co  Co4  1  0.499989  0.999998  0.290221  1
  Co  Co5  1  0.499987  0.500004  0.290171  1
  Co  Co6  1  0.999989  0.499999  0.290155  1
  Co  Co7  1  0.499989  0.999998  0.709779  1
  Co  Co8  1  0.499987  0.500004  0.709828  1
  Co  Co9  1  0.999989  0.499999  0.709844  1
  B  B10  1  0.333318  0.666652  0.500000  1
  B  B11  1  0.666650  0.333348  0.500000  1
