# generated using pymatgen
data_KHo2Ag3Se5
_symmetry_space_group_name_H-M   'P 1'
_cell_length_a   7.96669500
_cell_length_b   7.96669540
_cell_length_c   17.32502300
_cell_angle_alpha   90.00000000
_cell_angle_beta   90.00000000
_cell_angle_gamma   31.27162648
_symmetry_Int_Tables_number   1
_chemical_formula_structural   KHo2Ag3Se5
_chemical_formula_sum   'K2 Ho4 Ag6 Se10'
_cell_volume   570.79193804
_cell_formula_units_Z   2
loop_
 _symmetry_equiv_pos_site_id
 _symmetry_equiv_pos_as_xyz
  1  'x, y, z'
loop_
 _atom_site_type_symbol
 _atom_site_label
 _atom_site_symmetry_multiplicity
 _atom_site_fract_x
 _atom_site_fract_y
 _atom_site_fract_z
 _atom_site_occupancy
  K  K0  1  0.438686  0.438686  0.250000  1
  K  K1  1  0.561314  0.561314  0.750000  1
  Ho  Ho2  1  0.309157  0.309157  0.595576  1
  Ho  Ho3  1  0.690843  0.690843  0.095575  1
  Ho  Ho4  1  0.690843  0.690843  0.404425  1
  Ho  Ho5  1  0.309157  0.309157  0.904424  1
  Ag  Ag6  1  0.086083  0.086083  0.537073  1
  Ag  Ag7  1  0.913918  0.913918  0.037073  1
  Ag  Ag8  1  0.913918  0.913918  0.462927  1
  Ag  Ag9  1  0.086083  0.086083  0.962927  1
  Ag  Ag10  1  0.160364  0.160364  0.250000  1
  Ag  Ag11  1  0.839637  0.839637  0.750000  1
  Se  Se12  1  0.317185  0.317185  0.071345  1
  Se  Se13  1  0.682815  0.682815  0.571345  1
  Se  Se14  1  0.682815  0.682815  0.928655  1
  Se  Se15  1  0.317185  0.317185  0.428655  1
  Se  Se16  1  0.759791  0.759791  0.250000  1
  Se  Se17  1  0.240210  0.240210  0.750000  1
  Se  Se18  1  0.064780  0.064780  0.119624  1
  Se  Se19  1  0.935220  0.935220  0.619625  1
  Se  Se20  1  0.935220  0.935220  0.880375  1
  Se  Se21  1  0.064780  0.064780  0.380375  1
