# generated using pymatgen
data_Sr3AcBi3
_symmetry_space_group_name_H-M   'P 1'
_cell_length_a   8.81997786
_cell_length_b   8.90256822
_cell_length_c   8.90256839
_cell_angle_alpha   109.65838358
_cell_angle_beta   109.28339899
_cell_angle_gamma   109.28340305
_symmetry_Int_Tables_number   1
_chemical_formula_structural   Sr3AcBi3
_chemical_formula_sum   'Sr6 Ac2 Bi6'
_cell_volume   539.35867495
_cell_formula_units_Z   2
loop_
 _symmetry_equiv_pos_site_id
 _symmetry_equiv_pos_as_xyz
  1  'x, y, z'
loop_
 _atom_site_type_symbol
 _atom_site_label
 _atom_site_symmetry_multiplicity
 _atom_site_fract_x
 _atom_site_fract_y
 _atom_site_fract_z
 _atom_site_occupancy
  Sr  Sr0  1  0.500206  0.996664  0.639245  1
  Sr  Sr1  1  0.360961  0.357419  0.360755  1
  Sr  Sr2  1  0.503541  0.003336  0.142581  1
  Sr  Sr3  1  0.003541  0.642581  0.503336  1
  Sr  Sr4  1  0.860961  0.860755  0.857419  1
  Sr  Sr5  1  0.000206  0.139245  0.496664  1
  Ac  Ac6  1  0.135981  0.500000  0.000000  1
  Ac  Ac7  1  0.635981  0.500000  0.000000  1
  Bi  Bi8  1  0.375477  0.624456  0.752662  1
  Bi  Bi9  1  0.875477  0.252662  0.124456  1
  Bi  Bi10  1  0.622814  0.747338  0.371794  1
  Bi  Bi11  1  0.122814  0.871794  0.247338  1
  Bi  Bi12  1  0.251020  0.128206  0.875544  1
  Bi  Bi13  1  0.751020  0.375544  0.628206  1
