# generated using pymatgen
data_Cs4Rb2DyInSb4
_symmetry_space_group_name_H-M   'P 1'
_cell_length_a   10.46532643
_cell_length_b   10.46497999
_cell_length_c   10.46497336
_cell_angle_alpha   130.89358640
_cell_angle_beta   66.72523213
_cell_angle_gamma   137.77173673
_symmetry_Int_Tables_number   1
_chemical_formula_structural   Cs4Rb2DyInSb4
_chemical_formula_sum   'Cs4 Rb2 Dy1 In1 Sb4'
_cell_volume   573.15268539
_cell_formula_units_Z   1
loop_
 _symmetry_equiv_pos_site_id
 _symmetry_equiv_pos_as_xyz
  1  'x, y, z'
loop_
 _atom_site_type_symbol
 _atom_site_label
 _atom_site_symmetry_multiplicity
 _atom_site_fract_x
 _atom_site_fract_y
 _atom_site_fract_z
 _atom_site_occupancy
  Cs  Cs0  1  0.828274  0.286840  0.099328  1
  Cs  Cs1  1  0.671728  0.771056  0.458565  1
  Cs  Cs2  1  0.312496  0.213161  0.541438  1
  Cs  Cs3  1  0.187503  0.728939  0.900665  1
  Rb  Rb4  1  0.249998  0.249997  0.999998  1
  Rb  Rb5  1  0.750000  0.750009  0.000007  1
  Dy  Dy6  1  0.750001  0.250004  0.500003  1
  In  In7  1  0.250001  0.750001  0.500001  1
  Sb  Sb8  1  0.397832  0.803257  0.212263  1
  Sb  Sb9  1  0.102169  0.314429  0.405427  1
  Sb  Sb10  1  0.908994  0.696730  0.594569  1
  Sb  Sb11  1  0.591007  0.185577  0.787735  1
