# generated using pymatgen
data_Lu4Ge4P2Ir7
_symmetry_space_group_name_H-M   'P 1'
_cell_length_a   7.16306509
_cell_length_b   7.16306436
_cell_length_c   7.17870800
_cell_angle_alpha   109.58624400
_cell_angle_beta   109.58623343
_cell_angle_gamma   109.15260135
_symmetry_Int_Tables_number   1
_chemical_formula_structural   Lu4Ge4P2Ir7
_chemical_formula_sum   'Lu4 Ge4 P2 Ir7'
_cell_volume   283.85059806
_cell_formula_units_Z   1
loop_
 _symmetry_equiv_pos_site_id
 _symmetry_equiv_pos_as_xyz
  1  'x, y, z'
loop_
 _atom_site_type_symbol
 _atom_site_label
 _atom_site_symmetry_multiplicity
 _atom_site_fract_x
 _atom_site_fract_y
 _atom_site_fract_z
 _atom_site_occupancy
  Lu  Lu0  1  0.999341  0.999341  0.525136  1
  Lu  Lu1  1  0.999131  0.499131  0.998261  1
  Lu  Lu2  1  0.499131  0.999131  0.998261  1
  Lu  Lu3  1  0.525795  0.525795  0.525136  1
  Ge  Ge4  1  0.686914  0.686914  0.008194  1
  Ge  Ge5  1  0.305076  0.004533  0.309609  1
  Ge  Ge6  1  0.004533  0.305076  0.309609  1
  Ge  Ge7  1  0.321280  0.321280  0.008194  1
  P  P8  1  0.664398  0.001727  0.666126  1
  P  P9  1  0.001727  0.664398  0.666126  1
  Ir  Ir10  1  0.751207  0.251207  0.502416  1
  Ir  Ir11  1  0.755547  0.500866  0.256413  1
  Ir  Ir12  1  0.501581  0.248822  0.750402  1
  Ir  Ir13  1  0.248822  0.501581  0.750402  1
  Ir  Ir14  1  0.251207  0.751207  0.502416  1
  Ir  Ir15  1  0.500866  0.755547  0.256413  1
  Ir  Ir16  1  0.983444  0.983444  0.966888  1
