# generated using pymatgen
data_TiNb5(AlFe2)6
_symmetry_space_group_name_H-M   'P 1'
_cell_length_a   4.17623400
_cell_length_b   5.90785401
_cell_length_c   12.53164001
_cell_angle_alpha   90.00356759
_cell_angle_beta   89.99985831
_cell_angle_gamma   89.99607907
_symmetry_Int_Tables_number   1
_chemical_formula_structural   TiNb5(AlFe2)6
_chemical_formula_sum   'Ti1 Nb5 Al6 Fe12'
_cell_volume   309.18789907
_cell_formula_units_Z   1
loop_
 _symmetry_equiv_pos_site_id
 _symmetry_equiv_pos_as_xyz
  1  'x, y, z'
loop_
 _atom_site_type_symbol
 _atom_site_label
 _atom_site_symmetry_multiplicity
 _atom_site_fract_x
 _atom_site_fract_y
 _atom_site_fract_z
 _atom_site_occupancy
  Ti  Ti0  1  0.000000  0.999813  0.999958  1
  Nb  Nb1  1  0.500075  0.500167  0.164882  1
  Nb  Nb2  1  0.000074  0.999846  0.332048  1
  Nb  Nb3  1  0.499999  0.500144  0.500024  1
  Nb  Nb4  1  0.999923  0.999858  0.667970  1
  Nb  Nb5  1  0.499925  0.500175  0.835104  1
  Al  Al6  1  0.999998  0.500167  0.999973  1
  Al  Al7  1  0.500078  0.999853  0.164435  1
  Al  Al8  1  0.000081  0.500118  0.332250  1
  Al  Al9  1  0.499999  0.999884  0.500027  1
  Al  Al10  1  0.999921  0.500126  0.667787  1
  Al  Al11  1  0.499927  0.999839  0.835541  1
  Fe  Fe12  1  0.500002  0.247744  0.999993  1
  Fe  Fe13  1  0.499978  0.752211  0.999984  1
  Fe  Fe14  1  0.000067  0.248336  0.165561  1
  Fe  Fe15  1  0.000120  0.751639  0.165535  1
  Fe  Fe16  1  0.500087  0.249876  0.333120  1
  Fe  Fe17  1  0.500071  0.750135  0.333102  1
  Fe  Fe18  1  0.999990  0.250194  0.500038  1
  Fe  Fe19  1  0.000006  0.749843  0.500032  1
  Fe  Fe20  1  0.499926  0.249885  0.666914  1
  Fe  Fe21  1  0.499908  0.750128  0.666924  1
  Fe  Fe22  1  0.999908  0.248357  0.834409  1
  Fe  Fe23  1  0.999936  0.751667  0.834387  1
