# generated using pymatgen
data_Sc2Fe4CoP6Ir5
_symmetry_space_group_name_H-M   'P 1'
_cell_length_a   3.76051000
_cell_length_b   10.33302217
_cell_length_c   12.15890296
_cell_angle_alpha   89.70150661
_cell_angle_beta   90.00000000
_cell_angle_gamma   90.00000000
_symmetry_Int_Tables_number   1
_chemical_formula_structural   Sc2Fe4CoP6Ir5
_chemical_formula_sum   'Sc4 Fe8 Co2 P12 Ir10'
_cell_volume   472.45734803
_cell_formula_units_Z   2
loop_
 _symmetry_equiv_pos_site_id
 _symmetry_equiv_pos_as_xyz
  1  'x, y, z'
loop_
 _atom_site_type_symbol
 _atom_site_label
 _atom_site_symmetry_multiplicity
 _atom_site_fract_x
 _atom_site_fract_y
 _atom_site_fract_z
 _atom_site_occupancy
  Sc  Sc0  1  0.250000  0.583456  0.715320  1
  Sc  Sc1  1  0.250000  0.913811  0.215094  1
  Sc  Sc2  1  0.750000  0.426044  0.287900  1
  Sc  Sc3  1  0.750000  0.075921  0.788526  1
  Fe  Fe4  1  0.750000  0.774765  0.827495  1
  Fe  Fe5  1  0.750000  0.724997  0.327824  1
  Fe  Fe6  1  0.250000  0.874586  0.695038  1
  Fe  Fe7  1  0.250000  0.626914  0.195718  1
  Fe  Fe8  1  0.750000  0.114819  0.302810  1
  Fe  Fe9  1  0.750000  0.382202  0.802655  1
  Fe  Fe10  1  0.250000  0.458579  0.936553  1
  Fe  Fe11  1  0.750000  0.542636  0.064495  1
  Co  Co12  1  0.250000  0.039939  0.433980  1
  Co  Co13  1  0.750000  0.958289  0.566106  1
  P  P14  1  0.250000  0.439802  0.114880  1
  P  P15  1  0.250000  0.062484  0.613468  1
  P  P16  1  0.750000  0.571824  0.885033  1
  P  P17  1  0.750000  0.924552  0.385595  1
  P  P18  1  0.250000  0.270193  0.862963  1
  P  P19  1  0.250000  0.230580  0.364804  1
  P  P20  1  0.750000  0.729420  0.147252  1
  P  P21  1  0.750000  0.769029  0.647304  1
  P  P22  1  0.250000  0.606653  0.371857  1
  P  P23  1  0.250000  0.894248  0.872234  1
  P  P24  1  0.750000  0.407063  0.624014  1
  P  P25  1  0.750000  0.092482  0.123603  1
  Ir  Ir26  1  0.250000  0.709885  0.982834  1
  Ir  Ir27  1  0.250000  0.787756  0.483528  1
  Ir  Ir28  1  0.750000  0.282670  0.009754  1
  Ir  Ir29  1  0.750000  0.222648  0.505953  1
  Ir  Ir30  1  0.250000  0.415222  0.470781  1
  Ir  Ir31  1  0.250000  0.086746  0.971714  1
  Ir  Ir32  1  0.750000  0.597934  0.526191  1
  Ir  Ir33  1  0.750000  0.902072  0.025279  1
  Ir  Ir34  1  0.250000  0.229922  0.176569  1
  Ir  Ir35  1  0.250000  0.269857  0.674875  1
