# generated using pymatgen
data_TbPr2Er5(WO6)4
_symmetry_space_group_name_H-M   'P 1'
_cell_length_a   5.44439700
_cell_length_b   7.77125003
_cell_length_c   11.51570390
_cell_angle_alpha   75.58739943
_cell_angle_beta   90.00000000
_cell_angle_gamma   90.00000000
_symmetry_Int_Tables_number   1
_chemical_formula_structural   TbPr2Er5(WO6)4
_chemical_formula_sum   'Tb1 Pr2 Er5 W4 O24'
_cell_volume   471.89300277
_cell_formula_units_Z   1
loop_
 _symmetry_equiv_pos_site_id
 _symmetry_equiv_pos_as_xyz
  1  'x, y, z'
loop_
 _atom_site_type_symbol
 _atom_site_label
 _atom_site_symmetry_multiplicity
 _atom_site_fract_x
 _atom_site_fract_y
 _atom_site_fract_z
 _atom_site_occupancy
  Tb  Tb0  1  0.744012  0.000000  0.250000  1
  Pr  Pr1  1  0.684775  0.500000  0.250000  1
  Pr  Pr2  1  0.314289  0.500000  0.750000  1
  Er  Er3  1  0.184300  0.203661  0.423467  1
  Er  Er4  1  0.184300  0.796339  0.076533  1
  Er  Er5  1  0.816630  0.796192  0.577640  1
  Er  Er6  1  0.816630  0.203808  0.922360  1
  Er  Er7  1  0.256890  0.000000  0.750000  1
  W  W8  1  0.254220  0.272018  0.115590  1
  W  W9  1  0.254220  0.727982  0.384410  1
  W  W10  1  0.745476  0.729981  0.883444  1
  W  W11  1  0.745476  0.270019  0.616556  1
  O  O12  1  0.451894  0.204125  0.274044  1
  O  O13  1  0.451894  0.795875  0.225956  1
  O  O14  1  0.545647  0.798124  0.725686  1
  O  O15  1  0.545647  0.201876  0.774314  1
  O  O16  1  0.047135  0.058268  0.102217  1
  O  O17  1  0.047135  0.941732  0.397783  1
  O  O18  1  0.956088  0.942711  0.895627  1
  O  O19  1  0.956088  0.057289  0.604373  1
  O  O20  1  0.985129  0.278791  0.230574  1
  O  O21  1  0.985129  0.721209  0.269426  1
  O  O22  1  0.015186  0.722765  0.768640  1
  O  O23  1  0.015186  0.277235  0.731360  1
  O  O24  1  0.853185  0.356185  0.454612  1
  O  O25  1  0.853185  0.643815  0.045388  1
  O  O26  1  0.144568  0.640760  0.545808  1
  O  O27  1  0.144568  0.359240  0.954192  1
  O  O28  1  0.656108  0.505504  0.614057  1
  O  O29  1  0.656108  0.494496  0.885943  1
  O  O30  1  0.344658  0.492653  0.387178  1
  O  O31  1  0.344658  0.507347  0.112822  1
  O  O32  1  0.461497  0.155617  0.569967  1
  O  O33  1  0.461497  0.844383  0.930033  1
  O  O34  1  0.538296  0.840821  0.431711  1
  O  O35  1  0.538296  0.159179  0.068289  1
