# generated using pymatgen
data_HfSc2Co5B2
_symmetry_space_group_name_H-M   'P 1'
_cell_length_a   8.92032700
_cell_length_b   8.92179400
_cell_length_c   3.04610900
_cell_angle_alpha   90.00000000
_cell_angle_beta   90.00000000
_cell_angle_gamma   90.00000000
_symmetry_Int_Tables_number   1
_chemical_formula_structural   HfSc2Co5B2
_chemical_formula_sum   'Hf2 Sc4 Co10 B4'
_cell_volume   242.42555924
_cell_formula_units_Z   2
loop_
 _symmetry_equiv_pos_site_id
 _symmetry_equiv_pos_as_xyz
  1  'x, y, z'
loop_
 _atom_site_type_symbol
 _atom_site_label
 _atom_site_symmetry_multiplicity
 _atom_site_fract_x
 _atom_site_fract_y
 _atom_site_fract_z
 _atom_site_occupancy
  Hf  Hf0  1  0.824744  0.325109  0.000000  1
  Hf  Hf1  1  0.324744  0.174891  0.000000  1
  Sc  Sc2  1  0.998894  0.997090  0.000000  1
  Sc  Sc3  1  0.498894  0.502910  0.000000  1
  Sc  Sc4  1  0.675315  0.824157  0.000000  1
  Sc  Sc5  1  0.175315  0.675843  0.000000  1
  Co  Co6  1  0.500673  0.002342  0.500000  1
  Co  Co7  1  0.000673  0.497658  0.500000  1
  Co  Co8  1  0.069480  0.228304  0.500000  1
  Co  Co9  1  0.231526  0.934592  0.500000  1
  Co  Co10  1  0.770345  0.074615  0.500000  1
  Co  Co11  1  0.929361  0.766960  0.500000  1
  Co  Co12  1  0.429361  0.733040  0.500000  1
  Co  Co13  1  0.569480  0.271696  0.500000  1
  Co  Co14  1  0.731526  0.565408  0.500000  1
  Co  Co15  1  0.270345  0.425385  0.500000  1
  B  B16  1  0.619015  0.119657  0.000000  1
  B  B17  1  0.119015  0.380343  0.000000  1
  B  B18  1  0.880647  0.618854  0.000000  1
  B  B19  1  0.380647  0.881146  0.000000  1
