# generated using pymatgen
data_MnBiTeO6
_symmetry_space_group_name_H-M   'P 1'
_cell_length_a   5.40267728
_cell_length_b   8.99306306
_cell_length_c   10.02007340
_cell_angle_alpha   89.99995395
_cell_angle_beta   88.49894681
_cell_angle_gamma   89.97741656
_symmetry_Int_Tables_number   1
_chemical_formula_structural   MnBiTeO6
_chemical_formula_sum   'Mn4 Bi4 Te4 O24'
_cell_volume   486.67437227
_cell_formula_units_Z   4
loop_
 _symmetry_equiv_pos_site_id
 _symmetry_equiv_pos_as_xyz
  1  'x, y, z'
loop_
 _atom_site_type_symbol
 _atom_site_label
 _atom_site_symmetry_multiplicity
 _atom_site_fract_x
 _atom_site_fract_y
 _atom_site_fract_z
 _atom_site_occupancy
  Mn  Mn0  1  0.499742  0.833126  0.749934  1
  Mn  Mn1  1  0.500258  0.166874  0.250066  1
  Mn  Mn2  1  0.999742  0.333126  0.749934  1
  Mn  Mn3  1  0.000258  0.666874  0.250066  1
  Bi  Bi4  1  0.000000  0.000000  0.500000  1
  Bi  Bi5  1  0.500000  0.500000  0.500000  1
  Bi  Bi6  1  0.000000  0.000000  0.000000  1
  Bi  Bi7  1  0.500000  0.500000  0.000000  1
  Te  Te8  1  0.499956  0.169642  0.750005  1
  Te  Te9  1  0.999956  0.669642  0.750005  1
  Te  Te10  1  0.000044  0.330358  0.249995  1
  Te  Te11  1  0.500044  0.830358  0.249995  1
  O  O12  1  0.629820  0.001327  0.642144  1
  O  O13  1  0.129820  0.501327  0.642144  1
  O  O14  1  0.665832  0.311328  0.634905  1
  O  O15  1  0.165832  0.811328  0.634905  1
  O  O16  1  0.192381  0.180590  0.646271  1
  O  O17  1  0.692381  0.680590  0.646271  1
  O  O18  1  0.165460  0.188620  0.135041  1
  O  O19  1  0.665460  0.688620  0.135041  1
  O  O20  1  0.129600  0.498612  0.141953  1
  O  O21  1  0.629600  0.998612  0.141953  1
  O  O22  1  0.692249  0.319383  0.146240  1
  O  O23  1  0.192249  0.819383  0.146240  1
  O  O24  1  0.870180  0.498673  0.357856  1
  O  O25  1  0.370180  0.998673  0.357856  1
  O  O26  1  0.834168  0.188672  0.365095  1
  O  O27  1  0.334168  0.688672  0.365095  1
  O  O28  1  0.307619  0.319410  0.353729  1
  O  O29  1  0.807619  0.819410  0.353729  1
  O  O30  1  0.334540  0.311380  0.864959  1
  O  O31  1  0.834540  0.811380  0.864959  1
  O  O32  1  0.370400  0.001388  0.858047  1
  O  O33  1  0.870400  0.501388  0.858047  1
  O  O34  1  0.807751  0.180617  0.853760  1
  O  O35  1  0.307751  0.680617  0.853760  1
