# generated using pymatgen
data_La2Al20Re3Pt
_symmetry_space_group_name_H-M   'P 1'
_cell_length_a   6.97727345
_cell_length_b   6.95819425
_cell_length_c   9.30712749
_cell_angle_alpha   90.36563383
_cell_angle_beta   90.20884531
_cell_angle_gamma   96.67455753
_symmetry_Int_Tables_number   1
_chemical_formula_structural   La2Al20Re3Pt
_chemical_formula_sum   'La2 Al20 Re3 Pt1'
_cell_volume   448.77779918
_cell_formula_units_Z   1
loop_
 _symmetry_equiv_pos_site_id
 _symmetry_equiv_pos_as_xyz
  1  'x, y, z'
loop_
 _atom_site_type_symbol
 _atom_site_label
 _atom_site_symmetry_multiplicity
 _atom_site_fract_x
 _atom_site_fract_y
 _atom_site_fract_z
 _atom_site_occupancy
  La  La0  1  0.869784  0.122602  0.750684  1
  La  La1  1  0.130216  0.877398  0.249316  1
  Al  Al2  1  0.616937  0.375068  0.544679  1
  Al  Al3  1  0.383063  0.624932  0.455321  1
  Al  Al4  1  0.377404  0.623825  0.042223  1
  Al  Al5  1  0.622596  0.376175  0.957777  1
  Al  Al6  1  0.228323  0.224385  0.497500  1
  Al  Al7  1  0.771677  0.775615  0.502500  1
  Al  Al8  1  0.773627  0.774527  0.999151  1
  Al  Al9  1  0.226373  0.225473  0.000849  1
  Al  Al10  1  0.841382  0.160780  0.101001  1
  Al  Al11  1  0.158618  0.839220  0.898999  1
  Al  Al12  1  0.161526  0.844248  0.604536  1
  Al  Al13  1  0.838474  0.155752  0.395464  1
  Al  Al14  1  0.858625  0.593339  0.752117  1
  Al  Al15  1  0.141375  0.406661  0.247883  1
  Al  Al16  1  0.408229  0.140658  0.750718  1
  Al  Al17  1  0.591771  0.859342  0.249282  1
  Al  Al18  1  0.221809  0.481370  0.756574  1
  Al  Al19  1  0.778191  0.518630  0.243426  1
  Al  Al20  1  0.517406  0.780548  0.748540  1
  Al  Al21  1  0.482594  0.219452  0.251460  1
  Re  Re22  1  0.000000  0.500000  0.000000  1
  Re  Re23  1  0.500000  0.000000  0.000000  1
  Re  Re24  1  0.500000  0.000000  0.500000  1
  Pt  Pt25  1  0.000000  0.500000  0.500000  1
