# generated using pymatgen
data_K2Hg(PS3)2
_symmetry_space_group_name_H-M   'P 1'
_cell_length_a   12.30806200
_cell_length_b   6.40546640
_cell_length_c   9.73141500
_cell_angle_alpha   52.16919699
_cell_angle_beta   90.00000000
_cell_angle_gamma   90.00000000
_symmetry_Int_Tables_number   1
_chemical_formula_structural   K2Hg(PS3)2
_chemical_formula_sum   'K4 Hg2 P4 S12'
_cell_volume   605.96496750
_cell_formula_units_Z   2
loop_
 _symmetry_equiv_pos_site_id
 _symmetry_equiv_pos_as_xyz
  1  'x, y, z'
loop_
 _atom_site_type_symbol
 _atom_site_label
 _atom_site_symmetry_multiplicity
 _atom_site_fract_x
 _atom_site_fract_y
 _atom_site_fract_z
 _atom_site_occupancy
  K  K0  1  0.327708  0.223094  0.521550  1
  K  K1  1  0.672292  0.776906  0.478450  1
  K  K2  1  0.827708  0.776906  0.978450  1
  K  K3  1  0.172292  0.223094  0.021550  1
  Hg  Hg4  1  0.500000  0.500000  0.000000  1
  Hg  Hg5  1  0.000000  0.500000  0.500000  1
  P  P6  1  0.458407  0.848221  0.131831  1
  P  P7  1  0.041593  0.848221  0.631831  1
  P  P8  1  0.958407  0.151779  0.368169  1
  P  P9  1  0.541593  0.151779  0.868169  1
  S  S10  1  0.069401  0.055860  0.730394  1
  S  S11  1  0.682820  0.259133  0.912937  1
  S  S12  1  0.064460  0.448891  0.218127  1
  S  S13  1  0.930599  0.944140  0.269606  1
  S  S14  1  0.430599  0.055860  0.230394  1
  S  S15  1  0.317180  0.740867  0.087063  1
  S  S16  1  0.435540  0.448891  0.718127  1
  S  S17  1  0.564460  0.551109  0.281873  1
  S  S18  1  0.569401  0.944140  0.769606  1
  S  S19  1  0.182820  0.740867  0.587063  1
  S  S20  1  0.935540  0.551109  0.781873  1
  S  S21  1  0.817180  0.259133  0.412937  1
