# generated using pymatgen
data_Li4Al3Cd
_symmetry_space_group_name_H-M   'P 1'
_cell_length_a   7.89875566
_cell_length_b   7.89875670
_cell_length_c   7.89875701
_cell_angle_alpha   33.29738059
_cell_angle_beta   33.29736437
_cell_angle_gamma   33.29737766
_symmetry_Int_Tables_number   1
_chemical_formula_structural   Li4Al3Cd
_chemical_formula_sum   'Li4 Al3 Cd1'
_cell_volume   132.23739993
_cell_formula_units_Z   1
loop_
 _symmetry_equiv_pos_site_id
 _symmetry_equiv_pos_as_xyz
  1  'x, y, z'
loop_
 _atom_site_type_symbol
 _atom_site_label
 _atom_site_symmetry_multiplicity
 _atom_site_fract_x
 _atom_site_fract_y
 _atom_site_fract_z
 _atom_site_occupancy
  Li  Li0  1  0.125609  0.125609  0.125609  1
  Li  Li1  1  0.625217  0.625217  0.625217  1
  Li  Li2  1  0.000552  0.000552  0.000552  1
  Li  Li3  1  0.498802  0.498802  0.498802  1
  Al  Al4  1  0.873829  0.873829  0.873829  1
  Al  Al5  1  0.752362  0.752362  0.752362  1
  Al  Al6  1  0.248864  0.248864  0.248864  1
  Cd  Cd7  1  0.374767  0.374767  0.374767  1
