# generated using pymatgen
data_Tb5Dy3(YPb3)2
_symmetry_space_group_name_H-M   'P 1'
_cell_length_a   9.09275801
_cell_length_b   9.09197088
_cell_length_c   6.67106300
_cell_angle_alpha   90.00182566
_cell_angle_beta   89.99908485
_cell_angle_gamma   119.99712975
_symmetry_Int_Tables_number   1
_chemical_formula_structural   Tb5Dy3(YPb3)2
_chemical_formula_sum   'Tb5 Dy3 Y2 Pb6'
_cell_volume   477.63033629
_cell_formula_units_Z   1
loop_
 _symmetry_equiv_pos_site_id
 _symmetry_equiv_pos_as_xyz
  1  'x, y, z'
loop_
 _atom_site_type_symbol
 _atom_site_label
 _atom_site_symmetry_multiplicity
 _atom_site_fract_x
 _atom_site_fract_y
 _atom_site_fract_z
 _atom_site_occupancy
  Tb  Tb0  1  0.333287  0.666644  0.000000  1
  Tb  Tb1  1  0.999973  0.762216  0.749969  1
  Tb  Tb2  1  0.762258  0.762165  0.250041  1
  Tb  Tb3  1  0.999973  0.237756  0.250031  1
  Tb  Tb4  1  0.762258  0.000092  0.749959  1
  Dy  Dy5  1  0.666643  0.333321  0.000000  1
  Dy  Dy6  1  0.333290  0.666646  0.500000  1
  Dy  Dy7  1  0.666699  0.333349  0.500000  1
  Y  Y8  1  0.237765  0.237759  0.749957  1
  Y  Y9  1  0.237765  0.000005  0.250043  1
  Pb  Pb10  1  0.999886  0.394703  0.749858  1
  Pb  Pb11  1  0.394924  0.394685  0.250102  1
  Pb  Pb12  1  0.605234  0.000167  0.250117  1
  Pb  Pb13  1  0.605234  0.605068  0.749883  1
  Pb  Pb14  1  0.394924  0.000239  0.749898  1
  Pb  Pb15  1  0.999886  0.605184  0.250142  1
