# generated using pymatgen
data_Co2Re3TcOs2
_symmetry_space_group_name_H-M   'P 1'
_cell_length_a   5.38115193
_cell_length_b   5.40636653
_cell_length_c   4.31591000
_cell_angle_alpha   90.00000000
_cell_angle_beta   90.00000000
_cell_angle_gamma   119.86665291
_symmetry_Int_Tables_number   1
_chemical_formula_structural   Co2Re3TcOs2
_chemical_formula_sum   'Co2 Re3 Tc1 Os2'
_cell_volume   108.88442027
_cell_formula_units_Z   1
loop_
 _symmetry_equiv_pos_site_id
 _symmetry_equiv_pos_as_xyz
  1  'x, y, z'
loop_
 _atom_site_type_symbol
 _atom_site_label
 _atom_site_symmetry_multiplicity
 _atom_site_fract_x
 _atom_site_fract_y
 _atom_site_fract_z
 _atom_site_occupancy
  Co  Co0  1  0.334691  0.666855  0.750000  1
  Co  Co1  1  0.666505  0.331819  0.250000  1
  Re  Re2  1  0.663494  0.831428  0.250000  1
  Re  Re3  1  0.167134  0.830051  0.250000  1
  Re  Re4  1  0.337965  0.171410  0.750000  1
  Tc  Tc5  1  0.832071  0.169515  0.750000  1
  Os  Os6  1  0.167308  0.335806  0.250000  1
  Os  Os7  1  0.830832  0.663115  0.750000  1
