# generated using pymatgen
data_Ca11Ac8NdSn16
_symmetry_space_group_name_H-M   'P 1'
_cell_length_a   8.20302800
_cell_length_b   8.78252333
_cell_length_c   16.57391200
_cell_angle_alpha   90.01850161
_cell_angle_beta   89.99803730
_cell_angle_gamma   89.92834928
_symmetry_Int_Tables_number   1
_chemical_formula_structural   Ca11Ac8NdSn16
_chemical_formula_sum   'Ca11 Ac8 Nd1 Sn16'
_cell_volume   1194.03806569
_cell_formula_units_Z   1
loop_
 _symmetry_equiv_pos_site_id
 _symmetry_equiv_pos_as_xyz
  1  'x, y, z'
loop_
 _atom_site_type_symbol
 _atom_site_label
 _atom_site_symmetry_multiplicity
 _atom_site_fract_x
 _atom_site_fract_y
 _atom_site_fract_z
 _atom_site_occupancy
  Ca  Ca0  1  0.831859  0.672585  0.623445  1
  Ca  Ca1  1  0.667655  0.172763  0.375943  1
  Ca  Ca2  1  0.166651  0.327396  0.124307  1
  Ca  Ca3  1  0.668785  0.173029  0.124456  1
  Ca  Ca4  1  0.167473  0.327295  0.375986  1
  Ca  Ca5  1  0.332718  0.827499  0.623440  1
  Ca  Ca6  1  0.832455  0.673046  0.877007  1
  Ca  Ca7  1  0.161981  0.501390  0.748580  1
  Ca  Ca8  1  0.664117  0.998639  0.749037  1
  Ca  Ca9  1  0.836683  0.496437  0.250417  1
  Ca  Ca10  1  0.336842  0.003334  0.250291  1
  Ac  Ac11  1  0.495430  0.317924  0.904338  1
  Ac  Ac12  1  0.994329  0.183555  0.594216  1
  Ac  Ac13  1  0.505204  0.684135  0.404080  1
  Ac  Ac14  1  0.005024  0.816190  0.096321  1
  Ac  Ac15  1  0.506695  0.683380  0.097008  1
  Ac  Ac16  1  0.005363  0.816020  0.404490  1
  Ac  Ac17  1  0.495056  0.316417  0.595111  1
  Ac  Ac18  1  0.994023  0.184629  0.905786  1
  Nd  Nd19  1  0.333621  0.824585  0.874358  1
  Sn  Sn20  1  0.332949  0.035075  0.037362  1
  Sn  Sn21  1  0.833282  0.464382  0.461524  1
  Sn  Sn22  1  0.665731  0.964668  0.538631  1
  Sn  Sn23  1  0.168559  0.538099  0.960943  1
  Sn  Sn24  1  0.663845  0.964437  0.960692  1
  Sn  Sn25  1  0.166459  0.535757  0.538786  1
  Sn  Sn26  1  0.334098  0.035679  0.461351  1
  Sn  Sn27  1  0.833057  0.463695  0.038658  1
  Sn  Sn28  1  0.534340  0.607376  0.751195  1
  Sn  Sn29  1  0.035716  0.892843  0.751446  1
  Sn  Sn30  1  0.465163  0.393131  0.249963  1
  Sn  Sn31  1  0.965087  0.106064  0.250295  1
  Sn  Sn32  1  0.287886  0.134169  0.751007  1
  Sn  Sn33  1  0.788740  0.364858  0.749847  1
  Sn  Sn34  1  0.712136  0.864444  0.249894  1
  Sn  Sn35  1  0.210990  0.635074  0.249788  1
