# generated using pymatgen
data_ThSc4Si7Pt8Rh
_symmetry_space_group_name_H-M   'P 1'
_cell_length_a   10.05675581
_cell_length_b   10.06771165
_cell_length_c   3.96659300
_cell_angle_alpha   90.00000000
_cell_angle_beta   90.00000000
_cell_angle_gamma   119.91790346
_symmetry_Int_Tables_number   1
_chemical_formula_structural   ThSc4Si7Pt8Rh
_chemical_formula_sum   'Th1 Sc4 Si7 Pt8 Rh1'
_cell_volume   348.09326986
_cell_formula_units_Z   1
loop_
 _symmetry_equiv_pos_site_id
 _symmetry_equiv_pos_as_xyz
  1  'x, y, z'
loop_
 _atom_site_type_symbol
 _atom_site_label
 _atom_site_symmetry_multiplicity
 _atom_site_fract_x
 _atom_site_fract_y
 _atom_site_fract_z
 _atom_site_occupancy
  Th  Th0  1  0.332674  0.669052  0.500000  1
  Sc  Sc1  1  0.001506  0.998939  0.000000  1
  Sc  Sc2  1  0.893284  0.458036  0.500000  1
  Sc  Sc3  1  0.561873  0.105797  0.500000  1
  Sc  Sc4  1  0.541680  0.435066  0.500000  1
  Si  Si5  1  0.237962  0.183411  0.500000  1
  Si  Si6  1  0.811322  0.049640  0.500000  1
  Si  Si7  1  0.955910  0.763624  0.500000  1
  Si  Si8  1  0.563919  0.647377  0.000000  1
  Si  Si9  1  0.349498  0.917513  0.000000  1
  Si  Si10  1  0.082990  0.436846  0.000000  1
  Si  Si11  1  0.666377  0.333109  0.000000  1
  Pt  Pt12  1  0.064455  0.280429  0.500000  1
  Pt  Pt13  1  0.720547  0.782947  0.500000  1
  Pt  Pt14  1  0.315421  0.416593  0.000000  1
  Pt  Pt15  1  0.584389  0.899811  0.000000  1
  Pt  Pt16  1  0.099383  0.686221  0.000000  1
  Pt  Pt17  1  0.381957  0.175002  0.000000  1
  Pt  Pt18  1  0.825005  0.207519  0.000000  1
  Pt  Pt19  1  0.790418  0.616069  0.000000  1
  Rh  Rh20  1  0.219429  0.937000  0.500000  1
