# generated using pymatgen
data_Yb2In3HgPd2
_symmetry_space_group_name_H-M   'P 1'
_cell_length_a   5.49876533
_cell_length_b   5.49876553
_cell_length_c   8.43599211
_cell_angle_alpha   90.19895076
_cell_angle_beta   89.80104992
_cell_angle_gamma   134.59359515
_symmetry_Int_Tables_number   1
_chemical_formula_structural   Yb2In3HgPd2
_chemical_formula_sum   'Yb2 In3 Hg1 Pd2'
_cell_volume   181.63821491
_cell_formula_units_Z   1
loop_
 _symmetry_equiv_pos_site_id
 _symmetry_equiv_pos_as_xyz
  1  'x, y, z'
loop_
 _atom_site_type_symbol
 _atom_site_label
 _atom_site_symmetry_multiplicity
 _atom_site_fract_x
 _atom_site_fract_y
 _atom_site_fract_z
 _atom_site_occupancy
  Yb  Yb0  1  0.067566  0.932434  0.259866  1
  Yb  Yb1  1  0.936135  0.063865  0.737874  1
  In  In2  1  0.348428  0.651572  0.451159  1
  In  In3  1  0.646660  0.353340  0.947916  1
  In  In4  1  0.359029  0.640971  0.050880  1
  Hg  Hg5  1  0.632118  0.367882  0.549281  1
  Pd  Pd6  1  0.227034  0.772966  0.756208  1
  Pd  Pd7  1  0.783029  0.216971  0.246816  1
