# generated using pymatgen
data_Ac2PrPa3N8
_symmetry_space_group_name_H-M   'P 1'
_cell_length_a   7.19854533
_cell_length_b   7.19850323
_cell_length_c   7.20383612
_cell_angle_alpha   119.97134532
_cell_angle_beta   90.00674944
_cell_angle_gamma   119.99638667
_symmetry_Int_Tables_number   1
_chemical_formula_structural   Ac2PrPa3N8
_chemical_formula_sum   'Ac2 Pr1 Pa3 N8'
_cell_volume   264.07172175
_cell_formula_units_Z   1
loop_
 _symmetry_equiv_pos_site_id
 _symmetry_equiv_pos_as_xyz
  1  'x, y, z'
loop_
 _atom_site_type_symbol
 _atom_site_label
 _atom_site_symmetry_multiplicity
 _atom_site_fract_x
 _atom_site_fract_y
 _atom_site_fract_z
 _atom_site_occupancy
  Ac  Ac0  1  0.994854  0.989709  0.984553  1
  Ac  Ac1  1  0.755147  0.510291  0.265447  1
  Pr  Pr2  1  0.375000  0.750000  0.125000  1
  Pa  Pa3  1  0.375000  0.750000  0.624999  1
  Pa  Pa4  1  0.375000  0.249999  0.624999  1
  Pa  Pa5  1  0.874999  0.249999  0.625000  1
  N  N6  1  0.618597  0.237247  0.420606  1
  N  N7  1  0.183362  0.802009  0.420610  1
  N  N8  1  0.618646  0.802003  0.420654  1
  N  N9  1  0.144881  0.289812  0.434691  1
  N  N10  1  0.605118  0.210189  0.815309  1
  N  N11  1  0.131354  0.697996  0.829344  1
  N  N12  1  0.131404  0.262754  0.829394  1
  N  N13  1  0.566638  0.697990  0.829390  1
