# generated using pymatgen
data_ScTi3(PRh5)2
_symmetry_space_group_name_H-M   'P 1'
_cell_length_a   3.93358200
_cell_length_b   5.47955270
_cell_length_c   10.55344794
_cell_angle_alpha   90.14960936
_cell_angle_beta   90.00000000
_cell_angle_gamma   90.00000000
_symmetry_Int_Tables_number   1
_chemical_formula_structural   ScTi3(PRh5)2
_chemical_formula_sum   'Sc1 Ti3 P2 Rh10'
_cell_volume   227.47108940
_cell_formula_units_Z   1
loop_
 _symmetry_equiv_pos_site_id
 _symmetry_equiv_pos_as_xyz
  1  'x, y, z'
loop_
 _atom_site_type_symbol
 _atom_site_label
 _atom_site_symmetry_multiplicity
 _atom_site_fract_x
 _atom_site_fract_y
 _atom_site_fract_z
 _atom_site_occupancy
  Sc  Sc0  1  0.500000  0.331156  0.140466  1
  Ti  Ti1  1  0.500000  0.664651  0.856210  1
  Ti  Ti2  1  0.500000  0.833671  0.355545  1
  Ti  Ti3  1  0.500000  0.162771  0.643126  1
  P  P4  1  0.000000  0.998204  0.999173  1
  P  P5  1  0.000000  0.501484  0.501038  1
  Rh  Rh6  1  0.000000  0.999052  0.502112  1
  Rh  Rh7  1  0.000000  0.515496  0.992667  1
  Rh  Rh8  1  0.000000  0.071225  0.244552  1
  Rh  Rh9  1  0.000000  0.918094  0.762434  1
  Rh  Rh10  1  0.000000  0.581450  0.267656  1
  Rh  Rh11  1  0.000000  0.417841  0.734487  1
  Rh  Rh12  1  0.500000  0.317969  0.404909  1
  Rh  Rh13  1  0.500000  0.681188  0.601923  1
  Rh  Rh14  1  0.500000  0.826186  0.100810  1
  Rh  Rh15  1  0.500000  0.179561  0.892892  1
