# generated using pymatgen
data_Er4MgIrAu2
_symmetry_space_group_name_H-M   'P 1'
_cell_length_a   10.99408800
_cell_length_b   10.99408800
_cell_length_c   6.17769800
_cell_angle_alpha   90.00000000
_cell_angle_beta   90.00000000
_cell_angle_gamma   90.00000000
_symmetry_Int_Tables_number   1
_chemical_formula_structural   Er4MgIrAu2
_chemical_formula_sum   'Er16 Mg4 Ir4 Au8'
_cell_volume   746.69817781
_cell_formula_units_Z   4
loop_
 _symmetry_equiv_pos_site_id
 _symmetry_equiv_pos_as_xyz
  1  'x, y, z'
loop_
 _atom_site_type_symbol
 _atom_site_label
 _atom_site_symmetry_multiplicity
 _atom_site_fract_x
 _atom_site_fract_y
 _atom_site_fract_z
 _atom_site_occupancy
  Er  Er0  1  0.293514  0.082724  0.357823  1
  Er  Er1  1  0.293514  0.917276  0.857823  1
  Er  Er2  1  0.706486  0.082724  0.857823  1
  Er  Er3  1  0.706486  0.917276  0.357823  1
  Er  Er4  1  0.582724  0.793514  0.857823  1
  Er  Er5  1  0.582724  0.206486  0.357823  1
  Er  Er6  1  0.417276  0.793514  0.357823  1
  Er  Er7  1  0.417276  0.206486  0.857823  1
  Er  Er8  1  0.206486  0.417276  0.642177  1
  Er  Er9  1  0.206486  0.582724  0.142177  1
  Er  Er10  1  0.793514  0.417276  0.142177  1
  Er  Er11  1  0.793514  0.582724  0.642177  1
  Er  Er12  1  0.917276  0.706486  0.142177  1
  Er  Er13  1  0.917276  0.293514  0.642177  1
  Er  Er14  1  0.082724  0.706486  0.642177  1
  Er  Er15  1  0.082724  0.293514  0.142177  1
  Mg  Mg16  1  0.000000  0.000000  0.500000  1
  Mg  Mg17  1  0.000000  0.000000  0.000000  1
  Mg  Mg18  1  0.500000  0.500000  0.000000  1
  Mg  Mg19  1  0.500000  0.500000  0.500000  1
  Ir  Ir20  1  0.500000  0.000000  0.106129  1
  Ir  Ir21  1  0.500000  0.000000  0.606129  1
  Ir  Ir22  1  0.000000  0.500000  0.893871  1
  Ir  Ir23  1  0.000000  0.500000  0.393871  1
  Au  Au24  1  0.847465  0.152535  0.250000  1
  Au  Au25  1  0.847465  0.847465  0.750000  1
  Au  Au26  1  0.152535  0.152535  0.750000  1
  Au  Au27  1  0.152535  0.847465  0.250000  1
  Au  Au28  1  0.652535  0.347465  0.750000  1
  Au  Au29  1  0.652535  0.652535  0.250000  1
  Au  Au30  1  0.347465  0.347465  0.250000  1
  Au  Au31  1  0.347465  0.652535  0.750000  1
