# generated using pymatgen
data_Nd3As4Rh7
_symmetry_space_group_name_H-M   'P 1'
_cell_length_a   8.09743083
_cell_length_b   8.09743119
_cell_length_c   9.57970061
_cell_angle_alpha   56.07665662
_cell_angle_beta   56.07665539
_cell_angle_gamma   29.36816412
_symmetry_Int_Tables_number   1
_chemical_formula_structural   Nd3As4Rh7
_chemical_formula_sum   'Nd3 As4 Rh7'
_cell_volume   251.60996099
_cell_formula_units_Z   1
loop_
 _symmetry_equiv_pos_site_id
 _symmetry_equiv_pos_as_xyz
  1  'x, y, z'
loop_
 _atom_site_type_symbol
 _atom_site_label
 _atom_site_symmetry_multiplicity
 _atom_site_fract_x
 _atom_site_fract_y
 _atom_site_fract_z
 _atom_site_occupancy
  Nd  Nd0  1  0.669058  0.669058  0.835248  1
  Nd  Nd1  1  0.330942  0.330942  0.164752  1
  Nd  Nd2  1  0.000000  0.000000  0.500000  1
  As  As3  1  0.332858  0.332858  0.773772  1
  As  As4  1  0.667142  0.667142  0.226228  1
  As  As5  1  0.109476  0.109476  0.670404  1
  As  As6  1  0.890524  0.890524  0.329596  1
  Rh  Rh7  1  0.696549  0.696549  0.461655  1
  Rh  Rh8  1  0.508711  0.508711  0.224277  1
  Rh  Rh9  1  0.167214  0.167214  0.076544  1
  Rh  Rh10  1  0.303451  0.303451  0.538345  1
  Rh  Rh11  1  0.832786  0.832786  0.923456  1
  Rh  Rh12  1  0.000000  0.000000  0.000000  1
  Rh  Rh13  1  0.491289  0.491289  0.775723  1
