# generated using pymatgen
data_Zr10In5Ga2Bi
_symmetry_space_group_name_H-M   'P 1'
_cell_length_a   8.78258214
_cell_length_b   8.81671684
_cell_length_c   5.94007100
_cell_angle_alpha   90.00000000
_cell_angle_beta   90.00000000
_cell_angle_gamma   120.12864624
_symmetry_Int_Tables_number   1
_chemical_formula_structural   Zr10In5Ga2Bi
_chemical_formula_sum   'Zr10 In5 Ga2 Bi1'
_cell_volume   397.82029332
_cell_formula_units_Z   1
loop_
 _symmetry_equiv_pos_site_id
 _symmetry_equiv_pos_as_xyz
  1  'x, y, z'
loop_
 _atom_site_type_symbol
 _atom_site_label
 _atom_site_symmetry_multiplicity
 _atom_site_fract_x
 _atom_site_fract_y
 _atom_site_fract_z
 _atom_site_occupancy
  Zr  Zr0  1  0.664042  0.332616  0.997982  1
  Zr  Zr1  1  0.335958  0.668574  0.997982  1
  Zr  Zr2  1  0.335958  0.668574  0.502018  1
  Zr  Zr3  1  0.664042  0.332616  0.502018  1
  Zr  Zr4  1  0.735412  0.735698  0.750000  1
  Zr  Zr5  1  0.264588  0.000285  0.750000  1
  Zr  Zr6  1  0.000000  0.262113  0.750000  1
  Zr  Zr7  1  0.263931  0.261862  0.250000  1
  Zr  Zr8  1  0.736069  0.997931  0.250000  1
  Zr  Zr9  1  0.000000  0.737467  0.250000  1
  In  In10  1  0.385779  0.386011  0.750000  1
  In  In11  1  0.614221  0.000232  0.750000  1
  In  In12  1  0.000000  0.616338  0.750000  1
  In  In13  1  0.613406  0.614073  0.250000  1
  In  In14  1  0.386594  0.000667  0.250000  1
  Ga  Ga15  1  0.000000  0.998438  0.998405  1
  Ga  Ga16  1  0.000000  0.998438  0.501595  1
  Bi  Bi17  1  0.000000  0.388068  0.250000  1
