# generated using pymatgen
data_Sr2HoUO6
_symmetry_space_group_name_H-M   'P 1'
_cell_length_a   5.97846074
_cell_length_b   6.09583500
_cell_length_c   8.53138283
_cell_angle_alpha   90.00000000
_cell_angle_beta   89.94367802
_cell_angle_gamma   90.00000000
_symmetry_Int_Tables_number   1
_chemical_formula_structural   Sr2HoUO6
_chemical_formula_sum   'Sr4 Ho2 U2 O12'
_cell_volume   310.91509343
_cell_formula_units_Z   2
loop_
 _symmetry_equiv_pos_site_id
 _symmetry_equiv_pos_as_xyz
  1  'x, y, z'
loop_
 _atom_site_type_symbol
 _atom_site_label
 _atom_site_symmetry_multiplicity
 _atom_site_fract_x
 _atom_site_fract_y
 _atom_site_fract_z
 _atom_site_occupancy
  Sr  Sr0  1  0.509477  0.540663  0.249506  1
  Sr  Sr1  1  0.990523  0.040661  0.250494  1
  Sr  Sr2  1  0.009476  0.959338  0.749506  1
  Sr  Sr3  1  0.490524  0.459338  0.750494  1
  Ho  Ho4  1  0.500000  0.000000  0.000000  1
  Ho  Ho5  1  0.000001  0.500000  0.500000  1
  U  U6  1  0.000000  0.500000  0.000000  1
  U  U7  1  0.500000  0.000000  0.500000  1
  O  O8  1  0.708379  0.302991  0.049249  1
  O  O9  1  0.803810  0.790135  0.053326  1
  O  O10  1  0.096373  0.464601  0.243738  1
  O  O11  1  0.403627  0.964601  0.256262  1
  O  O12  1  0.696191  0.290135  0.446674  1
  O  O13  1  0.791620  0.802992  0.450751  1
  O  O14  1  0.208379  0.197009  0.549249  1
  O  O15  1  0.303810  0.709864  0.553326  1
  O  O16  1  0.596374  0.035399  0.743737  1
  O  O17  1  0.903628  0.535399  0.756263  1
  O  O18  1  0.196191  0.209865  0.946674  1
  O  O19  1  0.291622  0.697009  0.950751  1
