# generated using pymatgen
data_NaYb2Fe3N5
_symmetry_space_group_name_H-M   'P 1'
_cell_length_a   5.37572866
_cell_length_b   6.79811260
_cell_length_c   8.15409025
_cell_angle_alpha   108.27364393
_cell_angle_beta   103.78868344
_cell_angle_gamma   94.75784220
_symmetry_Int_Tables_number   1
_chemical_formula_structural   NaYb2Fe3N5
_chemical_formula_sum   'Na2 Yb4 Fe6 N10'
_cell_volume   270.76076932
_cell_formula_units_Z   2
loop_
 _symmetry_equiv_pos_site_id
 _symmetry_equiv_pos_as_xyz
  1  'x, y, z'
loop_
 _atom_site_type_symbol
 _atom_site_label
 _atom_site_symmetry_multiplicity
 _atom_site_fract_x
 _atom_site_fract_y
 _atom_site_fract_z
 _atom_site_occupancy
  Na  Na0  1  0.802457  0.417097  0.604135  1
  Na  Na1  1  0.197543  0.582903  0.395865  1
  Yb  Yb2  1  0.671309  0.864308  0.874511  1
  Yb  Yb3  1  0.328691  0.135692  0.125489  1
  Yb  Yb4  1  0.667458  0.662148  0.210491  1
  Yb  Yb5  1  0.332542  0.337852  0.789509  1
  Fe  Fe6  1  0.902909  0.322125  0.971571  1
  Fe  Fe7  1  0.097091  0.677875  0.028429  1
  Fe  Fe8  1  0.689500  0.956356  0.570236  1
  Fe  Fe9  1  0.310500  0.043644  0.429764  1
  Fe  Fe10  1  0.107796  0.887616  0.707841  1
  Fe  Fe11  1  0.892204  0.112384  0.292159  1
  N  N12  1  0.941169  0.121716  0.780702  1
  N  N13  1  0.058831  0.878284  0.219298  1
  N  N14  1  0.824368  0.720220  0.527250  1
  N  N15  1  0.175632  0.279780  0.472750  1
  N  N16  1  0.749763  0.538904  0.914313  1
  N  N17  1  0.250237  0.461096  0.085687  1
  N  N18  1  0.373951  0.949121  0.622812  1
  N  N19  1  0.626049  0.050879  0.377188  1
  N  N20  1  0.212885  0.782007  0.884364  1
  N  N21  1  0.787115  0.217993  0.115636  1
