# generated using pymatgen
data_Pr6PdAu7
_symmetry_space_group_name_H-M   'P 1'
_cell_length_a   8.33716795
_cell_length_b   8.33716842
_cell_length_c   8.33716778
_cell_angle_alpha   113.97703329
_cell_angle_beta   113.97703503
_cell_angle_gamma   113.97702269
_symmetry_Int_Tables_number   1
_chemical_formula_structural   Pr6PdAu7
_chemical_formula_sum   'Pr6 Pd1 Au7'
_cell_volume   352.67690362
_cell_formula_units_Z   1
loop_
 _symmetry_equiv_pos_site_id
 _symmetry_equiv_pos_as_xyz
  1  'x, y, z'
loop_
 _atom_site_type_symbol
 _atom_site_label
 _atom_site_symmetry_multiplicity
 _atom_site_fract_x
 _atom_site_fract_y
 _atom_site_fract_z
 _atom_site_occupancy
  Pr  Pr0  1  0.392208  0.018865  0.269877  1
  Pr  Pr1  1  0.018865  0.269877  0.392208  1
  Pr  Pr2  1  0.269877  0.392208  0.018865  1
  Pr  Pr3  1  0.607792  0.981135  0.730123  1
  Pr  Pr4  1  0.981135  0.730123  0.607792  1
  Pr  Pr5  1  0.730123  0.607792  0.981135  1
  Pd  Pd6  1  0.000000  0.000000  0.000000  1
  Au  Au7  1  0.500000  0.500000  0.500000  1
  Au  Au8  1  0.231418  0.069044  0.564844  1
  Au  Au9  1  0.069044  0.564844  0.231418  1
  Au  Au10  1  0.564844  0.231418  0.069044  1
  Au  Au11  1  0.768582  0.930956  0.435156  1
  Au  Au12  1  0.930956  0.435156  0.768582  1
  Au  Au13  1  0.435156  0.768582  0.930956  1
