# generated using pymatgen
data_YbLuHf2(Al8Pt3)3
_symmetry_space_group_name_H-M   'P 1'
_cell_length_a   7.49265914
_cell_length_b   7.49184990
_cell_length_c   13.03712806
_cell_angle_alpha   84.53551119
_cell_angle_beta   100.96282067
_cell_angle_gamma   119.96977010
_symmetry_Int_Tables_number   1
_chemical_formula_structural   YbLuHf2(Al8Pt3)3
_chemical_formula_sum   'Yb1 Lu1 Hf2 Al24 Pt9'
_cell_volume   622.40212163
_cell_formula_units_Z   1
loop_
 _symmetry_equiv_pos_site_id
 _symmetry_equiv_pos_as_xyz
  1  'x, y, z'
loop_
 _atom_site_type_symbol
 _atom_site_label
 _atom_site_symmetry_multiplicity
 _atom_site_fract_x
 _atom_site_fract_y
 _atom_site_fract_z
 _atom_site_occupancy
  Yb  Yb0  1  0.232051  0.498284  0.191793  1
  Lu  Lu1  1  0.767845  0.501690  0.807630  1
  Hf  Hf2  1  0.437702  0.831500  0.808331  1
  Hf  Hf3  1  0.562584  0.168539  0.192231  1
  Al  Al4  1  0.483294  0.164586  0.942471  1
  Al  Al5  1  0.516724  0.835732  0.056915  1
  Al  Al6  1  0.020439  0.167421  0.562412  1
  Al  Al7  1  0.979591  0.832769  0.437805  1
  Al  Al8  1  0.353705  0.833374  0.560190  1
  Al  Al9  1  0.646523  0.166437  0.439829  1
  Al  Al10  1  0.614456  0.835136  0.326142  1
  Al  Al11  1  0.384708  0.164438  0.674323  1
  Al  Al12  1  0.058723  0.495176  0.674685  1
  Al  Al13  1  0.941925  0.504485  0.325706  1
  Al  Al14  1  0.729900  0.839570  0.673757  1
  Al  Al15  1  0.270463  0.161333  0.326625  1
  Al  Al16  1  0.148952  0.502867  0.942803  1
  Al  Al17  1  0.850815  0.496747  0.057555  1
  Al  Al18  1  0.812983  0.831503  0.949886  1
  Al  Al19  1  0.187187  0.168248  0.049831  1
  Al  Al20  1  0.313926  0.500812  0.440160  1
  Al  Al21  1  0.685614  0.499006  0.559255  1
  Al  Al22  1  0.108891  0.843626  0.183066  1
  Al  Al23  1  0.891745  0.158564  0.816787  1
  Al  Al24  1  0.307939  0.374102  0.815600  1
  Al  Al25  1  0.693457  0.625197  0.184183  1
  Al  Al26  1  0.108814  0.959139  0.816172  1
  Al  Al27  1  0.889271  0.039796  0.183686  1
  Pt  Pt28  1  0.389863  0.510268  0.639951  1
  Pt  Pt29  1  0.612462  0.490557  0.361015  1
  Pt  Pt30  1  0.170429  0.827735  0.998600  1
  Pt  Pt31  1  0.828239  0.171978  0.999493  1
  Pt  Pt32  1  0.296432  0.834338  0.361256  1
  Pt  Pt33  1  0.703055  0.166614  0.639980  1
  Pt  Pt34  1  0.045939  0.823271  0.638443  1
  Pt  Pt35  1  0.952920  0.174722  0.362532  1
  Pt  Pt36  1  0.500437  0.500436  0.998902  1
