# generated using pymatgen
data_Dy5Er3(CuP)12
_symmetry_space_group_name_H-M   'P 1'
_cell_length_a   3.83703500
_cell_length_b   10.65300800
_cell_length_c   12.93761100
_cell_angle_alpha   89.99859413
_cell_angle_beta   90.00000000
_cell_angle_gamma   90.00000000
_symmetry_Int_Tables_number   1
_chemical_formula_structural   Dy5Er3(CuP)12
_chemical_formula_sum   'Dy5 Er3 Cu12 P12'
_cell_volume   528.83732853
_cell_formula_units_Z   1
loop_
 _symmetry_equiv_pos_site_id
 _symmetry_equiv_pos_as_xyz
  1  'x, y, z'
loop_
 _atom_site_type_symbol
 _atom_site_label
 _atom_site_symmetry_multiplicity
 _atom_site_fract_x
 _atom_site_fract_y
 _atom_site_fract_z
 _atom_site_occupancy
  Dy  Dy0  1  0.250000  0.931927  0.792964  1
  Dy  Dy1  1  0.750000  0.431460  0.707795  1
  Dy  Dy2  1  0.250000  0.568038  0.291823  1
  Dy  Dy3  1  0.750000  0.068407  0.207393  1
  Dy  Dy4  1  0.250000  0.840915  0.503244  1
  Er  Er5  1  0.750000  0.341294  0.996737  1
  Er  Er6  1  0.250000  0.658689  0.003118  1
  Er  Er7  1  0.750000  0.158878  0.496754  1
  Cu  Cu8  1  0.250000  0.403994  0.512979  1
  Cu  Cu9  1  0.750000  0.904467  0.986883  1
  Cu  Cu10  1  0.250000  0.095825  0.012872  1
  Cu  Cu11  1  0.750000  0.595583  0.486987  1
  Cu  Cu12  1  0.250000  0.271101  0.331925  1
  Cu  Cu13  1  0.750000  0.770639  0.167559  1
  Cu  Cu14  1  0.250000  0.229471  0.831729  1
  Cu  Cu15  1  0.750000  0.729322  0.668730  1
  Cu  Cu16  1  0.250000  0.859275  0.281076  1
  Cu  Cu17  1  0.750000  0.359108  0.218817  1
  Cu  Cu18  1  0.250000  0.641104  0.781785  1
  Cu  Cu19  1  0.750000  0.141027  0.718989  1
  P  P20  1  0.250000  0.242128  0.642071  1
  P  P21  1  0.750000  0.742400  0.858175  1
  P  P22  1  0.250000  0.257694  0.141965  1
  P  P23  1  0.750000  0.756901  0.356753  1
  P  P24  1  0.250000  0.604665  0.602240  1
  P  P25  1  0.750000  0.105890  0.898359  1
  P  P26  1  0.250000  0.894452  0.101481  1
  P  P27  1  0.750000  0.394380  0.398287  1
  P  P28  1  0.250000  0.056662  0.370023  1
  P  P29  1  0.750000  0.555795  0.129249  1
  P  P30  1  0.250000  0.443989  0.870441  1
  P  P31  1  0.750000  0.944519  0.630798  1
