# generated using pymatgen
data_Hf18BeRe7WSe
_symmetry_space_group_name_H-M   'P 1'
_cell_length_a   8.59644514
_cell_length_b   8.59644635
_cell_length_c   8.62035200
_cell_angle_alpha   90.00000000
_cell_angle_beta   90.00000000
_cell_angle_gamma   120.08091469
_symmetry_Int_Tables_number   1
_chemical_formula_structural   Hf18BeRe7WSe
_chemical_formula_sum   'Hf18 Be1 Re7 W1 Se1'
_cell_volume   551.23756467
_cell_formula_units_Z   1
loop_
 _symmetry_equiv_pos_site_id
 _symmetry_equiv_pos_as_xyz
  1  'x, y, z'
loop_
 _atom_site_type_symbol
 _atom_site_label
 _atom_site_symmetry_multiplicity
 _atom_site_fract_x
 _atom_site_fract_y
 _atom_site_fract_z
 _atom_site_occupancy
  Hf  Hf0  1  0.197636  0.802364  0.444883  1
  Hf  Hf1  1  0.197465  0.394728  0.445132  1
  Hf  Hf2  1  0.605272  0.802535  0.445132  1
  Hf  Hf3  1  0.807793  0.192207  0.547439  1
  Hf  Hf4  1  0.807524  0.615534  0.547353  1
  Hf  Hf5  1  0.384466  0.192476  0.547353  1
  Hf  Hf6  1  0.807793  0.192207  0.952561  1
  Hf  Hf7  1  0.807524  0.615534  0.952647  1
  Hf  Hf8  1  0.384466  0.192476  0.952647  1
  Hf  Hf9  1  0.197636  0.802364  0.055117  1
  Hf  Hf10  1  0.197465  0.394728  0.054868  1
  Hf  Hf11  1  0.605272  0.802535  0.054868  1
  Hf  Hf12  1  0.540277  0.459723  0.250000  1
  Hf  Hf13  1  0.540634  0.080644  0.250000  1
  Hf  Hf14  1  0.919356  0.459366  0.250000  1
  Hf  Hf15  1  0.455290  0.544710  0.750000  1
  Hf  Hf16  1  0.455905  0.910378  0.750000  1
  Hf  Hf17  1  0.089622  0.544095  0.750000  1
  Be  Be18  1  0.333422  0.666578  0.250000  1
  Re  Re19  1  0.890349  0.109651  0.250000  1
  Re  Re20  1  0.889978  0.780296  0.250000  1
  Re  Re21  1  0.219704  0.110022  0.250000  1
  Re  Re22  1  0.111149  0.221645  0.750000  1
  Re  Re23  1  0.778355  0.888851  0.750000  1
  Re  Re24  1  0.999635  0.000365  0.499517  1
  Re  Re25  1  0.999635  0.000365  0.000483  1
  W  W26  1  0.109567  0.890433  0.750000  1
  Se  Se27  1  0.666806  0.333194  0.750000  1
