# generated using pymatgen
data_Ba3Si2Rh6Au
_symmetry_space_group_name_H-M   'P 1'
_cell_length_a   8.74176596
_cell_length_b   8.74176587
_cell_length_c   8.74176600
_cell_angle_alpha   39.13058524
_cell_angle_beta   39.13058595
_cell_angle_gamma   39.13058945
_symmetry_Int_Tables_number   1
_chemical_formula_structural   Ba3Si2Rh6Au
_chemical_formula_sum   'Ba3 Si2 Rh6 Au1'
_cell_volume   239.33107456
_cell_formula_units_Z   1
loop_
 _symmetry_equiv_pos_site_id
 _symmetry_equiv_pos_as_xyz
  1  'x, y, z'
loop_
 _atom_site_type_symbol
 _atom_site_label
 _atom_site_symmetry_multiplicity
 _atom_site_fract_x
 _atom_site_fract_y
 _atom_site_fract_z
 _atom_site_occupancy
  Ba  Ba0  1  0.358768  0.358768  0.358768  1
  Ba  Ba1  1  0.500000  0.500000  0.500000  1
  Ba  Ba2  1  0.641232  0.641232  0.641232  1
  Si  Si3  1  0.169011  0.169011  0.169011  1
  Si  Si4  1  0.830989  0.830989  0.830989  1
  Rh  Rh5  1  0.578101  0.064671  0.064670  1
  Rh  Rh6  1  0.064671  0.578101  0.064670  1
  Rh  Rh7  1  0.935329  0.935329  0.421900  1
  Rh  Rh8  1  0.064671  0.064671  0.578100  1
  Rh  Rh9  1  0.935329  0.421899  0.935330  1
  Rh  Rh10  1  0.421899  0.935329  0.935330  1
  Au  Au11  1  0.000000  0.000000  0.000000  1
