# generated using pymatgen
data_Li3La10AlIr6
_symmetry_space_group_name_H-M   'P 1'
_cell_length_a   8.66622521
_cell_length_b   8.74866495
_cell_length_c   8.66622507
_cell_angle_alpha   109.66404261
_cell_angle_beta   109.27771044
_cell_angle_gamma   109.66403587
_symmetry_Int_Tables_number   1
_chemical_formula_structural   Li3La10AlIr6
_chemical_formula_sum   'Li3 La10 Al1 Ir6'
_cell_volume   504.59257378
_cell_formula_units_Z   1
loop_
 _symmetry_equiv_pos_site_id
 _symmetry_equiv_pos_as_xyz
  1  'x, y, z'
loop_
 _atom_site_type_symbol
 _atom_site_label
 _atom_site_symmetry_multiplicity
 _atom_site_fract_x
 _atom_site_fract_y
 _atom_site_fract_z
 _atom_site_occupancy
  Li  Li0  1  0.497830  0.999354  0.905517  1
  Li  Li1  1  0.594483  0.593837  0.592312  1
  Li  Li2  1  0.907688  0.501526  0.002171  1
  La  La3  1  0.248375  0.679948  0.432619  1
  La  La4  1  0.748053  0.817346  0.067461  1
  La  La5  1  0.432540  0.249885  0.680592  1
  La  La6  1  0.684243  0.431574  0.251625  1
  La  La7  1  0.067382  0.747330  0.815757  1
  La  La8  1  0.819408  0.069293  0.751947  1
  La  La9  1  0.220678  0.219938  0.219926  1
  La  La10  1  0.499249  0.999260  0.279322  1
  La  La11  1  0.280074  0.500013  0.000752  1
  La  La12  1  0.000000  0.279681  0.500001  1
  Al  Al13  1  0.000000  0.903470  0.500001  1
  Ir  Ir14  1  0.236030  0.124407  0.863026  1
  Ir  Ir15  1  0.748485  0.365240  0.613855  1
  Ir  Ir16  1  0.886144  0.251386  0.134629  1
  Ir  Ir17  1  0.126997  0.888378  0.263972  1
  Ir  Ir18  1  0.636973  0.761381  0.373002  1
  Ir  Ir19  1  0.365370  0.616755  0.751515  1
