# generated using pymatgen
data_Lu2Hf2Sc(Co2Si5)2
_symmetry_space_group_name_H-M   'P 1'
_cell_length_a   12.05671100
_cell_length_b   12.05671100
_cell_length_c   3.95982900
_cell_angle_alpha   90.00000000
_cell_angle_beta   90.00000000
_cell_angle_gamma   90.00000000
_symmetry_Int_Tables_number   1
_chemical_formula_structural   Lu2Hf2Sc(Co2Si5)2
_chemical_formula_sum   'Lu4 Hf4 Sc2 Co8 Si20'
_cell_volume   575.61769205
_cell_formula_units_Z   2
loop_
 _symmetry_equiv_pos_site_id
 _symmetry_equiv_pos_as_xyz
  1  'x, y, z'
loop_
 _atom_site_type_symbol
 _atom_site_label
 _atom_site_symmetry_multiplicity
 _atom_site_fract_x
 _atom_site_fract_y
 _atom_site_fract_z
 _atom_site_occupancy
  Lu  Lu0  1  0.886955  0.386955  0.500000  1
  Lu  Lu1  1  0.386955  0.113045  0.500000  1
  Lu  Lu2  1  0.613045  0.886955  0.500000  1
  Lu  Lu3  1  0.113045  0.613045  0.500000  1
  Hf  Hf4  1  0.677091  0.177091  0.500000  1
  Hf  Hf5  1  0.177091  0.322909  0.500000  1
  Hf  Hf6  1  0.822909  0.677091  0.500000  1
  Hf  Hf7  1  0.322909  0.822909  0.500000  1
  Sc  Sc8  1  0.000000  0.000000  0.000000  1
  Sc  Sc9  1  0.500000  0.500000  0.000000  1
  Co  Co10  1  0.525367  0.256219  0.000000  1
  Co  Co11  1  0.256219  0.474633  0.000000  1
  Co  Co12  1  0.743781  0.525367  0.000000  1
  Co  Co13  1  0.474633  0.743781  0.000000  1
  Co  Co14  1  0.974633  0.756219  0.000000  1
  Co  Co15  1  0.025367  0.243781  0.000000  1
  Co  Co16  1  0.756219  0.025367  0.000000  1
  Co  Co17  1  0.243781  0.974633  0.000000  1
  Si  Si18  1  0.569213  0.069213  0.000000  1
  Si  Si19  1  0.069213  0.430787  0.000000  1
  Si  Si20  1  0.930787  0.569213  0.000000  1
  Si  Si21  1  0.430787  0.930787  0.000000  1
  Si  Si22  1  0.196926  0.155882  0.000000  1
  Si  Si23  1  0.155882  0.803074  0.000000  1
  Si  Si24  1  0.844118  0.196926  0.000000  1
  Si  Si25  1  0.803074  0.844118  0.000000  1
  Si  Si26  1  0.303074  0.655882  0.000000  1
  Si  Si27  1  0.696926  0.344118  0.000000  1
  Si  Si28  1  0.655882  0.696926  0.000000  1
  Si  Si29  1  0.344118  0.303074  0.000000  1
  Si  Si30  1  0.005176  0.161714  0.500000  1
  Si  Si31  1  0.161714  0.994824  0.500000  1
  Si  Si32  1  0.838286  0.005176  0.500000  1
  Si  Si33  1  0.994824  0.838286  0.500000  1
  Si  Si34  1  0.494824  0.661714  0.500000  1
  Si  Si35  1  0.505176  0.338286  0.500000  1
  Si  Si36  1  0.661714  0.505176  0.500000  1
  Si  Si37  1  0.338286  0.494824  0.500000  1
