# generated using pymatgen
data_Li4InAuO6
_symmetry_space_group_name_H-M   'P 1'
_cell_length_a   5.41859458
_cell_length_b   5.41859378
_cell_length_c   5.22237077
_cell_angle_alpha   98.80209148
_cell_angle_beta   98.80208612
_cell_angle_gamma   121.04827088
_symmetry_Int_Tables_number   1
_chemical_formula_structural   Li4InAuO6
_chemical_formula_sum   'Li4 In1 Au1 O6'
_cell_volume   124.85324333
_cell_formula_units_Z   1
loop_
 _symmetry_equiv_pos_site_id
 _symmetry_equiv_pos_as_xyz
  1  'x, y, z'
loop_
 _atom_site_type_symbol
 _atom_site_label
 _atom_site_symmetry_multiplicity
 _atom_site_fract_x
 _atom_site_fract_y
 _atom_site_fract_z
 _atom_site_occupancy
  Li  Li0  1  0.499918  0.500081  0.000000  1
  Li  Li1  1  0.028574  0.971424  0.499999  1
  Li  Li2  1  0.651659  0.348341  0.500001  1
  Li  Li3  1  0.318706  0.681294  0.500001  1
  In  In4  1  0.835639  0.164361  0.000000  1
  Au  Au5  1  0.166326  0.833673  0.000000  1
  O  O6  1  0.929164  0.591229  0.237980  1
  O  O7  1  0.239091  0.216453  0.240948  1
  O  O8  1  0.549438  0.910834  0.239888  1
  O  O9  1  0.089166  0.450561  0.760112  1
  O  O10  1  0.783549  0.760911  0.759054  1
  O  O11  1  0.408773  0.070838  0.762022  1
