# generated using pymatgen
data_KHfPS5
_symmetry_space_group_name_H-M   'P 1'
_cell_length_a   9.93399052
_cell_length_b   9.93399076
_cell_length_c   6.72006451
_cell_angle_alpha   82.56098400
_cell_angle_beta   82.56098376
_cell_angle_gamma   44.21611453
_symmetry_Int_Tables_number   1
_chemical_formula_structural   KHfPS5
_chemical_formula_sum   'K2 Hf2 P2 S10'
_cell_volume   457.93049120
_cell_formula_units_Z   2
loop_
 _symmetry_equiv_pos_site_id
 _symmetry_equiv_pos_as_xyz
  1  'x, y, z'
loop_
 _atom_site_type_symbol
 _atom_site_label
 _atom_site_symmetry_multiplicity
 _atom_site_fract_x
 _atom_site_fract_y
 _atom_site_fract_z
 _atom_site_occupancy
  K  K0  1  0.770504  0.770504  0.734827  1
  K  K1  1  0.229496  0.229496  0.265173  1
  Hf  Hf2  1  0.773853  0.226147  0.500000  1
  Hf  Hf3  1  0.226147  0.773853  0.500000  1
  P  P4  1  0.367286  0.367286  0.710751  1
  P  P5  1  0.632714  0.632714  0.289249  1
  S  S6  1  0.812501  0.363534  0.174632  1
  S  S7  1  0.742234  0.742234  0.249090  1
  S  S8  1  0.187499  0.636466  0.825368  1
  S  S9  1  0.413304  0.413304  0.405015  1
  S  S10  1  0.636466  0.187499  0.825368  1
  S  S11  1  0.938159  0.938159  0.327019  1
  S  S12  1  0.061841  0.061841  0.672981  1
  S  S13  1  0.586696  0.586696  0.594985  1
  S  S14  1  0.363534  0.812501  0.174632  1
  S  S15  1  0.257766  0.257766  0.750910  1
