# generated using pymatgen
data_Er2Ga3Pd
_symmetry_space_group_name_H-M   'P 1'
_cell_length_a   6.95337900
_cell_length_b   8.89445476
_cell_length_c   8.89445400
_cell_angle_alpha   119.99999716
_cell_angle_beta   90.00000000
_cell_angle_gamma   90.00000000
_symmetry_Int_Tables_number   1
_chemical_formula_structural   Er2Ga3Pd
_chemical_formula_sum   'Er8 Ga12 Pd4'
_cell_volume   476.39277893
_cell_formula_units_Z   4
loop_
 _symmetry_equiv_pos_site_id
 _symmetry_equiv_pos_as_xyz
  1  'x, y, z'
loop_
 _atom_site_type_symbol
 _atom_site_label
 _atom_site_symmetry_multiplicity
 _atom_site_fract_x
 _atom_site_fract_y
 _atom_site_fract_z
 _atom_site_occupancy
  Er  Er0  1  0.749945  0.000000  0.000000  1
  Er  Er1  1  0.249889  0.000000  0.000000  1
  Er  Er2  1  0.749964  0.482632  0.517368  1
  Er  Er3  1  0.250007  0.517286  0.482714  1
  Er  Er4  1  0.749964  0.034736  0.517368  1
  Er  Er5  1  0.250007  0.965427  0.482714  1
  Er  Er6  1  0.749964  0.482632  0.965264  1
  Er  Er7  1  0.250007  0.517286  0.034573  1
  Ga  Ga8  1  0.956061  0.832965  0.167035  1
  Ga  Ga9  1  0.044001  0.167052  0.832948  1
  Ga  Ga10  1  0.956061  0.334072  0.167035  1
  Ga  Ga11  1  0.455780  0.167064  0.832936  1
  Ga  Ga12  1  0.044001  0.665897  0.832948  1
  Ga  Ga13  1  0.543904  0.832716  0.167284  1
  Ga  Ga14  1  0.956061  0.832965  0.665928  1
  Ga  Ga15  1  0.455780  0.665870  0.832936  1
  Ga  Ga16  1  0.044001  0.167052  0.334103  1
  Ga  Ga17  1  0.543904  0.334569  0.167284  1
  Ga  Ga18  1  0.455780  0.167064  0.334130  1
  Ga  Ga19  1  0.543904  0.832716  0.665431  1
  Pd  Pd20  1  0.528184  0.666667  0.333333  1
  Pd  Pd21  1  0.973298  0.666667  0.333333  1
  Pd  Pd22  1  0.027711  0.333333  0.666667  1
  Pd  Pd23  1  0.471826  0.333333  0.666667  1
