# generated using pymatgen
data_Nd15Sm5Si15Os
_symmetry_space_group_name_H-M   'P 1'
_cell_length_a   7.66181310
_cell_length_b   7.99318989
_cell_length_c   15.12495766
_cell_angle_alpha   89.99256419
_cell_angle_beta   89.96709065
_cell_angle_gamma   89.97210068
_symmetry_Int_Tables_number   1
_chemical_formula_structural   Nd15Sm5Si15Os
_chemical_formula_sum   'Nd15 Sm5 Si15 Os1'
_cell_volume   926.28733260
_cell_formula_units_Z   1
loop_
 _symmetry_equiv_pos_site_id
 _symmetry_equiv_pos_as_xyz
  1  'x, y, z'
loop_
 _atom_site_type_symbol
 _atom_site_label
 _atom_site_symmetry_multiplicity
 _atom_site_fract_x
 _atom_site_fract_y
 _atom_site_fract_z
 _atom_site_occupancy
  Nd  Nd0  1  0.462894  0.688750  0.899433  1
  Nd  Nd1  1  0.963851  0.813941  0.901256  1
  Nd  Nd2  1  0.198137  0.676082  0.127037  1
  Nd  Nd3  1  0.681227  0.814184  0.123870  1
  Nd  Nd4  1  0.310965  0.181084  0.876771  1
  Nd  Nd5  1  0.197609  0.675800  0.373661  1
  Nd  Nd6  1  0.035440  0.185264  0.098582  1
  Nd  Nd7  1  0.311455  0.181501  0.622944  1
  Nd  Nd8  1  0.530234  0.322677  0.401498  1
  Nd  Nd9  1  0.810797  0.321405  0.878080  1
  Nd  Nd10  1  0.963765  0.813813  0.598462  1
  Nd  Nd11  1  0.463382  0.688815  0.599942  1
  Nd  Nd12  1  0.034757  0.185008  0.401838  1
  Nd  Nd13  1  0.681253  0.814196  0.376303  1
  Nd  Nd14  1  0.530007  0.322755  0.098774  1
  Sm  Sm15  1  0.140447  0.517784  0.750017  1
  Sm  Sm16  1  0.810960  0.322017  0.622043  1
  Sm  Sm17  1  0.845423  0.485629  0.250031  1
  Sm  Sm18  1  0.364336  0.016656  0.250091  1
  Sm  Sm19  1  0.638532  0.985873  0.749940  1
  Si  Si20  1  0.246638  0.368530  0.250145  1
  Si  Si21  1  0.866477  0.523774  0.459882  1
  Si  Si22  1  0.518618  0.402696  0.748894  1
  Si  Si23  1  0.635878  0.026180  0.958822  1
  Si  Si24  1  0.012195  0.100394  0.749068  1
  Si  Si25  1  0.755293  0.622777  0.748984  1
  Si  Si26  1  0.753651  0.119943  0.250117  1
  Si  Si27  1  0.360904  0.976347  0.459743  1
  Si  Si28  1  0.985478  0.902588  0.250125  1
  Si  Si29  1  0.359921  0.975905  0.040396  1
  Si  Si30  1  0.637954  0.027923  0.541360  1
  Si  Si31  1  0.141405  0.474080  0.960576  1
  Si  Si32  1  0.139075  0.473152  0.540165  1
  Si  Si33  1  0.868586  0.525091  0.041182  1
  Si  Si34  1  0.252151  0.877022  0.749750  1
  Os  Os35  1  0.490305  0.590363  0.250219  1
