# generated using pymatgen
data_Dy2Ge(PIr2)6
_symmetry_space_group_name_H-M   'P 1'
_cell_length_a   9.66544500
_cell_length_b   9.66544496
_cell_length_c   3.96192400
_cell_angle_alpha   90.00000000
_cell_angle_beta   90.00000000
_cell_angle_gamma   120.00000447
_symmetry_Int_Tables_number   1
_chemical_formula_structural   Dy2Ge(PIr2)6
_chemical_formula_sum   'Dy2 Ge1 P6 Ir12'
_cell_volume   320.53869068
_cell_formula_units_Z   1
loop_
 _symmetry_equiv_pos_site_id
 _symmetry_equiv_pos_as_xyz
  1  'x, y, z'
loop_
 _atom_site_type_symbol
 _atom_site_label
 _atom_site_symmetry_multiplicity
 _atom_site_fract_x
 _atom_site_fract_y
 _atom_site_fract_z
 _atom_site_occupancy
  Dy  Dy0  1  0.333333  0.666667  0.753073  1
  Dy  Dy1  1  0.666667  0.333333  0.246927  1
  Ge  Ge2  1  0.000000  0.000000  0.500000  1
  P  P3  1  0.406330  0.281710  0.746363  1
  P  P4  1  0.718290  0.124620  0.746363  1
  P  P5  1  0.875380  0.593670  0.746363  1
  P  P6  1  0.593670  0.718290  0.253637  1
  P  P7  1  0.281710  0.875380  0.253637  1
  P  P8  1  0.124620  0.406330  0.253637  1
  Ir  Ir9  1  0.457215  0.069708  0.746690  1
  Ir  Ir10  1  0.930292  0.387507  0.746690  1
  Ir  Ir11  1  0.612493  0.542785  0.746690  1
  Ir  Ir12  1  0.542785  0.930292  0.253310  1
  Ir  Ir13  1  0.069708  0.612493  0.253310  1
  Ir  Ir14  1  0.387507  0.457215  0.253310  1
  Ir  Ir15  1  0.161123  0.277851  0.763824  1
  Ir  Ir16  1  0.722149  0.883273  0.763824  1
  Ir  Ir17  1  0.116727  0.838877  0.763824  1
  Ir  Ir18  1  0.838877  0.722149  0.236176  1
  Ir  Ir19  1  0.277851  0.116727  0.236176  1
  Ir  Ir20  1  0.883273  0.161123  0.236176  1
