# generated using pymatgen
data_In2Sb2Br2O5
_symmetry_space_group_name_H-M   'P 1'
_cell_length_a   6.89710031
_cell_length_b   7.94511459
_cell_length_c   9.97998415
_cell_angle_alpha   107.92825720
_cell_angle_beta   103.54013563
_cell_angle_gamma   101.85219664
_symmetry_Int_Tables_number   1
_chemical_formula_structural   In2Sb2Br2O5
_chemical_formula_sum   'In4 Sb4 Br4 O10'
_cell_volume   482.57487382
_cell_formula_units_Z   2
loop_
 _symmetry_equiv_pos_site_id
 _symmetry_equiv_pos_as_xyz
  1  'x, y, z'
loop_
 _atom_site_type_symbol
 _atom_site_label
 _atom_site_symmetry_multiplicity
 _atom_site_fract_x
 _atom_site_fract_y
 _atom_site_fract_z
 _atom_site_occupancy
  In  In0  1  0.414545  0.690882  0.517403  1
  In  In1  1  0.585455  0.309118  0.482597  1
  In  In2  1  0.879513  0.787270  0.364086  1
  In  In3  1  0.120487  0.212730  0.635914  1
  Sb  Sb4  1  0.898169  0.839192  0.751178  1
  Sb  Sb5  1  0.101831  0.160808  0.248822  1
  Sb  Sb6  1  0.682459  0.223298  0.786859  1
  Sb  Sb7  1  0.317541  0.776702  0.213141  1
  Br  Br8  1  0.238022  0.612032  0.715532  1
  Br  Br9  1  0.761978  0.387968  0.284468  1
  Br  Br10  1  0.787700  0.717996  0.068039  1
  Br  Br11  1  0.212300  0.282004  0.931961  1
  O  O12  1  0.822330  0.263231  0.638859  1
  O  O13  1  0.177670  0.736769  0.361141  1
  O  O14  1  0.566502  0.779438  0.363561  1
  O  O15  1  0.433498  0.220562  0.636439  1
  O  O16  1  0.644265  0.945756  0.712877  1
  O  O17  1  0.355735  0.054244  0.287123  1
  O  O18  1  0.684799  0.609005  0.603890  1
  O  O19  1  0.315201  0.390995  0.396110  1
  O  O20  1  0.003115  0.916456  0.602873  1
  O  O21  1  0.996885  0.083544  0.397127  1
