# generated using pymatgen
data_RbNbS6
_symmetry_space_group_name_H-M   'P 1'
_cell_length_a   8.36116871
_cell_length_b   8.36116735
_cell_length_c   7.34549180
_cell_angle_alpha   88.16309124
_cell_angle_beta   88.16309626
_cell_angle_gamma   120.07192106
_symmetry_Int_Tables_number   1
_chemical_formula_structural   RbNbS6
_chemical_formula_sum   'Rb2 Nb2 S12'
_cell_volume   443.47990903
_cell_formula_units_Z   2
loop_
 _symmetry_equiv_pos_site_id
 _symmetry_equiv_pos_as_xyz
  1  'x, y, z'
loop_
 _atom_site_type_symbol
 _atom_site_label
 _atom_site_symmetry_multiplicity
 _atom_site_fract_x
 _atom_site_fract_y
 _atom_site_fract_z
 _atom_site_occupancy
  Rb  Rb0  1  0.675979  0.335802  0.008330  1
  Rb  Rb1  1  0.335802  0.675979  0.508330  1
  Nb  Nb2  1  0.989703  0.016282  0.739856  1
  Nb  Nb3  1  0.016282  0.989703  0.239856  1
  S  S4  1  0.969111  0.211277  0.478605  1
  S  S5  1  0.211277  0.969111  0.978605  1
  S  S6  1  0.268592  0.319110  0.813450  1
  S  S7  1  0.319110  0.268592  0.313450  1
  S  S8  1  0.043905  0.237193  0.994258  1
  S  S9  1  0.237193  0.043905  0.494258  1
  S  S10  1  0.737397  0.086961  0.656462  1
  S  S11  1  0.086961  0.737397  0.156462  1
  S  S12  1  0.948172  0.702693  0.698329  1
  S  S13  1  0.702693  0.948172  0.198329  1
  S  S14  1  0.800514  0.754790  0.508091  1
  S  S15  1  0.754790  0.800514  0.008091  1
