# generated using pymatgen
data_Y8Zr3Si16Mo9
_symmetry_space_group_name_H-M   'P 1'
_cell_length_a   7.00500769
_cell_length_b   7.00500839
_cell_length_c   12.96021597
_cell_angle_alpha   89.90737471
_cell_angle_beta   90.09262624
_cell_angle_gamma   89.95252994
_symmetry_Int_Tables_number   1
_chemical_formula_structural   Y8Zr3Si16Mo9
_chemical_formula_sum   'Y8 Zr3 Si16 Mo9'
_cell_volume   635.95770009
_cell_formula_units_Z   1
loop_
 _symmetry_equiv_pos_site_id
 _symmetry_equiv_pos_as_xyz
  1  'x, y, z'
loop_
 _atom_site_type_symbol
 _atom_site_label
 _atom_site_symmetry_multiplicity
 _atom_site_fract_x
 _atom_site_fract_y
 _atom_site_fract_z
 _atom_site_occupancy
  Y  Y0  1  0.997652  0.661520  0.031434  1
  Y  Y1  1  0.999588  0.340128  0.530819  1
  Y  Y2  1  0.661520  0.997652  0.968566  1
  Y  Y3  1  0.162524  0.503084  0.779332  1
  Y  Y4  1  0.835852  0.501809  0.283430  1
  Y  Y5  1  0.503084  0.162524  0.220668  1
  Y  Y6  1  0.501809  0.835852  0.716570  1
  Y  Y7  1  0.340128  0.999588  0.469181  1
  Zr  Zr8  1  0.831208  0.167504  0.747317  1
  Zr  Zr9  1  0.167504  0.831208  0.252683  1
  Zr  Zr10  1  0.332411  0.332411  0.000000  1
  Si  Si11  1  0.030666  0.712856  0.442498  1
  Si  Si12  1  0.956642  0.290223  0.938038  1
  Si  Si13  1  0.712856  0.030666  0.557502  1
  Si  Si14  1  0.207859  0.458985  0.189268  1
  Si  Si15  1  0.788451  0.546252  0.683246  1
  Si  Si16  1  0.458985  0.207859  0.810732  1
  Si  Si17  1  0.546252  0.788451  0.316754  1
  Si  Si18  1  0.290223  0.956642  0.061962  1
  Si  Si19  1  0.873072  0.792371  0.817253  1
  Si  Si20  1  0.124847  0.208956  0.317594  1
  Si  Si21  1  0.792371  0.873072  0.182747  1
  Si  Si22  1  0.304373  0.623490  0.565240  1
  Si  Si23  1  0.705880  0.374038  0.067938  1
  Si  Si24  1  0.623490  0.304373  0.434760  1
  Si  Si25  1  0.374038  0.705880  0.932062  1
  Si  Si26  1  0.208956  0.124847  0.682406  1
  Mo  Mo27  1  0.332230  0.505111  0.377370  1
  Mo  Mo28  1  0.841781  0.998843  0.373244  1
  Mo  Mo29  1  0.005475  0.161159  0.126712  1
  Mo  Mo30  1  0.998843  0.841781  0.626756  1
  Mo  Mo31  1  0.661576  0.494533  0.874946  1
  Mo  Mo32  1  0.505111  0.332230  0.622630  1
  Mo  Mo33  1  0.494533  0.661576  0.125054  1
  Mo  Mo34  1  0.161159  0.005475  0.873288  1
  Mo  Mo35  1  0.667050  0.667050  0.500000  1
