# generated using pymatgen
data_Nd6Sm2Er12Si15Ni
_symmetry_space_group_name_H-M   'P 1'
_cell_length_a   7.47537412
_cell_length_b   7.71644834
_cell_length_c   14.67514627
_cell_angle_alpha   89.62847053
_cell_angle_beta   90.12625919
_cell_angle_gamma   90.34668223
_symmetry_Int_Tables_number   1
_chemical_formula_structural   Nd6Sm2Er12Si15Ni
_chemical_formula_sum   'Nd6 Sm2 Er12 Si15 Ni1'
_cell_volume   846.47615033
_cell_formula_units_Z   1
loop_
 _symmetry_equiv_pos_site_id
 _symmetry_equiv_pos_as_xyz
  1  'x, y, z'
loop_
 _atom_site_type_symbol
 _atom_site_label
 _atom_site_symmetry_multiplicity
 _atom_site_fract_x
 _atom_site_fract_y
 _atom_site_fract_z
 _atom_site_occupancy
  Nd  Nd0  1  0.024329  0.177951  0.099904  1
  Nd  Nd1  1  0.976459  0.821781  0.901065  1
  Nd  Nd2  1  0.475070  0.678654  0.901020  1
  Nd  Nd3  1  0.976931  0.822426  0.597227  1
  Nd  Nd4  1  0.522320  0.321546  0.097581  1
  Nd  Nd5  1  0.023691  0.181003  0.402771  1
  Sm  Sm6  1  0.527781  0.317834  0.398114  1
  Sm  Sm7  1  0.472353  0.676913  0.598845  1
  Er  Er8  1  0.153908  0.510876  0.743025  1
  Er  Er9  1  0.849775  0.490623  0.252012  1
  Er  Er10  1  0.347773  0.002568  0.250762  1
  Er  Er11  1  0.652582  0.993024  0.747496  1
  Er  Er12  1  0.318098  0.191342  0.617277  1
  Er  Er13  1  0.676949  0.819526  0.377036  1
  Er  Er14  1  0.182507  0.661538  0.383678  1
  Er  Er15  1  0.681703  0.822456  0.124652  1
  Er  Er16  1  0.824842  0.328534  0.620974  1
  Er  Er17  1  0.320684  0.179856  0.876290  1
  Er  Er18  1  0.822955  0.320249  0.877068  1
  Er  Er19  1  0.178984  0.677533  0.123732  1
  Si  Si20  1  0.027490  0.115773  0.750082  1
  Si  Si21  1  0.977543  0.881018  0.253375  1
  Si  Si22  1  0.474338  0.609751  0.249794  1
  Si  Si23  1  0.530031  0.388054  0.750987  1
  Si  Si24  1  0.271646  0.884068  0.748339  1
  Si  Si25  1  0.727936  0.121452  0.249932  1
  Si  Si26  1  0.231331  0.373062  0.249837  1
  Si  Si27  1  0.769019  0.622694  0.751650  1
  Si  Si28  1  0.850956  0.530233  0.459390  1
  Si  Si29  1  0.354869  0.968105  0.459420  1
  Si  Si30  1  0.853024  0.531981  0.039522  1
  Si  Si31  1  0.644186  0.032140  0.538661  1
  Si  Si32  1  0.145977  0.467960  0.961334  1
  Si  Si33  1  0.646390  0.030615  0.960565  1
  Si  Si34  1  0.354006  0.967023  0.039240  1
  Ni  Ni35  1  0.131560  0.479837  0.547339  1
