# generated using pymatgen
data_Zr4AlSiRh10
_symmetry_space_group_name_H-M   'P 1'
_cell_length_a   5.58613768
_cell_length_b   5.58613810
_cell_length_c   8.09004200
_cell_angle_alpha   90.00000000
_cell_angle_beta   90.00000000
_cell_angle_gamma   97.88110083
_symmetry_Int_Tables_number   1
_chemical_formula_structural   Zr4AlSiRh10
_chemical_formula_sum   'Zr4 Al1 Si1 Rh10'
_cell_volume   250.06479969
_cell_formula_units_Z   1
loop_
 _symmetry_equiv_pos_site_id
 _symmetry_equiv_pos_as_xyz
  1  'x, y, z'
loop_
 _atom_site_type_symbol
 _atom_site_label
 _atom_site_symmetry_multiplicity
 _atom_site_fract_x
 _atom_site_fract_y
 _atom_site_fract_z
 _atom_site_occupancy
  Zr  Zr0  1  0.780847  0.219336  0.500366  1
  Zr  Zr1  1  0.219336  0.780847  0.999634  1
  Zr  Zr2  1  0.219336  0.780847  0.500366  1
  Zr  Zr3  1  0.780847  0.219336  0.999634  1
  Al  Al4  1  0.505171  0.505171  0.750000  1
  Si  Si5  1  0.493666  0.493666  0.250000  1
  Rh  Rh6  1  0.709666  0.709666  0.009340  1
  Rh  Rh7  1  0.709666  0.709666  0.490660  1
  Rh  Rh8  1  0.289231  0.289231  0.003573  1
  Rh  Rh9  1  0.289231  0.289231  0.496427  1
  Rh  Rh10  1  0.500253  0.000303  0.750000  1
  Rh  Rh11  1  0.499685  0.003403  0.250000  1
  Rh  Rh12  1  0.000027  0.000027  0.250000  1
  Rh  Rh13  1  0.999335  0.999335  0.750000  1
  Rh  Rh14  1  0.000303  0.500253  0.750000  1
  Rh  Rh15  1  0.003403  0.499685  0.250000  1
