# generated using pymatgen
data_SmGd(ThH5)6
_symmetry_space_group_name_H-M   'P 1'
_cell_length_a   7.86020929
_cell_length_b   7.86068336
_cell_length_c   7.84496113
_cell_angle_alpha   109.46399248
_cell_angle_beta   109.46708699
_cell_angle_gamma   109.58372286
_symmetry_Int_Tables_number   1
_chemical_formula_structural   SmGd(ThH5)6
_chemical_formula_sum   'Sm1 Gd1 Th6 H30'
_cell_volume   372.66583442
_cell_formula_units_Z   1
loop_
 _symmetry_equiv_pos_site_id
 _symmetry_equiv_pos_as_xyz
  1  'x, y, z'
loop_
 _atom_site_type_symbol
 _atom_site_label
 _atom_site_symmetry_multiplicity
 _atom_site_fract_x
 _atom_site_fract_y
 _atom_site_fract_z
 _atom_site_occupancy
  Sm  Sm0  1  0.498926  0.999320  0.082702  1
  Gd  Gd1  1  0.915779  0.916181  0.916867  1
  Th  Th2  1  0.996090  0.081024  0.496948  1
  Th  Th3  1  0.084263  0.502550  0.000092  1
  Th  Th4  1  0.998972  0.584253  0.503281  1
  Th  Th5  1  0.584430  0.502827  0.999775  1
  Th  Th6  1  0.502764  0.999146  0.586031  1
  Th  Th7  1  0.416317  0.413151  0.413893  1
  H  H8  1  0.653674  0.966448  0.374409  1
  H  H9  1  0.218375  0.315657  0.846288  1
  H  H10  1  0.185985  0.403982  0.533762  1
  H  H11  1  0.096876  0.283135  0.128741  1
  H  H12  1  0.281437  0.128127  0.095875  1
  H  H13  1  0.128149  0.096068  0.281346  1
  H  H14  1  0.467964  0.155032  0.870239  1
  H  H15  1  0.719010  0.348985  0.814643  1
  H  H16  1  0.628079  0.382485  0.252848  1
  H  H17  1  0.249531  0.624894  0.374710  1
  H  H18  1  0.752489  0.872100  0.129281  1
  H  H19  1  0.121231  0.742419  0.870292  1
  H  H20  1  0.374852  0.250232  0.625228  1
  H  H21  1  0.875503  0.129001  0.747579  1
  H  H22  1  0.779721  0.593441  0.626799  1
  H  H23  1  0.314669  0.845510  0.221428  1
  H  H24  1  0.371790  0.652344  0.967086  1
  H  H25  1  0.966785  0.370526  0.651935  1
  H  H26  1  0.534838  0.187544  0.408620  1
  H  H27  1  0.404366  0.534354  0.185339  1
  H  H28  1  0.846884  0.220182  0.316304  1
  H  H29  1  0.904758  0.686484  0.032066  1
  H  H30  1  0.814882  0.718634  0.348056  1
  H  H31  1  0.152294  0.870230  0.466339  1
  H  H32  1  0.688024  0.031641  0.903306  1
  H  H33  1  0.346175  0.813802  0.716910  1
  H  H34  1  0.872005  0.469346  0.153750  1
  H  H35  1  0.627511  0.779457  0.592855  1
  H  H36  1  0.594760  0.625531  0.779222  1
  H  H37  1  0.029842  0.903955  0.685156  1
