# generated using pymatgen
data_VNi(PdSe2)2
_symmetry_space_group_name_H-M   'P 1'
_cell_length_a   5.61241676
_cell_length_b   5.81431881
_cell_length_c   5.81855100
_cell_angle_alpha   90.00000000
_cell_angle_beta   90.00000000
_cell_angle_gamma   91.03012804
_symmetry_Int_Tables_number   1
_chemical_formula_structural   VNi(PdSe2)2
_chemical_formula_sum   'V1 Ni1 Pd2 Se4'
_cell_volume   189.84248187
_cell_formula_units_Z   1
loop_
 _symmetry_equiv_pos_site_id
 _symmetry_equiv_pos_as_xyz
  1  'x, y, z'
loop_
 _atom_site_type_symbol
 _atom_site_label
 _atom_site_symmetry_multiplicity
 _atom_site_fract_x
 _atom_site_fract_y
 _atom_site_fract_z
 _atom_site_occupancy
  V  V0  1  0.000000  0.000000  0.002211  1
  Ni  Ni1  1  0.500000  0.000000  0.997325  1
  Pd  Pd2  1  0.000000  0.500000  0.994865  1
  Pd  Pd3  1  0.000000  0.000000  0.500534  1
  Se  Se4  1  0.741895  0.769225  0.771998  1
  Se  Se5  1  0.258105  0.230775  0.771998  1
  Se  Se6  1  0.253997  0.772273  0.230535  1
  Se  Se7  1  0.746003  0.227727  0.230535  1
