# generated using pymatgen
data_Hf5Pa5(CoTe)4
_symmetry_space_group_name_H-M   'P 1'
_cell_length_a   7.47934733
_cell_length_b   7.47934692
_cell_length_c   14.28039995
_cell_angle_alpha   91.04129541
_cell_angle_beta   88.95870390
_cell_angle_gamma   150.28316961
_symmetry_Int_Tables_number   1
_chemical_formula_structural   Hf5Pa5(CoTe)4
_chemical_formula_sum   'Hf5 Pa5 Co4 Te4'
_cell_volume   395.93326075
_cell_formula_units_Z   1
loop_
 _symmetry_equiv_pos_site_id
 _symmetry_equiv_pos_as_xyz
  1  'x, y, z'
loop_
 _atom_site_type_symbol
 _atom_site_label
 _atom_site_symmetry_multiplicity
 _atom_site_fract_x
 _atom_site_fract_y
 _atom_site_fract_z
 _atom_site_occupancy
  Hf  Hf0  1  0.257551  0.742449  0.362645  1
  Hf  Hf1  1  0.259536  0.740464  0.139055  1
  Hf  Hf2  1  0.744152  0.255848  0.868060  1
  Hf  Hf3  1  0.619250  0.380750  0.248475  1
  Hf  Hf4  1  0.383720  0.616280  0.750077  1
  Pa  Pa5  1  0.961337  0.038663  0.124682  1
  Pa  Pa6  1  0.039013  0.960987  0.874975  1
  Pa  Pa7  1  0.040171  0.959829  0.626874  1
  Pa  Pa8  1  0.956924  0.043076  0.369432  1
  Pa  Pa9  1  0.735392  0.264608  0.637351  1
  Co  Co10  1  0.430849  0.569151  0.247092  1
  Co  Co11  1  0.569862  0.430138  0.753452  1
  Co  Co12  1  0.807013  0.192987  0.248517  1
  Co  Co13  1  0.194941  0.805059  0.757350  1
  Te  Te14  1  0.624641  0.375359  0.041047  1
  Te  Te15  1  0.376467  0.623533  0.960735  1
  Te  Te16  1  0.380842  0.619158  0.536535  1
  Te  Te17  1  0.618338  0.381662  0.453647  1
