# generated using pymatgen
data_Pr6Si2Pt9Au
_symmetry_space_group_name_H-M   'P 1'
_cell_length_a   8.45191294
_cell_length_b   8.46687762
_cell_length_c   8.44795520
_cell_angle_alpha   126.91734241
_cell_angle_beta   126.08159682
_cell_angle_gamma   79.15049105
_symmetry_Int_Tables_number   1
_chemical_formula_structural   Pr6Si2Pt9Au
_chemical_formula_sum   'Pr6 Si2 Pt9 Au1'
_cell_volume   377.58836085
_cell_formula_units_Z   1
loop_
 _symmetry_equiv_pos_site_id
 _symmetry_equiv_pos_as_xyz
  1  'x, y, z'
loop_
 _atom_site_type_symbol
 _atom_site_label
 _atom_site_symmetry_multiplicity
 _atom_site_fract_x
 _atom_site_fract_y
 _atom_site_fract_z
 _atom_site_occupancy
  Pr  Pr0  1  0.822582  0.543986  0.268308  1
  Pr  Pr1  1  0.612314  0.250881  0.361270  1
  Pr  Pr2  1  0.172966  0.447616  0.721154  1
  Pr  Pr3  1  0.395299  0.745172  0.634815  1
  Pr  Pr4  1  0.227710  0.950390  0.286698  1
  Pr  Pr5  1  0.771137  0.053668  0.721302  1
  Si  Si6  1  0.209168  0.261196  0.963936  1
  Si  Si7  1  0.791656  0.753637  0.046017  1
  Pt  Pt8  1  0.829203  0.091151  0.134513  1
  Pt  Pt9  1  0.453563  0.190269  0.863483  1
  Pt  Pt10  1  0.543545  0.409133  0.735350  1
  Pt  Pt11  1  0.825349  0.693256  0.737421  1
  Pt  Pt12  1  0.459030  0.594998  0.264187  1
  Pt  Pt13  1  0.546650  0.806810  0.137162  1
  Pt  Pt14  1  0.170494  0.303382  0.257612  1
  Pt  Pt15  1  0.003488  0.001290  0.504962  1
  Pt  Pt16  1  0.997668  0.503463  0.999641  1
  Au  Au17  1  0.168179  0.899699  0.862169  1
