# generated using pymatgen
data_Y6Zr4Sn5Sb
_symmetry_space_group_name_H-M   'P 1'
_cell_length_a   6.09215100
_cell_length_b   8.86683669
_cell_length_c   8.86941500
_cell_angle_alpha   120.01497271
_cell_angle_beta   89.99989085
_cell_angle_gamma   89.99993606
_symmetry_Int_Tables_number   1
_chemical_formula_structural   Y6Zr4Sn5Sb
_chemical_formula_sum   'Y6 Zr4 Sn5 Sb1'
_cell_volume   414.85796487
_cell_formula_units_Z   1
loop_
 _symmetry_equiv_pos_site_id
 _symmetry_equiv_pos_as_xyz
  1  'x, y, z'
loop_
 _atom_site_type_symbol
 _atom_site_label
 _atom_site_symmetry_multiplicity
 _atom_site_fract_x
 _atom_site_fract_y
 _atom_site_fract_z
 _atom_site_occupancy
  Y  Y0  1  0.749995  0.242429  0.001369  1
  Y  Y1  1  0.749998  0.757594  0.758946  1
  Y  Y2  1  0.750000  0.000054  0.243464  1
  Y  Y3  1  0.250005  0.757027  0.998066  1
  Y  Y4  1  0.249998  0.242890  0.240997  1
  Y  Y5  1  0.250007  0.999967  0.756851  1
  Zr  Zr6  1  0.500704  0.332866  0.666579  1
  Zr  Zr7  1  0.500710  0.667157  0.333744  1
  Zr  Zr8  1  0.999288  0.667157  0.333747  1
  Zr  Zr9  1  0.999291  0.332867  0.666575  1
  Sn  Sn10  1  0.749999  0.599677  0.000950  1
  Sn  Sn11  1  0.750002  0.400382  0.401277  1
  Sn  Sn12  1  0.750027  0.000014  0.600898  1
  Sn  Sn13  1  0.249983  0.400942  0.999691  1
  Sn  Sn14  1  0.249999  0.598993  0.598688  1
  Sb  Sb15  1  0.249995  0.999982  0.398158  1
