# generated using pymatgen
data_Nb4SiB2Mo
_symmetry_space_group_name_H-M   'P 1'
_cell_length_a   7.29942646
_cell_length_b   7.29942617
_cell_length_c   7.29942545
_cell_angle_alpha   129.64059556
_cell_angle_beta   129.64058885
_cell_angle_gamma   73.98199325
_symmetry_Int_Tables_number   1
_chemical_formula_structural   Nb4SiB2Mo
_chemical_formula_sum   'Nb8 Si2 B4 Mo2'
_cell_volume   224.92672960
_cell_formula_units_Z   2
loop_
 _symmetry_equiv_pos_site_id
 _symmetry_equiv_pos_as_xyz
  1  'x, y, z'
loop_
 _atom_site_type_symbol
 _atom_site_label
 _atom_site_symmetry_multiplicity
 _atom_site_fract_x
 _atom_site_fract_y
 _atom_site_fract_z
 _atom_site_occupancy
  Nb  Nb0  1  0.806684  0.969613  0.500000  1
  Nb  Nb1  1  0.306684  0.806684  0.837072  1
  Nb  Nb2  1  0.193316  0.030387  0.500000  1
  Nb  Nb3  1  0.530387  0.693316  0.500000  1
  Nb  Nb4  1  0.030387  0.530387  0.837072  1
  Nb  Nb5  1  0.693316  0.193316  0.162928  1
  Nb  Nb6  1  0.969613  0.469613  0.162928  1
  Nb  Nb7  1  0.469613  0.306684  0.500000  1
  Si  Si8  1  0.750000  0.750000  0.000000  1
  Si  Si9  1  0.250000  0.250000  0.000000  1
  B  B10  1  0.382351  0.882351  0.264703  1
  B  B11  1  0.882351  0.617649  0.500000  1
  B  B12  1  0.617649  0.117649  0.735297  1
  B  B13  1  0.117649  0.382351  0.500000  1
  Mo  Mo14  1  0.000000  0.000000  0.000000  1
  Mo  Mo15  1  0.500000  0.500000  0.000000  1
