# generated using pymatgen
data_Dy7TmHg4
_symmetry_space_group_name_H-M   'P 1'
_cell_length_a   5.09124100
_cell_length_b   7.04938980
_cell_length_c   9.28343067
_cell_angle_alpha   89.94460404
_cell_angle_beta   90.00000000
_cell_angle_gamma   90.00000000
_symmetry_Int_Tables_number   1
_chemical_formula_structural   Dy7TmHg4
_chemical_formula_sum   'Dy7 Tm1 Hg4'
_cell_volume   333.18349270
_cell_formula_units_Z   1
loop_
 _symmetry_equiv_pos_site_id
 _symmetry_equiv_pos_as_xyz
  1  'x, y, z'
loop_
 _atom_site_type_symbol
 _atom_site_label
 _atom_site_symmetry_multiplicity
 _atom_site_fract_x
 _atom_site_fract_y
 _atom_site_fract_z
 _atom_site_occupancy
  Dy  Dy0  1  0.250000  0.020062  0.807560  1
  Dy  Dy1  1  0.250000  0.517749  0.692910  1
  Dy  Dy2  1  0.750000  0.982297  0.193154  1
  Dy  Dy3  1  0.750000  0.482204  0.306811  1
  Dy  Dy4  1  0.250000  0.168015  0.425172  1
  Dy  Dy5  1  0.250000  0.664083  0.072809  1
  Dy  Dy6  1  0.750000  0.833307  0.575567  1
  Tm  Tm7  1  0.750000  0.333764  0.925590  1
  Hg  Hg8  1  0.250000  0.734639  0.395723  1
  Hg  Hg9  1  0.250000  0.233408  0.101561  1
  Hg  Hg10  1  0.750000  0.267063  0.605229  1
  Hg  Hg11  1  0.750000  0.763407  0.897913  1
