# generated using pymatgen
data_Sm2Mn3Fe6Co3P7
_symmetry_space_group_name_H-M   'P 1'
_cell_length_a   9.09079000
_cell_length_b   9.09079043
_cell_length_c   3.64389000
_cell_angle_alpha   90.00000000
_cell_angle_beta   90.00000000
_cell_angle_gamma   120.00000571
_symmetry_Int_Tables_number   1
_chemical_formula_structural   Sm2Mn3Fe6Co3P7
_chemical_formula_sum   'Sm2 Mn3 Fe6 Co3 P7'
_cell_volume   260.79492541
_cell_formula_units_Z   1
loop_
 _symmetry_equiv_pos_site_id
 _symmetry_equiv_pos_as_xyz
  1  'x, y, z'
loop_
 _atom_site_type_symbol
 _atom_site_label
 _atom_site_symmetry_multiplicity
 _atom_site_fract_x
 _atom_site_fract_y
 _atom_site_fract_z
 _atom_site_occupancy
  Sm  Sm0  1  0.666667  0.333333  0.000000  1
  Sm  Sm1  1  0.333333  0.666667  0.500000  1
  Mn  Mn2  1  0.219065  0.102881  0.000000  1
  Mn  Mn3  1  0.897119  0.116185  0.000000  1
  Mn  Mn4  1  0.883815  0.780935  0.000000  1
  Fe  Fe5  1  0.425910  0.055391  0.500000  1
  Fe  Fe6  1  0.944609  0.370520  0.500000  1
  Fe  Fe7  1  0.629480  0.574090  0.500000  1
  Fe  Fe8  1  0.154714  0.273408  0.500000  1
  Fe  Fe9  1  0.726592  0.881306  0.500000  1
  Fe  Fe10  1  0.118694  0.845286  0.500000  1
  Co  Co11  1  0.383739  0.435442  0.000000  1
  Co  Co12  1  0.564558  0.948297  0.000000  1
  Co  Co13  1  0.051703  0.616261  0.000000  1
  P  P14  1  0.111935  0.401718  0.000000  1
  P  P15  1  0.598282  0.710217  0.000000  1
  P  P16  1  0.289783  0.888065  0.000000  1
  P  P17  1  0.000000  0.000000  0.500000  1
  P  P18  1  0.410629  0.300793  0.500000  1
  P  P19  1  0.699207  0.109834  0.500000  1
  P  P20  1  0.890166  0.589371  0.500000  1
