# generated using pymatgen
data_Hf2MnRh5
_symmetry_space_group_name_H-M   'P 1'
_cell_length_a   4.10377100
_cell_length_b   5.53705800
_cell_length_c   10.94683100
_cell_angle_alpha   90.00000000
_cell_angle_beta   90.00000000
_cell_angle_gamma   90.00000000
_symmetry_Int_Tables_number   1
_chemical_formula_structural   Hf2MnRh5
_chemical_formula_sum   'Hf4 Mn2 Rh10'
_cell_volume   248.74284899
_cell_formula_units_Z   2
loop_
 _symmetry_equiv_pos_site_id
 _symmetry_equiv_pos_as_xyz
  1  'x, y, z'
loop_
 _atom_site_type_symbol
 _atom_site_label
 _atom_site_symmetry_multiplicity
 _atom_site_fract_x
 _atom_site_fract_y
 _atom_site_fract_z
 _atom_site_occupancy
  Hf  Hf0  1  0.500000  0.310860  0.138209  1
  Hf  Hf1  1  0.500000  0.689140  0.861791  1
  Hf  Hf2  1  0.500000  0.810860  0.361791  1
  Hf  Hf3  1  0.500000  0.189140  0.638209  1
  Mn  Mn4  1  0.000000  0.000000  0.000000  1
  Mn  Mn5  1  0.000000  0.500000  0.500000  1
  Rh  Rh6  1  0.000000  0.000000  0.500000  1
  Rh  Rh7  1  0.000000  0.500000  0.000000  1
  Rh  Rh8  1  0.000000  0.059720  0.244664  1
  Rh  Rh9  1  0.000000  0.940280  0.755336  1
  Rh  Rh10  1  0.000000  0.559720  0.255336  1
  Rh  Rh11  1  0.000000  0.440280  0.744664  1
  Rh  Rh12  1  0.500000  0.303763  0.389737  1
  Rh  Rh13  1  0.500000  0.696237  0.610263  1
  Rh  Rh14  1  0.500000  0.803763  0.110263  1
  Rh  Rh15  1  0.500000  0.196237  0.889737  1
