# generated using pymatgen
data_Sc2VFe2Hg4As3O20
_symmetry_space_group_name_H-M   'P 1'
_cell_length_a   6.26954900
_cell_length_b   8.33653176
_cell_length_c   8.62296100
_cell_angle_alpha   90.26140310
_cell_angle_beta   90.00000000
_cell_angle_gamma   90.00000000
_symmetry_Int_Tables_number   1
_chemical_formula_structural   Sc2VFe2Hg4As3O20
_chemical_formula_sum   'Sc2 V1 Fe2 Hg4 As3 O20'
_cell_volume   450.68552745
_cell_formula_units_Z   1
loop_
 _symmetry_equiv_pos_site_id
 _symmetry_equiv_pos_as_xyz
  1  'x, y, z'
loop_
 _atom_site_type_symbol
 _atom_site_label
 _atom_site_symmetry_multiplicity
 _atom_site_fract_x
 _atom_site_fract_y
 _atom_site_fract_z
 _atom_site_occupancy
  Sc  Sc0  1  0.000373  0.999178  0.500589  1
  Sc  Sc1  1  0.498062  0.501462  0.998846  1
  V  V2  1  0.250268  0.187579  0.209792  1
  Fe  Fe3  1  0.501511  0.999549  0.501169  1
  Fe  Fe4  1  0.002023  0.501290  0.999410  1
  Hg  Hg5  1  0.244836  0.575707  0.654830  1
  Hg  Hg6  1  0.255272  0.069034  0.842339  1
  Hg  Hg7  1  0.755850  0.424578  0.342850  1
  Hg  Hg8  1  0.744712  0.921661  0.156627  1
  As  As9  1  0.750245  0.314289  0.711789  1
  As  As10  1  0.749955  0.814536  0.789119  1
  As  As11  1  0.249822  0.685041  0.288596  1
  O  O12  1  0.523012  0.329136  0.819268  1
  O  O13  1  0.976163  0.828966  0.680615  1
  O  O14  1  0.023803  0.669981  0.177611  1
  O  O15  1  0.471494  0.165643  0.327044  1
  O  O16  1  0.476721  0.672263  0.180546  1
  O  O17  1  0.025447  0.170214  0.322542  1
  O  O18  1  0.976311  0.332438  0.822238  1
  O  O19  1  0.524718  0.831789  0.677759  1
  O  O20  1  0.750271  0.133635  0.609997  1
  O  O21  1  0.750528  0.635957  0.892232  1
  O  O22  1  0.250743  0.863550  0.393614  1
  O  O23  1  0.247338  0.372001  0.106628  1
  O  O24  1  0.262310  0.099729  0.607302  1
  O  O25  1  0.238029  0.603851  0.890519  1
  O  O26  1  0.738612  0.898801  0.392555  1
  O  O27  1  0.761486  0.401393  0.106791  1
  O  O28  1  0.749749  0.470206  0.578187  1
  O  O29  1  0.750113  0.971728  0.922627  1
  O  O30  1  0.250119  0.527045  0.419814  1
  O  O31  1  0.250104  0.027771  0.076158  1
