# generated using pymatgen
data_Sc(Ta2B5)2
_symmetry_space_group_name_H-M   'P 1'
_cell_length_a   6.21539438
_cell_length_b   7.06347450
_cell_length_c   7.35793680
_cell_angle_alpha   93.36091434
_cell_angle_beta   102.12412419
_cell_angle_gamma   116.18707843
_symmetry_Int_Tables_number   1
_chemical_formula_structural   Sc(Ta2B5)2
_chemical_formula_sum   'Sc2 Ta8 B20'
_cell_volume   279.16126360
_cell_formula_units_Z   2
loop_
 _symmetry_equiv_pos_site_id
 _symmetry_equiv_pos_as_xyz
  1  'x, y, z'
loop_
 _atom_site_type_symbol
 _atom_site_label
 _atom_site_symmetry_multiplicity
 _atom_site_fract_x
 _atom_site_fract_y
 _atom_site_fract_z
 _atom_site_occupancy
  Sc  Sc0  1  0.499544  0.999502  0.000011  1
  Sc  Sc1  1  0.000518  0.600610  0.799997  1
  Ta  Ta2  1  0.999175  0.998301  0.000498  1
  Ta  Ta3  1  0.500328  0.798091  0.399129  1
  Ta  Ta4  1  0.999467  0.397724  0.200963  1
  Ta  Ta5  1  0.500476  0.202257  0.599024  1
  Ta  Ta6  1  0.999621  0.801790  0.400911  1
  Ta  Ta7  1  0.500858  0.601812  0.799409  1
  Ta  Ta8  1  0.498905  0.397556  0.201512  1
  Ta  Ta9  1  0.001100  0.202376  0.598527  1
  B  B10  1  0.333592  0.233254  0.867161  1
  B  B11  1  0.332982  0.632541  0.066630  1
  B  B12  1  0.166485  0.366880  0.932811  1
  B  B13  1  0.333212  0.032744  0.265760  1
  B  B14  1  0.166612  0.765469  0.134469  1
  B  B15  1  0.833782  0.233922  0.865571  1
  B  B16  1  0.166280  0.165960  0.333553  1
  B  B17  1  0.833316  0.632425  0.066954  1
  B  B18  1  0.333633  0.433915  0.466383  1
  B  B19  1  0.666278  0.366230  0.934356  1
  B  B20  1  0.832201  0.032111  0.266399  1
  B  B21  1  0.665868  0.765325  0.133463  1
  B  B22  1  0.333388  0.834546  0.665550  1
  B  B23  1  0.166782  0.567158  0.534323  1
  B  B24  1  0.666017  0.165802  0.333556  1
  B  B25  1  0.833991  0.434102  0.466538  1
  B  B26  1  0.167017  0.967500  0.733352  1
  B  B27  1  0.834114  0.834676  0.666501  1
  B  B28  1  0.667771  0.567781  0.533648  1
  B  B29  1  0.666685  0.967637  0.733039  1
