# generated using pymatgen
data_Dy9Y3Co4NiSn
_symmetry_space_group_name_H-M   'P 1'
_cell_length_a   8.30057909
_cell_length_b   8.29002394
_cell_length_c   8.29002352
_cell_angle_alpha   107.13352789
_cell_angle_beta   110.53463376
_cell_angle_gamma   110.71562469
_symmetry_Int_Tables_number   1
_chemical_formula_structural   Dy9Y3Co4NiSn
_chemical_formula_sum   'Dy9 Y3 Co4 Ni1 Sn1'
_cell_volume   438.89197257
_cell_formula_units_Z   1
loop_
 _symmetry_equiv_pos_site_id
 _symmetry_equiv_pos_as_xyz
  1  'x, y, z'
loop_
 _atom_site_type_symbol
 _atom_site_label
 _atom_site_symmetry_multiplicity
 _atom_site_fract_x
 _atom_site_fract_y
 _atom_site_fract_z
 _atom_site_occupancy
  Dy  Dy0  1  0.521667  0.707010  0.814655  1
  Dy  Dy1  1  0.306140  0.620788  0.315073  1
  Dy  Dy2  1  0.306140  0.991069  0.685352  1
  Dy  Dy3  1  0.693930  0.379363  0.685260  1
  Dy  Dy4  1  0.693930  0.008669  0.314567  1
  Dy  Dy5  1  0.196328  0.210284  0.406416  1
  Dy  Dy6  1  0.803729  0.789897  0.593992  1
  Dy  Dy7  1  0.196328  0.789912  0.986043  1
  Dy  Dy8  1  0.803729  0.209737  0.013833  1
  Y  Y9  1  0.478737  0.292590  0.186148  1
  Y  Y10  1  0.106211  0.292483  0.813728  1
  Y  Y11  1  0.893872  0.707684  0.186189  1
  Co  Co12  1  0.499803  0.612909  0.111927  1
  Co  Co13  1  0.499803  0.387876  0.886893  1
  Co  Co14  1  0.377085  0.999961  0.377124  1
  Co  Co15  1  0.623007  0.000075  0.622932  1
  Ni  Ni16  1  0.999724  0.999765  0.999959  1
  Sn  Sn17  1  0.999836  0.499927  0.499910  1
