# generated using pymatgen
data_Eu5Dy(Ni7B2)2
_symmetry_space_group_name_H-M   'P 1'
_cell_length_a   5.13076600
_cell_length_b   5.13076676
_cell_length_c   14.52288400
_cell_angle_alpha   90.00000000
_cell_angle_beta   90.00000000
_cell_angle_gamma   120.00000798
_symmetry_Int_Tables_number   1
_chemical_formula_structural   Eu5Dy(Ni7B2)2
_chemical_formula_sum   'Eu5 Dy1 Ni14 B4'
_cell_volume   331.09143497
_cell_formula_units_Z   1
loop_
 _symmetry_equiv_pos_site_id
 _symmetry_equiv_pos_as_xyz
  1  'x, y, z'
loop_
 _atom_site_type_symbol
 _atom_site_label
 _atom_site_symmetry_multiplicity
 _atom_site_fract_x
 _atom_site_fract_y
 _atom_site_fract_z
 _atom_site_occupancy
  Eu  Eu0  1  0.666667  0.333333  0.532425  1
  Eu  Eu1  1  0.333333  0.666667  0.469304  1
  Eu  Eu2  1  0.333333  0.666667  0.030696  1
  Eu  Eu3  1  0.666667  0.333333  0.750000  1
  Eu  Eu4  1  0.666667  0.333333  0.967575  1
  Dy  Dy5  1  0.333333  0.666667  0.250000  1
  Ni  Ni6  1  0.164681  0.329362  0.653472  1
  Ni  Ni7  1  0.329373  0.164686  0.346822  1
  Ni  Ni8  1  0.329373  0.164686  0.153178  1
  Ni  Ni9  1  0.164681  0.835319  0.846528  1
  Ni  Ni10  1  0.835314  0.670627  0.346822  1
  Ni  Ni11  1  0.835314  0.164686  0.153178  1
  Ni  Ni12  1  0.670638  0.835319  0.653472  1
  Ni  Ni13  1  0.670638  0.835319  0.846528  1
  Ni  Ni14  1  0.164681  0.835319  0.653472  1
  Ni  Ni15  1  0.835314  0.670627  0.153178  1
  Ni  Ni16  1  0.000000  0.000000  0.000067  1
  Ni  Ni17  1  0.164681  0.329362  0.846528  1
  Ni  Ni18  1  0.835314  0.164686  0.346822  1
  Ni  Ni19  1  0.000000  0.000000  0.499933  1
  B  B20  1  0.666667  0.333333  0.250000  1
  B  B21  1  0.000000  0.000000  0.750000  1
  B  B22  1  0.333333  0.666667  0.750000  1
  B  B23  1  0.000000  0.000000  0.250000  1
