# generated using pymatgen
data_TbBeB14
_symmetry_space_group_name_H-M   'P 1'
_cell_length_a   7.21543838
_cell_length_b   7.21543902
_cell_length_c   7.21543835
_cell_angle_alpha   132.80082347
_cell_angle_beta   110.29772189
_cell_angle_gamma   88.49006366
_symmetry_Int_Tables_number   1
_chemical_formula_structural   TbBeB14
_chemical_formula_sum   'Tb2 Be2 B28'
_cell_volume   246.25668809
_cell_formula_units_Z   2
loop_
 _symmetry_equiv_pos_site_id
 _symmetry_equiv_pos_as_xyz
  1  'x, y, z'
loop_
 _atom_site_type_symbol
 _atom_site_label
 _atom_site_symmetry_multiplicity
 _atom_site_fract_x
 _atom_site_fract_y
 _atom_site_fract_z
 _atom_site_occupancy
  Tb  Tb0  1  0.608068  0.250000  0.358068  1
  Tb  Tb1  1  0.391932  0.750000  0.641932  1
  Be  Be2  1  0.000000  0.000000  0.500000  1
  Be  Be3  1  0.000000  0.500000  0.000000  1
  B  B4  1  0.631782  0.666318  0.965464  1
  B  B5  1  0.368218  0.333682  0.034536  1
  B  B6  1  0.200853  0.166318  0.034536  1
  B  B7  1  0.799147  0.833682  0.965464  1
  B  B8  1  0.791217  0.155604  0.635613  1
  B  B9  1  0.208783  0.844396  0.364387  1
  B  B10  1  0.019989  0.655604  0.364387  1
  B  B11  1  0.980011  0.344396  0.635613  1
  B  B12  1  0.924882  0.092184  0.832698  1
  B  B13  1  0.075118  0.907816  0.167302  1
  B  B14  1  0.759486  0.592184  0.167302  1
  B  B15  1  0.240514  0.407816  0.832698  1
  B  B16  1  0.398180  0.395752  0.676535  1
  B  B17  1  0.601820  0.278355  0.997571  1
  B  B18  1  0.219217  0.895752  0.997571  1
  B  B19  1  0.780783  0.778355  0.676535  1
  B  B20  1  0.601820  0.604248  0.323465  1
  B  B21  1  0.398180  0.721645  0.002429  1
  B  B22  1  0.780783  0.104248  0.002429  1
  B  B23  1  0.219217  0.221645  0.323465  1
  B  B24  1  0.032647  0.827738  0.698430  1
  B  B25  1  0.967353  0.665783  0.795091  1
  B  B26  1  0.629309  0.327738  0.795091  1
  B  B27  1  0.370691  0.165783  0.698430  1
  B  B28  1  0.967353  0.172262  0.301570  1
  B  B29  1  0.032647  0.334217  0.204909  1
  B  B30  1  0.370691  0.672262  0.204909  1
  B  B31  1  0.629309  0.834217  0.301570  1
