# generated using pymatgen
data_As(S8Cl)3
_symmetry_space_group_name_H-M   'P 1'
_cell_length_a   14.89409242
_cell_length_b   14.89409279
_cell_length_c   14.89409210
_cell_angle_alpha   118.77514679
_cell_angle_beta   118.77514588
_cell_angle_gamma   118.77514921
_symmetry_Int_Tables_number   1
_chemical_formula_structural   As(S8Cl)3
_chemical_formula_sum   'As1 S24 Cl3'
_cell_volume   944.68517058
_cell_formula_units_Z   1
loop_
 _symmetry_equiv_pos_site_id
 _symmetry_equiv_pos_as_xyz
  1  'x, y, z'
loop_
 _atom_site_type_symbol
 _atom_site_label
 _atom_site_symmetry_multiplicity
 _atom_site_fract_x
 _atom_site_fract_y
 _atom_site_fract_z
 _atom_site_occupancy
  As  As0  1  0.773783  0.773783  0.773783  1
  S  S1  1  0.805975  0.525875  0.525875  1
  S  S2  1  0.525875  0.525875  0.805975  1
  S  S3  1  0.525875  0.805975  0.525875  1
  S  S4  1  0.241863  0.373123  0.630291  1
  S  S5  1  0.358596  0.959946  0.358596  1
  S  S6  1  0.358596  0.358596  0.959946  1
  S  S7  1  0.959946  0.358596  0.358596  1
  S  S8  1  0.124001  0.738973  0.254724  1
  S  S9  1  0.254724  0.124001  0.738973  1
  S  S10  1  0.738973  0.254724  0.124001  1
  S  S11  1  0.738973  0.124001  0.254724  1
  S  S12  1  0.254724  0.738973  0.124001  1
  S  S13  1  0.124001  0.254724  0.738973  1
  S  S14  1  0.349549  0.882701  0.534874  1
  S  S15  1  0.534874  0.349549  0.882701  1
  S  S16  1  0.882701  0.534874  0.349549  1
  S  S17  1  0.882701  0.349549  0.534874  1
  S  S18  1  0.534874  0.882701  0.349549  1
  S  S19  1  0.349549  0.534874  0.882701  1
  S  S20  1  0.241863  0.630291  0.373123  1
  S  S21  1  0.373123  0.241863  0.630291  1
  S  S22  1  0.630291  0.373123  0.241863  1
  S  S23  1  0.630291  0.241863  0.373123  1
  S  S24  1  0.373123  0.630291  0.241863  1
  Cl  Cl25  1  0.898011  0.029221  0.029221  1
  Cl  Cl26  1  0.029221  0.029221  0.898011  1
  Cl  Cl27  1  0.029221  0.898011  0.029221  1
