# generated using pymatgen
data_Tm7U(Si3Pt)4
_symmetry_space_group_name_H-M   'P 1'
_cell_length_a   8.10535400
_cell_length_b   8.10535446
_cell_length_c   8.00361700
_cell_angle_alpha   90.00000000
_cell_angle_beta   90.00000000
_cell_angle_gamma   119.99999813
_symmetry_Int_Tables_number   1
_chemical_formula_structural   Tm7U(Si3Pt)4
_chemical_formula_sum   'Tm7 U1 Si12 Pt4'
_cell_volume   455.36635265
_cell_formula_units_Z   1
loop_
 _symmetry_equiv_pos_site_id
 _symmetry_equiv_pos_as_xyz
  1  'x, y, z'
loop_
 _atom_site_type_symbol
 _atom_site_label
 _atom_site_symmetry_multiplicity
 _atom_site_fract_x
 _atom_site_fract_y
 _atom_site_fract_z
 _atom_site_occupancy
  Tm  Tm0  1  0.000000  0.000000  0.750000  1
  Tm  Tm1  1  0.498228  0.501772  0.250000  1
  Tm  Tm2  1  0.498228  0.996457  0.250000  1
  Tm  Tm3  1  0.003543  0.501772  0.250000  1
  Tm  Tm4  1  0.501724  0.498276  0.750000  1
  Tm  Tm5  1  0.996552  0.498276  0.750000  1
  Tm  Tm6  1  0.501724  0.003448  0.750000  1
  U  U7  1  0.000000  0.000000  0.250000  1
  Si  Si8  1  0.835068  0.164932  0.497043  1
  Si  Si9  1  0.835068  0.670138  0.497043  1
  Si  Si10  1  0.329862  0.164932  0.497043  1
  Si  Si11  1  0.835068  0.164932  0.002957  1
  Si  Si12  1  0.835068  0.670138  0.002957  1
  Si  Si13  1  0.329862  0.164932  0.002957  1
  Si  Si14  1  0.164981  0.835019  0.000628  1
  Si  Si15  1  0.670039  0.835019  0.000628  1
  Si  Si16  1  0.164981  0.329961  0.000628  1
  Si  Si17  1  0.164981  0.835019  0.499372  1
  Si  Si18  1  0.670039  0.835019  0.499372  1
  Si  Si19  1  0.164981  0.329961  0.499372  1
  Pt  Pt20  1  0.666667  0.333333  0.497394  1
  Pt  Pt21  1  0.666667  0.333333  0.002606  1
  Pt  Pt22  1  0.333333  0.666667  0.994771  1
  Pt  Pt23  1  0.333333  0.666667  0.505229  1
