# generated using pymatgen
data_Tb7BI12
_symmetry_space_group_name_H-M   'P 1'
_cell_length_a   9.64483589
_cell_length_b   9.64483589
_cell_length_c   9.64483674
_cell_angle_alpha   107.75245873
_cell_angle_beta   107.75245437
_cell_angle_gamma   107.75244805
_symmetry_Int_Tables_number   1
_chemical_formula_structural   Tb7BI12
_chemical_formula_sum   'Tb7 B1 I12'
_cell_volume   731.30991482
_cell_formula_units_Z   1
loop_
 _symmetry_equiv_pos_site_id
 _symmetry_equiv_pos_as_xyz
  1  'x, y, z'
loop_
 _atom_site_type_symbol
 _atom_site_label
 _atom_site_symmetry_multiplicity
 _atom_site_fract_x
 _atom_site_fract_y
 _atom_site_fract_z
 _atom_site_occupancy
  Tb  Tb0  1  0.901053  0.967957  0.706935  1
  Tb  Tb1  1  0.706935  0.901053  0.967957  1
  Tb  Tb2  1  0.967957  0.706935  0.901053  1
  Tb  Tb3  1  0.098947  0.032043  0.293065  1
  Tb  Tb4  1  0.293065  0.098947  0.032043  1
  Tb  Tb5  1  0.032043  0.293065  0.098947  1
  Tb  Tb6  1  0.500000  0.500000  0.500000  1
  B  B7  1  0.000000  0.000000  0.000000  1
  I  I8  1  0.924104  0.314461  0.772349  1
  I  I9  1  0.772349  0.924104  0.314461  1
  I  I10  1  0.314461  0.772349  0.924104  1
  I  I11  1  0.075896  0.685539  0.227651  1
  I  I12  1  0.227651  0.075896  0.685539  1
  I  I13  1  0.685539  0.227651  0.075896  1
  I  I14  1  0.530928  0.847816  0.611505  1
  I  I15  1  0.611505  0.530928  0.847816  1
  I  I16  1  0.847816  0.611505  0.530928  1
  I  I17  1  0.469072  0.152184  0.388495  1
  I  I18  1  0.388495  0.469072  0.152184  1
  I  I19  1  0.152184  0.388495  0.469072  1
