# generated using pymatgen
data_Pr16CoHg4Os3
_symmetry_space_group_name_H-M   'P 1'
_cell_length_a   10.01200449
_cell_length_b   9.91923815
_cell_length_c   10.01210028
_cell_angle_alpha   59.59608146
_cell_angle_beta   59.88386528
_cell_angle_gamma   59.59709888
_symmetry_Int_Tables_number   1
_chemical_formula_structural   Pr16CoHg4Os3
_chemical_formula_sum   'Pr16 Co1 Hg4 Os3'
_cell_volume   698.16234068
_cell_formula_units_Z   1
loop_
 _symmetry_equiv_pos_site_id
 _symmetry_equiv_pos_as_xyz
  1  'x, y, z'
loop_
 _atom_site_type_symbol
 _atom_site_label
 _atom_site_symmetry_multiplicity
 _atom_site_fract_x
 _atom_site_fract_y
 _atom_site_fract_z
 _atom_site_occupancy
  Pr  Pr0  1  0.291652  0.899608  0.905957  1
  Pr  Pr1  1  0.684909  0.692584  0.310306  1
  Pr  Pr2  1  0.905954  0.899612  0.291652  1
  Pr  Pr3  1  0.309650  0.693050  0.309654  1
  Pr  Pr4  1  0.691745  0.307786  0.306050  1
  Pr  Pr5  1  0.057562  0.444002  0.437037  1
  Pr  Pr6  1  0.442876  0.058991  0.056286  1
  Pr  Pr7  1  0.056273  0.059000  0.442881  1
  Pr  Pr8  1  0.306053  0.307792  0.691723  1
  Pr  Pr9  1  0.441489  0.059037  0.441474  1
  Pr  Pr10  1  0.906170  0.900634  0.906182  1
  Pr  Pr11  1  0.437038  0.444002  0.057563  1
  Pr  Pr12  1  0.310293  0.692613  0.684879  1
  Pr  Pr13  1  0.690982  0.307880  0.690957  1
  Pr  Pr14  1  0.058549  0.445303  0.058547  1
  Pr  Pr15  1  0.903354  0.291937  0.903368  1
  Co  Co16  1  0.112618  0.664757  0.112623  1
  Hg  Hg17  1  0.666475  0.667967  0.999535  1
  Hg  Hg18  1  0.999522  0.667974  0.666481  1
  Hg  Hg19  1  0.667419  0.998630  0.667421  1
  Hg  Hg20  1  0.666977  0.667142  0.666977  1
  Os  Os21  1  0.112681  0.109462  0.112686  1
  Os  Os22  1  0.113259  0.110120  0.666498  1
  Os  Os23  1  0.666500  0.110115  0.113263  1
