# generated using pymatgen
data_PrSmY6(Pt2Pb)4
_symmetry_space_group_name_H-M   'P 1'
_cell_length_a   7.99876046
_cell_length_b   7.99876082
_cell_length_c   7.30983500
_cell_angle_alpha   90.00000000
_cell_angle_beta   90.00000000
_cell_angle_gamma   90.48526644
_symmetry_Int_Tables_number   1
_chemical_formula_structural   PrSmY6(Pt2Pb)4
_chemical_formula_sum   'Pr1 Sm1 Y6 Pt8 Pb4'
_cell_volume   467.66772480
_cell_formula_units_Z   1
loop_
 _symmetry_equiv_pos_site_id
 _symmetry_equiv_pos_as_xyz
  1  'x, y, z'
loop_
 _atom_site_type_symbol
 _atom_site_label
 _atom_site_symmetry_multiplicity
 _atom_site_fract_x
 _atom_site_fract_y
 _atom_site_fract_z
 _atom_site_occupancy
  Pr  Pr0  1  0.163345  0.836655  0.000000  1
  Sm  Sm1  1  0.835655  0.164345  0.000000  1
  Y  Y2  1  0.674051  0.672755  0.000000  1
  Y  Y3  1  0.336206  0.337723  0.500000  1
  Y  Y4  1  0.827089  0.172911  0.500000  1
  Y  Y5  1  0.662277  0.663794  0.500000  1
  Y  Y6  1  0.327245  0.325949  0.000000  1
  Y  Y7  1  0.173689  0.826311  0.500000  1
  Pt  Pt8  1  0.869730  0.871549  0.732783  1
  Pt  Pt9  1  0.128451  0.130270  0.732783  1
  Pt  Pt10  1  0.627008  0.372992  0.757070  1
  Pt  Pt11  1  0.627008  0.372992  0.242930  1
  Pt  Pt12  1  0.375147  0.624853  0.242242  1
  Pt  Pt13  1  0.128451  0.130270  0.267217  1
  Pt  Pt14  1  0.869730  0.871549  0.267217  1
  Pt  Pt15  1  0.375147  0.624853  0.757758  1
  Pb  Pb16  1  0.500120  0.000236  0.748357  1
  Pb  Pb17  1  0.500120  0.000236  0.251643  1
  Pb  Pb18  1  0.999764  0.499880  0.748357  1
  Pb  Pb19  1  0.999764  0.499880  0.251643  1
