# generated using pymatgen
data_Dy2Y3Er(BO3)6
_symmetry_space_group_name_H-M   'P 1'
_cell_length_a   6.58056269
_cell_length_b   6.58833034
_cell_length_c   9.62794555
_cell_angle_alpha   70.38582030
_cell_angle_beta   70.37850430
_cell_angle_gamma   60.02528050
_symmetry_Int_Tables_number   1
_chemical_formula_structural   Dy2Y3Er(BO3)6
_chemical_formula_sum   'Dy2 Y3 Er1 B6 O18'
_cell_volume   333.30082290
_cell_formula_units_Z   1
loop_
 _symmetry_equiv_pos_site_id
 _symmetry_equiv_pos_as_xyz
  1  'x, y, z'
loop_
 _atom_site_type_symbol
 _atom_site_label
 _atom_site_symmetry_multiplicity
 _atom_site_fract_x
 _atom_site_fract_y
 _atom_site_fract_z
 _atom_site_occupancy
  Dy  Dy0  1  0.342910  0.828970  0.500641  1
  Dy  Dy1  1  0.829343  0.342278  0.000634  1
  Y  Y2  1  0.000317  0.499851  0.500037  1
  Y  Y3  1  0.499987  0.000068  0.000044  1
  Y  Y4  1  0.170561  0.657780  0.999307  1
  Er  Er5  1  0.657321  0.170956  0.499359  1
  B  B6  1  0.917566  0.843702  0.745826  1
  B  B7  1  0.158057  0.082205  0.752712  1
  B  B8  1  0.081025  0.156840  0.254071  1
  B  B9  1  0.842357  0.918691  0.247541  1
  B  B10  1  0.676744  0.322934  0.749353  1
  B  B11  1  0.324202  0.675681  0.250497  1
  O  O12  1  0.965072  0.784237  0.602112  1
  O  O13  1  0.217432  0.034016  0.896694  1
  O  O14  1  0.032188  0.217038  0.397778  1
  O  O15  1  0.782255  0.966590  0.103738  1
  O  O16  1  0.870362  0.685807  0.887606  1
  O  O17  1  0.316911  0.129472  0.611484  1
  O  O18  1  0.128916  0.313900  0.112111  1
  O  O19  1  0.684578  0.872137  0.389235  1
  O  O20  1  0.519242  0.384551  0.891372  1
  O  O21  1  0.614619  0.480303  0.607591  1
  O  O22  1  0.481973  0.614563  0.108497  1
  O  O23  1  0.387643  0.516330  0.391778  1
  O  O24  1  0.916992  0.299198  0.751669  1
  O  O25  1  0.700236  0.083835  0.746573  1
  O  O26  1  0.083288  0.700766  0.248558  1
  O  O27  1  0.299096  0.916093  0.252886  1
  O  O28  1  0.134745  0.866161  0.749105  1
  O  O29  1  0.864060  0.135046  0.251189  1
