# generated using pymatgen
data_Rb7TaP4
_symmetry_space_group_name_H-M   'P 1'
_cell_length_a   8.55536700
_cell_length_b   9.41932700
_cell_length_c   10.53207300
_cell_angle_alpha   90.00000000
_cell_angle_beta   90.00000000
_cell_angle_gamma   90.00000000
_symmetry_Int_Tables_number   1
_chemical_formula_structural   Rb7TaP4
_chemical_formula_sum   'Rb14 Ta2 P8'
_cell_volume   848.73552181
_cell_formula_units_Z   2
loop_
 _symmetry_equiv_pos_site_id
 _symmetry_equiv_pos_as_xyz
  1  'x, y, z'
loop_
 _atom_site_type_symbol
 _atom_site_label
 _atom_site_symmetry_multiplicity
 _atom_site_fract_x
 _atom_site_fract_y
 _atom_site_fract_z
 _atom_site_occupancy
  Rb  Rb0  1  0.877551  0.030406  0.000000  1
  Rb  Rb1  1  0.707834  0.833073  0.714566  1
  Rb  Rb2  1  0.392100  0.888998  0.000000  1
  Rb  Rb3  1  0.377551  0.969594  0.500000  1
  Rb  Rb4  1  0.873708  0.467759  0.289210  1
  Rb  Rb5  1  0.892100  0.111002  0.500000  1
  Rb  Rb6  1  0.663633  0.339292  0.000000  1
  Rb  Rb7  1  0.163633  0.660708  0.500000  1
  Rb  Rb8  1  0.207834  0.166927  0.214566  1
  Rb  Rb9  1  0.373708  0.532241  0.210790  1
  Rb  Rb10  1  0.373708  0.532241  0.789210  1
  Rb  Rb11  1  0.873708  0.467759  0.710790  1
  Rb  Rb12  1  0.707834  0.833073  0.285434  1
  Rb  Rb13  1  0.207834  0.166927  0.785434  1
  Ta  Ta14  1  0.998376  0.672564  0.000000  1
  Ta  Ta15  1  0.498376  0.327436  0.500000  1
  P  P16  1  0.715599  0.682791  0.000000  1
  P  P17  1  0.215599  0.317209  0.500000  1
  P  P18  1  0.073580  0.423088  0.000000  1
  P  P19  1  0.573580  0.576912  0.500000  1
  P  P20  1  0.088589  0.798503  0.191471  1
  P  P21  1  0.588589  0.201497  0.308529  1
  P  P22  1  0.588589  0.201497  0.691471  1
  P  P23  1  0.088589  0.798503  0.808529  1
