# generated using pymatgen
data_CsMgAgTe2
_symmetry_space_group_name_H-M   'P 1'
_cell_length_a   8.64003369
_cell_length_b   8.64003372
_cell_length_c   8.64003501
_cell_angle_alpha   148.82867750
_cell_angle_beta   148.82867634
_cell_angle_gamma   44.66354355
_symmetry_Int_Tables_number   1
_chemical_formula_structural   CsMgAgTe2
_chemical_formula_sum   'Cs1 Mg1 Ag1 Te2'
_cell_volume   172.27189547
_cell_formula_units_Z   1
loop_
 _symmetry_equiv_pos_site_id
 _symmetry_equiv_pos_as_xyz
  1  'x, y, z'
loop_
 _atom_site_type_symbol
 _atom_site_label
 _atom_site_symmetry_multiplicity
 _atom_site_fract_x
 _atom_site_fract_y
 _atom_site_fract_z
 _atom_site_occupancy
  Cs  Cs0  1  0.000000  0.000000  0.000000  1
  Mg  Mg1  1  0.750000  0.250000  0.500000  1
  Ag  Ag2  1  0.250000  0.750000  0.500000  1
  Te  Te3  1  0.357548  0.357548  0.000000  1
  Te  Te4  1  0.642451  0.642451  0.000000  1
