# generated using pymatgen
data_TmLu2ThCoHg
_symmetry_space_group_name_H-M   'P 1'
_cell_length_a   9.44726503
_cell_length_b   9.43918772
_cell_length_c   9.43918743
_cell_angle_alpha   60.05663307
_cell_angle_beta   59.97169141
_cell_angle_gamma   59.97167947
_symmetry_Int_Tables_number   1
_chemical_formula_structural   TmLu2ThCoHg
_chemical_formula_sum   'Tm4 Lu8 Th4 Co4 Hg4'
_cell_volume   595.19559811
_cell_formula_units_Z   4
loop_
 _symmetry_equiv_pos_site_id
 _symmetry_equiv_pos_as_xyz
  1  'x, y, z'
loop_
 _atom_site_type_symbol
 _atom_site_label
 _atom_site_symmetry_multiplicity
 _atom_site_fract_x
 _atom_site_fract_y
 _atom_site_fract_z
 _atom_site_occupancy
  Tm  Tm0  1  0.564718  0.935282  0.564718  1
  Tm  Tm1  1  0.935282  0.564718  0.935282  1
  Tm  Tm2  1  0.564718  0.564718  0.935282  1
  Tm  Tm3  1  0.935282  0.935282  0.564718  1
  Lu  Lu4  1  0.813285  0.186715  0.186715  1
  Lu  Lu5  1  0.186715  0.813285  0.813285  1
  Lu  Lu6  1  0.186105  0.813895  0.186105  1
  Lu  Lu7  1  0.813895  0.186105  0.813895  1
  Lu  Lu8  1  0.186105  0.186105  0.813895  1
  Lu  Lu9  1  0.813895  0.813895  0.186105  1
  Lu  Lu10  1  0.936281  0.563719  0.563719  1
  Lu  Lu11  1  0.563719  0.936281  0.936281  1
  Th  Th12  1  0.348964  0.347533  0.347533  1
  Th  Th13  1  0.347533  0.348964  0.955971  1
  Th  Th14  1  0.347533  0.955971  0.348964  1
  Th  Th15  1  0.955971  0.347533  0.347533  1
  Co  Co16  1  0.144095  0.142999  0.142999  1
  Co  Co17  1  0.142999  0.144095  0.569908  1
  Co  Co18  1  0.142999  0.569908  0.144095  1
  Co  Co19  1  0.569908  0.142999  0.142999  1
  Hg  Hg20  1  0.587751  0.586637  0.586637  1
  Hg  Hg21  1  0.586637  0.587751  0.238973  1
  Hg  Hg22  1  0.586637  0.238973  0.587751  1
  Hg  Hg23  1  0.238973  0.586637  0.586637  1
