# generated using pymatgen
data_Er4TcOs7
_symmetry_space_group_name_H-M   'P 1'
_cell_length_a   5.28770371
_cell_length_b   5.28770467
_cell_length_c   8.80818800
_cell_angle_alpha   90.00000000
_cell_angle_beta   90.00000000
_cell_angle_gamma   118.77992492
_symmetry_Int_Tables_number   1
_chemical_formula_structural   Er4TcOs7
_chemical_formula_sum   'Er4 Tc1 Os7'
_cell_volume   215.85425788
_cell_formula_units_Z   1
loop_
 _symmetry_equiv_pos_site_id
 _symmetry_equiv_pos_as_xyz
  1  'x, y, z'
loop_
 _atom_site_type_symbol
 _atom_site_label
 _atom_site_symmetry_multiplicity
 _atom_site_fract_x
 _atom_site_fract_y
 _atom_site_fract_z
 _atom_site_occupancy
  Er  Er0  1  0.331924  0.668076  0.435692  1
  Er  Er1  1  0.667036  0.332964  0.565709  1
  Er  Er2  1  0.667036  0.332964  0.934291  1
  Er  Er3  1  0.331924  0.668076  0.064308  1
  Tc  Tc4  1  0.830222  0.169778  0.250000  1
  Os  Os5  1  0.996624  0.003376  0.499872  1
  Os  Os6  1  0.996624  0.003376  0.000128  1
  Os  Os7  1  0.827070  0.652070  0.250000  1
  Os  Os8  1  0.347930  0.172930  0.250000  1
  Os  Os9  1  0.174154  0.825846  0.750000  1
  Os  Os10  1  0.172645  0.343190  0.750000  1
  Os  Os11  1  0.656810  0.827355  0.750000  1
