# generated using pymatgen
data_ErLu3Th6(Ge3C)2
_symmetry_space_group_name_H-M   'P 1'
_cell_length_a   8.78679400
_cell_length_b   8.78688477
_cell_length_c   6.36706800
_cell_angle_alpha   90.00018496
_cell_angle_beta   90.00053548
_cell_angle_gamma   120.00298557
_symmetry_Int_Tables_number   1
_chemical_formula_structural   ErLu3Th6(Ge3C)2
_chemical_formula_sum   'Er1 Lu3 Th6 Ge6 C2'
_cell_volume   425.71840838
_cell_formula_units_Z   1
loop_
 _symmetry_equiv_pos_site_id
 _symmetry_equiv_pos_as_xyz
  1  'x, y, z'
loop_
 _atom_site_type_symbol
 _atom_site_label
 _atom_site_symmetry_multiplicity
 _atom_site_fract_x
 _atom_site_fract_y
 _atom_site_fract_z
 _atom_site_occupancy
  Er  Er0  1  0.666664  0.333324  0.499999  1
  Lu  Lu1  1  0.333336  0.666665  0.500004  1
  Lu  Lu2  1  0.333331  0.666664  0.000003  1
  Lu  Lu3  1  0.666669  0.333334  0.000000  1
  Th  Th4  1  0.767666  0.767454  0.249704  1
  Th  Th5  1  0.232513  0.000238  0.249730  1
  Th  Th6  1  0.999824  0.232303  0.249726  1
  Th  Th7  1  0.232540  0.232337  0.750280  1
  Th  Th8  1  0.767696  0.000181  0.750274  1
  Th  Th9  1  0.999755  0.767482  0.750284  1
  Ge  Ge10  1  0.402384  0.404417  0.247109  1
  Ge  Ge11  1  0.595579  0.997943  0.247161  1
  Ge  Ge12  1  0.002042  0.597622  0.247166  1
  Ge  Ge13  1  0.595580  0.597629  0.752881  1
  Ge  Ge14  1  0.402385  0.997992  0.752860  1
  Ge  Ge15  1  0.002048  0.404417  0.752816  1
  C  C16  1  0.999998  0.000016  0.499999  1
  C  C17  1  0.999991  0.999982  0.000001  1
