# generated using pymatgen
data_Ta4Co3Si3AsRu
_symmetry_space_group_name_H-M   'P 1'
_cell_length_a   6.30725154
_cell_length_b   3.71124500
_cell_length_c   7.14805581
_cell_angle_alpha   90.00000000
_cell_angle_beta   89.47102885
_cell_angle_gamma   90.00000000
_symmetry_Int_Tables_number   1
_chemical_formula_structural   Ta4Co3Si3AsRu
_chemical_formula_sum   'Ta4 Co3 Si3 As1 Ru1'
_cell_volume   167.31281362
_cell_formula_units_Z   1
loop_
 _symmetry_equiv_pos_site_id
 _symmetry_equiv_pos_as_xyz
  1  'x, y, z'
loop_
 _atom_site_type_symbol
 _atom_site_label
 _atom_site_symmetry_multiplicity
 _atom_site_fract_x
 _atom_site_fract_y
 _atom_site_fract_z
 _atom_site_occupancy
  Ta  Ta0  1  0.019647  0.250000  0.823517  1
  Ta  Ta1  1  0.524880  0.250000  0.683480  1
  Ta  Ta2  1  0.982306  0.750000  0.171131  1
  Ta  Ta3  1  0.470112  0.750000  0.319165  1
  Co  Co4  1  0.639306  0.250000  0.057216  1
  Co  Co5  1  0.855537  0.750000  0.571735  1
  Co  Co6  1  0.361804  0.750000  0.937935  1
  Si  Si7  1  0.277949  0.250000  0.109875  1
  Si  Si8  1  0.231457  0.750000  0.631466  1
  Si  Si9  1  0.725672  0.750000  0.881694  1
  As  As10  1  0.764752  0.250000  0.375929  1
  Ru  Ru11  1  0.146576  0.250000  0.436860  1
