# generated using pymatgen
data_Dy5V3(Co4As3)4
_symmetry_space_group_name_H-M   'P 1'
_cell_length_a   12.49407800
_cell_length_b   12.49407791
_cell_length_c   3.79815800
_cell_angle_alpha   90.00000000
_cell_angle_beta   90.00000000
_cell_angle_gamma   119.99998964
_symmetry_Int_Tables_number   1
_chemical_formula_structural   Dy5V3(Co4As3)4
_chemical_formula_sum   'Dy5 V3 Co16 As12'
_cell_volume   513.46651493
_cell_formula_units_Z   1
loop_
 _symmetry_equiv_pos_site_id
 _symmetry_equiv_pos_as_xyz
  1  'x, y, z'
loop_
 _atom_site_type_symbol
 _atom_site_label
 _atom_site_symmetry_multiplicity
 _atom_site_fract_x
 _atom_site_fract_y
 _atom_site_fract_z
 _atom_site_occupancy
  Dy  Dy0  1  0.666667  0.333333  0.000000  1
  Dy  Dy1  1  0.333333  0.666667  0.000000  1
  Dy  Dy2  1  0.186159  0.186159  0.500000  1
  Dy  Dy3  1  0.813841  0.000000  0.500000  1
  Dy  Dy4  1  0.000000  0.813841  0.500000  1
  V  V5  1  0.559276  0.559276  0.000000  1
  V  V6  1  0.440724  0.000000  0.000000  1
  V  V7  1  0.000000  0.440724  0.000000  1
  Co  Co8  1  0.823397  0.200371  0.000000  1
  Co  Co9  1  0.799629  0.623026  0.000000  1
  Co  Co10  1  0.376974  0.176603  0.000000  1
  Co  Co11  1  0.200371  0.823397  0.000000  1
  Co  Co12  1  0.623026  0.799629  0.000000  1
  Co  Co13  1  0.176603  0.376974  0.000000  1
  Co  Co14  1  0.645566  0.124791  0.500000  1
  Co  Co15  1  0.875209  0.520774  0.500000  1
  Co  Co16  1  0.479226  0.354434  0.500000  1
  Co  Co17  1  0.124791  0.645566  0.500000  1
  Co  Co18  1  0.520774  0.875209  0.500000  1
  Co  Co19  1  0.354434  0.479226  0.500000  1
  Co  Co20  1  0.716396  0.716396  0.500000  1
  Co  Co21  1  0.283604  0.000000  0.500000  1
  Co  Co22  1  0.000000  0.283604  0.500000  1
  Co  Co23  1  0.000000  0.000000  0.000000  1
  As  As24  1  0.361943  0.361943  0.000000  1
  As  As25  1  0.638057  0.000000  0.000000  1
  As  As26  1  0.000000  0.638057  0.000000  1
  As  As27  1  0.834608  0.317606  0.500000  1
  As  As28  1  0.682394  0.517002  0.500000  1
  As  As29  1  0.482998  0.165392  0.500000  1
  As  As30  1  0.317606  0.834608  0.500000  1
  As  As31  1  0.517002  0.682394  0.500000  1
  As  As32  1  0.165392  0.482998  0.500000  1
  As  As33  1  0.821429  0.821429  0.000000  1
  As  As34  1  0.178571  0.000000  0.000000  1
  As  As35  1  0.000000  0.178571  0.000000  1
