# generated using pymatgen
data_Li4Ca2SmYSi8
_symmetry_space_group_name_H-M   'P 1'
_cell_length_a   3.80928400
_cell_length_b   7.80948804
_cell_length_c   10.46726411
_cell_angle_alpha   90.06578452
_cell_angle_beta   90.00000000
_cell_angle_gamma   90.00000000
_symmetry_Int_Tables_number   1
_chemical_formula_structural   Li4Ca2SmYSi8
_chemical_formula_sum   'Li4 Ca2 Sm1 Y1 Si8'
_cell_volume   311.38580641
_cell_formula_units_Z   1
loop_
 _symmetry_equiv_pos_site_id
 _symmetry_equiv_pos_as_xyz
  1  'x, y, z'
loop_
 _atom_site_type_symbol
 _atom_site_label
 _atom_site_symmetry_multiplicity
 _atom_site_fract_x
 _atom_site_fract_y
 _atom_site_fract_z
 _atom_site_occupancy
  Li  Li0  1  0.250000  0.995886  0.389913  1
  Li  Li1  1  0.750000  0.006141  0.608616  1
  Li  Li2  1  0.250000  0.496961  0.110144  1
  Li  Li3  1  0.750000  0.507471  0.890844  1
  Ca  Ca4  1  0.750000  0.863637  0.135133  1
  Ca  Ca5  1  0.750000  0.363747  0.366202  1
  Sm  Sm6  1  0.250000  0.132689  0.863876  1
  Y  Y7  1  0.250000  0.629711  0.634894  1
  Si  Si8  1  0.750000  0.269587  0.066291  1
  Si  Si9  1  0.250000  0.733222  0.927331  1
  Si  Si10  1  0.750000  0.766580  0.436939  1
  Si  Si11  1  0.250000  0.235684  0.570874  1
  Si  Si12  1  0.750000  0.835158  0.815374  1
  Si  Si13  1  0.250000  0.162253  0.172980  1
  Si  Si14  1  0.750000  0.340282  0.681732  1
  Si  Si15  1  0.250000  0.660992  0.328855  1
