# generated using pymatgen
data_Tb5Sm5B2Br15
_symmetry_space_group_name_H-M   'P 1'
_cell_length_a   9.20813959
_cell_length_b   9.96050896
_cell_length_c   10.80125350
_cell_angle_alpha   91.22164423
_cell_angle_beta   114.43663634
_cell_angle_gamma   110.85443685
_symmetry_Int_Tables_number   1
_chemical_formula_structural   Tb5Sm5B2Br15
_chemical_formula_sum   'Tb5 Sm5 B2 Br15'
_cell_volume   826.12146819
_cell_formula_units_Z   1
loop_
 _symmetry_equiv_pos_site_id
 _symmetry_equiv_pos_as_xyz
  1  'x, y, z'
loop_
 _atom_site_type_symbol
 _atom_site_label
 _atom_site_symmetry_multiplicity
 _atom_site_fract_x
 _atom_site_fract_y
 _atom_site_fract_z
 _atom_site_occupancy
  Tb  Tb0  1  0.475215  0.294191  0.906392  1
  Tb  Tb1  1  0.584255  0.040247  0.320944  1
  Tb  Tb2  1  0.414833  0.959728  0.677588  1
  Tb  Tb3  1  0.720495  0.073854  0.047725  1
  Tb  Tb4  1  0.279553  0.925945  0.952338  1
  Sm  Sm5  1  0.800266  0.408938  0.276283  1
  Sm  Sm6  1  0.199416  0.591208  0.722980  1
  Sm  Sm7  1  0.673967  0.746791  0.819938  1
  Sm  Sm8  1  0.325892  0.253184  0.179837  1
  Sm  Sm9  1  0.525876  0.704645  0.096090  1
  B  B10  1  0.467052  0.822551  0.876576  1
  B  B11  1  0.532114  0.178495  0.121056  1
  Br  Br12  1  0.999820  0.999992  0.999795  1
  Br  Br13  1  0.634821  0.886114  0.581573  1
  Br  Br14  1  0.365339  0.114361  0.418218  1
  Br  Br15  1  0.880816  0.294766  0.528224  1
  Br  Br16  1  0.118857  0.705316  0.471232  1
  Br  Br17  1  0.288914  0.765511  0.179744  1
  Br  Br18  1  0.707152  0.236491  0.820790  1
  Br  Br19  1  0.053569  0.339962  0.224597  1
  Br  Br20  1  0.168423  0.058028  0.704944  1
  Br  Br21  1  0.836386  0.947184  0.297873  1
  Br  Br22  1  0.231037  0.407474  0.941938  1
  Br  Br23  1  0.768154  0.587254  0.054301  1
  Br  Br24  1  0.408311  0.458601  0.660200  1
  Br  Br25  1  0.592772  0.538834  0.343650  1
  Br  Br26  1  0.946695  0.660335  0.775173  1
