# generated using pymatgen
data_Ho4AgPt
_symmetry_space_group_name_H-M   'P 1'
_cell_length_a   9.56084778
_cell_length_b   9.56084822
_cell_length_c   9.56084900
_cell_angle_alpha   60.00000076
_cell_angle_beta   59.99999925
_cell_angle_gamma   60.00000101
_symmetry_Int_Tables_number   1
_chemical_formula_structural   Ho4AgPt
_chemical_formula_sum   'Ho16 Ag4 Pt4'
_cell_volume   617.97981827
_cell_formula_units_Z   4
loop_
 _symmetry_equiv_pos_site_id
 _symmetry_equiv_pos_as_xyz
  1  'x, y, z'
loop_
 _atom_site_type_symbol
 _atom_site_label
 _atom_site_symmetry_multiplicity
 _atom_site_fract_x
 _atom_site_fract_y
 _atom_site_fract_z
 _atom_site_occupancy
  Ho  Ho0  1  0.604620  0.604620  0.604620  1
  Ho  Ho1  1  0.604620  0.604620  0.186139  1
  Ho  Ho2  1  0.604620  0.186139  0.604620  1
  Ho  Ho3  1  0.186139  0.604620  0.604620  1
  Ho  Ho4  1  0.060550  0.439450  0.439450  1
  Ho  Ho5  1  0.439450  0.060550  0.060550  1
  Ho  Ho6  1  0.439450  0.060550  0.439450  1
  Ho  Ho7  1  0.060550  0.439450  0.060550  1
  Ho  Ho8  1  0.439450  0.439450  0.060550  1
  Ho  Ho9  1  0.060550  0.060550  0.439450  1
  Ho  Ho10  1  0.184215  0.815785  0.815785  1
  Ho  Ho11  1  0.815785  0.184215  0.184215  1
  Ho  Ho12  1  0.815785  0.184215  0.815785  1
  Ho  Ho13  1  0.184215  0.815785  0.184215  1
  Ho  Ho14  1  0.815785  0.815785  0.184215  1
  Ho  Ho15  1  0.184215  0.184215  0.815785  1
  Ag  Ag16  1  0.832594  0.832594  0.832594  1
  Ag  Ag17  1  0.832594  0.832594  0.502218  1
  Ag  Ag18  1  0.832594  0.502218  0.832594  1
  Ag  Ag19  1  0.502218  0.832594  0.832594  1
  Pt  Pt20  1  0.394023  0.394023  0.394023  1
  Pt  Pt21  1  0.394023  0.394023  0.817931  1
  Pt  Pt22  1  0.394023  0.817931  0.394023  1
  Pt  Pt23  1  0.817931  0.394023  0.394023  1
