# generated using pymatgen
data_Cs6SmTmBr12
_symmetry_space_group_name_H-M   'P 1'
_cell_length_a   10.00759605
_cell_length_b   9.99936205
_cell_length_c   8.30853900
_cell_angle_alpha   90.00000000
_cell_angle_beta   90.00000000
_cell_angle_gamma   89.98821833
_symmetry_Int_Tables_number   1
_chemical_formula_structural   Cs6SmTmBr12
_chemical_formula_sum   'Cs6 Sm1 Tm1 Br12'
_cell_volume   831.43195909
_cell_formula_units_Z   1
loop_
 _symmetry_equiv_pos_site_id
 _symmetry_equiv_pos_as_xyz
  1  'x, y, z'
loop_
 _atom_site_type_symbol
 _atom_site_label
 _atom_site_symmetry_multiplicity
 _atom_site_fract_x
 _atom_site_fract_y
 _atom_site_fract_z
 _atom_site_occupancy
  Cs  Cs0  1  0.000000  0.000000  0.500000  1
  Cs  Cs1  1  0.000000  0.000000  0.000000  1
  Cs  Cs2  1  0.236904  0.583732  0.500000  1
  Cs  Cs3  1  0.763096  0.416268  0.500000  1
  Cs  Cs4  1  0.416669  0.233859  0.000000  1
  Cs  Cs5  1  0.583331  0.766141  0.000000  1
  Sm  Sm6  1  0.000000  0.500000  0.000000  1
  Tm  Tm7  1  0.500000  0.000000  0.500000  1
  Br  Br8  1  0.689483  0.056328  0.737383  1
  Br  Br9  1  0.310517  0.943672  0.737383  1
  Br  Br10  1  0.941876  0.695050  0.243886  1
  Br  Br11  1  0.058124  0.304950  0.243886  1
  Br  Br12  1  0.310517  0.943672  0.262617  1
  Br  Br13  1  0.689483  0.056328  0.262617  1
  Br  Br14  1  0.058124  0.304950  0.756114  1
  Br  Br15  1  0.941876  0.695050  0.756114  1
  Br  Br16  1  0.569356  0.732322  0.500000  1
  Br  Br17  1  0.430644  0.267678  0.500000  1
  Br  Br18  1  0.275487  0.571334  0.000000  1
  Br  Br19  1  0.724513  0.428666  0.000000  1
