# generated using pymatgen
data_Zr3(Ga2Co)2
_symmetry_space_group_name_H-M   'P 1'
_cell_length_a   6.84316700
_cell_length_b   6.84316721
_cell_length_c   3.64274200
_cell_angle_alpha   90.00000000
_cell_angle_beta   90.00000000
_cell_angle_gamma   119.99999413
_symmetry_Int_Tables_number   1
_chemical_formula_structural   Zr3(Ga2Co)2
_chemical_formula_sum   'Zr3 Ga4 Co2'
_cell_volume   147.73158632
_cell_formula_units_Z   1
loop_
 _symmetry_equiv_pos_site_id
 _symmetry_equiv_pos_as_xyz
  1  'x, y, z'
loop_
 _atom_site_type_symbol
 _atom_site_label
 _atom_site_symmetry_multiplicity
 _atom_site_fract_x
 _atom_site_fract_y
 _atom_site_fract_z
 _atom_site_occupancy
  Zr  Zr0  1  0.982653  0.390163  0.500000  1
  Zr  Zr1  1  0.609837  0.592492  0.500000  1
  Zr  Zr2  1  0.407508  0.017347  0.500000  1
  Ga  Ga3  1  0.993751  0.744569  0.000000  1
  Ga  Ga4  1  0.255431  0.249180  0.000000  1
  Ga  Ga5  1  0.750820  0.006249  0.000000  1
  Ga  Ga6  1  0.333333  0.666667  0.000000  1
  Co  Co7  1  0.666667  0.333333  0.000000  1
  Co  Co8  1  0.000000  0.000000  0.500000  1
