# generated using pymatgen
data_MgZr3(Pd3Pt)3
_symmetry_space_group_name_H-M   'P 1'
_cell_length_a   5.70595300
_cell_length_b   5.70595340
_cell_length_c   9.29942200
_cell_angle_alpha   90.00000000
_cell_angle_beta   90.00000000
_cell_angle_gamma   119.99999189
_symmetry_Int_Tables_number   1
_chemical_formula_structural   MgZr3(Pd3Pt)3
_chemical_formula_sum   'Mg1 Zr3 Pd9 Pt3'
_cell_volume   262.20624656
_cell_formula_units_Z   1
loop_
 _symmetry_equiv_pos_site_id
 _symmetry_equiv_pos_as_xyz
  1  'x, y, z'
loop_
 _atom_site_type_symbol
 _atom_site_label
 _atom_site_symmetry_multiplicity
 _atom_site_fract_x
 _atom_site_fract_y
 _atom_site_fract_z
 _atom_site_occupancy
  Mg  Mg0  1  0.333333  0.666667  0.250000  1
  Zr  Zr1  1  0.000000  0.000000  0.500206  1
  Zr  Zr2  1  0.000000  0.000000  0.999794  1
  Zr  Zr3  1  0.666667  0.333333  0.750000  1
  Pd  Pd4  1  0.500421  0.499579  0.498742  1
  Pd  Pd5  1  0.500421  0.000843  0.498742  1
  Pd  Pd6  1  0.999157  0.499579  0.498742  1
  Pd  Pd7  1  0.500421  0.499579  0.001258  1
  Pd  Pd8  1  0.500421  0.000843  0.001258  1
  Pd  Pd9  1  0.999157  0.499579  0.001258  1
  Pd  Pd10  1  0.830186  0.660369  0.250000  1
  Pd  Pd11  1  0.339631  0.169814  0.250000  1
  Pd  Pd12  1  0.830186  0.169814  0.250000  1
  Pt  Pt13  1  0.169463  0.338926  0.750000  1
  Pt  Pt14  1  0.661074  0.830537  0.750000  1
  Pt  Pt15  1  0.169463  0.830537  0.750000  1
