# generated using pymatgen
data_Tm5ZnGaBi
_symmetry_space_group_name_H-M   'P 1'
_cell_length_a   8.45070316
_cell_length_b   8.45070349
_cell_length_c   8.61961861
_cell_angle_alpha   123.65695292
_cell_angle_beta   123.65696281
_cell_angle_gamma   82.49606196
_symmetry_Int_Tables_number   1
_chemical_formula_structural   Tm5ZnGaBi
_chemical_formula_sum   'Tm10 Zn2 Ga2 Bi2'
_cell_volume   412.40705894
_cell_formula_units_Z   2
loop_
 _symmetry_equiv_pos_site_id
 _symmetry_equiv_pos_as_xyz
  1  'x, y, z'
loop_
 _atom_site_type_symbol
 _atom_site_label
 _atom_site_symmetry_multiplicity
 _atom_site_fract_x
 _atom_site_fract_y
 _atom_site_fract_z
 _atom_site_occupancy
  Tm  Tm0  1  0.000000  0.000000  0.000000  1
  Tm  Tm1  1  0.500000  0.500000  0.000000  1
  Tm  Tm2  1  0.794438  0.294438  0.798248  1
  Tm  Tm3  1  0.205562  0.705562  0.201752  1
  Tm  Tm4  1  0.496190  0.996190  0.201752  1
  Tm  Tm5  1  0.292173  0.483492  0.500000  1
  Tm  Tm6  1  0.016508  0.207827  0.500000  1
  Tm  Tm7  1  0.503810  0.003810  0.798248  1
  Tm  Tm8  1  0.707827  0.516508  0.500000  1
  Tm  Tm9  1  0.983492  0.792173  0.500000  1
  Zn  Zn10  1  0.636388  0.863612  0.500000  1
  Zn  Zn11  1  0.363612  0.136388  0.500000  1
  Ga  Ga12  1  0.152158  0.652158  0.804317  1
  Ga  Ga13  1  0.847842  0.347842  0.195683  1
  Bi  Bi14  1  0.250000  0.250000  0.000000  1
  Bi  Bi15  1  0.750000  0.750000  0.000000  1
