# generated using pymatgen
data_CaSm(NiH4)2
_symmetry_space_group_name_H-M   'P 1'
_cell_length_a   3.63708372
_cell_length_b   4.85739200
_cell_length_c   6.16193690
_cell_angle_alpha   90.00000000
_cell_angle_beta   107.14398296
_cell_angle_gamma   90.00000000
_symmetry_Int_Tables_number   1
_chemical_formula_structural   CaSm(NiH4)2
_chemical_formula_sum   'Ca1 Sm1 Ni2 H8'
_cell_volume   104.02431088
_cell_formula_units_Z   1
loop_
 _symmetry_equiv_pos_site_id
 _symmetry_equiv_pos_as_xyz
  1  'x, y, z'
loop_
 _atom_site_type_symbol
 _atom_site_label
 _atom_site_symmetry_multiplicity
 _atom_site_fract_x
 _atom_site_fract_y
 _atom_site_fract_z
 _atom_site_occupancy
  Ca  Ca0  1  0.365713  0.750000  0.231598  1
  Sm  Sm1  1  0.631278  0.249999  0.762154  1
  Ni  Ni2  1  0.905101  0.249999  0.310417  1
  Ni  Ni3  1  0.095929  0.750000  0.692193  1
  H  H4  1  0.808837  0.014177  0.117407  1
  H  H5  1  0.808837  0.485823  0.117407  1
  H  H6  1  0.415804  0.249999  0.331213  1
  H  H7  1  0.000965  0.002819  0.501818  1
  H  H8  1  0.000965  0.497181  0.501818  1
  H  H9  1  0.588179  0.750000  0.676427  1
  H  H10  1  0.189195  0.502826  0.878772  1
  H  H11  1  0.189195  0.997174  0.878772  1
