# generated using pymatgen
data_YbErMgPd5
_symmetry_space_group_name_H-M   'P 1'
_cell_length_a   4.28842800
_cell_length_b   5.76253889
_cell_length_c   11.41135685
_cell_angle_alpha   89.67082887
_cell_angle_beta   90.00000000
_cell_angle_gamma   90.00000000
_symmetry_Int_Tables_number   1
_chemical_formula_structural   YbErMgPd5
_chemical_formula_sum   'Yb2 Er2 Mg2 Pd10'
_cell_volume   281.99545698
_cell_formula_units_Z   2
loop_
 _symmetry_equiv_pos_site_id
 _symmetry_equiv_pos_as_xyz
  1  'x, y, z'
loop_
 _atom_site_type_symbol
 _atom_site_label
 _atom_site_symmetry_multiplicity
 _atom_site_fract_x
 _atom_site_fract_y
 _atom_site_fract_z
 _atom_site_occupancy
  Yb  Yb0  1  0.500000  0.319949  0.638289  1
  Yb  Yb1  1  0.500000  0.680051  0.361711  1
  Er  Er2  1  0.500000  0.180722  0.142162  1
  Er  Er3  1  0.500000  0.819278  0.857838  1
  Mg  Mg4  1  0.000000  0.000000  0.500000  1
  Mg  Mg5  1  0.000000  0.500000  0.000000  1
  Pd  Pd6  1  0.500000  0.190561  0.388910  1
  Pd  Pd7  1  0.500000  0.809439  0.611090  1
  Pd  Pd8  1  0.500000  0.309329  0.890086  1
  Pd  Pd9  1  0.500000  0.690671  0.109914  1
  Pd  Pd10  1  0.000000  0.429827  0.248508  1
  Pd  Pd11  1  0.000000  0.570173  0.751492  1
  Pd  Pd12  1  0.000000  0.072575  0.748763  1
  Pd  Pd13  1  0.000000  0.927425  0.251237  1
  Pd  Pd14  1  0.000000  0.000000  0.000000  1
  Pd  Pd15  1  0.000000  0.500000  0.500000  1
