# generated using pymatgen
data_Ti3Re2Si2BRu
_symmetry_space_group_name_H-M   'P 1'
_cell_length_a   6.65186600
_cell_length_b   6.67011373
_cell_length_c   3.14646000
_cell_angle_alpha   90.00000000
_cell_angle_beta   90.00000000
_cell_angle_gamma   119.90954349
_symmetry_Int_Tables_number   1
_chemical_formula_structural   Ti3Re2Si2BRu
_chemical_formula_sum   'Ti3 Re2 Si2 B1 Ru1'
_cell_volume   121.01096259
_cell_formula_units_Z   1
loop_
 _symmetry_equiv_pos_site_id
 _symmetry_equiv_pos_as_xyz
  1  'x, y, z'
loop_
 _atom_site_type_symbol
 _atom_site_label
 _atom_site_symmetry_multiplicity
 _atom_site_fract_x
 _atom_site_fract_y
 _atom_site_fract_z
 _atom_site_occupancy
  Ti  Ti0  1  0.610407  0.000000  0.000000  1
  Ti  Ti1  1  0.390095  0.393160  0.000000  1
  Ti  Ti2  1  0.996935  0.606840  0.000000  1
  Re  Re3  1  0.756270  0.755201  0.500000  1
  Re  Re4  1  0.001069  0.244799  0.500000  1
  Si  Si5  1  0.333733  0.668276  0.500000  1
  Si  Si6  1  0.665458  0.331724  0.500000  1
  B  B7  1  0.998164  0.000000  0.000000  1
  Ru  Ru8  1  0.247869  0.000000  0.500000  1
