# generated using pymatgen
data_Ca3PrAs3
_symmetry_space_group_name_H-M   'P 1'
_cell_length_a   7.84659344
_cell_length_b   7.86888431
_cell_length_c   7.82205762
_cell_angle_alpha   109.54749491
_cell_angle_beta   109.43180855
_cell_angle_gamma   109.61859624
_symmetry_Int_Tables_number   1
_chemical_formula_structural   Ca3PrAs3
_chemical_formula_sum   'Ca6 Pr2 As6'
_cell_volume   370.93783548
_cell_formula_units_Z   2
loop_
 _symmetry_equiv_pos_site_id
 _symmetry_equiv_pos_as_xyz
  1  'x, y, z'
loop_
 _atom_site_type_symbol
 _atom_site_label
 _atom_site_symmetry_multiplicity
 _atom_site_fract_x
 _atom_site_fract_y
 _atom_site_fract_z
 _atom_site_occupancy
  Ca  Ca0  1  0.127323  0.131739  0.128176  1
  Ca  Ca1  1  0.499148  0.003563  0.871824  1
  Ca  Ca2  1  0.868907  0.499766  0.003926  1
  Ca  Ca3  1  0.002780  0.868520  0.498638  1
  Ca  Ca4  1  0.364981  0.495840  0.996074  1
  Ca  Ca5  1  0.004142  0.369882  0.501362  1
  Pr  Pr6  1  0.500365  0.998668  0.366708  1
  Pr  Pr7  1  0.633657  0.631960  0.633292  1
  As  As8  1  0.626117  0.374707  0.254125  1
  As  As9  1  0.253193  0.627554  0.375476  1
  As  As10  1  0.746606  0.874338  0.123536  1
  As  As11  1  0.123070  0.750802  0.876464  1
  As  As12  1  0.377717  0.252078  0.624524  1
  As  As13  1  0.871992  0.120583  0.745875  1
