# generated using pymatgen
data_Nd3AlS6
_symmetry_space_group_name_H-M   'P 1'
_cell_length_a   8.80384905
_cell_length_b   8.80384913
_cell_length_c   6.64862100
_cell_angle_alpha   90.00000000
_cell_angle_beta   90.00000000
_cell_angle_gamma   102.52741615
_symmetry_Int_Tables_number   1
_chemical_formula_structural   Nd3AlS6
_chemical_formula_sum   'Nd6 Al2 S12'
_cell_volume   503.05115002
_cell_formula_units_Z   2
loop_
 _symmetry_equiv_pos_site_id
 _symmetry_equiv_pos_as_xyz
  1  'x, y, z'
loop_
 _atom_site_type_symbol
 _atom_site_label
 _atom_site_symmetry_multiplicity
 _atom_site_fract_x
 _atom_site_fract_y
 _atom_site_fract_z
 _atom_site_occupancy
  Nd  Nd0  1  0.397410  0.602590  0.892889  1
  Nd  Nd1  1  0.602590  0.397410  0.392889  1
  Nd  Nd2  1  0.286181  0.084850  0.974202  1
  Nd  Nd3  1  0.713819  0.915150  0.474202  1
  Nd  Nd4  1  0.915150  0.713819  0.974202  1
  Nd  Nd5  1  0.084850  0.286181  0.474202  1
  Al  Al6  1  0.198027  0.801973  0.516628  1
  Al  Al7  1  0.801973  0.198027  0.016628  1
  S  S8  1  0.216102  0.783898  0.177121  1
  S  S9  1  0.783898  0.216102  0.677121  1
  S  S10  1  0.043085  0.956915  0.648433  1
  S  S11  1  0.956915  0.043085  0.148433  1
  S  S12  1  0.363815  0.315251  0.684080  1
  S  S13  1  0.636185  0.684749  0.184080  1
  S  S14  1  0.684749  0.636185  0.684080  1
  S  S15  1  0.315251  0.363815  0.184080  1
  S  S16  1  0.899864  0.424217  0.180102  1
  S  S17  1  0.100136  0.575783  0.680102  1
  S  S18  1  0.575783  0.100136  0.180102  1
  S  S19  1  0.424217  0.899864  0.680102  1
