# generated using pymatgen
data_Dy4ZnSi6Rh
_symmetry_space_group_name_H-M   'P 1'
_cell_length_a   8.13350100
_cell_length_b   8.13350119
_cell_length_c   8.08111700
_cell_angle_alpha   90.00000000
_cell_angle_beta   90.00000000
_cell_angle_gamma   119.99999515
_symmetry_Int_Tables_number   1
_chemical_formula_structural   Dy4ZnSi6Rh
_chemical_formula_sum   'Dy8 Zn2 Si12 Rh2'
_cell_volume   462.97453770
_cell_formula_units_Z   2
loop_
 _symmetry_equiv_pos_site_id
 _symmetry_equiv_pos_as_xyz
  1  'x, y, z'
loop_
 _atom_site_type_symbol
 _atom_site_label
 _atom_site_symmetry_multiplicity
 _atom_site_fract_x
 _atom_site_fract_y
 _atom_site_fract_z
 _atom_site_occupancy
  Dy  Dy0  1  0.000000  0.000000  0.250000  1
  Dy  Dy1  1  0.000000  0.000000  0.750000  1
  Dy  Dy2  1  0.992027  0.496013  0.250000  1
  Dy  Dy3  1  0.503987  0.496013  0.250000  1
  Dy  Dy4  1  0.504673  0.009346  0.750000  1
  Dy  Dy5  1  0.503987  0.007973  0.250000  1
  Dy  Dy6  1  0.504673  0.495327  0.750000  1
  Dy  Dy7  1  0.990654  0.495327  0.750000  1
  Zn  Zn8  1  0.333333  0.666667  0.995643  1
  Zn  Zn9  1  0.333333  0.666667  0.504357  1
  Si  Si10  1  0.164090  0.328179  0.000582  1
  Si  Si11  1  0.671821  0.835910  0.000582  1
  Si  Si12  1  0.164090  0.328179  0.499418  1
  Si  Si13  1  0.337138  0.168570  0.000321  1
  Si  Si14  1  0.164090  0.835910  0.000582  1
  Si  Si15  1  0.671821  0.835910  0.499418  1
  Si  Si16  1  0.831430  0.662862  0.000321  1
  Si  Si17  1  0.337138  0.168570  0.499679  1
  Si  Si18  1  0.164090  0.835910  0.499418  1
  Si  Si19  1  0.831430  0.662862  0.499679  1
  Si  Si20  1  0.831430  0.168570  0.000321  1
  Si  Si21  1  0.831430  0.168570  0.499679  1
  Rh  Rh22  1  0.666667  0.333333  0.999446  1
  Rh  Rh23  1  0.666667  0.333333  0.500554  1
