# generated using pymatgen
data_Ba2Cd21Ag
_symmetry_space_group_name_H-M   'P 1'
_cell_length_a   9.43763961
_cell_length_b   9.45075095
_cell_length_c   9.50381989
_cell_angle_alpha   100.01680525
_cell_angle_beta   100.08069450
_cell_angle_gamma   130.00948627
_symmetry_Int_Tables_number   1
_chemical_formula_structural   Ba2Cd21Ag
_chemical_formula_sum   'Ba2 Cd21 Ag1'
_cell_volume   591.32197835
_cell_formula_units_Z   1
loop_
 _symmetry_equiv_pos_site_id
 _symmetry_equiv_pos_as_xyz
  1  'x, y, z'
loop_
 _atom_site_type_symbol
 _atom_site_label
 _atom_site_symmetry_multiplicity
 _atom_site_fract_x
 _atom_site_fract_y
 _atom_site_fract_z
 _atom_site_occupancy
  Ba  Ba0  1  0.748627  0.249825  0.500876  1
  Ba  Ba1  1  0.501373  0.500175  0.999124  1
  Cd  Cd2  1  0.924302  0.012130  0.327549  1
  Cd  Cd3  1  0.680225  0.594396  0.672575  1
  Cd  Cd4  1  0.246076  0.740206  0.495038  1
  Cd  Cd5  1  0.003924  0.009794  0.004962  1
  Cd  Cd6  1  0.125000  0.875000  0.250000  1
  Cd  Cd7  1  0.125000  0.875000  0.750000  1
  Cd  Cd8  1  0.625000  0.875000  0.750000  1
  Cd  Cd9  1  0.921272  0.594685  0.915141  1
  Cd  Cd10  1  0.850919  0.429553  0.174494  1
  Cd  Cd11  1  0.258725  0.670621  0.828826  1
  Cd  Cd12  1  0.684071  0.010675  0.086905  1
  Cd  Cd13  1  0.407028  0.079278  0.085831  1
  Cd  Cd14  1  0.996577  0.320916  0.921732  1
  Cd  Cd15  1  0.569775  0.155604  0.827425  1
  Cd  Cd16  1  0.325698  0.737870  0.172451  1
  Cd  Cd17  1  0.328728  0.155315  0.584859  1
  Cd  Cd18  1  0.399081  0.320447  0.325506  1
  Cd  Cd19  1  0.991275  0.079379  0.671174  1
  Cd  Cd20  1  0.565929  0.739325  0.413095  1
  Cd  Cd21  1  0.842972  0.670722  0.414169  1
  Cd  Cd22  1  0.253423  0.429084  0.578268  1
  Ag  Ag23  1  0.125000  0.375000  0.250000  1
