# generated using pymatgen
data_HoEr2Mg3AgPb2
_symmetry_space_group_name_H-M   'P 1'
_cell_length_a   7.51878345
_cell_length_b   7.51878323
_cell_length_c   4.57929400
_cell_angle_alpha   90.00000000
_cell_angle_beta   90.00000000
_cell_angle_gamma   120.07120494
_symmetry_Int_Tables_number   1
_chemical_formula_structural   HoEr2Mg3AgPb2
_chemical_formula_sum   'Ho1 Er2 Mg3 Ag1 Pb2'
_cell_volume   224.03312785
_cell_formula_units_Z   1
loop_
 _symmetry_equiv_pos_site_id
 _symmetry_equiv_pos_as_xyz
  1  'x, y, z'
loop_
 _atom_site_type_symbol
 _atom_site_label
 _atom_site_symmetry_multiplicity
 _atom_site_fract_x
 _atom_site_fract_y
 _atom_site_fract_z
 _atom_site_occupancy
  Ho  Ho0  1  0.415569  0.415569  0.500000  1
  Er  Er1  1  0.585318  0.000373  0.500000  1
  Er  Er2  1  0.000373  0.585318  0.500000  1
  Mg  Mg3  1  0.766402  0.766402  0.000000  1
  Mg  Mg4  1  0.232953  0.000562  0.000000  1
  Mg  Mg5  1  0.000562  0.232953  0.000000  1
  Ag  Ag6  1  0.999015  0.999015  0.500000  1
  Pb  Pb7  1  0.667048  0.332760  0.000000  1
  Pb  Pb8  1  0.332760  0.667048  0.000000  1
