# generated using pymatgen
data_Dy2IrRhO7
_symmetry_space_group_name_H-M   'P 1'
_cell_length_a   7.23966055
_cell_length_b   7.22391146
_cell_length_c   7.23966106
_cell_angle_alpha   60.07194133
_cell_angle_beta   60.14639738
_cell_angle_gamma   60.07194146
_symmetry_Int_Tables_number   1
_chemical_formula_structural   Dy2IrRhO7
_chemical_formula_sum   'Dy4 Ir2 Rh2 O14'
_cell_volume   268.31471647
_cell_formula_units_Z   2
loop_
 _symmetry_equiv_pos_site_id
 _symmetry_equiv_pos_as_xyz
  1  'x, y, z'
loop_
 _atom_site_type_symbol
 _atom_site_label
 _atom_site_symmetry_multiplicity
 _atom_site_fract_x
 _atom_site_fract_y
 _atom_site_fract_z
 _atom_site_occupancy
  Dy  Dy0  1  0.125000  0.625000  0.125000  1
  Dy  Dy1  1  0.125000  0.125000  0.625000  1
  Dy  Dy2  1  0.625000  0.125000  0.125000  1
  Dy  Dy3  1  0.125000  0.125000  0.125000  1
  Ir  Ir4  1  0.125000  0.625000  0.625000  1
  Ir  Ir5  1  0.625000  0.625000  0.125000  1
  Rh  Rh6  1  0.625000  0.625000  0.625000  1
  Rh  Rh7  1  0.625000  0.125000  0.625000  1
  O  O8  1  0.285494  0.708371  0.715981  1
  O  O9  1  0.534019  0.959845  0.964506  1
  O  O10  1  0.715831  0.284169  0.715831  1
  O  O11  1  0.285494  0.290155  0.715981  1
  O  O12  1  0.715981  0.708371  0.285494  1
  O  O13  1  0.000738  0.999262  0.000738  1
  O  O14  1  0.290968  0.709032  0.290968  1
  O  O15  1  0.959032  0.540968  0.959032  1
  O  O16  1  0.964506  0.959845  0.534019  1
  O  O17  1  0.534019  0.541629  0.964506  1
  O  O18  1  0.249262  0.250738  0.249262  1
  O  O19  1  0.534169  0.965831  0.534169  1
  O  O20  1  0.715981  0.290155  0.285494  1
  O  O21  1  0.964506  0.541629  0.534019  1
