# generated using pymatgen
data_Tb12Co3NiSnPd
_symmetry_space_group_name_H-M   'P 1'
_cell_length_a   8.36278899
_cell_length_b   8.36250036
_cell_length_c   8.36278900
_cell_angle_alpha   111.25530859
_cell_angle_beta   109.70481477
_cell_angle_gamma   107.47707794
_symmetry_Int_Tables_number   1
_chemical_formula_structural   Tb12Co3NiSnPd
_chemical_formula_sum   'Tb12 Co3 Ni1 Sn1 Pd1'
_cell_volume   449.71075707
_cell_formula_units_Z   1
loop_
 _symmetry_equiv_pos_site_id
 _symmetry_equiv_pos_as_xyz
  1  'x, y, z'
loop_
 _atom_site_type_symbol
 _atom_site_label
 _atom_site_symmetry_multiplicity
 _atom_site_fract_x
 _atom_site_fract_y
 _atom_site_fract_z
 _atom_site_occupancy
  Tb  Tb0  1  0.414104  0.217437  0.196649  1
  Tb  Tb1  1  0.587583  0.783886  0.803760  1
  Tb  Tb2  1  0.019874  0.216114  0.803697  1
  Tb  Tb3  1  0.979212  0.782563  0.196667  1
  Tb  Tb4  1  0.182540  0.292905  0.475406  1
  Tb  Tb5  1  0.814772  0.709398  0.524214  1
  Tb  Tb6  1  0.182501  0.707095  0.889634  1
  Tb  Tb7  1  0.814816  0.290602  0.105375  1
  Tb  Tb8  1  0.320550  0.627567  0.311013  1
  Tb  Tb9  1  0.683446  0.372433  0.692983  1
  Tb  Tb10  1  0.320514  0.009559  0.693030  1
  Tb  Tb11  1  0.683470  0.990441  0.310954  1
  Co  Co12  1  0.634860  0.000000  0.634860  1
  Co  Co13  1  0.111251  0.613179  0.498051  1
  Co  Co14  1  0.884872  0.386821  0.498071  1
  Ni  Ni15  1  0.366144  0.000000  0.366144  1
  Sn  Sn16  1  0.499600  0.500000  0.999600  1
  Pd  Pd17  1  0.999891  0.000000  0.999891  1
