# generated using pymatgen
data_Tb6Lu10Cd3AgIr4
_symmetry_space_group_name_H-M   'P 1'
_cell_length_a   9.53057412
_cell_length_b   9.53057556
_cell_length_c   9.53057474
_cell_angle_alpha   59.65939506
_cell_angle_beta   59.65938870
_cell_angle_gamma   59.65939136
_symmetry_Int_Tables_number   1
_chemical_formula_structural   Tb6Lu10Cd3AgIr4
_chemical_formula_sum   'Tb6 Lu10 Cd3 Ag1 Ir4'
_cell_volume   607.39091168
_cell_formula_units_Z   1
loop_
 _symmetry_equiv_pos_site_id
 _symmetry_equiv_pos_as_xyz
  1  'x, y, z'
loop_
 _atom_site_type_symbol
 _atom_site_label
 _atom_site_symmetry_multiplicity
 _atom_site_fract_x
 _atom_site_fract_y
 _atom_site_fract_z
 _atom_site_occupancy
  Tb  Tb0  1  0.188288  0.808812  0.808812  1
  Tb  Tb1  1  0.808997  0.188321  0.188321  1
  Tb  Tb2  1  0.808812  0.188288  0.808812  1
  Tb  Tb3  1  0.188321  0.808997  0.188321  1
  Tb  Tb4  1  0.808812  0.808812  0.188288  1
  Tb  Tb5  1  0.188321  0.188321  0.808997  1
  Lu  Lu6  1  0.599211  0.599211  0.599211  1
  Lu  Lu7  1  0.599741  0.599741  0.204976  1
  Lu  Lu8  1  0.599741  0.204976  0.599741  1
  Lu  Lu9  1  0.204976  0.599741  0.599741  1
  Lu  Lu10  1  0.061802  0.437689  0.437689  1
  Lu  Lu11  1  0.435025  0.061432  0.061432  1
  Lu  Lu12  1  0.437689  0.061802  0.437689  1
  Lu  Lu13  1  0.061432  0.435025  0.061432  1
  Lu  Lu14  1  0.437689  0.437689  0.061802  1
  Lu  Lu15  1  0.061432  0.061432  0.435025  1
  Cd  Cd16  1  0.831786  0.831786  0.508995  1
  Cd  Cd17  1  0.831786  0.508995  0.831786  1
  Cd  Cd18  1  0.508995  0.831786  0.831786  1
  Ag  Ag19  1  0.832029  0.832029  0.832029  1
  Ir  Ir20  1  0.392073  0.392073  0.392073  1
  Ir  Ir21  1  0.393474  0.393474  0.826097  1
  Ir  Ir22  1  0.393474  0.826097  0.393474  1
  Ir  Ir23  1  0.826097  0.393474  0.393474  1
