# generated using pymatgen
data_CsPaI6
_symmetry_space_group_name_H-M   'P 1'
_cell_length_a   12.26828700
_cell_length_b   8.60592628
_cell_length_c   8.62286938
_cell_angle_alpha   90.00903448
_cell_angle_beta   90.00000000
_cell_angle_gamma   90.00000000
_symmetry_Int_Tables_number   1
_chemical_formula_structural   CsPaI6
_chemical_formula_sum   'Cs2 Pa2 I12'
_cell_volume   910.40230960
_cell_formula_units_Z   2
loop_
 _symmetry_equiv_pos_site_id
 _symmetry_equiv_pos_as_xyz
  1  'x, y, z'
loop_
 _atom_site_type_symbol
 _atom_site_label
 _atom_site_symmetry_multiplicity
 _atom_site_fract_x
 _atom_site_fract_y
 _atom_site_fract_z
 _atom_site_occupancy
  Cs  Cs0  1  0.734481  0.253254  0.273592  1
  Cs  Cs1  1  0.234481  0.746746  0.726408  1
  Pa  Pa2  1  0.992369  0.248639  0.753040  1
  Pa  Pa3  1  0.492369  0.751361  0.246960  1
  I  I4  1  0.489176  0.992560  0.491955  1
  I  I5  1  0.751256  0.247895  0.764618  1
  I  I6  1  0.999362  0.007288  0.994849  1
  I  I7  1  0.996347  0.492044  0.993308  1
  I  I8  1  0.499362  0.992712  0.005151  1
  I  I9  1  0.732898  0.749938  0.254514  1
  I  I10  1  0.251256  0.752105  0.235382  1
  I  I11  1  0.488564  0.510242  0.492570  1
  I  I12  1  0.989175  0.007440  0.508045  1
  I  I13  1  0.988564  0.489758  0.507430  1
  I  I14  1  0.232898  0.250062  0.745486  1
  I  I15  1  0.496347  0.507956  0.006692  1
