# generated using pymatgen
data_CeZnGa2Ag
_symmetry_space_group_name_H-M   'P 1'
_cell_length_a   4.30756224
_cell_length_b   4.30756350
_cell_length_c   6.20209091
_cell_angle_alpha   69.67975665
_cell_angle_beta   69.67974950
_cell_angle_gamma   89.99999909
_symmetry_Int_Tables_number   1
_chemical_formula_structural   CeZnGa2Ag
_chemical_formula_sum   'Ce1 Zn1 Ga2 Ag1'
_cell_volume   100.24627413
_cell_formula_units_Z   1
loop_
 _symmetry_equiv_pos_site_id
 _symmetry_equiv_pos_as_xyz
  1  'x, y, z'
loop_
 _atom_site_type_symbol
 _atom_site_label
 _atom_site_symmetry_multiplicity
 _atom_site_fract_x
 _atom_site_fract_y
 _atom_site_fract_z
 _atom_site_occupancy
  Ce  Ce0  1  0.000000  0.000000  0.000000  1
  Zn  Zn1  1  0.750000  0.250000  0.500000  1
  Ga  Ga2  1  0.386245  0.386245  0.227511  1
  Ga  Ga3  1  0.613755  0.613755  0.772489  1
  Ag  Ag4  1  0.250000  0.750000  0.500000  1
