# generated using pymatgen
data_Cs3RbRu2F12
_symmetry_space_group_name_H-M   'P 1'
_cell_length_a   6.40891600
_cell_length_b   9.28331100
_cell_length_c   6.40891600
_cell_angle_alpha   90.00000000
_cell_angle_beta   90.00000000
_cell_angle_gamma   90.00000000
_symmetry_Int_Tables_number   1
_chemical_formula_structural   Cs3RbRu2F12
_chemical_formula_sum   'Cs3 Rb1 Ru2 F12'
_cell_volume   381.30461255
_cell_formula_units_Z   1
loop_
 _symmetry_equiv_pos_site_id
 _symmetry_equiv_pos_as_xyz
  1  'x, y, z'
loop_
 _atom_site_type_symbol
 _atom_site_label
 _atom_site_symmetry_multiplicity
 _atom_site_fract_x
 _atom_site_fract_y
 _atom_site_fract_z
 _atom_site_occupancy
  Cs  Cs0  1  0.000000  0.750000  0.500000  1
  Cs  Cs1  1  0.500000  0.750000  0.000000  1
  Cs  Cs2  1  0.000000  0.250000  0.500000  1
  Rb  Rb3  1  0.500000  0.250000  0.000000  1
  Ru  Ru4  1  0.000000  0.002350  0.000000  1
  Ru  Ru5  1  0.500000  0.497650  0.500000  1
  F  F6  1  0.000000  0.215420  0.000000  1
  F  F7  1  0.500000  0.711193  0.500000  1
  F  F8  1  0.290640  0.497465  0.279661  1
  F  F9  1  0.779661  0.002535  0.790640  1
  F  F10  1  0.290640  0.497465  0.720339  1
  F  F11  1  0.779661  0.002535  0.209360  1
  F  F12  1  0.000000  0.788807  0.000000  1
  F  F13  1  0.500000  0.284580  0.500000  1
  F  F14  1  0.709360  0.497465  0.720339  1
  F  F15  1  0.220339  0.002535  0.209360  1
  F  F16  1  0.709360  0.497465  0.279661  1
  F  F17  1  0.220339  0.002535  0.790640  1
