# generated using pymatgen
data_Tb6EuPdI12
_symmetry_space_group_name_H-M   'P 1'
_cell_length_a   9.83234970
_cell_length_b   9.83234930
_cell_length_c   9.83234904
_cell_angle_alpha   106.36412222
_cell_angle_beta   106.36411778
_cell_angle_gamma   106.36411272
_symmetry_Int_Tables_number   1
_chemical_formula_structural   Tb6EuPdI12
_chemical_formula_sum   'Tb6 Eu1 Pd1 I12'
_cell_volume   804.95853451
_cell_formula_units_Z   1
loop_
 _symmetry_equiv_pos_site_id
 _symmetry_equiv_pos_as_xyz
  1  'x, y, z'
loop_
 _atom_site_type_symbol
 _atom_site_label
 _atom_site_symmetry_multiplicity
 _atom_site_fract_x
 _atom_site_fract_y
 _atom_site_fract_z
 _atom_site_occupancy
  Tb  Tb0  1  0.902975  0.699512  0.976164  1
  Tb  Tb1  1  0.976164  0.902975  0.699512  1
  Tb  Tb2  1  0.699512  0.976164  0.902975  1
  Tb  Tb3  1  0.097025  0.300488  0.023836  1
  Tb  Tb4  1  0.023836  0.097025  0.300488  1
  Tb  Tb5  1  0.300488  0.023836  0.097025  1
  Eu  Eu6  1  0.500000  0.500000  0.500000  1
  Pd  Pd7  1  0.000000  0.000000  0.000000  1
  I  I8  1  0.626263  0.857671  0.546752  1
  I  I9  1  0.546752  0.626263  0.857671  1
  I  I10  1  0.857671  0.546752  0.626263  1
  I  I11  1  0.373737  0.142329  0.453248  1
  I  I12  1  0.453248  0.373737  0.142329  1
  I  I13  1  0.142329  0.453248  0.373737  1
  I  I14  1  0.676348  0.073390  0.222534  1
  I  I15  1  0.222534  0.676348  0.073390  1
  I  I16  1  0.073390  0.222534  0.676348  1
  I  I17  1  0.323652  0.926610  0.777466  1
  I  I18  1  0.777466  0.323652  0.926610  1
  I  I19  1  0.926610  0.777466  0.323652  1
