# generated using pymatgen
data_PuAl6Cu7
_symmetry_space_group_name_H-M   'P 1'
_cell_length_a   8.35400163
_cell_length_b   8.35400049
_cell_length_c   8.35400075
_cell_angle_alpha   122.13569945
_cell_angle_beta   118.12625846
_cell_angle_gamma   89.80849374
_symmetry_Int_Tables_number   1
_chemical_formula_structural   PuAl6Cu7
_chemical_formula_sum   'Pu2 Al12 Cu14'
_cell_volume   410.80642634
_cell_formula_units_Z   2
loop_
 _symmetry_equiv_pos_site_id
 _symmetry_equiv_pos_as_xyz
  1  'x, y, z'
loop_
 _atom_site_type_symbol
 _atom_site_label
 _atom_site_symmetry_multiplicity
 _atom_site_fract_x
 _atom_site_fract_y
 _atom_site_fract_z
 _atom_site_occupancy
  Pu  Pu0  1  0.250000  0.750000  0.500000  1
  Pu  Pu1  1  0.750000  0.250000  0.500000  1
  Al  Al2  1  0.555146  0.545099  0.359508  1
  Al  Al3  1  0.444854  0.454901  0.640492  1
  Al  Al4  1  0.185591  0.195638  0.640492  1
  Al  Al5  1  0.314409  0.954901  0.010046  1
  Al  Al6  1  0.814409  0.804362  0.359508  1
  Al  Al7  1  0.685591  0.045099  0.989954  1
  Al  Al8  1  0.944854  0.304362  0.989954  1
  Al  Al9  1  0.055146  0.695638  0.010046  1
  Al  Al10  1  0.050545  0.313801  0.364346  1
  Al  Al11  1  0.949455  0.686199  0.635654  1
  Al  Al12  1  0.550545  0.186199  0.736744  1
  Al  Al13  1  0.449455  0.813801  0.263256  1
  Cu  Cu14  1  0.283501  0.298875  0.231907  1
  Cu  Cu15  1  0.716499  0.701125  0.768093  1
  Cu  Cu16  1  0.066968  0.051593  0.768093  1
  Cu  Cu17  1  0.433032  0.201125  0.984625  1
  Cu  Cu18  1  0.933032  0.948407  0.231907  1
  Cu  Cu19  1  0.566968  0.798875  0.015375  1
  Cu  Cu20  1  0.216499  0.448407  0.015375  1
  Cu  Cu21  1  0.783501  0.551593  0.984625  1
  Cu  Cu22  1  0.000000  0.000000  0.000000  1
  Cu  Cu23  1  0.500000  0.500000  0.000000  1
  Cu  Cu24  1  0.284880  0.066766  0.351647  1
  Cu  Cu25  1  0.715120  0.933234  0.648353  1
  Cu  Cu26  1  0.784880  0.433234  0.218114  1
  Cu  Cu27  1  0.215120  0.566766  0.781886  1
