# generated using pymatgen
data_Ti10Sn5Sb2
_symmetry_space_group_name_H-M   'P 1'
_cell_length_a   5.59152214
_cell_length_b   8.24328277
_cell_length_c   8.22765273
_cell_angle_alpha   120.06287654
_cell_angle_beta   89.90349433
_cell_angle_gamma   90.19263639
_symmetry_Int_Tables_number   1
_chemical_formula_structural   Ti10Sn5Sb2
_chemical_formula_sum   'Ti10 Sn5 Sb2'
_cell_volume   328.21533227
_cell_formula_units_Z   1
loop_
 _symmetry_equiv_pos_site_id
 _symmetry_equiv_pos_as_xyz
  1  'x, y, z'
loop_
 _atom_site_type_symbol
 _atom_site_label
 _atom_site_symmetry_multiplicity
 _atom_site_fract_x
 _atom_site_fract_y
 _atom_site_fract_z
 _atom_site_occupancy
  Ti  Ti0  1  0.500089  0.334893  0.668336  1
  Ti  Ti1  1  0.500089  0.666557  0.331664  1
  Ti  Ti2  1  0.000618  0.666518  0.332544  1
  Ti  Ti3  1  0.000618  0.333974  0.667456  1
  Ti  Ti4  1  0.773115  0.268620  0.000000  1
  Ti  Ti5  1  0.773181  0.733109  0.734052  1
  Ti  Ti6  1  0.773181  0.999057  0.265948  1
  Ti  Ti7  1  0.228870  0.730848  0.000000  1
  Ti  Ti8  1  0.225626  0.267229  0.267393  1
  Ti  Ti9  1  0.225626  0.999836  0.732607  1
  Sn  Sn10  1  0.744149  0.388859  0.388978  1
  Sn  Sn11  1  0.744149  0.999880  0.611022  1
  Sn  Sn12  1  0.255151  0.386527  0.000000  1
  Sn  Sn13  1  0.254986  0.611449  0.610622  1
  Sn  Sn14  1  0.254986  0.000827  0.389378  1
  Sb  Sb15  1  0.746902  0.610796  0.000000  1
  Sb  Sb16  1  0.498663  0.001023  0.000000  1
