# generated using pymatgen
data_Th4Cd2OsPd3
_symmetry_space_group_name_H-M   'P 1'
_cell_length_a   7.93504194
_cell_length_b   7.93504194
_cell_length_c   3.81874600
_cell_angle_alpha   90.00000000
_cell_angle_beta   90.00000000
_cell_angle_gamma   89.94411254
_symmetry_Int_Tables_number   1
_chemical_formula_structural   Th4Cd2OsPd3
_chemical_formula_sum   'Th4 Cd2 Os1 Pd3'
_cell_volume   240.44680992
_cell_formula_units_Z   1
loop_
 _symmetry_equiv_pos_site_id
 _symmetry_equiv_pos_as_xyz
  1  'x, y, z'
loop_
 _atom_site_type_symbol
 _atom_site_label
 _atom_site_symmetry_multiplicity
 _atom_site_fract_x
 _atom_site_fract_y
 _atom_site_fract_z
 _atom_site_occupancy
  Th  Th0  1  0.323049  0.844622  0.500000  1
  Th  Th1  1  0.832017  0.667983  0.500000  1
  Th  Th2  1  0.184450  0.315550  0.500000  1
  Th  Th3  1  0.655378  0.176951  0.500000  1
  Cd  Cd4  1  0.991754  0.001253  0.000000  1
  Cd  Cd5  1  0.498747  0.508246  0.000000  1
  Os  Os6  1  0.375448  0.124552  0.000000  1
  Pd  Pd7  1  0.871701  0.369637  0.000000  1
  Pd  Pd8  1  0.130363  0.628299  0.000000  1
  Pd  Pd9  1  0.637094  0.862906  0.000000  1
