# generated using pymatgen
data_Er2Al8ReSiPd2
_symmetry_space_group_name_H-M   'P 1'
_cell_length_a   7.58572985
_cell_length_b   7.58573064
_cell_length_c   9.37069100
_cell_angle_alpha   90.00000000
_cell_angle_beta   90.00000000
_cell_angle_gamma   119.15682987
_symmetry_Int_Tables_number   1
_chemical_formula_structural   Er2Al8ReSiPd2
_chemical_formula_sum   'Er4 Al16 Re2 Si2 Pd4'
_cell_volume   470.89556703
_cell_formula_units_Z   2
loop_
 _symmetry_equiv_pos_site_id
 _symmetry_equiv_pos_as_xyz
  1  'x, y, z'
loop_
 _atom_site_type_symbol
 _atom_site_label
 _atom_site_symmetry_multiplicity
 _atom_site_fract_x
 _atom_site_fract_y
 _atom_site_fract_z
 _atom_site_occupancy
  Er  Er0  1  0.994414  0.680024  0.250000  1
  Er  Er1  1  0.005586  0.319976  0.750000  1
  Er  Er2  1  0.680024  0.994414  0.250000  1
  Er  Er3  1  0.319976  0.005586  0.750000  1
  Al  Al4  1  0.001495  0.334774  0.079094  1
  Al  Al5  1  0.998505  0.665226  0.920906  1
  Al  Al6  1  0.998505  0.665226  0.579094  1
  Al  Al7  1  0.334774  0.001495  0.420906  1
  Al  Al8  1  0.001495  0.334774  0.420906  1
  Al  Al9  1  0.665226  0.998505  0.579094  1
  Al  Al10  1  0.665226  0.998505  0.920906  1
  Al  Al11  1  0.334774  0.001495  0.079094  1
  Al  Al12  1  0.331610  0.331610  0.556380  1
  Al  Al13  1  0.668390  0.668391  0.443620  1
  Al  Al14  1  0.668390  0.668391  0.056380  1
  Al  Al15  1  0.331610  0.331610  0.943620  1
  Al  Al16  1  0.339635  0.549937  0.250000  1
  Al  Al17  1  0.660365  0.450063  0.750000  1
  Al  Al18  1  0.549937  0.339635  0.250000  1
  Al  Al19  1  0.450063  0.660365  0.750000  1
  Re  Re20  1  0.000000  0.000000  0.000000  1
  Re  Re21  1  0.000000  0.000000  0.500000  1
  Si  Si22  1  0.126508  0.126508  0.250000  1
  Si  Si23  1  0.873492  0.873492  0.750000  1
  Pd  Pd24  1  0.672608  0.327392  0.000000  1
  Pd  Pd25  1  0.327392  0.672608  0.000000  1
  Pd  Pd26  1  0.327392  0.672608  0.500000  1
  Pd  Pd27  1  0.672608  0.327392  0.500000  1
