# generated using pymatgen
data_NaTmNiPt3
_symmetry_space_group_name_H-M   'P 1'
_cell_length_a   5.15925738
_cell_length_b   5.15925702
_cell_length_c   5.15925603
_cell_angle_alpha   63.07036722
_cell_angle_beta   63.07036931
_cell_angle_gamma   63.07036615
_symmetry_Int_Tables_number   1
_chemical_formula_structural   NaTmNiPt3
_chemical_formula_sum   'Na1 Tm1 Ni1 Pt3'
_cell_volume   103.72158638
_cell_formula_units_Z   1
loop_
 _symmetry_equiv_pos_site_id
 _symmetry_equiv_pos_as_xyz
  1  'x, y, z'
loop_
 _atom_site_type_symbol
 _atom_site_label
 _atom_site_symmetry_multiplicity
 _atom_site_fract_x
 _atom_site_fract_y
 _atom_site_fract_z
 _atom_site_occupancy
  Na  Na0  1  0.998767  0.998767  0.998767  1
  Tm  Tm1  1  0.250002  0.250002  0.250002  1
  Ni  Ni2  1  0.625325  0.625325  0.625325  1
  Pt  Pt3  1  0.625748  0.625748  0.124412  1
  Pt  Pt4  1  0.625748  0.124412  0.625748  1
  Pt  Pt5  1  0.124412  0.625748  0.625748  1
