# generated using pymatgen
data_TiNb2(Mo2W)3
_symmetry_space_group_name_H-M   'P 1'
_cell_length_a   4.49664200
_cell_length_b   6.39479400
_cell_length_c   13.63607400
_cell_angle_alpha   90.00000000
_cell_angle_beta   89.99992396
_cell_angle_gamma   90.00002170
_symmetry_Int_Tables_number   1
_chemical_formula_structural   TiNb2(Mo2W)3
_chemical_formula_sum   'Ti2 Nb4 Mo12 W6'
_cell_volume   392.10666168
_cell_formula_units_Z   2
loop_
 _symmetry_equiv_pos_site_id
 _symmetry_equiv_pos_as_xyz
  1  'x, y, z'
loop_
 _atom_site_type_symbol
 _atom_site_label
 _atom_site_symmetry_multiplicity
 _atom_site_fract_x
 _atom_site_fract_y
 _atom_site_fract_z
 _atom_site_occupancy
  Ti  Ti0  1  0.000116  0.500000  0.667278  1
  Ti  Ti1  1  0.500116  0.000000  0.832750  1
  Nb  Nb2  1  0.999999  0.500000  0.998720  1
  Nb  Nb3  1  0.499887  0.000000  0.166173  1
  Nb  Nb4  1  0.999887  0.500000  0.333796  1
  Nb  Nb5  1  0.499999  0.000000  0.501278  1
  Mo  Mo6  1  0.499998  0.249465  0.999518  1
  Mo  Mo7  1  0.499998  0.750534  0.999518  1
  Mo  Mo8  1  0.999887  0.250764  0.166518  1
  Mo  Mo9  1  0.999888  0.749236  0.166518  1
  Mo  Mo10  1  0.499887  0.249234  0.333449  1
  Mo  Mo11  1  0.499887  0.750766  0.333449  1
  Mo  Mo12  1  0.999999  0.250497  0.500453  1
  Mo  Mo13  1  0.999999  0.749503  0.500453  1
  Mo  Mo14  1  0.500116  0.251463  0.667203  1
  Mo  Mo15  1  0.500116  0.748537  0.667203  1
  Mo  Mo16  1  0.000114  0.248420  0.832858  1
  Mo  Mo17  1  0.000114  0.751580  0.832858  1
  W  W18  1  0.999996  0.000000  0.997221  1
  W  W19  1  0.499887  0.500000  0.165890  1
  W  W20  1  0.999888  0.000000  0.334088  1
  W  W21  1  0.499995  0.500000  0.502776  1
  W  W22  1  0.000112  0.000000  0.668804  1
  W  W23  1  0.500110  0.500000  0.831224  1
