# generated using pymatgen
data_Cs3SbTe3
_symmetry_space_group_name_H-M   'P 1'
_cell_length_a   11.62167120
_cell_length_b   11.62167200
_cell_length_c   10.76334602
_cell_angle_alpha   81.33082129
_cell_angle_beta   81.33082227
_cell_angle_gamma   78.10519293
_symmetry_Int_Tables_number   1
_chemical_formula_structural   Cs3SbTe3
_chemical_formula_sum   'Cs12 Sb4 Te12'
_cell_volume   1395.46469393
_cell_formula_units_Z   4
loop_
 _symmetry_equiv_pos_site_id
 _symmetry_equiv_pos_as_xyz
  1  'x, y, z'
loop_
 _atom_site_type_symbol
 _atom_site_label
 _atom_site_symmetry_multiplicity
 _atom_site_fract_x
 _atom_site_fract_y
 _atom_site_fract_z
 _atom_site_occupancy
  Cs  Cs0  1  0.603381  0.396619  0.250000  1
  Cs  Cs1  1  0.396619  0.603381  0.750000  1
  Cs  Cs2  1  0.916993  0.083007  0.250000  1
  Cs  Cs3  1  0.083007  0.916993  0.750000  1
  Cs  Cs4  1  0.790113  0.400468  0.854364  1
  Cs  Cs5  1  0.599532  0.209887  0.645636  1
  Cs  Cs6  1  0.209887  0.599532  0.145636  1
  Cs  Cs7  1  0.400468  0.790113  0.354364  1
  Cs  Cs8  1  0.750841  0.797980  0.683590  1
  Cs  Cs9  1  0.202020  0.249159  0.816410  1
  Cs  Cs10  1  0.249159  0.202020  0.316410  1
  Cs  Cs11  1  0.797980  0.750841  0.183590  1
  Sb  Sb12  1  0.919471  0.436209  0.424267  1
  Sb  Sb13  1  0.563791  0.080529  0.075733  1
  Sb  Sb14  1  0.080529  0.563791  0.575733  1
  Sb  Sb15  1  0.436209  0.919471  0.924267  1
  Te  Te16  1  0.059987  0.587851  0.838941  1
  Te  Te17  1  0.412149  0.940013  0.661059  1
  Te  Te18  1  0.940013  0.412149  0.161059  1
  Te  Te19  1  0.587851  0.059987  0.338941  1
  Te  Te20  1  0.054859  0.789282  0.435489  1
  Te  Te21  1  0.210718  0.945141  0.064511  1
  Te  Te22  1  0.945141  0.210718  0.564511  1
  Te  Te23  1  0.789282  0.054859  0.935489  1
  Te  Te24  1  0.683562  0.542802  0.511835  1
  Te  Te25  1  0.457198  0.316438  0.988165  1
  Te  Te26  1  0.316438  0.457198  0.488165  1
  Te  Te27  1  0.542802  0.683562  0.011835  1
