# generated using pymatgen
data_SmTiVO5
_symmetry_space_group_name_H-M   'P 1'
_cell_length_a   7.60097300
_cell_length_b   8.76527500
_cell_length_c   5.88747900
_cell_angle_alpha   90.00000000
_cell_angle_beta   90.00000000
_cell_angle_gamma   90.00000000
_symmetry_Int_Tables_number   1
_chemical_formula_structural   SmTiVO5
_chemical_formula_sum   'Sm4 Ti4 V4 O20'
_cell_volume   392.25104296
_cell_formula_units_Z   4
loop_
 _symmetry_equiv_pos_site_id
 _symmetry_equiv_pos_as_xyz
  1  'x, y, z'
loop_
 _atom_site_type_symbol
 _atom_site_label
 _atom_site_symmetry_multiplicity
 _atom_site_fract_x
 _atom_site_fract_y
 _atom_site_fract_z
 _atom_site_occupancy
  Sm  Sm0  1  0.139640  0.170327  0.000000  1
  Sm  Sm1  1  0.639639  0.329673  0.000000  1
  Sm  Sm2  1  0.360360  0.670327  0.000000  1
  Sm  Sm3  1  0.860360  0.829673  0.000000  1
  Ti  Ti4  1  0.882590  0.144124  0.499999  1
  Ti  Ti5  1  0.382590  0.355877  0.499999  1
  Ti  Ti6  1  0.617409  0.644124  0.499999  1
  Ti  Ti7  1  0.117410  0.855877  0.499999  1
  V  V8  1  0.500000  0.000000  0.246776  1
  V  V9  1  0.000000  0.500000  0.246776  1
  V  V10  1  0.500000  0.000000  0.753223  1
  V  V11  1  0.000000  0.500000  0.753223  1
  O  O12  1  0.667865  0.057734  0.000000  1
  O  O13  1  0.167865  0.442266  0.000000  1
  O  O14  1  0.832136  0.557734  0.000000  1
  O  O15  1  0.332136  0.942265  0.000000  1
  O  O16  1  0.394839  0.215156  0.250739  1
  O  O17  1  0.894839  0.284844  0.250739  1
  O  O18  1  0.105160  0.715156  0.250739  1
  O  O19  1  0.605160  0.784844  0.250739  1
  O  O20  1  0.000000  0.000000  0.282682  1
  O  O21  1  0.500000  0.500000  0.282682  1
  O  O22  1  0.661864  0.074896  0.499999  1
  O  O23  1  0.161863  0.425104  0.499999  1
  O  O24  1  0.838137  0.574896  0.499999  1
  O  O25  1  0.338137  0.925104  0.499999  1
  O  O26  1  0.000000  0.000000  0.717317  1
  O  O27  1  0.500000  0.500000  0.717317  1
  O  O28  1  0.394839  0.215156  0.749260  1
  O  O29  1  0.894839  0.284844  0.749260  1
  O  O30  1  0.105160  0.715156  0.749260  1
  O  O31  1  0.605160  0.784844  0.749260  1
