# generated using pymatgen
data_Dy16MgCo4Au3
_symmetry_space_group_name_H-M   'P 1'
_cell_length_a   9.38400652
_cell_length_b   9.42769075
_cell_length_c   9.42768900
_cell_angle_alpha   60.00000263
_cell_angle_beta   59.84589071
_cell_angle_gamma   59.84589126
_symmetry_Int_Tables_number   1
_chemical_formula_structural   Dy16MgCo4Au3
_chemical_formula_sum   'Dy16 Mg1 Co4 Au3'
_cell_volume   588.39411896
_cell_formula_units_Z   1
loop_
 _symmetry_equiv_pos_site_id
 _symmetry_equiv_pos_as_xyz
  1  'x, y, z'
loop_
 _atom_site_type_symbol
 _atom_site_label
 _atom_site_symmetry_multiplicity
 _atom_site_fract_x
 _atom_site_fract_y
 _atom_site_fract_z
 _atom_site_occupancy
  Dy  Dy0  1  0.598268  0.596054  0.596054  1
  Dy  Dy1  1  0.598268  0.596054  0.209624  1
  Dy  Dy2  1  0.598268  0.209624  0.596054  1
  Dy  Dy3  1  0.183239  0.605587  0.605587  1
  Dy  Dy4  1  0.057214  0.440731  0.440731  1
  Dy  Dy5  1  0.436444  0.063882  0.063882  1
  Dy  Dy6  1  0.436444  0.063882  0.435793  1
  Dy  Dy7  1  0.057214  0.440731  0.061324  1
  Dy  Dy8  1  0.436444  0.435793  0.063882  1
  Dy  Dy9  1  0.057214  0.061324  0.440731  1
  Dy  Dy10  1  0.185987  0.812197  0.812197  1
  Dy  Dy11  1  0.813268  0.186209  0.186209  1
  Dy  Dy12  1  0.813268  0.186209  0.814316  1
  Dy  Dy13  1  0.185987  0.812197  0.189618  1
  Dy  Dy14  1  0.813268  0.814316  0.186209  1
  Dy  Dy15  1  0.185987  0.189618  0.812197  1
  Mg  Mg16  1  0.559977  0.813341  0.813341  1
  Co  Co17  1  0.384337  0.394605  0.394605  1
  Co  Co18  1  0.384337  0.394605  0.826454  1
  Co  Co19  1  0.384337  0.826454  0.394605  1
  Co  Co20  1  0.825393  0.391536  0.391536  1
  Au  Au21  1  0.834947  0.840944  0.840944  1
  Au  Au22  1  0.834947  0.840944  0.483165  1
  Au  Au23  1  0.834947  0.483165  0.840944  1
