# generated using pymatgen
data_YTmCo9Mo3As7
_symmetry_space_group_name_H-M   'P 1'
_cell_length_a   3.83140800
_cell_length_b   9.36659989
_cell_length_c   9.36660000
_cell_angle_alpha   119.99999332
_cell_angle_beta   90.00000000
_cell_angle_gamma   90.00000000
_symmetry_Int_Tables_number   1
_chemical_formula_structural   YTmCo9Mo3As7
_chemical_formula_sum   'Y1 Tm1 Co9 Mo3 As7'
_cell_volume   291.10723944
_cell_formula_units_Z   1
loop_
 _symmetry_equiv_pos_site_id
 _symmetry_equiv_pos_as_xyz
  1  'x, y, z'
loop_
 _atom_site_type_symbol
 _atom_site_label
 _atom_site_symmetry_multiplicity
 _atom_site_fract_x
 _atom_site_fract_y
 _atom_site_fract_z
 _atom_site_occupancy
  Y  Y0  1  0.500000  0.333333  0.666667  1
  Tm  Tm1  1  0.000000  0.666667  0.333333  1
  Co  Co2  1  0.000000  0.570124  0.940922  1
  Co  Co3  1  0.000000  0.370798  0.429876  1
  Co  Co4  1  0.000000  0.059078  0.629202  1
  Co  Co5  1  0.000000  0.875997  0.158770  1
  Co  Co6  1  0.000000  0.282773  0.124003  1
  Co  Co7  1  0.000000  0.841230  0.717227  1
  Co  Co8  1  0.500000  0.948435  0.382981  1
  Co  Co9  1  0.500000  0.434546  0.051565  1
  Co  Co10  1  0.500000  0.617019  0.565454  1
  Mo  Mo11  1  0.500000  0.780737  0.902546  1
  Mo  Mo12  1  0.500000  0.121809  0.219263  1
  Mo  Mo13  1  0.500000  0.097454  0.878191  1
  As  As14  1  0.000000  0.000000  0.000000  1
  As  As15  1  0.500000  0.707499  0.121310  1
  As  As16  1  0.500000  0.413813  0.292501  1
  As  As17  1  0.500000  0.878690  0.586187  1
  As  As18  1  0.000000  0.585478  0.699456  1
  As  As19  1  0.000000  0.113979  0.414522  1
  As  As20  1  0.000000  0.300544  0.886021  1
