# generated using pymatgen
data_Mn9Nb12Al2CrN4
_symmetry_space_group_name_H-M   'P 1'
_cell_length_a   8.14288353
_cell_length_b   8.07654037
_cell_length_c   8.13342800
_cell_angle_alpha   90.00000000
_cell_angle_beta   60.03839670
_cell_angle_gamma   120.31592074
_symmetry_Int_Tables_number   1
_chemical_formula_structural   Mn9Nb12Al2CrN4
_chemical_formula_sum   'Mn9 Nb12 Al2 Cr1 N4'
_cell_volume   376.63966391
_cell_formula_units_Z   1
loop_
 _symmetry_equiv_pos_site_id
 _symmetry_equiv_pos_as_xyz
  1  'x, y, z'
loop_
 _atom_site_type_symbol
 _atom_site_label
 _atom_site_symmetry_multiplicity
 _atom_site_fract_x
 _atom_site_fract_y
 _atom_site_fract_z
 _atom_site_occupancy
  Mn  Mn0  1  0.103474  0.891530  0.198264  1
  Mn  Mn1  1  0.106662  0.216184  0.196670  1
  Mn  Mn2  1  0.415172  0.208965  0.888523  1
  Mn  Mn3  1  0.415172  0.208965  0.196305  1
  Mn  Mn4  1  0.896526  0.108470  0.801736  1
  Mn  Mn5  1  0.893338  0.783816  0.803330  1
  Mn  Mn6  1  0.584828  0.791035  0.111477  1
  Mn  Mn7  1  0.584828  0.791035  0.803695  1
  Mn  Mn8  1  0.500000  0.000000  0.000000  1
  Nb  Nb9  1  0.643088  0.822041  0.428456  1
  Nb  Nb10  1  0.862525  0.429225  0.818738  1
  Nb  Nb11  1  0.250510  0.821896  0.821060  1
  Nb  Nb12  1  0.247840  0.428789  0.432734  1
  Nb  Nb13  1  0.247840  0.428789  0.819428  1
  Nb  Nb14  1  0.250510  0.821896  0.428430  1
  Nb  Nb15  1  0.356912  0.177959  0.571544  1
  Nb  Nb16  1  0.137475  0.570775  0.181262  1
  Nb  Nb17  1  0.749490  0.178104  0.178940  1
  Nb  Nb18  1  0.752160  0.571211  0.567266  1
  Nb  Nb19  1  0.752160  0.571211  0.180572  1
  Nb  Nb20  1  0.749490  0.178104  0.571570  1
  Al  Al21  1  0.000000  0.000000  0.500000  1
  Al  Al22  1  0.000000  0.000000  0.000000  1
  Cr  Cr23  1  0.500000  0.500000  0.000000  1
  N  N24  1  0.500000  0.000000  0.500000  1
  N  N25  1  0.500000  0.500000  0.500000  1
  N  N26  1  0.000000  0.500000  0.000000  1
  N  N27  1  0.000000  0.500000  0.500000  1
