# generated using pymatgen
data_Pr4Ga4HgRu3
_symmetry_space_group_name_H-M   'P 1'
_cell_length_a   4.67838700
_cell_length_b   7.48982538
_cell_length_c   7.41719929
_cell_angle_alpha   89.57073139
_cell_angle_beta   90.00000000
_cell_angle_gamma   90.00000000
_symmetry_Int_Tables_number   1
_chemical_formula_structural   Pr4Ga4HgRu3
_chemical_formula_sum   'Pr4 Ga4 Hg1 Ru3'
_cell_volume   259.89360646
_cell_formula_units_Z   1
loop_
 _symmetry_equiv_pos_site_id
 _symmetry_equiv_pos_as_xyz
  1  'x, y, z'
loop_
 _atom_site_type_symbol
 _atom_site_label
 _atom_site_symmetry_multiplicity
 _atom_site_fract_x
 _atom_site_fract_y
 _atom_site_fract_z
 _atom_site_occupancy
  Pr  Pr0  1  0.250000  0.018699  0.684772  1
  Pr  Pr1  1  0.250000  0.534404  0.801520  1
  Pr  Pr2  1  0.750000  0.961937  0.313879  1
  Pr  Pr3  1  0.750000  0.494366  0.199383  1
  Ga  Ga4  1  0.250000  0.180375  0.141536  1
  Ga  Ga5  1  0.250000  0.693762  0.400618  1
  Ga  Ga6  1  0.750000  0.800492  0.893520  1
  Ga  Ga7  1  0.750000  0.304939  0.572119  1
  Hg  Hg8  1  0.750000  0.177845  0.924443  1
  Ru  Ru9  1  0.250000  0.347468  0.438950  1
  Ru  Ru10  1  0.250000  0.834900  0.064674  1
  Ru  Ru11  1  0.750000  0.650816  0.564586  1
