# generated using pymatgen
data_Pr2NdBi(MoO4)6
_symmetry_space_group_name_H-M   'P 1'
_cell_length_a   7.65644699
_cell_length_b   7.65644596
_cell_length_c   10.98612406
_cell_angle_alpha   89.96797235
_cell_angle_beta   89.96797120
_cell_angle_gamma   89.99825782
_symmetry_Int_Tables_number   1
_chemical_formula_structural   Pr2NdBi(MoO4)6
_chemical_formula_sum   'Pr2 Nd1 Bi1 Mo6 O24'
_cell_volume   644.01927374
_cell_formula_units_Z   1
loop_
 _symmetry_equiv_pos_site_id
 _symmetry_equiv_pos_as_xyz
  1  'x, y, z'
loop_
 _atom_site_type_symbol
 _atom_site_label
 _atom_site_symmetry_multiplicity
 _atom_site_fract_x
 _atom_site_fract_y
 _atom_site_fract_z
 _atom_site_occupancy
  Pr  Pr0  1  0.689700  0.810400  0.262143  1
  Pr  Pr1  1  0.310400  0.189700  0.262143  1
  Nd  Nd2  1  0.811985  0.311985  0.738126  1
  Bi  Bi3  1  0.194740  0.694740  0.738600  1
  Mo  Mo4  1  0.209083  0.709083  0.356465  1
  Mo  Mo5  1  0.791329  0.291329  0.356468  1
  Mo  Mo6  1  0.707319  0.791998  0.645743  1
  Mo  Mo7  1  0.291998  0.207319  0.645743  1
  Mo  Mo8  1  0.002104  0.998113  0.997712  1
  Mo  Mo9  1  0.498113  0.502104  0.997712  1
  O  O10  1  0.998268  0.226140  0.297582  1
  O  O11  1  0.001367  0.774161  0.298588  1
  O  O12  1  0.226503  0.999032  0.705039  1
  O  O13  1  0.499032  0.726503  0.705039  1
  O  O14  1  0.772780  0.999750  0.703005  1
  O  O15  1  0.499750  0.272780  0.703005  1
  O  O16  1  0.274161  0.501367  0.298588  1
  O  O17  1  0.726140  0.498268  0.297582  1
  O  O18  1  0.186063  0.042252  0.093269  1
  O  O19  1  0.816917  0.953048  0.092103  1
  O  O20  1  0.047760  0.811495  0.903356  1
  O  O21  1  0.311495  0.547760  0.903356  1
  O  O22  1  0.956858  0.184431  0.904309  1
  O  O23  1  0.684431  0.456858  0.904309  1
  O  O24  1  0.453048  0.316917  0.092103  1
  O  O25  1  0.542252  0.686063  0.093269  1
  O  O26  1  0.628703  0.128703  0.309811  1
  O  O27  1  0.372080  0.872080  0.310424  1
  O  O28  1  0.127509  0.368501  0.690104  1
  O  O29  1  0.868501  0.627509  0.690104  1
  O  O30  1  0.198180  0.698180  0.517906  1
  O  O31  1  0.802717  0.302717  0.518233  1
  O  O32  1  0.695566  0.803151  0.484032  1
  O  O33  1  0.303151  0.195566  0.484032  1
