# generated using pymatgen
data_Zr3TaV2(B2Ru5)2
_symmetry_space_group_name_H-M   'P 1'
_cell_length_a   9.35203900
_cell_length_b   9.35203969
_cell_length_c   3.05971900
_cell_angle_alpha   90.00000000
_cell_angle_beta   90.00000000
_cell_angle_gamma   90.11144209
_symmetry_Int_Tables_number   1
_chemical_formula_structural   Zr3TaV2(B2Ru5)2
_chemical_formula_sum   'Zr3 Ta1 V2 B4 Ru10'
_cell_volume   267.60447549
_cell_formula_units_Z   1
loop_
 _symmetry_equiv_pos_site_id
 _symmetry_equiv_pos_as_xyz
  1  'x, y, z'
loop_
 _atom_site_type_symbol
 _atom_site_label
 _atom_site_symmetry_multiplicity
 _atom_site_fract_x
 _atom_site_fract_y
 _atom_site_fract_z
 _atom_site_occupancy
  Zr  Zr0  1  0.823654  0.677026  0.000000  1
  Zr  Zr1  1  0.177026  0.323654  0.000000  1
  Zr  Zr2  1  0.323783  0.823783  0.000000  1
  Ta  Ta3  1  0.677486  0.177486  0.000000  1
  V  V4  1  0.499710  0.500116  0.000000  1
  V  V5  1  0.000116  0.999710  0.000000  1
  B  B6  1  0.623255  0.877403  0.000000  1
  B  B7  1  0.377403  0.123255  0.000000  1
  B  B8  1  0.122418  0.622418  0.000000  1
  B  B9  1  0.875708  0.375708  0.000000  1
  Ru  Ru10  1  0.569770  0.714222  0.500000  1
  Ru  Ru11  1  0.435407  0.285623  0.500000  1
  Ru  Ru12  1  0.068485  0.786141  0.500000  1
  Ru  Ru13  1  0.925431  0.211617  0.500000  1
  Ru  Ru14  1  0.286141  0.568485  0.500000  1
  Ru  Ru15  1  0.711617  0.425431  0.500000  1
  Ru  Ru16  1  0.214222  0.069770  0.500000  1
  Ru  Ru17  1  0.785623  0.935407  0.500000  1
  Ru  Ru18  1  0.504068  0.004068  0.500000  1
  Ru  Ru19  1  0.998677  0.498677  0.500000  1
