# generated using pymatgen
data_NdDy2Mn(Co4P3)2
_symmetry_space_group_name_H-M   'P 1'
_cell_length_a   3.71361900
_cell_length_b   10.58648800
_cell_length_c   12.27710200
_cell_angle_alpha   90.00000000
_cell_angle_beta   90.00000000
_cell_angle_gamma   90.00000000
_symmetry_Int_Tables_number   1
_chemical_formula_structural   NdDy2Mn(Co4P3)2
_chemical_formula_sum   'Nd2 Dy4 Mn2 Co16 P12'
_cell_volume   482.66423449
_cell_formula_units_Z   2
loop_
 _symmetry_equiv_pos_site_id
 _symmetry_equiv_pos_as_xyz
  1  'x, y, z'
loop_
 _atom_site_type_symbol
 _atom_site_label
 _atom_site_symmetry_multiplicity
 _atom_site_fract_x
 _atom_site_fract_y
 _atom_site_fract_z
 _atom_site_occupancy
  Nd  Nd0  1  0.000000  0.500000  0.522932  1
  Nd  Nd1  1  0.500000  0.000000  0.477068  1
  Dy  Dy2  1  0.500000  0.818131  0.203925  1
  Dy  Dy3  1  0.500000  0.181869  0.203925  1
  Dy  Dy4  1  0.000000  0.681869  0.796075  1
  Dy  Dy5  1  0.000000  0.318131  0.796075  1
  Mn  Mn6  1  0.500000  0.500000  0.156310  1
  Mn  Mn7  1  0.000000  0.000000  0.843690  1
  Co  Co8  1  0.500000  0.500000  0.706139  1
  Co  Co9  1  0.000000  0.000000  0.293861  1
  Co  Co10  1  0.000000  0.500000  0.986786  1
  Co  Co11  1  0.500000  0.000000  0.013214  1
  Co  Co12  1  0.500000  0.333033  0.994270  1
  Co  Co13  1  0.500000  0.666967  0.994270  1
  Co  Co14  1  0.000000  0.166967  0.005730  1
  Co  Co15  1  0.000000  0.833033  0.005730  1
  Co  Co16  1  0.500000  0.295913  0.429022  1
  Co  Co17  1  0.500000  0.704087  0.429022  1
  Co  Co18  1  0.000000  0.204087  0.570978  1
  Co  Co19  1  0.000000  0.795913  0.570978  1
  Co  Co20  1  0.500000  0.879857  0.712064  1
  Co  Co21  1  0.500000  0.120143  0.712064  1
  Co  Co22  1  0.000000  0.620143  0.287936  1
  Co  Co23  1  0.000000  0.379857  0.287936  1
  P  P24  1  0.500000  0.500000  0.884237  1
  P  P25  1  0.000000  0.000000  0.115763  1
  P  P26  1  0.500000  0.500000  0.340712  1
  P  P27  1  0.000000  0.000000  0.659288  1
  P  P28  1  0.500000  0.307950  0.617769  1
  P  P29  1  0.500000  0.692050  0.617769  1
  P  P30  1  0.000000  0.192050  0.382231  1
  P  P31  1  0.000000  0.807950  0.382231  1
  P  P32  1  0.500000  0.846833  0.893998  1
  P  P33  1  0.500000  0.153167  0.893998  1
  P  P34  1  0.000000  0.653167  0.106002  1
  P  P35  1  0.000000  0.346833  0.106002  1
