# generated using pymatgen
data_Tb3Pr5Sc12Si15Ag
_symmetry_space_group_name_H-M   'P 1'
_cell_length_a   7.23866589
_cell_length_b   7.47168694
_cell_length_c   14.27020293
_cell_angle_alpha   90.05765862
_cell_angle_beta   89.66557827
_cell_angle_gamma   90.26301742
_symmetry_Int_Tables_number   1
_chemical_formula_structural   Tb3Pr5Sc12Si15Ag
_chemical_formula_sum   'Tb3 Pr5 Sc12 Si15 Ag1'
_cell_volume   771.78292477
_cell_formula_units_Z   1
loop_
 _symmetry_equiv_pos_site_id
 _symmetry_equiv_pos_as_xyz
  1  'x, y, z'
loop_
 _atom_site_type_symbol
 _atom_site_label
 _atom_site_symmetry_multiplicity
 _atom_site_fract_x
 _atom_site_fract_y
 _atom_site_fract_z
 _atom_site_occupancy
  Tb  Tb0  1  0.008983  0.173108  0.396660  1
  Tb  Tb1  1  0.513077  0.323408  0.398051  1
  Tb  Tb2  1  0.487415  0.675913  0.901426  1
  Pr  Pr3  1  0.491780  0.674571  0.598920  1
  Pr  Pr4  1  0.989415  0.833450  0.596706  1
  Pr  Pr5  1  0.987838  0.828846  0.903224  1
  Pr  Pr6  1  0.511741  0.327576  0.096600  1
  Pr  Pr7  1  0.013448  0.172105  0.098027  1
  Sc  Sc8  1  0.343350  0.173028  0.627595  1
  Sc  Sc9  1  0.665914  0.824175  0.374020  1
  Sc  Sc10  1  0.664438  0.999503  0.752716  1
  Sc  Sc11  1  0.166715  0.675606  0.372162  1
  Sc  Sc12  1  0.829883  0.323863  0.876874  1
  Sc  Sc13  1  0.823220  0.325498  0.624798  1
  Sc  Sc14  1  0.837805  0.500606  0.252040  1
  Sc  Sc15  1  0.338594  0.998059  0.249661  1
  Sc  Sc16  1  0.328803  0.174589  0.876340  1
  Sc  Sc17  1  0.170736  0.675815  0.125831  1
  Sc  Sc18  1  0.670112  0.823792  0.125394  1
  Sc  Sc19  1  0.162490  0.498413  0.754418  1
  Si  Si20  1  0.289005  0.880132  0.752043  1
  Si  Si21  1  0.465568  0.621775  0.249742  1
  Si  Si22  1  0.036810  0.129555  0.749850  1
  Si  Si23  1  0.535399  0.379978  0.753708  1
  Si  Si24  1  0.964706  0.877654  0.250497  1
  Si  Si25  1  0.711176  0.121680  0.251362  1
  Si  Si26  1  0.848421  0.537764  0.039326  1
  Si  Si27  1  0.348631  0.958400  0.038862  1
  Si  Si28  1  0.155248  0.465567  0.960830  1
  Si  Si29  1  0.654094  0.041925  0.535284  1
  Si  Si30  1  0.341320  0.966513  0.458706  1
  Si  Si31  1  0.836468  0.534972  0.456123  1
  Si  Si32  1  0.787639  0.619109  0.753254  1
  Si  Si33  1  0.213387  0.377537  0.251813  1
  Si  Si34  1  0.649901  0.033105  0.959496  1
  Ag  Ag35  1  0.156470  0.452415  0.537644  1
