# generated using pymatgen
data_PrSm6FeI12
_symmetry_space_group_name_H-M   'P 1'
_cell_length_a   9.94866291
_cell_length_b   9.89153274
_cell_length_c   9.95081966
_cell_angle_alpha   106.73074938
_cell_angle_beta   106.86235560
_cell_angle_gamma   106.82121408
_symmetry_Int_Tables_number   1
_chemical_formula_structural   PrSm6FeI12
_chemical_formula_sum   'Pr1 Sm6 Fe1 I12'
_cell_volume   819.82016698
_cell_formula_units_Z   1
loop_
 _symmetry_equiv_pos_site_id
 _symmetry_equiv_pos_as_xyz
  1  'x, y, z'
loop_
 _atom_site_type_symbol
 _atom_site_label
 _atom_site_symmetry_multiplicity
 _atom_site_fract_x
 _atom_site_fract_y
 _atom_site_fract_z
 _atom_site_occupancy
  Pr  Pr0  1  0.409419  0.214569  0.478430  1
  Sm  Sm1  1  0.796831  0.521812  0.595125  1
  Sm  Sm2  1  0.522820  0.595040  0.796484  1
  Sm  Sm3  1  0.203283  0.477363  0.405143  1
  Sm  Sm4  1  0.477742  0.406714  0.204202  1
  Sm  Sm5  1  0.000126  0.001097  0.999391  1
  Sm  Sm6  1  0.589125  0.778693  0.521576  1
  Fe  Fe7  1  0.499812  0.498760  0.500508  1
  I  I8  1  0.731180  0.183753  0.575117  1
  I  I9  1  0.958957  0.884448  0.659097  1
  I  I10  1  0.574367  0.728624  0.184629  1
  I  I11  1  0.115600  0.342321  0.038366  1
  I  I12  1  0.660018  0.961757  0.881389  1
  I  I13  1  0.884639  0.660019  0.962215  1
  I  I14  1  0.033897  0.114144  0.336731  1
  I  I15  1  0.819220  0.427030  0.273783  1
  I  I16  1  0.338740  0.037562  0.111403  1
  I  I17  1  0.275953  0.816123  0.426848  1
  I  I18  1  0.181031  0.573910  0.726400  1
  I  I19  1  0.427239  0.276262  0.823164  1
