# generated using pymatgen
data_Dy6Y4Hg3Os
_symmetry_space_group_name_H-M   'P 1'
_cell_length_a   9.63988800
_cell_length_b   9.63987499
_cell_length_c   9.66732800
_cell_angle_alpha   90.00000000
_cell_angle_beta   90.00000000
_cell_angle_gamma   119.99990052
_symmetry_Int_Tables_number   1
_chemical_formula_structural   Dy6Y4Hg3Os
_chemical_formula_sum   'Dy12 Y8 Hg6 Os2'
_cell_volume   778.00235413
_cell_formula_units_Z   2
loop_
 _symmetry_equiv_pos_site_id
 _symmetry_equiv_pos_as_xyz
  1  'x, y, z'
loop_
 _atom_site_type_symbol
 _atom_site_label
 _atom_site_symmetry_multiplicity
 _atom_site_fract_x
 _atom_site_fract_y
 _atom_site_fract_z
 _atom_site_occupancy
  Dy  Dy0  1  0.209442  0.790556  0.440047  1
  Dy  Dy1  1  0.209437  0.418897  0.440053  1
  Dy  Dy2  1  0.581096  0.790558  0.440055  1
  Dy  Dy3  1  0.790558  0.209444  0.559953  1
  Dy  Dy4  1  0.790563  0.581103  0.559947  1
  Dy  Dy5  1  0.418904  0.209442  0.559945  1
  Dy  Dy6  1  0.790558  0.209444  0.940047  1
  Dy  Dy7  1  0.790563  0.581103  0.940053  1
  Dy  Dy8  1  0.418904  0.209442  0.940055  1
  Dy  Dy9  1  0.209442  0.790556  0.059953  1
  Dy  Dy10  1  0.209437  0.418897  0.059947  1
  Dy  Dy11  1  0.581096  0.790558  0.059945  1
  Y  Y12  1  0.000000  0.000000  0.500000  1
  Y  Y13  1  0.000000  0.000000  0.000000  1
  Y  Y14  1  0.539986  0.460014  0.250000  1
  Y  Y15  1  0.539972  0.080002  0.250000  1
  Y  Y16  1  0.919990  0.460025  0.250000  1
  Y  Y17  1  0.460014  0.539986  0.750000  1
  Y  Y18  1  0.460028  0.919998  0.750000  1
  Y  Y19  1  0.080010  0.539975  0.750000  1
  Hg  Hg20  1  0.881489  0.118484  0.250000  1
  Hg  Hg21  1  0.881499  0.762995  0.250000  1
  Hg  Hg22  1  0.237009  0.118487  0.250000  1
  Hg  Hg23  1  0.118511  0.881516  0.750000  1
  Hg  Hg24  1  0.118501  0.237005  0.750000  1
  Hg  Hg25  1  0.762991  0.881513  0.750000  1
  Os  Os26  1  0.333353  0.666636  0.250000  1
  Os  Os27  1  0.666647  0.333364  0.750000  1
