# generated using pymatgen
data_Sm5Er3Sc12Si15Hg
_symmetry_space_group_name_H-M   'P 1'
_cell_length_a   7.17072536
_cell_length_b   7.42723059
_cell_length_c   14.16030664
_cell_angle_alpha   89.88654408
_cell_angle_beta   89.67364849
_cell_angle_gamma   90.21596744
_symmetry_Int_Tables_number   1
_chemical_formula_structural   Sm5Er3Sc12Si15Hg
_chemical_formula_sum   'Sm5 Er3 Sc12 Si15 Hg1'
_cell_volume   754.13944026
_cell_formula_units_Z   1
loop_
 _symmetry_equiv_pos_site_id
 _symmetry_equiv_pos_as_xyz
  1  'x, y, z'
loop_
 _atom_site_type_symbol
 _atom_site_label
 _atom_site_symmetry_multiplicity
 _atom_site_fract_x
 _atom_site_fract_y
 _atom_site_fract_z
 _atom_site_occupancy
  Sm  Sm0  1  0.011240  0.173693  0.098403  1
  Sm  Sm1  1  0.988866  0.827423  0.903104  1
  Sm  Sm2  1  0.489152  0.674444  0.904069  1
  Sm  Sm3  1  0.989497  0.832711  0.596304  1
  Sm  Sm4  1  0.510641  0.325697  0.097585  1
  Er  Er5  1  0.006840  0.171472  0.397348  1
  Er  Er6  1  0.510361  0.321604  0.398654  1
  Er  Er7  1  0.496599  0.682233  0.599613  1
  Sc  Sc8  1  0.164055  0.501481  0.753223  1
  Sc  Sc9  1  0.835739  0.498088  0.251351  1
  Sc  Sc10  1  0.336135  0.999761  0.250475  1
  Sc  Sc11  1  0.666599  0.999054  0.750879  1
  Sc  Sc12  1  0.344127  0.169509  0.628071  1
  Sc  Sc13  1  0.663250  0.822730  0.373874  1
  Sc  Sc14  1  0.166921  0.677156  0.371730  1
  Sc  Sc15  1  0.668401  0.824179  0.126208  1
  Sc  Sc16  1  0.824894  0.325431  0.624467  1
  Sc  Sc17  1  0.330376  0.175040  0.875312  1
  Sc  Sc18  1  0.830641  0.323829  0.875380  1
  Sc  Sc19  1  0.168312  0.675856  0.126688  1
  Si  Si20  1  0.037663  0.125819  0.749917  1
  Si  Si21  1  0.962772  0.880795  0.250340  1
  Si  Si22  1  0.464568  0.617006  0.250052  1
  Si  Si23  1  0.535562  0.384466  0.750533  1
  Si  Si24  1  0.288777  0.875242  0.749737  1
  Si  Si25  1  0.710612  0.125003  0.251069  1
  Si  Si26  1  0.211307  0.372671  0.251320  1
  Si  Si27  1  0.788647  0.625230  0.750000  1
  Si  Si28  1  0.831503  0.534363  0.457814  1
  Si  Si29  1  0.339934  0.963894  0.459113  1
  Si  Si30  1  0.845643  0.536974  0.039299  1
  Si  Si31  1  0.656362  0.038531  0.536014  1
  Si  Si32  1  0.153452  0.463206  0.962331  1
  Si  Si33  1  0.654685  0.036749  0.961376  1
  Si  Si34  1  0.344753  0.963052  0.040069  1
  Hg  Hg35  1  0.171114  0.455611  0.538280  1
