# generated using pymatgen
data_Ce2PrMg3Ir2Pt
_symmetry_space_group_name_H-M   'P 1'
_cell_length_a   7.55863273
_cell_length_b   7.55863256
_cell_length_c   4.04543000
_cell_angle_alpha   90.00000000
_cell_angle_beta   90.00000000
_cell_angle_gamma   121.78764225
_symmetry_Int_Tables_number   1
_chemical_formula_structural   Ce2PrMg3Ir2Pt
_chemical_formula_sum   'Ce2 Pr1 Mg3 Ir2 Pt1'
_cell_volume   196.45963271
_cell_formula_units_Z   1
loop_
 _symmetry_equiv_pos_site_id
 _symmetry_equiv_pos_as_xyz
  1  'x, y, z'
loop_
 _atom_site_type_symbol
 _atom_site_label
 _atom_site_symmetry_multiplicity
 _atom_site_fract_x
 _atom_site_fract_y
 _atom_site_fract_z
 _atom_site_occupancy
  Ce  Ce0  1  0.423190  0.002116  0.000000  1
  Ce  Ce1  1  0.002116  0.423190  0.000000  1
  Pr  Pr2  1  0.584056  0.584056  0.000000  1
  Mg  Mg3  1  0.000752  0.760392  0.500000  1
  Mg  Mg4  1  0.244947  0.244947  0.500000  1
  Mg  Mg5  1  0.760392  0.000752  0.500000  1
  Ir  Ir6  1  0.313112  0.668817  0.500000  1
  Ir  Ir7  1  0.668817  0.313112  0.500000  1
  Pt  Pt8  1  0.002618  0.002618  0.000000  1
