# generated using pymatgen
data_Li3Y3CdSn4
_symmetry_space_group_name_H-M   'P 1'
_cell_length_a   4.60587708
_cell_length_b   7.27867408
_cell_length_c   8.73322337
_cell_angle_alpha   115.04913069
_cell_angle_beta   105.28964604
_cell_angle_gamma   89.99999651
_symmetry_Int_Tables_number   1
_chemical_formula_structural   Li3Y3CdSn4
_chemical_formula_sum   'Li3 Y3 Cd1 Sn4'
_cell_volume   253.75628883
_cell_formula_units_Z   1
loop_
 _symmetry_equiv_pos_site_id
 _symmetry_equiv_pos_as_xyz
  1  'x, y, z'
loop_
 _atom_site_type_symbol
 _atom_site_label
 _atom_site_symmetry_multiplicity
 _atom_site_fract_x
 _atom_site_fract_y
 _atom_site_fract_z
 _atom_site_occupancy
  Li  Li0  1  0.331081  0.010247  0.662161  1
  Li  Li1  1  0.668956  0.976933  0.337912  1
  Li  Li2  1  0.321848  0.628041  0.643697  1
  Y  Y3  1  0.874877  0.370908  0.749754  1
  Y  Y4  1  0.125946  0.644761  0.251891  1
  Y  Y5  1  0.002036  0.004206  0.004073  1
  Cd  Cd6  1  0.676042  0.370227  0.352084  1
  Sn  Sn7  1  0.218061  0.187255  0.436124  1
  Sn  Sn8  1  0.787967  0.803984  0.575934  1
  Sn  Sn9  1  0.496602  0.300789  0.993203  1
  Sn  Sn10  1  0.496583  0.702650  0.993166  1
