# generated using pymatgen
data_Nd2Dy2SiI5
_symmetry_space_group_name_H-M   'P 1'
_cell_length_a   9.94999749
_cell_length_b   9.94999754
_cell_length_c   9.03534396
_cell_angle_alpha   78.28795786
_cell_angle_beta   78.28795809
_cell_angle_gamma   24.82297775
_symmetry_Int_Tables_number   1
_chemical_formula_structural   Nd2Dy2SiI5
_chemical_formula_sum   'Nd2 Dy2 Si1 I5'
_cell_volume   367.33293713
_cell_formula_units_Z   1
loop_
 _symmetry_equiv_pos_site_id
 _symmetry_equiv_pos_as_xyz
  1  'x, y, z'
loop_
 _atom_site_type_symbol
 _atom_site_label
 _atom_site_symmetry_multiplicity
 _atom_site_fract_x
 _atom_site_fract_y
 _atom_site_fract_z
 _atom_site_occupancy
  Nd  Nd0  1  0.501853  0.501853  0.213496  1
  Nd  Nd1  1  0.498147  0.498147  0.786504  1
  Dy  Dy2  1  0.857398  0.857398  0.072383  1
  Dy  Dy3  1  0.142602  0.142602  0.927617  1
  Si  Si4  1  0.000000  0.000000  0.000000  1
  I  I5  1  0.675174  0.675174  0.157958  1
  I  I6  1  0.324826  0.324826  0.842042  1
  I  I7  1  0.666641  0.666641  0.674465  1
  I  I8  1  0.333359  0.333359  0.325535  1
  I  I9  1  0.000000  0.000000  0.500000  1
