# generated using pymatgen
data_ScPa(BeGe)2
_symmetry_space_group_name_H-M   'P 1'
_cell_length_a   3.86892900
_cell_length_b   3.86892942
_cell_length_c   7.74709700
_cell_angle_alpha   90.00000000
_cell_angle_beta   90.00000000
_cell_angle_gamma   120.00000493
_symmetry_Int_Tables_number   1
_chemical_formula_structural   ScPa(BeGe)2
_chemical_formula_sum   'Sc1 Pa1 Be2 Ge2'
_cell_volume   100.42715766
_cell_formula_units_Z   1
loop_
 _symmetry_equiv_pos_site_id
 _symmetry_equiv_pos_as_xyz
  1  'x, y, z'
loop_
 _atom_site_type_symbol
 _atom_site_label
 _atom_site_symmetry_multiplicity
 _atom_site_fract_x
 _atom_site_fract_y
 _atom_site_fract_z
 _atom_site_occupancy
  Sc  Sc0  1  0.000000  0.000000  0.500001  1
  Pa  Pa1  1  0.000000  0.000000  0.000000  1
  Be  Be2  1  0.666666  0.333333  0.252498  1
  Be  Be3  1  0.333333  0.666666  0.747502  1
  Ge  Ge4  1  0.333333  0.666666  0.267866  1
  Ge  Ge5  1  0.666666  0.333333  0.732134  1
