# generated using pymatgen
data_Dy3Er6Lu3Co4
_symmetry_space_group_name_H-M   'P 1'
_cell_length_a   6.15366734
_cell_length_b   6.89294144
_cell_length_c   9.25966358
_cell_angle_alpha   89.98011952
_cell_angle_beta   89.86468652
_cell_angle_gamma   89.93563069
_symmetry_Int_Tables_number   1
_chemical_formula_structural   Dy3Er6Lu3Co4
_chemical_formula_sum   'Dy3 Er6 Lu3 Co4'
_cell_volume   392.76456669
_cell_formula_units_Z   1
loop_
 _symmetry_equiv_pos_site_id
 _symmetry_equiv_pos_as_xyz
  1  'x, y, z'
loop_
 _atom_site_type_symbol
 _atom_site_label
 _atom_site_symmetry_multiplicity
 _atom_site_fract_x
 _atom_site_fract_y
 _atom_site_fract_z
 _atom_site_occupancy
  Dy  Dy0  1  0.859849  0.539283  0.250332  1
  Dy  Dy1  1  0.638615  0.043112  0.252380  1
  Dy  Dy2  1  0.143481  0.458470  0.748977  1
  Er  Er3  1  0.823557  0.826251  0.933148  1
  Er  Er4  1  0.678828  0.325017  0.930310  1
  Er  Er5  1  0.823127  0.826509  0.567865  1
  Er  Er6  1  0.322950  0.674265  0.431105  1
  Er  Er7  1  0.178295  0.174245  0.069006  1
  Er  Er8  1  0.357331  0.958601  0.749221  1
  Lu  Lu9  1  0.325445  0.674114  0.067635  1
  Lu  Lu10  1  0.175320  0.174304  0.433962  1
  Lu  Lu11  1  0.675591  0.325777  0.568175  1
  Co  Co12  1  0.048592  0.885156  0.248983  1
  Co  Co13  1  0.449032  0.385400  0.252263  1
  Co  Co14  1  0.950852  0.114444  0.745978  1
  Co  Co15  1  0.549136  0.615051  0.750659  1
