# generated using pymatgen
data_Ca2LaPr9(GaRh)8
_symmetry_space_group_name_H-M   'P 1'
_cell_length_a   5.75793326
_cell_length_b   8.20934295
_cell_length_c   13.69894591
_cell_angle_alpha   89.98342542
_cell_angle_beta   90.00911756
_cell_angle_gamma   89.68213302
_symmetry_Int_Tables_number   1
_chemical_formula_structural   Ca2LaPr9(GaRh)8
_chemical_formula_sum   'Ca2 La1 Pr9 Ga8 Rh8'
_cell_volume   647.52340222
_cell_formula_units_Z   1
loop_
 _symmetry_equiv_pos_site_id
 _symmetry_equiv_pos_as_xyz
  1  'x, y, z'
loop_
 _atom_site_type_symbol
 _atom_site_label
 _atom_site_symmetry_multiplicity
 _atom_site_fract_x
 _atom_site_fract_y
 _atom_site_fract_z
 _atom_site_occupancy
  Ca  Ca0  1  0.144390  0.102572  0.600601  1
  Ca  Ca1  1  0.147218  0.104842  0.898650  1
  La  La2  1  0.854956  0.901459  0.091303  1
  Pr  Pr3  1  0.628743  0.252683  0.251257  1
  Pr  Pr4  1  0.366843  0.749803  0.749417  1
  Pr  Pr5  1  0.368749  0.753527  0.250364  1
  Pr  Pr6  1  0.630742  0.243435  0.749334  1
  Pr  Pr7  1  0.142131  0.394494  0.096246  1
  Pr  Pr8  1  0.850424  0.602291  0.899740  1
  Pr  Pr9  1  0.852872  0.606467  0.599265  1
  Pr  Pr10  1  0.859315  0.899908  0.405473  1
  Pr  Pr11  1  0.143539  0.394396  0.404818  1
  Ga  Ga12  1  0.138697  0.102244  0.250375  1
  Ga  Ga13  1  0.864603  0.898746  0.750913  1
  Ga  Ga14  1  0.865393  0.604244  0.250591  1
  Ga  Ga15  1  0.136422  0.397379  0.748945  1
  Ga  Ga16  1  0.619332  0.249747  0.998697  1
  Ga  Ga17  1  0.371510  0.748461  0.998459  1
  Ga  Ga18  1  0.374236  0.750635  0.500259  1
  Ga  Ga19  1  0.622195  0.248420  0.501443  1
  Rh  Rh20  1  0.363701  0.028662  0.091228  1
  Rh  Rh21  1  0.642784  0.967483  0.910938  1
  Rh  Rh22  1  0.640275  0.967945  0.591632  1
  Rh  Rh23  1  0.643981  0.529678  0.409557  1
  Rh  Rh24  1  0.365064  0.030857  0.409265  1
  Rh  Rh25  1  0.361936  0.470608  0.592760  1
  Rh  Rh26  1  0.358592  0.469150  0.906772  1
  Rh  Rh27  1  0.641355  0.529863  0.091696  1
