# generated using pymatgen
data_La5TcPd
_symmetry_space_group_name_H-M   'P 1'
_cell_length_a   9.27294621
_cell_length_b   9.27294576
_cell_length_c   7.51703173
_cell_angle_alpha   85.00610969
_cell_angle_beta   85.00611003
_cell_angle_gamma   42.63351711
_symmetry_Int_Tables_number   1
_chemical_formula_structural   La5TcPd
_chemical_formula_sum   'La10 Tc2 Pd2'
_cell_volume   435.87576126
_cell_formula_units_Z   2
loop_
 _symmetry_equiv_pos_site_id
 _symmetry_equiv_pos_as_xyz
  1  'x, y, z'
loop_
 _atom_site_type_symbol
 _atom_site_label
 _atom_site_symmetry_multiplicity
 _atom_site_fract_x
 _atom_site_fract_y
 _atom_site_fract_z
 _atom_site_occupancy
  La  La0  1  0.987482  0.822443  0.923084  1
  La  La1  1  0.177557  0.012518  0.576916  1
  La  La2  1  0.973206  0.209334  0.094093  1
  La  La3  1  0.790666  0.026794  0.405907  1
  La  La4  1  0.370655  0.207819  0.827996  1
  La  La5  1  0.792181  0.629345  0.672004  1
  La  La6  1  0.660152  0.778617  0.188747  1
  La  La7  1  0.221383  0.339848  0.311253  1
  La  La8  1  0.565842  0.434158  0.750000  1
  La  La9  1  0.422232  0.577768  0.250000  1
  Tc  Tc10  1  0.830691  0.385368  0.431429  1
  Tc  Tc11  1  0.614632  0.169309  0.068571  1
  Pd  Pd12  1  0.184089  0.590768  0.575699  1
  Pd  Pd13  1  0.409232  0.815911  0.924301  1
