# generated using pymatgen
data_Dy2Fe10P7Ru2
_symmetry_space_group_name_H-M   'P 1'
_cell_length_a   8.96213604
_cell_length_b   9.00325176
_cell_length_c   3.69415100
_cell_angle_alpha   90.00000000
_cell_angle_beta   90.00000000
_cell_angle_gamma   119.93901573
_symmetry_Int_Tables_number   1
_chemical_formula_structural   Dy2Fe10P7Ru2
_chemical_formula_sum   'Dy2 Fe10 P7 Ru2'
_cell_volume   258.29901833
_cell_formula_units_Z   1
loop_
 _symmetry_equiv_pos_site_id
 _symmetry_equiv_pos_as_xyz
  1  'x, y, z'
loop_
 _atom_site_type_symbol
 _atom_site_label
 _atom_site_symmetry_multiplicity
 _atom_site_fract_x
 _atom_site_fract_y
 _atom_site_fract_z
 _atom_site_occupancy
  Dy  Dy0  1  0.334124  0.666926  0.000000  1
  Dy  Dy1  1  0.666608  0.331801  0.500001  1
  Fe  Fe2  1  0.425957  0.056471  0.000000  1
  Fe  Fe3  1  0.155924  0.276308  0.000000  1
  Fe  Fe4  1  0.943560  0.370052  0.000000  1
  Fe  Fe5  1  0.632247  0.576016  0.000000  1
  Fe  Fe6  1  0.117184  0.842654  0.000000  1
  Fe  Fe7  1  0.723897  0.877690  0.000000  1
  Fe  Fe8  1  0.386760  0.437148  0.500001  1
  Fe  Fe9  1  0.048597  0.616000  0.500001  1
  Fe  Fe10  1  0.880787  0.783944  0.500001  1
  Fe  Fe11  1  0.563544  0.948262  0.500001  1
  P  P12  1  0.999086  0.997974  0.000000  1
  P  P13  1  0.696582  0.109700  0.000000  1
  P  P14  1  0.414630  0.303984  0.000000  1
  P  P15  1  0.888652  0.586824  0.000000  1
  P  P16  1  0.115709  0.407695  0.500001  1
  P  P17  1  0.598012  0.710937  0.500001  1
  P  P18  1  0.289076  0.883238  0.500001  1
  Ru  Ru19  1  0.215579  0.097393  0.500001  1
  Ru  Ru20  1  0.903489  0.118987  0.500001  1
