# generated using pymatgen
data_TmNb(SnPt)2
_symmetry_space_group_name_H-M   'P 1'
_cell_length_a   6.42282300
_cell_length_b   4.52869300
_cell_length_c   9.07169200
_cell_angle_alpha   90.00000000
_cell_angle_beta   90.00000000
_cell_angle_gamma   90.00000000
_symmetry_Int_Tables_number   1
_chemical_formula_structural   TmNb(SnPt)2
_chemical_formula_sum   'Tm2 Nb2 Sn4 Pt4'
_cell_volume   263.86824679
_cell_formula_units_Z   2
loop_
 _symmetry_equiv_pos_site_id
 _symmetry_equiv_pos_as_xyz
  1  'x, y, z'
loop_
 _atom_site_type_symbol
 _atom_site_label
 _atom_site_symmetry_multiplicity
 _atom_site_fract_x
 _atom_site_fract_y
 _atom_site_fract_z
 _atom_site_occupancy
  Tm  Tm0  1  0.001942  0.000000  0.376195  1
  Tm  Tm1  1  0.501942  0.500001  0.623805  1
  Nb  Nb2  1  0.497806  0.500001  0.124959  1
  Nb  Nb3  1  0.997805  0.000000  0.875040  1
  Sn  Sn4  1  0.989995  0.500001  0.124735  1
  Sn  Sn5  1  0.508517  0.000000  0.373505  1
  Sn  Sn6  1  0.008518  0.500001  0.626497  1
  Sn  Sn7  1  0.489996  0.000000  0.875265  1
  Pt  Pt8  1  0.739317  0.000000  0.113888  1
  Pt  Pt9  1  0.262419  0.500001  0.361009  1
  Pt  Pt10  1  0.762420  0.000000  0.638992  1
  Pt  Pt11  1  0.239317  0.500001  0.886113  1
