# generated using pymatgen
data_Y5Er2FeBr12
_symmetry_space_group_name_H-M   'P 1'
_cell_length_a   9.11903354
_cell_length_b   9.24045740
_cell_length_c   9.22643565
_cell_angle_alpha   107.02670950
_cell_angle_beta   106.84784497
_cell_angle_gamma   106.81677152
_symmetry_Int_Tables_number   1
_chemical_formula_structural   Y5Er2FeBr12
_chemical_formula_sum   'Y5 Er2 Fe1 Br12'
_cell_volume   649.28018548
_cell_formula_units_Z   1
loop_
 _symmetry_equiv_pos_site_id
 _symmetry_equiv_pos_as_xyz
  1  'x, y, z'
loop_
 _atom_site_type_symbol
 _atom_site_label
 _atom_site_symmetry_multiplicity
 _atom_site_fract_x
 _atom_site_fract_y
 _atom_site_fract_z
 _atom_site_occupancy
  Y  Y0  1  0.901089  0.978380  0.694571  1
  Y  Y1  1  0.706261  0.905657  0.978898  1
  Y  Y2  1  0.980524  0.694004  0.900459  1
  Y  Y3  1  0.099075  0.020367  0.305178  1
  Y  Y4  1  0.294027  0.095339  0.021586  1
  Er  Er5  1  0.019453  0.300773  0.098391  1
  Er  Er6  1  0.499459  0.501022  0.500088  1
  Fe  Fe7  1  0.000003  0.999428  0.999809  1
  Br  Br8  1  0.830650  0.612635  0.534619  1
  Br  Br9  1  0.535837  0.830181  0.613816  1
  Br  Br10  1  0.614248  0.539197  0.829888  1
  Br  Br11  1  0.167309  0.386978  0.462224  1
  Br  Br12  1  0.464275  0.171660  0.386484  1
  Br  Br13  1  0.382952  0.461024  0.169638  1
  Br  Br14  1  0.929192  0.322632  0.782295  1
  Br  Br15  1  0.777275  0.928577  0.320413  1
  Br  Br16  1  0.324415  0.781100  0.931299  1
  Br  Br17  1  0.070858  0.675528  0.220053  1
  Br  Br18  1  0.223454  0.073681  0.680533  1
  Br  Br19  1  0.679643  0.221836  0.069758  1
