# generated using pymatgen
data_Yb2Y2Ir3RuO14
_symmetry_space_group_name_H-M   'P 1'
_cell_length_a   7.23679764
_cell_length_b   7.24223504
_cell_length_c   7.24223654
_cell_angle_alpha   59.83557581
_cell_angle_beta   59.85592812
_cell_angle_gamma   59.85592895
_symmetry_Int_Tables_number   1
_chemical_formula_structural   Yb2Y2Ir3RuO14
_chemical_formula_sum   'Yb2 Y2 Ir3 Ru1 O14'
_cell_volume   267.47756035
_cell_formula_units_Z   1
loop_
 _symmetry_equiv_pos_site_id
 _symmetry_equiv_pos_as_xyz
  1  'x, y, z'
loop_
 _atom_site_type_symbol
 _atom_site_label
 _atom_site_symmetry_multiplicity
 _atom_site_fract_x
 _atom_site_fract_y
 _atom_site_fract_z
 _atom_site_occupancy
  Yb  Yb0  1  0.125000  0.625000  0.125000  1
  Yb  Yb1  1  0.125000  0.125000  0.625000  1
  Y  Y2  1  0.625000  0.125000  0.125000  1
  Y  Y3  1  0.125000  0.125000  0.125000  1
  Ir  Ir4  1  0.125000  0.625000  0.625000  1
  Ir  Ir5  1  0.625000  0.125000  0.625000  1
  Ir  Ir6  1  0.625000  0.625000  0.125000  1
  Ru  Ru7  1  0.625000  0.625000  0.625000  1
  O  O8  1  0.700236  0.706716  0.296001  1
  O  O9  1  0.293438  0.292832  0.710351  1
  O  O10  1  0.700236  0.296001  0.706716  1
  O  O11  1  0.293438  0.710351  0.292832  1
  O  O12  1  0.299197  0.700680  0.700680  1
  O  O13  1  0.707771  0.291723  0.291723  1
  O  O14  1  0.549764  0.543284  0.953999  1
  O  O15  1  0.956562  0.957168  0.539649  1
  O  O16  1  0.549764  0.953999  0.543284  1
  O  O17  1  0.956562  0.539649  0.957168  1
  O  O18  1  0.950803  0.549320  0.549320  1
  O  O19  1  0.542229  0.958277  0.958277  1
  O  O20  1  0.254730  0.245484  0.245484  1
  O  O21  1  0.995270  0.004516  0.004516  1
