# generated using pymatgen
data_YbSi2TcNi
_symmetry_space_group_name_H-M   'P 1'
_cell_length_a   5.72592725
_cell_length_b   5.72592737
_cell_length_c   5.72592810
_cell_angle_alpha   138.30870299
_cell_angle_beta   138.30870424
_cell_angle_gamma   60.43052624
_symmetry_Int_Tables_number   1
_chemical_formula_structural   YbSi2TcNi
_chemical_formula_sum   'Yb1 Si2 Tc1 Ni1'
_cell_volume   82.17126481
_cell_formula_units_Z   1
loop_
 _symmetry_equiv_pos_site_id
 _symmetry_equiv_pos_as_xyz
  1  'x, y, z'
loop_
 _atom_site_type_symbol
 _atom_site_label
 _atom_site_symmetry_multiplicity
 _atom_site_fract_x
 _atom_site_fract_y
 _atom_site_fract_z
 _atom_site_occupancy
  Yb  Yb0  1  0.000000  0.000000  0.000000  1
  Si  Si1  1  0.627509  0.627509  0.000000  1
  Si  Si2  1  0.372491  0.372491  0.000000  1
  Tc  Tc3  1  0.250000  0.750000  0.500000  1
  Ni  Ni4  1  0.750000  0.250000  0.500000  1
