# generated using pymatgen
data_Ce3Ni3Bi4
_symmetry_space_group_name_H-M   'P 1'
_cell_length_a   8.40485051
_cell_length_b   8.40484974
_cell_length_c   8.40485000
_cell_angle_alpha   109.47122367
_cell_angle_beta   109.47122181
_cell_angle_gamma   109.47121792
_symmetry_Int_Tables_number   1
_chemical_formula_structural   Ce3Ni3Bi4
_chemical_formula_sum   'Ce6 Ni6 Bi8'
_cell_volume   457.05452776
_cell_formula_units_Z   2
loop_
 _symmetry_equiv_pos_site_id
 _symmetry_equiv_pos_as_xyz
  1  'x, y, z'
loop_
 _atom_site_type_symbol
 _atom_site_label
 _atom_site_symmetry_multiplicity
 _atom_site_fract_x
 _atom_site_fract_y
 _atom_site_fract_z
 _atom_site_occupancy
  Ce  Ce0  1  0.875000  0.250000  0.125000  1
  Ce  Ce1  1  0.375000  0.125000  0.250000  1
  Ce  Ce2  1  0.625000  0.750000  0.375000  1
  Ce  Ce3  1  0.250000  0.875000  0.625000  1
  Ce  Ce4  1  0.125000  0.375000  0.750000  1
  Ce  Ce5  1  0.750000  0.625000  0.875000  1
  Ni  Ni6  1  0.250000  0.375000  0.125000  1
  Ni  Ni7  1  0.875000  0.625000  0.250000  1
  Ni  Ni8  1  0.750000  0.125000  0.375000  1
  Ni  Ni9  1  0.375000  0.250000  0.625000  1
  Ni  Ni10  1  0.625000  0.875000  0.750000  1
  Ni  Ni11  1  0.125000  0.750000  0.875000  1
  Bi  Bi12  1  0.500000  0.332387  0.000000  1
  Bi  Bi13  1  0.500000  0.832387  0.000000  1
  Bi  Bi14  1  0.167613  0.667613  0.167613  1
  Bi  Bi15  1  0.000000  0.000000  0.332387  1
  Bi  Bi16  1  0.332387  0.500000  0.500000  1
  Bi  Bi17  1  0.832387  0.500000  0.500000  1
  Bi  Bi18  1  0.667613  0.167613  0.667613  1
  Bi  Bi19  1  0.000000  0.000000  0.832387  1
