# generated using pymatgen
data_TiCr3GaSe8
_symmetry_space_group_name_H-M   'P 1'
_cell_length_a   7.36064627
_cell_length_b   7.36064591
_cell_length_c   7.36064666
_cell_angle_alpha   60.88515143
_cell_angle_beta   60.88515387
_cell_angle_gamma   60.88514929
_symmetry_Int_Tables_number   1
_chemical_formula_structural   TiCr3GaSe8
_chemical_formula_sum   'Ti1 Cr3 Ga1 Se8'
_cell_volume   287.61607989
_cell_formula_units_Z   1
loop_
 _symmetry_equiv_pos_site_id
 _symmetry_equiv_pos_as_xyz
  1  'x, y, z'
loop_
 _atom_site_type_symbol
 _atom_site_label
 _atom_site_symmetry_multiplicity
 _atom_site_fract_x
 _atom_site_fract_y
 _atom_site_fract_z
 _atom_site_occupancy
  Ti  Ti0  1  0.396897  0.396897  0.396897  1
  Cr  Cr1  1  0.853577  0.380363  0.380363  1
  Cr  Cr2  1  0.380363  0.853577  0.380363  1
  Cr  Cr3  1  0.380363  0.380363  0.853577  1
  Ga  Ga4  1  0.995753  0.995753  0.995753  1
  Se  Se5  1  0.133150  0.133150  0.133150  1
  Se  Se6  1  0.589036  0.135601  0.135601  1
  Se  Se7  1  0.135601  0.589036  0.135601  1
  Se  Se8  1  0.135601  0.135601  0.589036  1
  Se  Se9  1  0.617004  0.617004  0.617004  1
  Se  Se10  1  0.127663  0.627497  0.627497  1
  Se  Se11  1  0.627497  0.127663  0.627497  1
  Se  Se12  1  0.627497  0.627497  0.127663  1
