# generated using pymatgen
data_CsHf2Zr4BI14
_symmetry_space_group_name_H-M   'P 1'
_cell_length_a   10.99780111
_cell_length_b   10.99780066
_cell_length_c   13.18634100
_cell_angle_alpha   90.00000000
_cell_angle_beta   90.00000000
_cell_angle_gamma   94.65493047
_symmetry_Int_Tables_number   1
_chemical_formula_structural   CsHf2Zr4BI14
_chemical_formula_sum   'Cs2 Hf4 Zr8 B2 I28'
_cell_volume   1589.64860572
_cell_formula_units_Z   2
loop_
 _symmetry_equiv_pos_site_id
 _symmetry_equiv_pos_as_xyz
  1  'x, y, z'
loop_
 _atom_site_type_symbol
 _atom_site_label
 _atom_site_symmetry_multiplicity
 _atom_site_fract_x
 _atom_site_fract_y
 _atom_site_fract_z
 _atom_site_occupancy
  Cs  Cs0  1  0.000000  0.000000  0.000000  1
  Cs  Cs1  1  0.500000  0.500000  0.500000  1
  Hf  Hf2  1  0.870903  0.870903  0.595449  1
  Hf  Hf3  1  0.370903  0.370903  0.904551  1
  Hf  Hf4  1  0.129097  0.129097  0.404551  1
  Hf  Hf5  1  0.629097  0.629097  0.095449  1
  Zr  Zr6  1  0.332449  0.542927  0.107996  1
  Zr  Zr7  1  0.167551  0.957073  0.607996  1
  Zr  Zr8  1  0.457073  0.667551  0.892004  1
  Zr  Zr9  1  0.667551  0.457073  0.892004  1
  Zr  Zr10  1  0.957073  0.167551  0.607996  1
  Zr  Zr11  1  0.832449  0.042927  0.392004  1
  Zr  Zr12  1  0.542927  0.332449  0.107996  1
  Zr  Zr13  1  0.042927  0.832449  0.392004  1
  B  B14  1  0.500000  0.500000  0.000000  1
  B  B15  1  0.000000  0.000000  0.500000  1
  I  I16  1  0.467036  0.711902  0.246186  1
  I  I17  1  0.532964  0.288098  0.753814  1
  I  I18  1  0.896275  0.396275  0.750000  1
  I  I19  1  0.358109  0.111605  0.504816  1
  I  I20  1  0.346233  0.346233  0.257492  1
  I  I21  1  0.141891  0.388395  0.004816  1
  I  I22  1  0.153767  0.153767  0.757492  1
  I  I23  1  0.750713  0.249287  0.500000  1
  I  I24  1  0.653767  0.653767  0.742508  1
  I  I25  1  0.888395  0.641891  0.495184  1
  I  I26  1  0.249287  0.750713  0.500000  1
  I  I27  1  0.032964  0.788098  0.746186  1
  I  I28  1  0.611605  0.858109  0.995184  1
  I  I29  1  0.103725  0.603725  0.250000  1
  I  I30  1  0.711902  0.467036  0.246186  1
  I  I31  1  0.749287  0.250713  0.000000  1
  I  I32  1  0.396275  0.896275  0.750000  1
  I  I33  1  0.858109  0.611605  0.995184  1
  I  I34  1  0.288098  0.532964  0.753814  1
  I  I35  1  0.111605  0.358109  0.504816  1
  I  I36  1  0.250713  0.749287  0.000000  1
  I  I37  1  0.788098  0.032964  0.746186  1
  I  I38  1  0.641891  0.888395  0.495184  1
  I  I39  1  0.211902  0.967036  0.253814  1
  I  I40  1  0.846233  0.846233  0.242508  1
  I  I41  1  0.967036  0.211902  0.253814  1
  I  I42  1  0.388395  0.141891  0.004816  1
  I  I43  1  0.603725  0.103725  0.250000  1
