# generated using pymatgen
data_LiNd2Si6(Pd4Pt)4
_symmetry_space_group_name_H-M   'P 1'
_cell_length_a   8.75665979
_cell_length_b   8.76979288
_cell_length_c   8.76979300
_cell_angle_alpha   59.92597644
_cell_angle_beta   59.89813880
_cell_angle_gamma   59.89814285
_symmetry_Int_Tables_number   1
_chemical_formula_structural   LiNd2Si6(Pd4Pt)4
_chemical_formula_sum   'Li1 Nd2 Si6 Pd16 Pt4'
_cell_volume   475.21375437
_cell_formula_units_Z   1
loop_
 _symmetry_equiv_pos_site_id
 _symmetry_equiv_pos_as_xyz
  1  'x, y, z'
loop_
 _atom_site_type_symbol
 _atom_site_label
 _atom_site_symmetry_multiplicity
 _atom_site_fract_x
 _atom_site_fract_y
 _atom_site_fract_z
 _atom_site_occupancy
  Li  Li0  1  0.999932  0.000201  0.000201  1
  Nd  Nd1  1  0.250567  0.250438  0.250438  1
  Nd  Nd2  1  0.748212  0.750399  0.750399  1
  Si  Si3  1  0.734057  0.264996  0.264996  1
  Si  Si4  1  0.267825  0.732788  0.732788  1
  Si  Si5  1  0.266681  0.733396  0.266031  1
  Si  Si6  1  0.733318  0.266488  0.734464  1
  Si  Si7  1  0.266681  0.266031  0.733396  1
  Si  Si8  1  0.733318  0.734464  0.266488  1
  Pd  Pd9  1  0.618247  0.614353  0.153387  1
  Pd  Pd10  1  0.618247  0.153387  0.614353  1
  Pd  Pd11  1  0.846415  0.383254  0.383254  1
  Pd  Pd12  1  0.151067  0.616462  0.616462  1
  Pd  Pd13  1  0.342964  0.000722  0.000722  1
  Pd  Pd14  1  0.655857  0.000558  0.000558  1
  Pd  Pd15  1  0.999062  0.344725  0.657404  1
  Pd  Pd16  1  0.999062  0.657404  0.344725  1
  Pd  Pd17  1  0.999531  0.344350  0.000121  1
  Pd  Pd18  1  0.656268  0.999667  0.344758  1
  Pd  Pd19  1  0.999442  0.656796  0.000444  1
  Pd  Pd20  1  0.343276  0.000185  0.657198  1
  Pd  Pd21  1  0.999531  0.000121  0.344350  1
  Pd  Pd22  1  0.999442  0.000444  0.656796  1
  Pd  Pd23  1  0.656268  0.344758  0.999667  1
  Pd  Pd24  1  0.343276  0.657198  0.000185  1
  Pt  Pt25  1  0.386316  0.386462  0.386462  1
  Pt  Pt26  1  0.616734  0.612691  0.612691  1
  Pt  Pt27  1  0.384202  0.384628  0.842634  1
  Pt  Pt28  1  0.384202  0.842634  0.384628  1
