# generated using pymatgen
data_Hf2ScBe2Rh5
_symmetry_space_group_name_H-M   'P 1'
_cell_length_a   9.49724700
_cell_length_b   9.49428600
_cell_length_c   3.27236300
_cell_angle_alpha   90.00000000
_cell_angle_beta   90.00000000
_cell_angle_gamma   90.00000000
_symmetry_Int_Tables_number   1
_chemical_formula_structural   Hf2ScBe2Rh5
_chemical_formula_sum   'Hf4 Sc2 Be4 Rh10'
_cell_volume   295.06759480
_cell_formula_units_Z   2
loop_
 _symmetry_equiv_pos_site_id
 _symmetry_equiv_pos_as_xyz
  1  'x, y, z'
loop_
 _atom_site_type_symbol
 _atom_site_label
 _atom_site_symmetry_multiplicity
 _atom_site_fract_x
 _atom_site_fract_y
 _atom_site_fract_z
 _atom_site_occupancy
  Hf  Hf0  1  0.826114  0.326963  0.000000  1
  Hf  Hf1  1  0.326114  0.173037  0.000000  1
  Hf  Hf2  1  0.999296  0.998190  0.000000  1
  Hf  Hf3  1  0.499296  0.501810  0.000000  1
  Sc  Sc4  1  0.673770  0.825471  0.000000  1
  Sc  Sc5  1  0.173770  0.674529  0.000000  1
  Be  Be6  1  0.620622  0.120308  0.000000  1
  Be  Be7  1  0.120622  0.379692  0.000000  1
  Be  Be8  1  0.879305  0.621490  0.000000  1
  Be  Be9  1  0.379305  0.878510  0.000000  1
  Rh  Rh10  1  0.072103  0.214282  0.500000  1
  Rh  Rh11  1  0.216109  0.932606  0.500000  1
  Rh  Rh12  1  0.785491  0.076621  0.500000  1
  Rh  Rh13  1  0.928304  0.783826  0.500000  1
  Rh  Rh14  1  0.428304  0.716174  0.500000  1
  Rh  Rh15  1  0.572103  0.285718  0.500000  1
  Rh  Rh16  1  0.716109  0.567394  0.500000  1
  Rh  Rh17  1  0.285491  0.423379  0.500000  1
  Rh  Rh18  1  0.498886  0.002815  0.500000  1
  Rh  Rh19  1  0.998886  0.497185  0.500000  1
