# generated using pymatgen
data_HoEr9(Co2Rh)2
_symmetry_space_group_name_H-M   'P 1'
_cell_length_a   7.04101929
_cell_length_b   7.04101922
_cell_length_c   8.67136715
_cell_angle_alpha   113.95125961
_cell_angle_beta   113.95866528
_cell_angle_gamma   89.99631909
_symmetry_Int_Tables_number   1
_chemical_formula_structural   HoEr9(Co2Rh)2
_chemical_formula_sum   'Ho1 Er9 Co4 Rh2'
_cell_volume   351.96500597
_cell_formula_units_Z   1
loop_
 _symmetry_equiv_pos_site_id
 _symmetry_equiv_pos_as_xyz
  1  'x, y, z'
loop_
 _atom_site_type_symbol
 _atom_site_label
 _atom_site_symmetry_multiplicity
 _atom_site_fract_x
 _atom_site_fract_y
 _atom_site_fract_z
 _atom_site_occupancy
  Ho  Ho0  1  0.535948  0.681227  0.717176  1
  Er  Er1  1  0.000194  0.000176  0.000111  1
  Er  Er2  1  0.499934  0.499917  0.000111  1
  Er  Er3  1  0.463921  0.318528  0.282449  1
  Er  Er4  1  0.963837  0.463851  0.282527  1
  Er  Er5  1  0.318676  0.818690  0.282527  1
  Er  Er6  1  0.818703  0.963945  0.282649  1
  Er  Er7  1  0.181227  0.036222  0.717447  1
  Er  Er8  1  0.681401  0.181329  0.717420  1
  Er  Er9  1  0.036092  0.536018  0.717420  1
  Co  Co10  1  0.612756  0.112930  0.000146  1
  Co  Co11  1  0.112753  0.387297  0.000048  1
  Co  Co12  1  0.887405  0.612620  0.000025  1
  Co  Co13  1  0.387216  0.887390  0.000146  1
  Rh  Rh14  1  0.249838  0.249799  0.499898  1
  Rh  Rh15  1  0.750098  0.750060  0.499898  1
