# generated using pymatgen
data_Pr2Dy3Ta2BiO14
_symmetry_space_group_name_H-M   'P 1'
_cell_length_a   6.55893483
_cell_length_b   6.61884988
_cell_length_c   7.63613600
_cell_angle_alpha   90.00000000
_cell_angle_beta   90.00000000
_cell_angle_gamma   110.48482858
_symmetry_Int_Tables_number   1
_chemical_formula_structural   Pr2Dy3Ta2BiO14
_chemical_formula_sum   'Pr2 Dy3 Ta2 Bi1 O14'
_cell_volume   310.54182815
_cell_formula_units_Z   1
loop_
 _symmetry_equiv_pos_site_id
 _symmetry_equiv_pos_as_xyz
  1  'x, y, z'
loop_
 _atom_site_type_symbol
 _atom_site_label
 _atom_site_symmetry_multiplicity
 _atom_site_fract_x
 _atom_site_fract_y
 _atom_site_fract_z
 _atom_site_occupancy
  Pr  Pr0  1  0.994895  0.004160  0.003426  1
  Pr  Pr1  1  0.994895  0.004160  0.496574  1
  Dy  Dy2  1  0.511922  0.055471  0.250000  1
  Dy  Dy3  1  0.950615  0.492951  0.750000  1
  Dy  Dy4  1  0.052765  0.518682  0.250000  1
  Ta  Ta5  1  0.506265  0.504973  0.001849  1
  Ta  Ta6  1  0.506265  0.504973  0.498151  1
  Bi  Bi7  1  0.474201  0.965350  0.750000  1
  O  O8  1  0.581859  0.538546  0.750000  1
  O  O9  1  0.434867  0.411145  0.250000  1
  O  O10  1  0.838184  0.133000  0.750000  1
  O  O11  1  0.154564  0.880781  0.250000  1
  O  O12  1  0.092527  0.849392  0.750000  1
  O  O13  1  0.878079  0.167419  0.250000  1
  O  O14  1  0.430749  0.171483  0.972309  1
  O  O15  1  0.571620  0.811434  0.452547  1
  O  O16  1  0.189028  0.446243  0.967378  1
  O  O17  1  0.822651  0.555340  0.465862  1
  O  O18  1  0.430749  0.171483  0.527691  1
  O  O19  1  0.571620  0.811434  0.047453  1
  O  O20  1  0.822651  0.555340  0.034138  1
  O  O21  1  0.189028  0.446243  0.532622  1
