# generated using pymatgen
data_Tm3In3SnRu2
_symmetry_space_group_name_H-M   'P 1'
_cell_length_a   8.02410279
_cell_length_b   8.00613903
_cell_length_c   3.56334900
_cell_angle_alpha   90.00000000
_cell_angle_beta   90.00000000
_cell_angle_gamma   119.82675113
_symmetry_Int_Tables_number   1
_chemical_formula_structural   Tm3In3SnRu2
_chemical_formula_sum   'Tm3 In3 Sn1 Ru2'
_cell_volume   198.59309155
_cell_formula_units_Z   1
loop_
 _symmetry_equiv_pos_site_id
 _symmetry_equiv_pos_as_xyz
  1  'x, y, z'
loop_
 _atom_site_type_symbol
 _atom_site_label
 _atom_site_symmetry_multiplicity
 _atom_site_fract_x
 _atom_site_fract_y
 _atom_site_fract_z
 _atom_site_occupancy
  Tm  Tm0  1  0.296270  0.255379  0.500000  1
  Tm  Tm1  1  0.745739  0.040286  0.500000  1
  Tm  Tm2  1  0.962647  0.707234  0.500000  1
  In  In3  1  0.600684  0.667444  0.000000  1
  In  In4  1  0.336647  0.934200  0.000000  1
  In  In5  1  0.665931  0.334073  0.000000  1
  Sn  Sn6  1  0.066569  0.400348  0.000000  1
  Ru  Ru7  1  0.324389  0.656814  0.500000  1
  Ru  Ru8  1  0.001125  0.004219  0.000000  1
