# generated using pymatgen
data_Na(FeSe)3
_symmetry_space_group_name_H-M   'P 1'
_cell_length_a   8.48325000
_cell_length_b   8.48324999
_cell_length_c   4.23540400
_cell_angle_alpha   90.00000000
_cell_angle_beta   90.00000000
_cell_angle_gamma   120.00000678
_symmetry_Int_Tables_number   1
_chemical_formula_structural   Na(FeSe)3
_chemical_formula_sum   'Na2 Fe6 Se6'
_cell_volume   263.96720609
_cell_formula_units_Z   2
loop_
 _symmetry_equiv_pos_site_id
 _symmetry_equiv_pos_as_xyz
  1  'x, y, z'
loop_
 _atom_site_type_symbol
 _atom_site_label
 _atom_site_symmetry_multiplicity
 _atom_site_fract_x
 _atom_site_fract_y
 _atom_site_fract_z
 _atom_site_occupancy
  Na  Na0  1  0.333333  0.666667  0.000000  1
  Na  Na1  1  0.000000  0.000000  0.500000  1
  Fe  Fe2  1  0.853511  0.368388  0.000000  1
  Fe  Fe3  1  0.514877  0.146489  0.000000  1
  Fe  Fe4  1  0.631612  0.485123  0.000000  1
  Fe  Fe5  1  0.479368  0.298466  0.500000  1
  Fe  Fe6  1  0.819097  0.520632  0.500000  1
  Fe  Fe7  1  0.701534  0.180903  0.500000  1
  Se  Se8  1  0.961203  0.693494  0.000000  1
  Se  Se9  1  0.732291  0.038797  0.000000  1
  Se  Se10  1  0.306506  0.267709  0.000000  1
  Se  Se11  1  0.372808  0.974469  0.500000  1
  Se  Se12  1  0.601662  0.627192  0.500000  1
  Se  Se13  1  0.025531  0.398338  0.500000  1
