# generated using pymatgen
data_Mg2TiZn6Pt3O16
_symmetry_space_group_name_H-M   'P 1'
_cell_length_a   6.13585000
_cell_length_b   6.07357243
_cell_length_c   8.60133738
_cell_angle_alpha   89.02083170
_cell_angle_beta   90.00000000
_cell_angle_gamma   90.00000000
_symmetry_Int_Tables_number   1
_chemical_formula_structural   Mg2TiZn6Pt3O16
_chemical_formula_sum   'Mg2 Ti1 Zn6 Pt3 O16'
_cell_volume   320.49518505
_cell_formula_units_Z   1
loop_
 _symmetry_equiv_pos_site_id
 _symmetry_equiv_pos_as_xyz
  1  'x, y, z'
loop_
 _atom_site_type_symbol
 _atom_site_label
 _atom_site_symmetry_multiplicity
 _atom_site_fract_x
 _atom_site_fract_y
 _atom_site_fract_z
 _atom_site_occupancy
  Mg  Mg0  1  0.241182  0.000000  0.250000  1
  Mg  Mg1  1  0.752085  0.000000  0.750000  1
  Ti  Ti2  1  0.781074  0.500000  0.750000  1
  Zn  Zn3  1  0.996516  0.232520  0.002113  1
  Zn  Zn4  1  0.996516  0.767480  0.497887  1
  Zn  Zn5  1  0.261422  0.242017  0.628436  1
  Zn  Zn6  1  0.261422  0.757983  0.871564  1
  Zn  Zn7  1  0.747465  0.253760  0.373472  1
  Zn  Zn8  1  0.747465  0.746240  0.126528  1
  Pt  Pt9  1  0.243651  0.500000  0.250000  1
  Pt  Pt10  1  0.499322  0.750668  0.502592  1
  Pt  Pt11  1  0.499322  0.249332  0.997408  1
  O  O12  1  0.526954  0.741240  0.739128  1
  O  O13  1  0.526954  0.258760  0.760872  1
  O  O14  1  0.740639  0.981392  0.509397  1
  O  O15  1  0.740639  0.018608  0.990603  1
  O  O16  1  0.738008  0.512335  0.519481  1
  O  O17  1  0.738008  0.487665  0.980519  1
  O  O18  1  0.977201  0.736760  0.755423  1
  O  O19  1  0.977201  0.263240  0.744577  1
  O  O20  1  0.016773  0.744819  0.254635  1
  O  O21  1  0.016773  0.255181  0.245365  1
  O  O22  1  0.251636  0.521760  0.487958  1
  O  O23  1  0.251636  0.478240  0.012042  1
  O  O24  1  0.259753  0.982228  0.492414  1
  O  O25  1  0.259753  0.017772  0.007586  1
  O  O26  1  0.475314  0.747192  0.263148  1
  O  O27  1  0.475314  0.252808  0.236852  1
