# generated using pymatgen
data_Mg2Mo3P7Rh9
_symmetry_space_group_name_H-M   'P 1'
_cell_length_a   9.49295400
_cell_length_b   9.49295459
_cell_length_c   3.89015500
_cell_angle_alpha   90.00000000
_cell_angle_beta   90.00000000
_cell_angle_gamma   119.99999795
_symmetry_Int_Tables_number   1
_chemical_formula_structural   Mg2Mo3P7Rh9
_chemical_formula_sum   'Mg2 Mo3 P7 Rh9'
_cell_volume   303.59899262
_cell_formula_units_Z   1
loop_
 _symmetry_equiv_pos_site_id
 _symmetry_equiv_pos_as_xyz
  1  'x, y, z'
loop_
 _atom_site_type_symbol
 _atom_site_label
 _atom_site_symmetry_multiplicity
 _atom_site_fract_x
 _atom_site_fract_y
 _atom_site_fract_z
 _atom_site_occupancy
  Mg  Mg0  1  0.000000  0.000000  0.764749  1
  Mg  Mg1  1  0.333333  0.666667  0.263488  1
  Mo  Mo2  1  0.792446  0.549596  0.763698  1
  Mo  Mo3  1  0.450404  0.242850  0.763698  1
  Mo  Mo4  1  0.757150  0.207554  0.763698  1
  P  P5  1  0.666667  0.333333  0.263619  1
  P  P6  1  0.073401  0.619442  0.763775  1
  P  P7  1  0.380558  0.453961  0.763775  1
  P  P8  1  0.546039  0.926599  0.763775  1
  P  P9  1  0.252579  0.037656  0.263883  1
  P  P10  1  0.962344  0.214923  0.263883  1
  P  P11  1  0.785077  0.747421  0.263883  1
  Rh  Rh12  1  0.505311  0.055625  0.263730  1
  Rh  Rh13  1  0.944375  0.449686  0.263730  1
  Rh  Rh14  1  0.550314  0.494689  0.263730  1
  Rh  Rh15  1  0.112873  0.389879  0.763820  1
  Rh  Rh16  1  0.610121  0.722994  0.763820  1
  Rh  Rh17  1  0.277006  0.887127  0.763820  1
  Rh  Rh18  1  0.225439  0.260246  0.263787  1
  Rh  Rh19  1  0.739754  0.965193  0.263787  1
  Rh  Rh20  1  0.034807  0.774561  0.263787  1
