# generated using pymatgen
data_Al4V9Ga2Mo9
_symmetry_space_group_name_H-M   'P 1'
_cell_length_a   4.90152843
_cell_length_b   4.90169904
_cell_length_c   14.58208672
_cell_angle_alpha   89.89162541
_cell_angle_beta   90.12437427
_cell_angle_gamma   89.78906933
_symmetry_Int_Tables_number   1
_chemical_formula_structural   Al4V9Ga2Mo9
_chemical_formula_sum   'Al4 V9 Ga2 Mo9'
_cell_volume   350.34271793
_cell_formula_units_Z   1
loop_
 _symmetry_equiv_pos_site_id
 _symmetry_equiv_pos_as_xyz
  1  'x, y, z'
loop_
 _atom_site_type_symbol
 _atom_site_label
 _atom_site_symmetry_multiplicity
 _atom_site_fract_x
 _atom_site_fract_y
 _atom_site_fract_z
 _atom_site_occupancy
  Al  Al0  1  0.495651  0.504720  0.498774  1
  Al  Al1  1  0.005050  0.995524  0.667718  1
  Al  Al2  1  0.004595  0.995603  0.001417  1
  Al  Al3  1  0.004942  0.995472  0.334743  1
  V  V4  1  0.995857  0.495616  0.749262  1
  V  V5  1  0.996135  0.496001  0.082640  1
  V  V6  1  0.995943  0.496209  0.415979  1
  V  V7  1  0.505341  0.753197  0.665074  1
  V  V8  1  0.504666  0.753754  0.998485  1
  V  V9  1  0.505043  0.753159  0.331725  1
  V  V10  1  0.248272  0.005497  0.835464  1
  V  V11  1  0.248502  0.006170  0.168063  1
  V  V12  1  0.251323  0.005226  0.501584  1
  Ga  Ga13  1  0.494915  0.505813  0.831697  1
  Ga  Ga14  1  0.494853  0.505885  0.165201  1
  Mo  Mo15  1  0.998874  0.499131  0.917670  1
  Mo  Mo16  1  0.998585  0.498757  0.250968  1
  Mo  Mo17  1  0.998885  0.498964  0.583928  1
  Mo  Mo18  1  0.500177  0.245043  0.666369  1
  Mo  Mo19  1  0.499962  0.244011  0.999916  1
  Mo  Mo20  1  0.500128  0.245357  0.333546  1
  Mo  Mo21  1  0.752092  0.000600  0.833178  1
  Mo  Mo22  1  0.751962  0.000182  0.166653  1
  Mo  Mo23  1  0.748242  0.000109  0.499945  1
