# generated using pymatgen
data_Cs4SmWCl12
_symmetry_space_group_name_H-M   'P 1'
_cell_length_a   13.08039268
_cell_length_b   13.08039320
_cell_length_c   13.08039200
_cell_angle_alpha   131.87221458
_cell_angle_beta   131.87221074
_cell_angle_gamma   70.43093132
_symmetry_Int_Tables_number   1
_chemical_formula_structural   Cs4SmWCl12
_chemical_formula_sum   'Cs8 Sm2 W2 Cl24'
_cell_volume   1216.01116881
_cell_formula_units_Z   2
loop_
 _symmetry_equiv_pos_site_id
 _symmetry_equiv_pos_as_xyz
  1  'x, y, z'
loop_
 _atom_site_type_symbol
 _atom_site_label
 _atom_site_symmetry_multiplicity
 _atom_site_fract_x
 _atom_site_fract_y
 _atom_site_fract_z
 _atom_site_occupancy
  Cs  Cs0  1  0.374935  0.846945  0.971951  1
  Cs  Cs1  1  0.596945  0.624935  0.471951  1
  Cs  Cs2  1  0.874991  0.847016  0.471934  1
  Cs  Cs3  1  0.597016  0.124991  0.971934  1
  Cs  Cs4  1  0.875009  0.402984  0.028066  1
  Cs  Cs5  1  0.152984  0.125009  0.528066  1
  Cs  Cs6  1  0.375065  0.403055  0.528049  1
  Cs  Cs7  1  0.153055  0.625065  0.028049  1
  Sm  Sm8  1  0.499993  0.500007  0.000000  1
  Sm  Sm9  1  0.250007  0.749993  0.500000  1
  W  W10  1  0.000008  0.999992  0.000000  1
  W  W11  1  0.749992  0.250008  0.500000  1
  Cl  Cl12  1  0.748098  0.495230  0.252933  1
  Cl  Cl13  1  0.504770  0.251902  0.747067  1
  Cl  Cl14  1  0.373712  0.373723  0.999918  1
  Cl  Cl15  1  0.123723  0.623712  0.499918  1
  Cl  Cl16  1  0.376288  0.876277  0.500082  1
  Cl  Cl17  1  0.626277  0.626288  0.000082  1
  Cl  Cl18  1  0.110178  0.110204  0.000204  1
  Cl  Cl19  1  0.860204  0.360178  0.500204  1
  Cl  Cl20  1  0.639822  0.139796  0.499796  1
  Cl  Cl21  1  0.889796  0.889822  0.999796  1
  Cl  Cl22  1  0.221152  0.000008  0.219510  1
  Cl  Cl23  1  0.751489  0.030383  0.280473  1
  Cl  Cl24  1  0.504879  0.757748  0.252946  1
  Cl  Cl25  1  0.528848  0.249992  0.280490  1
  Cl  Cl26  1  0.969617  0.248511  0.719527  1
  Cl  Cl27  1  0.998511  0.219617  0.219527  1
  Cl  Cl28  1  0.999992  0.778848  0.780490  1
  Cl  Cl29  1  0.780383  0.001489  0.780473  1
  Cl  Cl30  1  0.750008  0.471152  0.719510  1
  Cl  Cl31  1  0.245121  0.492252  0.247054  1
  Cl  Cl32  1  0.245230  0.998098  0.752933  1
  Cl  Cl33  1  0.001902  0.754770  0.247067  1
  Cl  Cl34  1  0.507748  0.754879  0.752946  1
  Cl  Cl35  1  0.242252  0.495121  0.747054  1
