# generated using pymatgen
data_LiHf2Fe(BIr2)2
_symmetry_space_group_name_H-M   'P 1'
_cell_length_a   9.17976100
_cell_length_b   9.17976100
_cell_length_c   3.05567800
_cell_angle_alpha   90.00000000
_cell_angle_beta   90.00000000
_cell_angle_gamma   90.00000000
_symmetry_Int_Tables_number   1
_chemical_formula_structural   LiHf2Fe(BIr2)2
_chemical_formula_sum   'Li2 Hf4 Fe2 B4 Ir8'
_cell_volume   257.49591042
_cell_formula_units_Z   2
loop_
 _symmetry_equiv_pos_site_id
 _symmetry_equiv_pos_as_xyz
  1  'x, y, z'
loop_
 _atom_site_type_symbol
 _atom_site_label
 _atom_site_symmetry_multiplicity
 _atom_site_fract_x
 _atom_site_fract_y
 _atom_site_fract_z
 _atom_site_occupancy
  Li  Li0  1  0.500000  0.500000  0.000000  1
  Li  Li1  1  0.000000  0.000000  0.000000  1
  Hf  Hf2  1  0.174235  0.674235  0.000000  1
  Hf  Hf3  1  0.325765  0.174235  0.000000  1
  Hf  Hf4  1  0.825765  0.325765  0.000000  1
  Hf  Hf5  1  0.674235  0.825765  0.000000  1
  Fe  Fe6  1  0.000000  0.500000  0.500000  1
  Fe  Fe7  1  0.500000  0.000000  0.500000  1
  B  B8  1  0.382070  0.882070  0.000000  1
  B  B9  1  0.117930  0.382070  0.000000  1
  B  B10  1  0.882070  0.617930  0.000000  1
  B  B11  1  0.617930  0.117930  0.000000  1
  Ir  Ir12  1  0.218348  0.936332  0.500000  1
  Ir  Ir13  1  0.936332  0.781652  0.500000  1
  Ir  Ir14  1  0.436332  0.718348  0.500000  1
  Ir  Ir15  1  0.563668  0.281652  0.500000  1
  Ir  Ir16  1  0.718348  0.563668  0.500000  1
  Ir  Ir17  1  0.281652  0.436332  0.500000  1
  Ir  Ir18  1  0.063668  0.218348  0.500000  1
  Ir  Ir19  1  0.781652  0.063668  0.500000  1
