# generated using pymatgen
data_CeHo2SiPd5
_symmetry_space_group_name_H-M   'P 1'
_cell_length_a   8.30461620
_cell_length_b   8.30461589
_cell_length_c   8.30461565
_cell_angle_alpha   128.29856328
_cell_angle_beta   125.86379567
_cell_angle_gamma   78.13421578
_symmetry_Int_Tables_number   1
_chemical_formula_structural   CeHo2SiPd5
_chemical_formula_sum   'Ce2 Ho4 Si2 Pd10'
_cell_volume   352.92424568
_cell_formula_units_Z   2
loop_
 _symmetry_equiv_pos_site_id
 _symmetry_equiv_pos_as_xyz
  1  'x, y, z'
loop_
 _atom_site_type_symbol
 _atom_site_label
 _atom_site_symmetry_multiplicity
 _atom_site_fract_x
 _atom_site_fract_y
 _atom_site_fract_z
 _atom_site_occupancy
  Ce  Ce0  1  0.381260  0.250000  0.131260  1
  Ce  Ce1  1  0.618740  0.750000  0.868740  1
  Ho  Ho2  1  0.223996  0.449777  0.774220  1
  Ho  Ho3  1  0.776004  0.550223  0.225780  1
  Ho  Ho4  1  0.824443  0.050223  0.774220  1
  Ho  Ho5  1  0.175557  0.949777  0.225780  1
  Si  Si6  1  0.783295  0.250000  0.533295  1
  Si  Si7  1  0.216705  0.750000  0.466705  1
  Pd  Pd8  1  0.166009  0.398067  0.354406  1
  Pd  Pd9  1  0.833991  0.188397  0.232058  1
  Pd  Pd10  1  0.456339  0.101933  0.767942  1
  Pd  Pd11  1  0.543661  0.311603  0.645594  1
  Pd  Pd12  1  0.000000  0.500000  0.000000  1
  Pd  Pd13  1  0.000000  0.000000  0.500000  1
  Pd  Pd14  1  0.456339  0.688397  0.354406  1
  Pd  Pd15  1  0.543661  0.898067  0.232058  1
  Pd  Pd16  1  0.166009  0.811603  0.767942  1
  Pd  Pd17  1  0.833991  0.601933  0.645594  1
