# generated using pymatgen
data_Tb4MnI4
_symmetry_space_group_name_H-M   'P 1'
_cell_length_a   11.25117435
_cell_length_b   11.25117631
_cell_length_c   6.08156819
_cell_angle_alpha   89.98317564
_cell_angle_beta   89.98317941
_cell_angle_gamma   89.94461398
_symmetry_Int_Tables_number   1
_chemical_formula_structural   Tb4MnI4
_chemical_formula_sum   'Tb8 Mn2 I8'
_cell_volume   769.85888321
_cell_formula_units_Z   2
loop_
 _symmetry_equiv_pos_site_id
 _symmetry_equiv_pos_as_xyz
  1  'x, y, z'
loop_
 _atom_site_type_symbol
 _atom_site_label
 _atom_site_symmetry_multiplicity
 _atom_site_fract_x
 _atom_site_fract_y
 _atom_site_fract_z
 _atom_site_occupancy
  Tb  Tb0  1  0.803744  0.080638  0.000264  1
  Tb  Tb1  1  0.080638  0.803744  0.500264  1
  Tb  Tb2  1  0.080447  0.196125  0.000158  1
  Tb  Tb3  1  0.196125  0.080447  0.500158  1
  Tb  Tb4  1  0.919553  0.803875  0.999842  1
  Tb  Tb5  1  0.919362  0.196256  0.499736  1
  Tb  Tb6  1  0.196256  0.919362  0.999736  1
  Tb  Tb7  1  0.803875  0.919553  0.499842  1
  Mn  Mn8  1  0.999977  0.000023  0.250000  1
  Mn  Mn9  1  0.000023  0.999977  0.750000  1
  I  I10  1  0.642244  0.150363  0.497331  1
  I  I11  1  0.849946  0.642393  0.502907  1
  I  I12  1  0.357607  0.150054  0.997093  1
  I  I13  1  0.150054  0.357607  0.497093  1
  I  I14  1  0.642393  0.849946  0.002907  1
  I  I15  1  0.357756  0.849637  0.502669  1
  I  I16  1  0.150363  0.642244  0.997331  1
  I  I17  1  0.849637  0.357756  0.002669  1
