# generated using pymatgen
data_Er2CrFeC3
_symmetry_space_group_name_H-M   'P 1'
_cell_length_a   5.35540498
_cell_length_b   5.35540472
_cell_length_c   5.49391769
_cell_angle_alpha   74.96053620
_cell_angle_beta   74.96053879
_cell_angle_gamma   36.73970030
_symmetry_Int_Tables_number   1
_chemical_formula_structural   Er2CrFeC3
_chemical_formula_sum   'Er2 Cr1 Fe1 C3'
_cell_volume   90.66235260
_cell_formula_units_Z   1
loop_
 _symmetry_equiv_pos_site_id
 _symmetry_equiv_pos_as_xyz
  1  'x, y, z'
loop_
 _atom_site_type_symbol
 _atom_site_label
 _atom_site_symmetry_multiplicity
 _atom_site_fract_x
 _atom_site_fract_y
 _atom_site_fract_z
 _atom_site_occupancy
  Er  Er0  1  0.396710  0.396710  0.315125  1
  Er  Er1  1  0.608878  0.608878  0.685996  1
  Cr  Cr2  1  0.843266  0.843266  0.894824  1
  Fe  Fe3  1  0.157578  0.157578  0.110290  1
  C  C4  1  0.708399  0.708399  0.228270  1
  C  C5  1  0.285476  0.285476  0.765129  1
  C  C6  1  0.999693  0.999693  0.000367  1
