# generated using pymatgen
data_Dy4GeBi3Sb2Rh7
_symmetry_space_group_name_H-M   'P 1'
_cell_length_a   7.66772481
_cell_length_b   7.63811290
_cell_length_c   7.71812942
_cell_angle_alpha   107.79426158
_cell_angle_beta   110.55593434
_cell_angle_gamma   110.13857040
_symmetry_Int_Tables_number   1
_chemical_formula_structural   Dy4GeBi3Sb2Rh7
_chemical_formula_sum   'Dy4 Ge1 Bi3 Sb2 Rh7'
_cell_volume   347.47302869
_cell_formula_units_Z   1
loop_
 _symmetry_equiv_pos_site_id
 _symmetry_equiv_pos_as_xyz
  1  'x, y, z'
loop_
 _atom_site_type_symbol
 _atom_site_label
 _atom_site_symmetry_multiplicity
 _atom_site_fract_x
 _atom_site_fract_y
 _atom_site_fract_z
 _atom_site_occupancy
  Dy  Dy0  1  0.000002  0.989235  0.538301  1
  Dy  Dy1  1  0.999999  0.509344  0.985898  1
  Dy  Dy2  1  0.461840  0.989146  0.985824  1
  Dy  Dy3  1  0.538163  0.527298  0.523973  1
  Ge  Ge4  1  0.000000  0.650507  0.655576  1
  Bi  Bi5  1  0.697801  0.707019  0.015258  1
  Bi  Bi6  1  0.302196  0.009238  0.317460  1
  Bi  Bi7  1  0.000012  0.302113  0.308063  1
  Sb  Sb8  1  0.325335  0.333171  0.012737  1
  Sb  Sb9  1  0.674677  0.007816  0.687390  1
  Rh  Rh10  1  0.752182  0.255132  0.507897  1
  Rh  Rh11  1  0.751929  0.501842  0.260755  1
  Rh  Rh12  1  0.501866  0.256689  0.762342  1
  Rh  Rh13  1  0.247819  0.502963  0.755709  1
  Rh  Rh14  1  0.248058  0.749895  0.508817  1
  Rh  Rh15  1  0.498094  0.754817  0.260426  1
  Rh  Rh16  1  0.000027  0.953775  0.913575  1
