# generated using pymatgen
data_Tb3Dy2Y(AlC3)2
_symmetry_space_group_name_H-M   'P 1'
_cell_length_a   3.58686700
_cell_length_b   7.08267343
_cell_length_c   10.00998124
_cell_angle_alpha   89.91515228
_cell_angle_beta   90.00000000
_cell_angle_gamma   90.00000000
_symmetry_Int_Tables_number   1
_chemical_formula_structural   Tb3Dy2Y(AlC3)2
_chemical_formula_sum   'Tb3 Dy2 Y1 Al2 C6'
_cell_volume   254.29936644
_cell_formula_units_Z   1
loop_
 _symmetry_equiv_pos_site_id
 _symmetry_equiv_pos_as_xyz
  1  'x, y, z'
loop_
 _atom_site_type_symbol
 _atom_site_label
 _atom_site_symmetry_multiplicity
 _atom_site_fract_x
 _atom_site_fract_y
 _atom_site_fract_z
 _atom_site_occupancy
  Tb  Tb0  1  0.500000  0.509511  0.199429  1
  Tb  Tb1  1  0.000000  0.750007  0.458855  1
  Tb  Tb2  1  0.000000  0.250034  0.541612  1
  Dy  Dy3  1  0.500000  0.488896  0.800210  1
  Dy  Dy4  1  0.500000  0.989360  0.199704  1
  Y  Y5  1  0.500000  0.009828  0.800436  1
  Al  Al6  1  0.000000  0.750640  0.005828  1
  Al  Al7  1  0.000000  0.249432  0.993631  1
  C  C8  1  0.500000  0.509067  0.566323  1
  C  C9  1  0.500000  0.490943  0.434642  1
  C  C10  1  0.500000  0.990910  0.565608  1
  C  C11  1  0.500000  0.009039  0.433963  1
  C  C12  1  0.000000  0.751088  0.208115  1
  C  C13  1  0.000000  0.251245  0.791645  1
