# generated using pymatgen
data_Dy2Er3Nb3(Co4P3)4
_symmetry_space_group_name_H-M   'P 1'
_cell_length_a   12.18867700
_cell_length_b   12.18867682
_cell_length_c   3.69624100
_cell_angle_alpha   90.00000000
_cell_angle_beta   90.00000000
_cell_angle_gamma   119.99999778
_symmetry_Int_Tables_number   1
_chemical_formula_structural   Dy2Er3Nb3(Co4P3)4
_chemical_formula_sum   'Dy2 Er3 Nb3 Co16 P12'
_cell_volume   475.55861310
_cell_formula_units_Z   1
loop_
 _symmetry_equiv_pos_site_id
 _symmetry_equiv_pos_as_xyz
  1  'x, y, z'
loop_
 _atom_site_type_symbol
 _atom_site_label
 _atom_site_symmetry_multiplicity
 _atom_site_fract_x
 _atom_site_fract_y
 _atom_site_fract_z
 _atom_site_occupancy
  Dy  Dy0  1  0.333333  0.666667  0.000000  1
  Dy  Dy1  1  0.666667  0.333333  0.000000  1
  Er  Er2  1  0.816714  0.000000  0.500000  1
  Er  Er3  1  0.000000  0.816714  0.500000  1
  Er  Er4  1  0.183286  0.183286  0.500000  1
  Nb  Nb5  1  0.444760  0.000000  0.000000  1
  Nb  Nb6  1  0.000000  0.444760  0.000000  1
  Nb  Nb7  1  0.555240  0.555240  0.000000  1
  Co  Co8  1  0.278738  0.000000  0.500000  1
  Co  Co9  1  0.000000  0.278738  0.500000  1
  Co  Co10  1  0.721262  0.721262  0.500000  1
  Co  Co11  1  0.626859  0.803602  0.000000  1
  Co  Co12  1  0.196398  0.823256  0.000000  1
  Co  Co13  1  0.176744  0.373141  0.000000  1
  Co  Co14  1  0.373141  0.176744  0.000000  1
  Co  Co15  1  0.803602  0.626859  0.000000  1
  Co  Co16  1  0.823256  0.196398  0.000000  1
  Co  Co17  1  0.519968  0.873293  0.500000  1
  Co  Co18  1  0.126707  0.646675  0.500000  1
  Co  Co19  1  0.353325  0.480032  0.500000  1
  Co  Co20  1  0.480032  0.353325  0.500000  1
  Co  Co21  1  0.873293  0.519968  0.500000  1
  Co  Co22  1  0.646675  0.126707  0.500000  1
  Co  Co23  1  0.000000  0.000000  0.000000  1
  P  P24  1  0.178007  0.000000  0.000000  1
  P  P25  1  0.000000  0.178007  0.000000  1
  P  P26  1  0.821993  0.821993  0.000000  1
  P  P27  1  0.520633  0.688424  0.500000  1
  P  P28  1  0.311576  0.832209  0.500000  1
  P  P29  1  0.167791  0.479367  0.500000  1
  P  P30  1  0.479367  0.167791  0.500000  1
  P  P31  1  0.688424  0.520633  0.500000  1
  P  P32  1  0.832209  0.311576  0.500000  1
  P  P33  1  0.644803  0.000000  0.000000  1
  P  P34  1  0.000000  0.644803  0.000000  1
  P  P35  1  0.355197  0.355197  0.000000  1
