# generated using pymatgen
data_CuRu(NF10)2
_symmetry_space_group_name_H-M   'P 1'
_cell_length_a   5.62948290
_cell_length_b   7.62331903
_cell_length_c   9.02634700
_cell_angle_alpha   88.73946646
_cell_angle_beta   109.33204063
_cell_angle_gamma   96.69047612
_symmetry_Int_Tables_number   1
_chemical_formula_structural   CuRu(NF10)2
_chemical_formula_sum   'Cu1 Ru1 N2 F20'
_cell_volume   362.98140105
_cell_formula_units_Z   1
loop_
 _symmetry_equiv_pos_site_id
 _symmetry_equiv_pos_as_xyz
  1  'x, y, z'
loop_
 _atom_site_type_symbol
 _atom_site_label
 _atom_site_symmetry_multiplicity
 _atom_site_fract_x
 _atom_site_fract_y
 _atom_site_fract_z
 _atom_site_occupancy
  Cu  Cu0  1  0.002665  0.246205  0.706150  1
  Ru  Ru1  1  0.996078  0.754691  0.295468  1
  N  N2  1  0.296752  0.274016  0.214872  1
  N  N3  1  0.704838  0.725600  0.785352  1
  F  F4  1  0.058672  0.232981  0.213959  1
  F  F5  1  0.941552  0.767248  0.786234  1
  F  F6  1  0.370416  0.139066  0.154668  1
  F  F7  1  0.629219  0.860929  0.844466  1
  F  F8  1  0.932084  0.195667  0.886200  1
  F  F9  1  0.070389  0.805623  0.106512  1
  F  F10  1  0.072164  0.297797  0.528380  1
  F  F11  1  0.922901  0.701999  0.480659  1
  F  F12  1  0.795871  0.054024  0.609462  1
  F  F13  1  0.216929  0.955192  0.393414  1
  F  F14  1  0.264211  0.116242  0.773734  1
  F  F15  1  0.721404  0.890787  0.221925  1
  F  F16  1  0.206195  0.442657  0.801987  1
  F  F17  1  0.785025  0.547987  0.194264  1
  F  F18  1  0.738525  0.375158  0.640296  1
  F  F19  1  0.272893  0.618750  0.361854  1
  F  F20  1  0.693966  0.583332  0.873627  1
  F  F21  1  0.305303  0.415801  0.125980  1
  F  F22  1  0.549159  0.691306  0.638166  1
  F  F23  1  0.452789  0.306941  0.362370  1
