# generated using pymatgen
data_Pr4Zr3ReF28
_symmetry_space_group_name_H-M   'P 1'
_cell_length_a   5.86981610
_cell_length_b   9.38427086
_cell_length_c   12.60467172
_cell_angle_alpha   62.05717294
_cell_angle_beta   90.01473801
_cell_angle_gamma   89.95656516
_symmetry_Int_Tables_number   1
_chemical_formula_structural   Pr4Zr3ReF28
_chemical_formula_sum   'Pr4 Zr3 Re1 F28'
_cell_volume   613.36842108
_cell_formula_units_Z   1
loop_
 _symmetry_equiv_pos_site_id
 _symmetry_equiv_pos_as_xyz
  1  'x, y, z'
loop_
 _atom_site_type_symbol
 _atom_site_label
 _atom_site_symmetry_multiplicity
 _atom_site_fract_x
 _atom_site_fract_y
 _atom_site_fract_z
 _atom_site_occupancy
  Pr  Pr0  1  0.757625  0.814328  0.764190  1
  Pr  Pr1  1  0.256389  0.187659  0.731997  1
  Pr  Pr2  1  0.241466  0.187316  0.237722  1
  Pr  Pr3  1  0.743274  0.810735  0.266609  1
  Zr  Zr4  1  0.753947  0.273980  0.956886  1
  Zr  Zr5  1  0.255267  0.725467  0.543341  1
  Zr  Zr6  1  0.245619  0.726080  0.043125  1
  Re  Re7  1  0.742896  0.273649  0.456481  1
  F  F8  1  0.457180  0.711432  0.920467  1
  F  F9  1  0.943348  0.288877  0.577738  1
  F  F10  1  0.540391  0.287926  0.079423  1
  F  F11  1  0.046164  0.711738  0.419666  1
  F  F12  1  0.464138  0.282644  0.543451  1
  F  F13  1  0.957967  0.719901  0.952548  1
  F  F14  1  0.543687  0.716007  0.454877  1
  F  F15  1  0.039163  0.280401  0.049036  1
  F  F16  1  0.769688  0.519320  0.861085  1
  F  F17  1  0.266160  0.480081  0.638089  1
  F  F18  1  0.228499  0.480940  0.139926  1
  F  F19  1  0.736069  0.512428  0.361538  1
  F  F20  1  0.759974  0.029253  0.057073  1
  F  F21  1  0.263190  0.970246  0.445288  1
  F  F22  1  0.238926  0.970638  0.941799  1
  F  F23  1  0.739475  0.035146  0.551245  1
  F  F24  1  0.980732  0.732711  0.640050  1
  F  F25  1  0.484017  0.267713  0.856901  1
  F  F26  1  0.013522  0.267671  0.364325  1
  F  F27  1  0.518110  0.731861  0.141617  1
  F  F28  1  0.045112  0.746927  0.168391  1
  F  F29  1  0.546497  0.258385  0.333287  1
  F  F30  1  0.959401  0.254736  0.832043  1
  F  F31  1  0.456920  0.743957  0.669386  1
  F  F32  1  0.418392  0.969451  0.234706  1
  F  F33  1  0.917791  0.029775  0.269090  1
  F  F34  1  0.583321  0.032183  0.766799  1
  F  F35  1  0.085678  0.968438  0.729809  1
