# generated using pymatgen
data_Sr5Sm2Ho13Sn16
_symmetry_space_group_name_H-M   'P 1'
_cell_length_a   8.06442593
_cell_length_b   8.40923686
_cell_length_c   15.91343300
_cell_angle_alpha   90.15377939
_cell_angle_beta   90.74182831
_cell_angle_gamma   89.62048508
_symmetry_Int_Tables_number   1
_chemical_formula_structural   Sr5Sm2Ho13Sn16
_chemical_formula_sum   'Sr5 Sm2 Ho13 Sn16'
_cell_volume   1079.06231821
_cell_formula_units_Z   1
loop_
 _symmetry_equiv_pos_site_id
 _symmetry_equiv_pos_as_xyz
  1  'x, y, z'
loop_
 _atom_site_type_symbol
 _atom_site_label
 _atom_site_symmetry_multiplicity
 _atom_site_fract_x
 _atom_site_fract_y
 _atom_site_fract_z
 _atom_site_occupancy
  Sr  Sr0  1  0.005128  0.174269  0.598720  1
  Sr  Sr1  1  0.499373  0.675257  0.409286  1
  Sr  Sr2  1  0.998530  0.820894  0.088360  1
  Sr  Sr3  1  0.494658  0.677595  0.088429  1
  Sr  Sr4  1  0.999491  0.824323  0.408862  1
  Sm  Sm5  1  0.500576  0.321135  0.601947  1
  Sm  Sm6  1  0.002128  0.181317  0.901928  1
  Ho  Ho7  1  0.337325  0.835043  0.872840  1
  Ho  Ho8  1  0.830886  0.663950  0.627361  1
  Ho  Ho9  1  0.665227  0.164584  0.376164  1
  Ho  Ho10  1  0.157691  0.340610  0.120659  1
  Ho  Ho11  1  0.659022  0.162536  0.123461  1
  Ho  Ho12  1  0.165580  0.336249  0.376680  1
  Ho  Ho13  1  0.332312  0.834700  0.629276  1
  Ho  Ho14  1  0.838468  0.660110  0.875907  1
  Ho  Ho15  1  0.508201  0.320106  0.900097  1
  Ho  Ho16  1  0.172672  0.496806  0.753050  1
  Ho  Ho17  1  0.671776  0.002012  0.751377  1
  Ho  Ho18  1  0.824011  0.503968  0.247510  1
  Ho  Ho19  1  0.327009  0.998215  0.248650  1
  Sn  Sn20  1  0.327551  0.055587  0.033570  1
  Sn  Sn21  1  0.831907  0.454560  0.461394  1
  Sn  Sn22  1  0.663518  0.966959  0.546570  1
  Sn  Sn23  1  0.187248  0.528851  0.950983  1
  Sn  Sn24  1  0.675253  0.970978  0.952037  1
  Sn  Sn25  1  0.171785  0.536922  0.546888  1
  Sn  Sn26  1  0.337235  0.049211  0.463197  1
  Sn  Sn27  1  0.815881  0.445413  0.035591  1
  Sn  Sn28  1  0.534112  0.623104  0.750097  1
  Sn  Sn29  1  0.031120  0.870515  0.752887  1
  Sn  Sn30  1  0.460855  0.368510  0.250730  1
  Sn  Sn31  1  0.964573  0.133528  0.248853  1
  Sn  Sn32  1  0.311381  0.146977  0.755034  1
  Sn  Sn33  1  0.803112  0.355898  0.753626  1
  Sn  Sn34  1  0.696846  0.863996  0.249174  1
  Sn  Sn35  1  0.197562  0.635310  0.248809  1
