# generated using pymatgen
data_AcPa(SnIr)2
_symmetry_space_group_name_H-M   'P 1'
_cell_length_a   7.58760003
_cell_length_b   7.58684263
_cell_length_c   8.44428000
_cell_angle_alpha   90.00098023
_cell_angle_beta   89.99566597
_cell_angle_gamma   119.99142047
_symmetry_Int_Tables_number   1
_chemical_formula_structural   AcPa(SnIr)2
_chemical_formula_sum   'Ac3 Pa3 Sn6 Ir6'
_cell_volume   421.01377083
_cell_formula_units_Z   3
loop_
 _symmetry_equiv_pos_site_id
 _symmetry_equiv_pos_as_xyz
  1  'x, y, z'
loop_
 _atom_site_type_symbol
 _atom_site_label
 _atom_site_symmetry_multiplicity
 _atom_site_fract_x
 _atom_site_fract_y
 _atom_site_fract_z
 _atom_site_occupancy
  Ac  Ac0  1  0.586343  0.585394  0.750003  1
  Ac  Ac1  1  0.999309  0.413749  0.750004  1
  Ac  Ac2  1  0.414409  0.000646  0.749999  1
  Pa  Pa3  1  0.409530  0.998071  0.249999  1
  Pa  Pa4  1  0.588618  0.590418  0.250007  1
  Pa  Pa5  1  0.001779  0.411304  0.249998  1
  Sn  Sn6  1  0.249780  0.249158  0.491329  1
  Sn  Sn7  1  0.249787  0.249145  0.008674  1
  Sn  Sn8  1  0.750881  0.000678  0.008614  1
  Sn  Sn9  1  0.999327  0.750197  0.491279  1
  Sn  Sn10  1  0.750874  0.000683  0.491384  1
  Sn  Sn11  1  0.999330  0.750198  0.008718  1
  Ir  Ir12  1  0.666873  0.333533  0.454695  1
  Ir  Ir13  1  0.666882  0.333531  0.045309  1
  Ir  Ir14  1  0.333183  0.666606  0.041043  1
  Ir  Ir15  1  0.333185  0.666614  0.458948  1
  Ir  Ir16  1  0.999910  0.000012  0.749999  1
  Ir  Ir17  1  0.000000  0.000064  0.249998  1
