# generated using pymatgen
data_Ta9Al2Zn2Ge
_symmetry_space_group_name_H-M   'P 1'
_cell_length_a   9.91247696
_cell_length_b   9.91247426
_cell_length_c   9.91248305
_cell_angle_alpha   93.85261787
_cell_angle_beta   93.85260898
_cell_angle_gamma   149.95349927
_symmetry_Int_Tables_number   1
_chemical_formula_structural   Ta9Al2Zn2Ge
_chemical_formula_sum   'Ta18 Al4 Zn4 Ge2'
_cell_volume   471.00255502
_cell_formula_units_Z   2
loop_
 _symmetry_equiv_pos_site_id
 _symmetry_equiv_pos_as_xyz
  1  'x, y, z'
loop_
 _atom_site_type_symbol
 _atom_site_label
 _atom_site_symmetry_multiplicity
 _atom_site_fract_x
 _atom_site_fract_y
 _atom_site_fract_z
 _atom_site_occupancy
  Ta  Ta0  1  0.563564  0.792578  0.356144  1
  Ta  Ta1  1  0.082858  0.157948  0.240806  1
  Ta  Ta2  1  0.582843  0.341996  0.924842  1
  Ta  Ta3  1  0.658012  0.582818  0.240829  1
  Ta  Ta4  1  0.342056  0.417133  0.759188  1
  Ta  Ta5  1  0.792532  0.436472  0.229003  1
  Ta  Ta6  1  0.417160  0.657956  0.075114  1
  Ta  Ta7  1  0.157972  0.917132  0.075101  1
  Ta  Ta8  1  0.707450  0.936453  0.643906  1
  Ta  Ta9  1  0.436492  0.207472  0.643966  1
  Ta  Ta10  1  0.917174  0.841991  0.759163  1
  Ta  Ta11  1  0.063508  0.707477  0.770988  1
  Ta  Ta12  1  0.207426  0.563546  0.770971  1
  Ta  Ta13  1  0.249987  0.750038  0.500027  1
  Ta  Ta14  1  0.292556  0.063527  0.356085  1
  Ta  Ta15  1  0.749989  0.250039  0.500026  1
  Ta  Ta16  1  0.842014  0.082816  0.924830  1
  Ta  Ta17  1  0.936437  0.292584  0.229022  1
  Al  Al18  1  0.370314  0.870387  0.240701  1
  Al  Al19  1  0.870362  0.629676  0.500038  1
  Al  Al20  1  0.129665  0.370373  0.500038  1
  Al  Al21  1  0.629618  0.129690  0.759308  1
  Zn  Zn22  1  0.499966  0.000014  0.999987  1
  Zn  Zn23  1  0.999973  0.500022  0.999986  1
  Zn  Zn24  1  0.500021  0.499999  0.500027  1
  Zn  Zn25  1  0.000029  0.000007  0.500027  1
  Ge  Ge26  1  0.750011  0.749927  0.999939  1
  Ge  Ge27  1  0.250011  0.249927  0.999939  1
