# generated using pymatgen
data_Pr6HoErAu4
_symmetry_space_group_name_H-M   'P 1'
_cell_length_a   5.04674900
_cell_length_b   7.40879027
_cell_length_c   9.28115765
_cell_angle_alpha   89.84209161
_cell_angle_beta   90.00000000
_cell_angle_gamma   90.00000000
_symmetry_Int_Tables_number   1
_chemical_formula_structural   Pr6HoErAu4
_chemical_formula_sum   'Pr6 Ho1 Er1 Au4'
_cell_volume   347.02399649
_cell_formula_units_Z   1
loop_
 _symmetry_equiv_pos_site_id
 _symmetry_equiv_pos_as_xyz
  1  'x, y, z'
loop_
 _atom_site_type_symbol
 _atom_site_label
 _atom_site_symmetry_multiplicity
 _atom_site_fract_x
 _atom_site_fract_y
 _atom_site_fract_z
 _atom_site_occupancy
  Pr  Pr0  1  0.250000  0.489029  0.175318  1
  Pr  Pr1  1  0.750000  0.510231  0.824728  1
  Pr  Pr2  1  0.250000  0.991967  0.324202  1
  Pr  Pr3  1  0.750000  0.008228  0.675900  1
  Pr  Pr4  1  0.750000  0.650573  0.410780  1
  Pr  Pr5  1  0.250000  0.349472  0.589010  1
  Ho  Ho6  1  0.250000  0.851830  0.922971  1
  Er  Er7  1  0.750000  0.148126  0.077305  1
  Au  Au8  1  0.250000  0.240942  0.912995  1
  Au  Au9  1  0.750000  0.759779  0.087582  1
  Au  Au10  1  0.250000  0.757446  0.611037  1
  Au  Au11  1  0.750000  0.242376  0.388173  1
