# generated using pymatgen
data_CaHoAl20IrRu3
_symmetry_space_group_name_H-M   'P 1'
_cell_length_a   6.85580559
_cell_length_b   6.84959799
_cell_length_c   9.14197883
_cell_angle_alpha   90.09423505
_cell_angle_beta   90.03484739
_cell_angle_gamma   96.68657100
_symmetry_Int_Tables_number   1
_chemical_formula_structural   CaHoAl20IrRu3
_chemical_formula_sum   'Ca1 Ho1 Al20 Ir1 Ru3'
_cell_volume   426.38201901
_cell_formula_units_Z   1
loop_
 _symmetry_equiv_pos_site_id
 _symmetry_equiv_pos_as_xyz
  1  'x, y, z'
loop_
 _atom_site_type_symbol
 _atom_site_label
 _atom_site_symmetry_multiplicity
 _atom_site_fract_x
 _atom_site_fract_y
 _atom_site_fract_z
 _atom_site_occupancy
  Ca  Ca0  1  0.873462  0.125378  0.750179  1
  Ho  Ho1  1  0.128057  0.874021  0.249863  1
  Al  Al2  1  0.621028  0.375703  0.545234  1
  Al  Al3  1  0.378722  0.624136  0.447030  1
  Al  Al4  1  0.376674  0.623292  0.052152  1
  Al  Al5  1  0.623493  0.376111  0.955103  1
  Al  Al6  1  0.225798  0.224313  0.497998  1
  Al  Al7  1  0.772690  0.776908  0.500339  1
  Al  Al8  1  0.773562  0.775404  0.001398  1
  Al  Al9  1  0.225130  0.226042  0.000443  1
  Al  Al10  1  0.845327  0.155373  0.100336  1
  Al  Al11  1  0.158955  0.840102  0.900379  1
  Al  Al12  1  0.160054  0.842575  0.600945  1
  Al  Al13  1  0.843908  0.153348  0.398267  1
  Al  Al14  1  0.856937  0.587872  0.751711  1
  Al  Al15  1  0.141767  0.414485  0.248529  1
  Al  Al16  1  0.413525  0.142625  0.750376  1
  Al  Al17  1  0.584726  0.859192  0.249628  1
  Al  Al18  1  0.221143  0.479362  0.752189  1
  Al  Al19  1  0.778926  0.519011  0.247827  1
  Al  Al20  1  0.520491  0.779402  0.749665  1
  Al  Al21  1  0.481359  0.221011  0.250210  1
  Ir  Ir22  1  0.999438  0.501918  0.499129  1
  Ru  Ru23  1  0.999558  0.502220  0.001039  1
  Ru  Ru24  1  0.497399  0.999957  0.001065  1
  Ru  Ru25  1  0.497874  0.000237  0.498967  1
