# generated using pymatgen
data_DyHo8Th3Ru4
_symmetry_space_group_name_H-M   'P 1'
_cell_length_a   6.33045556
_cell_length_b   7.21630224
_cell_length_c   9.49136747
_cell_angle_alpha   90.02841665
_cell_angle_beta   90.05700623
_cell_angle_gamma   90.63871004
_symmetry_Int_Tables_number   1
_chemical_formula_structural   DyHo8Th3Ru4
_chemical_formula_sum   'Dy1 Ho8 Th3 Ru4'
_cell_volume   433.56200012
_cell_formula_units_Z   1
loop_
 _symmetry_equiv_pos_site_id
 _symmetry_equiv_pos_as_xyz
  1  'x, y, z'
loop_
 _atom_site_type_symbol
 _atom_site_label
 _atom_site_symmetry_multiplicity
 _atom_site_fract_x
 _atom_site_fract_y
 _atom_site_fract_z
 _atom_site_occupancy
  Dy  Dy0  1  0.334576  0.677412  0.063661  1
  Ho  Ho1  1  0.164675  0.175304  0.435029  1
  Ho  Ho2  1  0.668594  0.323849  0.566880  1
  Ho  Ho3  1  0.829557  0.823924  0.931144  1
  Ho  Ho4  1  0.668768  0.323603  0.933021  1
  Ho  Ho5  1  0.829539  0.823725  0.568801  1
  Ho  Ho6  1  0.334662  0.677189  0.436210  1
  Ho  Ho7  1  0.164439  0.175316  0.064923  1
  Ho  Ho8  1  0.361090  0.963129  0.749822  1
  Th  Th9  1  0.848798  0.547296  0.250242  1
  Th  Th10  1  0.647935  0.045662  0.250172  1
  Th  Th11  1  0.152199  0.451878  0.749796  1
  Ru  Ru12  1  0.033358  0.871735  0.250361  1
  Ru  Ru13  1  0.467689  0.369174  0.250345  1
  Ru  Ru14  1  0.962727  0.132053  0.750014  1
  Ru  Ru15  1  0.531394  0.618752  0.749579  1
