# generated using pymatgen
data_TlCrNiO4
_symmetry_space_group_name_H-M   'P 1'
_cell_length_a   9.28247066
_cell_length_b   8.63658301
_cell_length_c   8.71460500
_cell_angle_alpha   90.00108135
_cell_angle_beta   90.81134286
_cell_angle_gamma   90.00245895
_symmetry_Int_Tables_number   1
_chemical_formula_structural   TlCrNiO4
_chemical_formula_sum   'Tl8 Cr8 Ni8 O32'
_cell_volume   698.56962637
_cell_formula_units_Z   8
loop_
 _symmetry_equiv_pos_site_id
 _symmetry_equiv_pos_as_xyz
  1  'x, y, z'
loop_
 _atom_site_type_symbol
 _atom_site_label
 _atom_site_symmetry_multiplicity
 _atom_site_fract_x
 _atom_site_fract_y
 _atom_site_fract_z
 _atom_site_occupancy
  Tl  Tl0  1  0.625051  0.116208  0.125150  1
  Tl  Tl1  1  0.125076  0.616106  0.124715  1
  Tl  Tl2  1  0.375122  0.383852  0.375026  1
  Tl  Tl3  1  0.874838  0.883838  0.375092  1
  Tl  Tl4  1  0.125093  0.116347  0.625079  1
  Tl  Tl5  1  0.624895  0.616352  0.624926  1
  Tl  Tl6  1  0.874948  0.383685  0.875123  1
  Tl  Tl7  1  0.374969  0.883642  0.874899  1
  Cr  Cr8  1  0.749963  0.750028  0.999997  1
  Cr  Cr9  1  0.000011  0.250010  0.249875  1
  Cr  Cr10  1  0.499880  0.750048  0.250006  1
  Cr  Cr11  1  0.749930  0.250101  0.499914  1
  Cr  Cr12  1  0.249844  0.749856  0.500028  1
  Cr  Cr13  1  0.500084  0.249943  0.750082  1
  Cr  Cr14  1  0.999953  0.749961  0.749941  1
  Cr  Cr15  1  0.250216  0.250002  0.000078  1
  Ni  Ni16  1  0.000083  0.000137  0.000019  1
  Ni  Ni17  1  0.500256  0.500137  0.000011  1
  Ni  Ni18  1  0.499825  0.999841  0.499927  1
  Ni  Ni19  1  0.750034  0.500028  0.250003  1
  Ni  Ni20  1  0.249970  0.999975  0.249948  1
  Ni  Ni21  1  0.999994  0.500086  0.500056  1
  Ni  Ni22  1  0.749996  0.999866  0.750035  1
  Ni  Ni23  1  0.249968  0.500044  0.749899  1
  O  O24  1  0.227691  0.017641  0.012788  1
  O  O25  1  0.026019  0.243289  0.015988  1
  O  O26  1  0.727764  0.517803  0.012788  1
  O  O27  1  0.525895  0.743356  0.015951  1
  O  O28  1  0.022298  0.017700  0.237326  1
  O  O29  1  0.224194  0.243250  0.234126  1
  O  O30  1  0.522391  0.517762  0.237273  1
  O  O31  1  0.724032  0.743389  0.234035  1
  O  O32  1  0.977724  0.482327  0.262680  1
  O  O33  1  0.775932  0.256788  0.265943  1
  O  O34  1  0.275786  0.756649  0.265911  1
  O  O35  1  0.477568  0.982326  0.262727  1
  O  O36  1  0.772322  0.482371  0.487218  1
  O  O37  1  0.974111  0.256780  0.484065  1
  O  O38  1  0.473941  0.756656  0.483990  1
  O  O39  1  0.272192  0.982177  0.487245  1
  O  O40  1  0.727507  0.017725  0.512744  1
  O  O41  1  0.525837  0.243186  0.515966  1
  O  O42  1  0.025758  0.743216  0.515938  1
  O  O43  1  0.227588  0.517595  0.512745  1
  O  O44  1  0.522289  0.017591  0.737264  1
  O  O45  1  0.724131  0.243246  0.734019  1
  O  O46  1  0.224016  0.743182  0.734013  1
  O  O47  1  0.022312  0.517657  0.737350  1
  O  O48  1  0.276013  0.256661  0.766080  1
  O  O49  1  0.477741  0.482305  0.762687  1
  O  O50  1  0.775847  0.756763  0.765933  1
  O  O51  1  0.977687  0.982307  0.762711  1
  O  O52  1  0.474307  0.256787  0.984120  1
  O  O53  1  0.272533  0.482250  0.987215  1
  O  O54  1  0.974113  0.756787  0.984006  1
  O  O55  1  0.772412  0.982392  0.987285  1
