# generated using pymatgen
data_La12As(OsI4)3
_symmetry_space_group_name_H-M   'P 1'
_cell_length_a   11.13748017
_cell_length_b   11.13748037
_cell_length_c   11.13748103
_cell_angle_alpha   110.17859142
_cell_angle_beta   110.17858823
_cell_angle_gamma   110.17859350
_symmetry_Int_Tables_number   1
_chemical_formula_structural   La12As(OsI4)3
_chemical_formula_sum   'La12 As1 Os3 I12'
_cell_volume   1034.71462610
_cell_formula_units_Z   1
loop_
 _symmetry_equiv_pos_site_id
 _symmetry_equiv_pos_as_xyz
  1  'x, y, z'
loop_
 _atom_site_type_symbol
 _atom_site_label
 _atom_site_symmetry_multiplicity
 _atom_site_fract_x
 _atom_site_fract_y
 _atom_site_fract_z
 _atom_site_occupancy
  La  La0  1  0.462700  0.493839  0.221820  1
  La  La1  1  0.750000  0.228601  0.271399  1
  La  La2  1  0.750000  0.021875  0.478125  1
  La  La3  1  0.221820  0.462700  0.493839  1
  La  La4  1  0.271399  0.750000  0.228601  1
  La  La5  1  0.037300  0.278180  0.006161  1
  La  La6  1  0.006161  0.037300  0.278180  1
  La  La7  1  0.478125  0.750000  0.021875  1
  La  La8  1  0.493839  0.221820  0.462700  1
  La  La9  1  0.021875  0.478125  0.750000  1
  La  La10  1  0.278180  0.006161  0.037300  1
  La  La11  1  0.228601  0.271399  0.750000  1
  As  As12  1  0.250000  0.250000  0.250000  1
  Os  Os13  1  0.498407  0.001593  0.250000  1
  Os  Os14  1  0.001593  0.250000  0.498407  1
  Os  Os15  1  0.250000  0.498407  0.001593  1
  I  I16  1  0.250000  0.762248  0.737752  1
  I  I17  1  0.515432  0.503649  0.753087  1
  I  I18  1  0.984568  0.746913  0.996351  1
  I  I19  1  0.737752  0.250000  0.762248  1
  I  I20  1  0.996351  0.984568  0.746913  1
  I  I21  1  0.250000  0.994681  0.505319  1
  I  I22  1  0.753087  0.515432  0.503649  1
  I  I23  1  0.505319  0.250000  0.994681  1
  I  I24  1  0.762248  0.737752  0.250000  1
  I  I25  1  0.746913  0.996351  0.984568  1
  I  I26  1  0.994681  0.505319  0.250000  1
  I  I27  1  0.503649  0.753087  0.515432  1
