# generated using pymatgen
data_CeSi2Tc3Os
_symmetry_space_group_name_H-M   'P 1'
_cell_length_a   7.30317463
_cell_length_b   7.30317644
_cell_length_c   4.04944100
_cell_angle_alpha   90.00000000
_cell_angle_beta   90.00000000
_cell_angle_gamma   147.51984645
_symmetry_Int_Tables_number   1
_chemical_formula_structural   CeSi2Tc3Os
_chemical_formula_sum   'Ce1 Si2 Tc3 Os1'
_cell_volume   115.98420620
_cell_formula_units_Z   1
loop_
 _symmetry_equiv_pos_site_id
 _symmetry_equiv_pos_as_xyz
  1  'x, y, z'
loop_
 _atom_site_type_symbol
 _atom_site_label
 _atom_site_symmetry_multiplicity
 _atom_site_fract_x
 _atom_site_fract_y
 _atom_site_fract_z
 _atom_site_occupancy
  Ce  Ce0  1  0.000121  0.999879  0.000000  1
  Si  Si1  1  0.413508  0.586492  0.500000  1
  Si  Si2  1  0.588505  0.411495  0.500000  1
  Tc  Tc3  1  0.306857  0.693143  0.000000  1
  Tc  Tc4  1  0.812653  0.187347  0.500000  1
  Tc  Tc5  1  0.694116  0.305884  0.000000  1
  Os  Os6  1  0.184242  0.815758  0.500000  1
