# generated using pymatgen
data_La6Al24IrOs5Pt2
_symmetry_space_group_name_H-M   'P 1'
_cell_length_a   8.96375957
_cell_length_b   8.97775433
_cell_length_c   9.73323633
_cell_angle_alpha   90.08782660
_cell_angle_beta   89.84795658
_cell_angle_gamma   119.42416710
_symmetry_Int_Tables_number   1
_chemical_formula_structural   La6Al24IrOs5Pt2
_chemical_formula_sum   'La6 Al24 Ir1 Os5 Pt2'
_cell_volume   682.23676959
_cell_formula_units_Z   1
loop_
 _symmetry_equiv_pos_site_id
 _symmetry_equiv_pos_as_xyz
  1  'x, y, z'
loop_
 _atom_site_type_symbol
 _atom_site_label
 _atom_site_symmetry_multiplicity
 _atom_site_fract_x
 _atom_site_fract_y
 _atom_site_fract_z
 _atom_site_occupancy
  La  La0  1  0.187271  0.379361  0.250729  1
  La  La1  1  0.812729  0.620639  0.749271  1
  La  La2  1  0.617868  0.813667  0.251759  1
  La  La3  1  0.382132  0.186333  0.748241  1
  La  La4  1  0.191463  0.811820  0.249664  1
  La  La5  1  0.808537  0.188180  0.750336  1
  Al  Al6  1  0.336811  0.670048  0.016718  1
  Al  Al7  1  0.663189  0.329952  0.983282  1
  Al  Al8  1  0.669841  0.330928  0.517238  1
  Al  Al9  1  0.330159  0.669072  0.482762  1
  Al  Al10  1  0.158405  0.325726  0.573823  1
  Al  Al11  1  0.841595  0.674274  0.426177  1
  Al  Al12  1  0.673479  0.840792  0.574647  1
  Al  Al13  1  0.832514  0.674872  0.074960  1
  Al  Al14  1  0.326521  0.159208  0.425353  1
  Al  Al15  1  0.167486  0.325128  0.925040  1
  Al  Al16  1  0.164316  0.835429  0.575474  1
  Al  Al17  1  0.326868  0.162726  0.073965  1
  Al  Al18  1  0.835684  0.164571  0.424526  1
  Al  Al19  1  0.673132  0.837274  0.926035  1
  Al  Al20  1  0.831348  0.158627  0.077355  1
  Al  Al21  1  0.168652  0.841373  0.922645  1
  Al  Al22  1  0.561661  0.127464  0.249981  1
  Al  Al23  1  0.438339  0.872536  0.750019  1
  Al  Al24  1  0.871217  0.436819  0.253321  1
  Al  Al25  1  0.128783  0.563181  0.746679  1
  Al  Al26  1  0.562875  0.436239  0.247354  1
  Al  Al27  1  0.437125  0.563761  0.752646  1
  Al  Al28  1  0.997671  0.003122  0.250034  1
  Al  Al29  1  0.002329  0.996878  0.749966  1
  Ir  Ir30  1  0.500000  0.500000  0.000000  1
  Os  Os31  1  0.500000  0.000000  0.000000  1
  Os  Os32  1  0.500000  0.000000  0.500000  1
  Os  Os33  1  0.000000  0.500000  0.500000  1
  Os  Os34  1  0.000000  0.000000  0.000000  1
  Os  Os35  1  0.000000  0.000000  0.500000  1
  Pt  Pt36  1  0.000000  0.500000  0.000000  1
  Pt  Pt37  1  0.500000  0.500000  0.500000  1
