# generated using pymatgen
data_CrInFe(Sb6Pt)2
_symmetry_space_group_name_H-M   'P 1'
_cell_length_a   8.12545270
_cell_length_b   8.18428916
_cell_length_c   8.16569888
_cell_angle_alpha   109.39127530
_cell_angle_beta   109.16030862
_cell_angle_gamma   109.39458349
_symmetry_Int_Tables_number   1
_chemical_formula_structural   CrInFe(Sb6Pt)2
_chemical_formula_sum   'Cr1 In1 Fe1 Sb12 Pt2'
_cell_volume   420.41558566
_cell_formula_units_Z   1
loop_
 _symmetry_equiv_pos_site_id
 _symmetry_equiv_pos_as_xyz
  1  'x, y, z'
loop_
 _atom_site_type_symbol
 _atom_site_label
 _atom_site_symmetry_multiplicity
 _atom_site_fract_x
 _atom_site_fract_y
 _atom_site_fract_z
 _atom_site_occupancy
  Cr  Cr0  1  0.500000  0.000000  0.000000  1
  In  In1  1  0.000000  0.000000  0.000000  1
  Fe  Fe2  1  0.500000  0.500000  0.500000  1
  Sb  Sb3  1  0.653883  0.813477  0.151507  1
  Sb  Sb4  1  0.840584  0.338135  0.187129  1
  Sb  Sb5  1  0.507405  0.832385  0.661283  1
  Sb  Sb6  1  0.833706  0.653382  0.506424  1
  Sb  Sb7  1  0.492595  0.167615  0.338717  1
  Sb  Sb8  1  0.159416  0.661865  0.812871  1
  Sb  Sb9  1  0.804189  0.152188  0.653906  1
  Sb  Sb10  1  0.195811  0.847812  0.346094  1
  Sb  Sb11  1  0.166294  0.346618  0.493576  1
  Sb  Sb12  1  0.651452  0.505981  0.832068  1
  Sb  Sb13  1  0.348548  0.494019  0.167932  1
  Sb  Sb14  1  0.346117  0.186523  0.848493  1
  Pt  Pt15  1  0.000000  0.000000  0.500000  1
  Pt  Pt16  1  0.000000  0.500000  0.000000  1
