# generated using pymatgen
data_Th6P13PtRh19
_symmetry_space_group_name_H-M   'P 1'
_cell_length_a   13.49503800
_cell_length_b   13.49503737
_cell_length_c   4.00718800
_cell_angle_alpha   90.00000000
_cell_angle_beta   90.00000000
_cell_angle_gamma   120.00000156
_symmetry_Int_Tables_number   1
_chemical_formula_structural   Th6P13PtRh19
_chemical_formula_sum   'Th6 P13 Pt1 Rh19'
_cell_volume   632.00213616
_cell_formula_units_Z   1
loop_
 _symmetry_equiv_pos_site_id
 _symmetry_equiv_pos_as_xyz
  1  'x, y, z'
loop_
 _atom_site_type_symbol
 _atom_site_label
 _atom_site_symmetry_multiplicity
 _atom_site_fract_x
 _atom_site_fract_y
 _atom_site_fract_z
 _atom_site_occupancy
  Th  Th0  1  0.531741  0.718904  0.249045  1
  Th  Th1  1  0.281096  0.812837  0.249045  1
  Th  Th2  1  0.187163  0.468259  0.249045  1
  Th  Th3  1  0.470860  0.281521  0.750444  1
  Th  Th4  1  0.718479  0.189339  0.750444  1
  Th  Th5  1  0.810661  0.529140  0.750444  1
  P  P6  1  0.523227  0.137211  0.247454  1
  P  P7  1  0.862789  0.386017  0.247454  1
  P  P8  1  0.613983  0.476773  0.247454  1
  P  P9  1  0.948808  0.719990  0.254958  1
  P  P10  1  0.280010  0.228818  0.254958  1
  P  P11  1  0.771182  0.051192  0.254958  1
  P  P12  1  0.387307  0.522563  0.754168  1
  P  P13  1  0.477437  0.864742  0.754168  1
  P  P14  1  0.135258  0.612693  0.754168  1
  P  P15  1  0.720873  0.771824  0.745010  1
  P  P16  1  0.228176  0.949049  0.745010  1
  P  P17  1  0.050951  0.279127  0.745010  1
  P  P18  1  0.000000  0.000000  0.992839  1
  Pt  Pt19  1  0.333333  0.666667  0.737506  1
  Rh  Rh20  1  0.922107  0.248058  0.253040  1
  Rh  Rh21  1  0.751942  0.674048  0.253040  1
  Rh  Rh22  1  0.325952  0.077893  0.253040  1
  Rh  Rh23  1  0.436241  0.019226  0.750585  1
  Rh  Rh24  1  0.980774  0.417015  0.750585  1
  Rh  Rh25  1  0.582985  0.563759  0.750585  1
  Rh  Rh26  1  0.666667  0.333333  0.260615  1
  Rh  Rh27  1  0.090541  0.181757  0.252841  1
  Rh  Rh28  1  0.818243  0.908784  0.252841  1
  Rh  Rh29  1  0.091216  0.909459  0.252841  1
  Rh  Rh30  1  0.017658  0.582326  0.250375  1
  Rh  Rh31  1  0.417674  0.435332  0.250375  1
  Rh  Rh32  1  0.564668  0.982342  0.250375  1
  Rh  Rh33  1  0.672278  0.920012  0.747983  1
  Rh  Rh34  1  0.079988  0.752266  0.747983  1
  Rh  Rh35  1  0.247734  0.327722  0.747983  1
  Rh  Rh36  1  0.908438  0.814660  0.747111  1
  Rh  Rh37  1  0.185340  0.093779  0.747111  1
  Rh  Rh38  1  0.906221  0.091562  0.747111  1
