# generated using pymatgen
data_Ho4FeMoRu6
_symmetry_space_group_name_H-M   'P 1'
_cell_length_a   5.48996920
_cell_length_b   5.16757734
_cell_length_c   8.92973900
_cell_angle_alpha   90.00000000
_cell_angle_beta   90.00000000
_cell_angle_gamma   122.16532626
_symmetry_Int_Tables_number   1
_chemical_formula_structural   Ho4FeMoRu6
_chemical_formula_sum   'Ho4 Fe1 Mo1 Ru6'
_cell_volume   214.45223109
_cell_formula_units_Z   1
loop_
 _symmetry_equiv_pos_site_id
 _symmetry_equiv_pos_as_xyz
  1  'x, y, z'
loop_
 _atom_site_type_symbol
 _atom_site_label
 _atom_site_symmetry_multiplicity
 _atom_site_fract_x
 _atom_site_fract_y
 _atom_site_fract_z
 _atom_site_occupancy
  Ho  Ho0  1  0.673218  0.346531  0.562801  1
  Ho  Ho1  1  0.331923  0.664133  0.431068  1
  Ho  Ho2  1  0.331923  0.664133  0.068932  1
  Ho  Ho3  1  0.673218  0.346531  0.937199  1
  Fe  Fe4  1  0.834078  0.670794  0.250000  1
  Mo  Mo5  1  0.154944  0.309478  0.750000  1
  Ru  Ru6  1  0.005416  0.010107  0.495647  1
  Ru  Ru7  1  0.005416  0.010107  0.004353  1
  Ru  Ru8  1  0.172408  0.816682  0.750000  1
  Ru  Ru9  1  0.645366  0.817322  0.750000  1
  Ru  Ru10  1  0.825112  0.172518  0.250000  1
  Ru  Ru11  1  0.346977  0.171665  0.250000  1
