# generated using pymatgen
data_SbTe19
_symmetry_space_group_name_H-M   'P 1'
_cell_length_a   7.96740280
_cell_length_b   8.94102754
_cell_length_c   10.12016500
_cell_angle_alpha   103.09486428
_cell_angle_beta   96.93454965
_cell_angle_gamma   107.31739481
_symmetry_Int_Tables_number   1
_chemical_formula_structural   SbTe19
_chemical_formula_sum   'Sb1 Te19'
_cell_volume   656.48094483
_cell_formula_units_Z   1
loop_
 _symmetry_equiv_pos_site_id
 _symmetry_equiv_pos_as_xyz
  1  'x, y, z'
loop_
 _atom_site_type_symbol
 _atom_site_label
 _atom_site_symmetry_multiplicity
 _atom_site_fract_x
 _atom_site_fract_y
 _atom_site_fract_z
 _atom_site_occupancy
  Sb  Sb0  1  0.000000  0.500000  0.000000  1
  Te  Te1  1  0.796795  0.586287  0.607149  1
  Te  Te2  1  0.619808  0.197686  0.205249  1
  Te  Te3  1  0.380192  0.802314  0.794751  1
  Te  Te4  1  0.597320  0.691839  0.199866  1
  Te  Te5  1  0.203205  0.413713  0.392851  1
  Te  Te6  1  0.402680  0.308161  0.800134  1
  Te  Te7  1  0.000000  0.000000  0.000000  1
  Te  Te8  1  0.193826  0.906706  0.394273  1
  Te  Te9  1  0.806174  0.093294  0.605727  1
  Te  Te10  1  0.700409  0.635582  0.904211  1
  Te  Te11  1  0.504429  0.253475  0.498402  1
  Te  Te12  1  0.713798  0.149276  0.907161  1
  Te  Te13  1  0.286202  0.850724  0.092839  1
  Te  Te14  1  0.495571  0.746525  0.501598  1
  Te  Te15  1  0.094111  0.459771  0.703509  1
  Te  Te16  1  0.299591  0.364418  0.095789  1
  Te  Te17  1  0.904483  0.044277  0.301716  1
  Te  Te18  1  0.095517  0.955723  0.698284  1
  Te  Te19  1  0.905889  0.540229  0.296491  1
