# generated using pymatgen
data_Sc2FeCo2P7Ru9
_symmetry_space_group_name_H-M   'P 1'
_cell_length_a   9.28822082
_cell_length_b   9.27473785
_cell_length_c   3.79271500
_cell_angle_alpha   90.00000000
_cell_angle_beta   90.00000000
_cell_angle_gamma   120.23096284
_symmetry_Int_Tables_number   1
_chemical_formula_structural   Sc2FeCo2P7Ru9
_chemical_formula_sum   'Sc2 Fe1 Co2 P7 Ru9'
_cell_volume   282.29263993
_cell_formula_units_Z   1
loop_
 _symmetry_equiv_pos_site_id
 _symmetry_equiv_pos_as_xyz
  1  'x, y, z'
loop_
 _atom_site_type_symbol
 _atom_site_label
 _atom_site_symmetry_multiplicity
 _atom_site_fract_x
 _atom_site_fract_y
 _atom_site_fract_z
 _atom_site_occupancy
  Sc  Sc0  1  0.666433  0.333421  0.500000  1
  Sc  Sc1  1  0.335903  0.667690  0.000000  1
  Fe  Fe2  1  0.729426  0.887974  0.000000  1
  Co  Co3  1  0.111421  0.840823  0.000000  1
  Co  Co4  1  0.159158  0.270388  0.000000  1
  P  P5  1  0.598727  0.718241  0.500000  1
  P  P6  1  0.998318  0.998572  0.000000  1
  P  P7  1  0.284214  0.882055  0.500000  1
  P  P8  1  0.118508  0.402604  0.500000  1
  P  P9  1  0.886645  0.583490  0.000000  1
  P  P10  1  0.415126  0.302922  0.000000  1
  P  P11  1  0.696394  0.110486  0.000000  1
  Ru  Ru12  1  0.559662  0.945023  0.500000  1
  Ru  Ru13  1  0.384307  0.440447  0.500000  1
  Ru  Ru14  1  0.913094  0.117893  0.500000  1
  Ru  Ru15  1  0.206880  0.086435  0.500000  1
  Ru  Ru16  1  0.880607  0.795234  0.500000  1
  Ru  Ru17  1  0.426338  0.064566  0.000000  1
  Ru  Ru18  1  0.936256  0.362206  0.000000  1
  Ru  Ru19  1  0.637689  0.573800  0.000000  1
  Ru  Ru20  1  0.054896  0.615728  0.500000  1
