# generated using pymatgen
data_Cs3PrI6
_symmetry_space_group_name_H-M   'P 1'
_cell_length_a   10.75387600
_cell_length_b   10.75387600
_cell_length_c   8.91316000
_cell_angle_alpha   90.00000000
_cell_angle_beta   90.00000000
_cell_angle_gamma   90.00000000
_symmetry_Int_Tables_number   1
_chemical_formula_structural   Cs3PrI6
_chemical_formula_sum   'Cs6 Pr2 I12'
_cell_volume   1030.76995568
_cell_formula_units_Z   2
loop_
 _symmetry_equiv_pos_site_id
 _symmetry_equiv_pos_as_xyz
  1  'x, y, z'
loop_
 _atom_site_type_symbol
 _atom_site_label
 _atom_site_symmetry_multiplicity
 _atom_site_fract_x
 _atom_site_fract_y
 _atom_site_fract_z
 _atom_site_occupancy
  Cs  Cs0  1  0.000000  0.000000  0.500000  1
  Cs  Cs1  1  0.000000  0.000000  0.000000  1
  Cs  Cs2  1  0.233102  0.588001  0.500000  1
  Cs  Cs3  1  0.766898  0.411999  0.500000  1
  Cs  Cs4  1  0.411999  0.233102  0.000000  1
  Cs  Cs5  1  0.588001  0.766898  0.000000  1
  Pr  Pr6  1  0.500000  0.000000  0.500000  1
  Pr  Pr7  1  0.000000  0.500000  0.000000  1
  I  I8  1  0.699643  0.061368  0.749630  1
  I  I9  1  0.300357  0.938632  0.749630  1
  I  I10  1  0.938632  0.699643  0.249630  1
  I  I11  1  0.061368  0.300357  0.249630  1
  I  I12  1  0.300357  0.938632  0.250370  1
  I  I13  1  0.699643  0.061368  0.250370  1
  I  I14  1  0.061368  0.300357  0.750370  1
  I  I15  1  0.938632  0.699643  0.750370  1
  I  I16  1  0.571059  0.716757  0.500000  1
  I  I17  1  0.428941  0.283243  0.500000  1
  I  I18  1  0.283243  0.571059  0.000000  1
  I  I19  1  0.716757  0.428941  0.000000  1
