# generated using pymatgen
data_Dy2TcO6
_symmetry_space_group_name_H-M   'P 1'
_cell_length_a   9.91383091
_cell_length_b   9.91383003
_cell_length_c   5.40370032
_cell_angle_alpha   75.13183374
_cell_angle_beta   75.13183144
_cell_angle_gamma   68.71188741
_symmetry_Int_Tables_number   1
_chemical_formula_structural   Dy2TcO6
_chemical_formula_sum   'Dy8 Tc4 O24'
_cell_volume   470.34808326
_cell_formula_units_Z   4
loop_
 _symmetry_equiv_pos_site_id
 _symmetry_equiv_pos_as_xyz
  1  'x, y, z'
loop_
 _atom_site_type_symbol
 _atom_site_label
 _atom_site_symmetry_multiplicity
 _atom_site_fract_x
 _atom_site_fract_y
 _atom_site_fract_z
 _atom_site_occupancy
  Dy  Dy0  1  0.941998  0.717678  0.371016  1
  Dy  Dy1  1  0.717678  0.941998  0.871016  1
  Dy  Dy2  1  0.367176  0.632824  0.250000  1
  Dy  Dy3  1  0.892478  0.107522  0.250000  1
  Dy  Dy4  1  0.107522  0.892478  0.750000  1
  Dy  Dy5  1  0.632824  0.367176  0.750000  1
  Dy  Dy6  1  0.282322  0.058002  0.128984  1
  Dy  Dy7  1  0.058002  0.282322  0.628984  1
  Tc  Tc8  1  0.800337  0.507920  0.055164  1
  Tc  Tc9  1  0.507920  0.800337  0.555164  1
  Tc  Tc10  1  0.492080  0.199663  0.444836  1
  Tc  Tc11  1  0.199663  0.492080  0.944836  1
  O  O12  1  0.888559  0.927781  0.075101  1
  O  O13  1  0.927781  0.888559  0.575101  1
  O  O14  1  0.526083  0.934273  0.255199  1
  O  O15  1  0.787933  0.685026  0.126078  1
  O  O16  1  0.934273  0.526083  0.755199  1
  O  O17  1  0.685026  0.787933  0.626078  1
  O  O18  1  0.820787  0.386522  0.367103  1
  O  O19  1  0.386522  0.820787  0.867103  1
  O  O20  1  0.613384  0.540757  0.017702  1
  O  O21  1  0.305870  0.839721  0.412167  1
  O  O22  1  0.540757  0.613384  0.517702  1
  O  O23  1  0.839721  0.305870  0.912167  1
  O  O24  1  0.160279  0.694130  0.087833  1
  O  O25  1  0.459243  0.386616  0.482298  1
  O  O26  1  0.694130  0.160279  0.587833  1
  O  O27  1  0.386616  0.459243  0.982298  1
  O  O28  1  0.613478  0.179213  0.132897  1
  O  O29  1  0.179213  0.613478  0.632897  1
  O  O30  1  0.314974  0.212067  0.373922  1
  O  O31  1  0.065727  0.473917  0.244801  1
  O  O32  1  0.212067  0.314974  0.873922  1
  O  O33  1  0.473917  0.065727  0.744801  1
  O  O34  1  0.072219  0.111441  0.424899  1
  O  O35  1  0.111441  0.072219  0.924899  1
