# generated using pymatgen
data_TbEu(GeRh)2
_symmetry_space_group_name_H-M   'P 1'
_cell_length_a   4.46052600
_cell_length_b   7.17321615
_cell_length_c   7.46809120
_cell_angle_alpha   90.02498967
_cell_angle_beta   90.00000000
_cell_angle_gamma   90.00000000
_symmetry_Int_Tables_number   1
_chemical_formula_structural   TbEu(GeRh)2
_chemical_formula_sum   'Tb2 Eu2 Ge4 Rh4'
_cell_volume   238.95139176
_cell_formula_units_Z   2
loop_
 _symmetry_equiv_pos_site_id
 _symmetry_equiv_pos_as_xyz
  1  'x, y, z'
loop_
 _atom_site_type_symbol
 _atom_site_label
 _atom_site_symmetry_multiplicity
 _atom_site_fract_x
 _atom_site_fract_y
 _atom_site_fract_z
 _atom_site_occupancy
  Tb  Tb0  1  0.750000  0.510730  0.307844  1
  Tb  Tb1  1  0.750000  0.010726  0.192334  1
  Eu  Eu2  1  0.250000  0.495171  0.688343  1
  Eu  Eu3  1  0.250000  0.995113  0.811446  1
  Ge  Ge4  1  0.250000  0.799392  0.391697  1
  Ge  Ge5  1  0.250000  0.299322  0.108291  1
  Ge  Ge6  1  0.750000  0.201263  0.595729  1
  Ge  Ge7  1  0.750000  0.701382  0.904318  1
  Rh  Rh8  1  0.250000  0.151732  0.420580  1
  Rh  Rh9  1  0.250000  0.651528  0.079329  1
  Rh  Rh10  1  0.750000  0.841752  0.560027  1
  Rh  Rh11  1  0.750000  0.341890  0.940062  1
