# generated using pymatgen
data_Ho7Er(HgAu2)4
_symmetry_space_group_name_H-M   'P 1'
_cell_length_a   7.95248600
_cell_length_b   7.95248593
_cell_length_c   7.34863700
_cell_angle_alpha   90.00000000
_cell_angle_beta   90.00000000
_cell_angle_gamma   89.87498285
_symmetry_Int_Tables_number   1
_chemical_formula_structural   Ho7Er(HgAu2)4
_chemical_formula_sum   'Ho7 Er1 Hg4 Au8'
_cell_volume   464.74163756
_cell_formula_units_Z   1
loop_
 _symmetry_equiv_pos_site_id
 _symmetry_equiv_pos_as_xyz
  1  'x, y, z'
loop_
 _atom_site_type_symbol
 _atom_site_label
 _atom_site_symmetry_multiplicity
 _atom_site_fract_x
 _atom_site_fract_y
 _atom_site_fract_z
 _atom_site_occupancy
  Ho  Ho0  1  0.839270  0.160730  0.500000  1
  Ho  Ho1  1  0.160066  0.839934  0.500000  1
  Ho  Ho2  1  0.339954  0.339290  0.000000  1
  Ho  Ho3  1  0.660710  0.660046  0.000000  1
  Ho  Ho4  1  0.683279  0.682495  0.500000  1
  Ho  Ho5  1  0.317505  0.316721  0.500000  1
  Ho  Ho6  1  0.182943  0.817057  0.000000  1
  Er  Er7  1  0.817443  0.182557  0.000000  1
  Hg  Hg8  1  0.499713  0.000029  0.250038  1
  Hg  Hg9  1  0.999971  0.500287  0.749962  1
  Hg  Hg10  1  0.499713  0.000029  0.749962  1
  Hg  Hg11  1  0.999971  0.500287  0.250038  1
  Au  Au12  1  0.627999  0.372001  0.271519  1
  Au  Au13  1  0.372818  0.627182  0.273422  1
  Au  Au14  1  0.126779  0.127865  0.773724  1
  Au  Au15  1  0.872135  0.873221  0.773724  1
  Au  Au16  1  0.372818  0.627182  0.726578  1
  Au  Au17  1  0.627999  0.372001  0.728481  1
  Au  Au18  1  0.872135  0.873221  0.226276  1
  Au  Au19  1  0.126779  0.127865  0.226276  1
