# generated using pymatgen
data_Hf3Sc5Pt4
_symmetry_space_group_name_H-M   'P 1'
_cell_length_a   4.59856300
_cell_length_b   6.66100297
_cell_length_c   8.11044053
_cell_angle_alpha   89.51015500
_cell_angle_beta   90.00000000
_cell_angle_gamma   90.00000000
_symmetry_Int_Tables_number   1
_chemical_formula_structural   Hf3Sc5Pt4
_chemical_formula_sum   'Hf3 Sc5 Pt4'
_cell_volume   248.42216358
_cell_formula_units_Z   1
loop_
 _symmetry_equiv_pos_site_id
 _symmetry_equiv_pos_as_xyz
  1  'x, y, z'
loop_
 _atom_site_type_symbol
 _atom_site_label
 _atom_site_symmetry_multiplicity
 _atom_site_fract_x
 _atom_site_fract_y
 _atom_site_fract_z
 _atom_site_occupancy
  Hf  Hf0  1  0.250000  0.851707  0.922578  1
  Hf  Hf1  1  0.250000  0.350377  0.576503  1
  Hf  Hf2  1  0.750000  0.151676  0.079934  1
  Sc  Sc3  1  0.750000  0.651381  0.420098  1
  Sc  Sc4  1  0.250000  0.982478  0.324409  1
  Sc  Sc5  1  0.250000  0.484394  0.178470  1
  Sc  Sc6  1  0.750000  0.014243  0.677833  1
  Sc  Sc7  1  0.750000  0.516958  0.818162  1
  Pt  Pt8  1  0.250000  0.246048  0.906433  1
  Pt  Pt9  1  0.250000  0.746744  0.599980  1
  Pt  Pt10  1  0.750000  0.754258  0.089120  1
  Pt  Pt11  1  0.750000  0.249737  0.406482  1
