# generated using pymatgen
data_Nd6RuI10
_symmetry_space_group_name_H-M   'P 1'
_cell_length_a   7.99943070
_cell_length_b   9.99029565
_cell_length_c   10.01967386
_cell_angle_alpha   107.07034465
_cell_angle_beta   96.96530180
_cell_angle_gamma   104.69113631
_symmetry_Int_Tables_number   1
_chemical_formula_structural   Nd6RuI10
_chemical_formula_sum   'Nd6 Ru1 I10'
_cell_volume   723.66259648
_cell_formula_units_Z   1
loop_
 _symmetry_equiv_pos_site_id
 _symmetry_equiv_pos_as_xyz
  1  'x, y, z'
loop_
 _atom_site_type_symbol
 _atom_site_label
 _atom_site_symmetry_multiplicity
 _atom_site_fract_x
 _atom_site_fract_y
 _atom_site_fract_z
 _atom_site_occupancy
  Nd  Nd0  1  0.115527  0.042808  0.759513  1
  Nd  Nd1  1  0.884473  0.957192  0.240487  1
  Nd  Nd2  1  0.968238  0.281985  0.082873  1
  Nd  Nd3  1  0.645600  0.872969  0.829833  1
  Nd  Nd4  1  0.354400  0.127031  0.170167  1
  Nd  Nd5  1  0.031762  0.718015  0.917127  1
  Ru  Ru6  1  0.000000  0.000000  0.000000  1
  I  I7  1  0.349673  0.449952  0.271756  1
  I  I8  1  0.650327  0.550048  0.728244  1
  I  I9  1  0.743131  0.912872  0.539831  1
  I  I10  1  0.086394  0.370212  0.820085  1
  I  I11  1  0.913606  0.629788  0.179915  1
  I  I12  1  0.454792  0.816639  0.091889  1
  I  I13  1  0.545208  0.183361  0.908111  1
  I  I14  1  0.783571  0.257307  0.345469  1
  I  I15  1  0.216429  0.742693  0.654531  1
  I  I16  1  0.256869  0.087128  0.460169  1
