# generated using pymatgen
data_Y4ErPd13Au2
_symmetry_space_group_name_H-M   'P 1'
_cell_length_a   4.16980900
_cell_length_b   4.14634900
_cell_length_c   20.66332800
_cell_angle_alpha   90.00000000
_cell_angle_beta   90.00000000
_cell_angle_gamma   90.00000000
_symmetry_Int_Tables_number   1
_chemical_formula_structural   Y4ErPd13Au2
_chemical_formula_sum   'Y4 Er1 Pd13 Au2'
_cell_volume   357.25826598
_cell_formula_units_Z   1
loop_
 _symmetry_equiv_pos_site_id
 _symmetry_equiv_pos_as_xyz
  1  'x, y, z'
loop_
 _atom_site_type_symbol
 _atom_site_label
 _atom_site_symmetry_multiplicity
 _atom_site_fract_x
 _atom_site_fract_y
 _atom_site_fract_z
 _atom_site_occupancy
  Y  Y0  1  0.000000  0.000000  0.197445  1
  Y  Y1  1  0.000000  0.000000  0.396478  1
  Y  Y2  1  0.000000  0.000000  0.604976  1
  Y  Y3  1  0.000000  0.000000  0.802140  1
  Er  Er4  1  0.000000  0.000000  0.999170  1
  Pd  Pd5  1  0.500000  0.500000  0.000954  1
  Pd  Pd6  1  0.500000  0.500000  0.397754  1
  Pd  Pd7  1  0.500000  0.500000  0.601001  1
  Pd  Pd8  1  0.500000  0.500000  0.801114  1
  Pd  Pd9  1  0.500000  0.000000  0.098781  1
  Pd  Pd10  1  0.500000  0.000000  0.298420  1
  Pd  Pd11  1  0.500000  0.000000  0.701053  1
  Pd  Pd12  1  0.500000  0.000000  0.902056  1
  Pd  Pd13  1  0.000000  0.500000  0.098699  1
  Pd  Pd14  1  0.000000  0.500000  0.298383  1
  Pd  Pd15  1  0.000000  0.500000  0.499552  1
  Pd  Pd16  1  0.000000  0.500000  0.701601  1
  Pd  Pd17  1  0.000000  0.500000  0.901807  1
  Au  Au18  1  0.500000  0.500000  0.198480  1
  Au  Au19  1  0.500000  0.000000  0.500134  1
