# generated using pymatgen
data_Ce2Tm3Si3Ge
_symmetry_space_group_name_H-M   'P 1'
_cell_length_a   7.72725700
_cell_length_b   7.72725700
_cell_length_c   14.21227000
_cell_angle_alpha   90.00000000
_cell_angle_beta   90.00000000
_cell_angle_gamma   90.00000000
_symmetry_Int_Tables_number   1
_chemical_formula_structural   Ce2Tm3Si3Ge
_chemical_formula_sum   'Ce8 Tm12 Si12 Ge4'
_cell_volume   848.62175841
_cell_formula_units_Z   4
loop_
 _symmetry_equiv_pos_site_id
 _symmetry_equiv_pos_as_xyz
  1  'x, y, z'
loop_
 _atom_site_type_symbol
 _atom_site_label
 _atom_site_symmetry_multiplicity
 _atom_site_fract_x
 _atom_site_fract_y
 _atom_site_fract_z
 _atom_site_occupancy
  Ce  Ce0  1  0.494639  0.148844  0.539834  1
  Ce  Ce1  1  0.505361  0.851156  0.039834  1
  Ce  Ce2  1  0.648844  0.005361  0.289834  1
  Ce  Ce3  1  0.351156  0.994639  0.789834  1
  Ce  Ce4  1  0.853931  0.504803  0.961037  1
  Ce  Ce5  1  0.146069  0.495197  0.461037  1
  Ce  Ce6  1  0.004803  0.646069  0.711037  1
  Ce  Ce7  1  0.995197  0.353931  0.211037  1
  Tm  Tm8  1  0.676506  0.318193  0.749115  1
  Tm  Tm9  1  0.323494  0.681807  0.249115  1
  Tm  Tm10  1  0.818193  0.823494  0.499115  1
  Tm  Tm11  1  0.181807  0.176506  0.999115  1
  Tm  Tm12  1  0.505874  0.354148  0.126142  1
  Tm  Tm13  1  0.494126  0.645852  0.626142  1
  Tm  Tm14  1  0.854148  0.994126  0.876142  1
  Tm  Tm15  1  0.145852  0.005874  0.376142  1
  Tm  Tm16  1  0.648128  0.495155  0.373381  1
  Tm  Tm17  1  0.351872  0.504845  0.873381  1
  Tm  Tm18  1  0.995155  0.851872  0.123381  1
  Tm  Tm19  1  0.004845  0.148128  0.623381  1
  Si  Si20  1  0.853667  0.205559  0.435528  1
  Si  Si21  1  0.146333  0.794441  0.935528  1
  Si  Si22  1  0.705559  0.646333  0.185528  1
  Si  Si23  1  0.294441  0.353667  0.685528  1
  Si  Si24  1  0.552145  0.206022  0.934973  1
  Si  Si25  1  0.447855  0.793978  0.434973  1
  Si  Si26  1  0.706022  0.947855  0.684973  1
  Si  Si27  1  0.293978  0.052145  0.184973  1
  Si  Si28  1  0.792192  0.444194  0.562877  1
  Si  Si29  1  0.207808  0.555806  0.062877  1
  Si  Si30  1  0.944194  0.707808  0.312877  1
  Si  Si31  1  0.055806  0.292192  0.812877  1
  Ge  Ge32  1  0.797076  0.144408  0.067110  1
  Ge  Ge33  1  0.202924  0.855592  0.567110  1
  Ge  Ge34  1  0.644408  0.702924  0.817110  1
  Ge  Ge35  1  0.355592  0.297076  0.317110  1
