# generated using pymatgen
data_K2TiAs2
_symmetry_space_group_name_H-M   'P 1'
_cell_length_a   8.39058456
_cell_length_b   8.39058377
_cell_length_c   8.39058323
_cell_angle_alpha   133.94199845
_cell_angle_beta   128.99723258
_cell_angle_gamma   71.14267077
_symmetry_Int_Tables_number   1
_chemical_formula_structural   K2TiAs2
_chemical_formula_sum   'K4 Ti2 As4'
_cell_volume   323.69666871
_cell_formula_units_Z   2
loop_
 _symmetry_equiv_pos_site_id
 _symmetry_equiv_pos_as_xyz
  1  'x, y, z'
loop_
 _atom_site_type_symbol
 _atom_site_label
 _atom_site_symmetry_multiplicity
 _atom_site_fract_x
 _atom_site_fract_y
 _atom_site_fract_z
 _atom_site_occupancy
  K  K0  1  0.995250  0.150578  0.844672  1
  K  K1  1  0.004750  0.849422  0.155328  1
  K  K2  1  0.694093  0.349422  0.344672  1
  K  K3  1  0.305907  0.650578  0.655328  1
  Ti  Ti4  1  0.500000  0.250000  0.750000  1
  Ti  Ti5  1  0.500000  0.750000  0.250000  1
  As  As6  1  0.222301  0.399296  0.823006  1
  As  As7  1  0.777699  0.600704  0.176994  1
  As  As8  1  0.423710  0.100704  0.323006  1
  As  As9  1  0.576290  0.899296  0.676994  1
