# generated using pymatgen
data_Er7Co4Tc2Sn23
_symmetry_space_group_name_H-M   'P 1'
_cell_length_a   9.73071670
_cell_length_b   9.73071737
_cell_length_c   9.97270235
_cell_angle_alpha   89.77771605
_cell_angle_beta   90.22228266
_cell_angle_gamma   119.48442002
_symmetry_Int_Tables_number   1
_chemical_formula_structural   Er7Co4Tc2Sn23
_chemical_formula_sum   'Er7 Co4 Tc2 Sn23'
_cell_volume   821.98091289
_cell_formula_units_Z   1
loop_
 _symmetry_equiv_pos_site_id
 _symmetry_equiv_pos_as_xyz
  1  'x, y, z'
loop_
 _atom_site_type_symbol
 _atom_site_label
 _atom_site_symmetry_multiplicity
 _atom_site_fract_x
 _atom_site_fract_y
 _atom_site_fract_z
 _atom_site_occupancy
  Er  Er0  1  0.481744  0.518256  0.307268  1
  Er  Er1  1  0.518256  0.481744  0.692732  1
  Er  Er2  1  0.484086  0.962355  0.305406  1
  Er  Er3  1  0.515914  0.037645  0.694594  1
  Er  Er4  1  0.037645  0.515914  0.305406  1
  Er  Er5  1  0.962355  0.484086  0.694594  1
  Er  Er6  1  0.000000  0.000000  0.000000  1
  Co  Co7  1  0.829729  0.658299  0.198563  1
  Co  Co8  1  0.170271  0.341701  0.801437  1
  Co  Co9  1  0.341701  0.170271  0.198563  1
  Co  Co10  1  0.658299  0.829729  0.801437  1
  Tc  Tc11  1  0.835836  0.164164  0.203186  1
  Tc  Tc12  1  0.164164  0.835836  0.796814  1
  Sn  Sn13  1  0.118132  0.881868  0.272001  1
  Sn  Sn14  1  0.881868  0.118132  0.727999  1
  Sn  Sn15  1  0.130164  0.240241  0.270232  1
  Sn  Sn16  1  0.869836  0.759759  0.729768  1
  Sn  Sn17  1  0.759759  0.869836  0.270232  1
  Sn  Sn18  1  0.240241  0.130164  0.729768  1
  Sn  Sn19  1  0.779762  0.220238  0.461084  1
  Sn  Sn20  1  0.220238  0.779762  0.538916  1
  Sn  Sn21  1  0.781891  0.563458  0.453951  1
  Sn  Sn22  1  0.218109  0.436542  0.546049  1
  Sn  Sn23  1  0.436542  0.218109  0.453951  1
  Sn  Sn24  1  0.563458  0.781891  0.546049  1
  Sn  Sn25  1  0.347537  0.001269  0.003827  1
  Sn  Sn26  1  0.652463  0.998731  0.996173  1
  Sn  Sn27  1  0.001269  0.347537  0.996173  1
  Sn  Sn28  1  0.998731  0.652463  0.003827  1
  Sn  Sn29  1  0.651554  0.651554  0.000000  1
  Sn  Sn30  1  0.348446  0.348446  0.000000  1
  Sn  Sn31  1  0.333432  0.666568  0.123003  1
  Sn  Sn32  1  0.666568  0.333432  0.876997  1
  Sn  Sn33  1  0.333077  0.666923  0.817854  1
  Sn  Sn34  1  0.666923  0.333077  0.182146  1
  Sn  Sn35  1  0.000000  0.000000  0.500000  1
