# generated using pymatgen
data_Hf6Fe4CuSi12Rh
_symmetry_space_group_name_H-M   'P 1'
_cell_length_a   9.78397643
_cell_length_b   9.77444452
_cell_length_c   9.77333221
_cell_angle_alpha   149.20705829
_cell_angle_beta   133.26171944
_cell_angle_gamma   57.04004149
_symmetry_Int_Tables_number   1
_chemical_formula_structural   Hf6Fe4CuSi12Rh
_chemical_formula_sum   'Hf6 Fe4 Cu1 Si12 Rh1'
_cell_volume   345.93664478
_cell_formula_units_Z   1
loop_
 _symmetry_equiv_pos_site_id
 _symmetry_equiv_pos_as_xyz
  1  'x, y, z'
loop_
 _atom_site_type_symbol
 _atom_site_label
 _atom_site_symmetry_multiplicity
 _atom_site_fract_x
 _atom_site_fract_y
 _atom_site_fract_z
 _atom_site_occupancy
  Hf  Hf0  1  0.852186  0.592750  0.258195  1
  Hf  Hf1  1  0.147814  0.407250  0.741805  1
  Hf  Hf2  1  0.665964  0.403476  0.259037  1
  Hf  Hf3  1  0.334036  0.596524  0.740963  1
  Hf  Hf4  1  0.137442  0.135065  0.991078  1
  Hf  Hf5  1  0.862558  0.864935  0.008922  1
  Fe  Fe6  1  0.751427  0.999595  0.739250  1
  Fe  Fe7  1  0.000000  0.000000  0.500000  1
  Fe  Fe8  1  0.248573  0.000405  0.260750  1
  Fe  Fe9  1  0.000000  0.500000  0.000000  1
  Cu  Cu10  1  0.500000  0.000000  0.000000  1
  Si  Si11  1  0.476714  0.126125  0.345172  1
  Si  Si12  1  0.523286  0.873875  0.654828  1
  Si  Si13  1  0.210496  0.856678  0.350886  1
  Si  Si14  1  0.789504  0.143322  0.649114  1
  Si  Si15  1  0.714728  0.694522  0.006434  1
  Si  Si16  1  0.285272  0.305478  0.993566  1
  Si  Si17  1  0.496860  0.738416  0.238763  1
  Si  Si18  1  0.503140  0.261584  0.761237  1
  Si  Si19  1  0.999482  0.254716  0.252813  1
  Si  Si20  1  0.197335  0.704518  0.482725  1
  Si  Si21  1  0.000518  0.745284  0.747187  1
  Si  Si22  1  0.802665  0.295482  0.517275  1
  Rh  Rh23  1  0.500000  0.500000  0.500000  1
