# generated using pymatgen
data_Dy18Y2Co3Bi8Ru
_symmetry_space_group_name_H-M   'P 1'
_cell_length_a   8.00221975
_cell_length_b   8.90495100
_cell_length_c   12.42902922
_cell_angle_alpha   90.00000000
_cell_angle_beta   90.20867196
_cell_angle_gamma   90.00000000
_symmetry_Int_Tables_number   1
_chemical_formula_structural   Dy18Y2Co3Bi8Ru
_chemical_formula_sum   'Dy18 Y2 Co3 Bi8 Ru1'
_cell_volume   885.67897694
_cell_formula_units_Z   1
loop_
 _symmetry_equiv_pos_site_id
 _symmetry_equiv_pos_as_xyz
  1  'x, y, z'
loop_
 _atom_site_type_symbol
 _atom_site_label
 _atom_site_symmetry_multiplicity
 _atom_site_fract_x
 _atom_site_fract_y
 _atom_site_fract_z
 _atom_site_occupancy
  Dy  Dy0  1  0.846738  0.750000  0.800109  1
  Dy  Dy1  1  0.654000  0.750000  0.295887  1
  Dy  Dy2  1  0.379158  0.750000  0.693294  1
  Dy  Dy3  1  0.618405  0.250000  0.309955  1
  Dy  Dy4  1  0.881131  0.250000  0.810865  1
  Dy  Dy5  1  0.117703  0.750000  0.187271  1
  Dy  Dy6  1  0.949226  0.750000  0.503789  1
  Dy  Dy7  1  0.050680  0.250000  0.496716  1
  Dy  Dy8  1  0.451204  0.250000  0.997386  1
  Dy  Dy9  1  0.549285  0.750000  0.002336  1
  Dy  Dy10  1  0.677382  0.042270  0.564336  1
  Dy  Dy11  1  0.323769  0.965371  0.436425  1
  Dy  Dy12  1  0.175556  0.965348  0.936886  1
  Dy  Dy13  1  0.323769  0.534629  0.436425  1
  Dy  Dy14  1  0.823433  0.036664  0.062973  1
  Dy  Dy15  1  0.677382  0.457730  0.564336  1
  Dy  Dy16  1  0.823433  0.463336  0.062973  1
  Dy  Dy17  1  0.175556  0.534652  0.936886  1
  Y  Y18  1  0.153126  0.250000  0.200024  1
  Y  Y19  1  0.346577  0.250000  0.700923  1
  Co  Co20  1  0.433728  0.250000  0.489865  1
  Co  Co21  1  0.061130  0.250000  0.990995  1
  Co  Co22  1  0.936376  0.750000  0.007416  1
  Bi  Bi23  1  0.571226  0.491682  0.827071  1
  Bi  Bi24  1  0.428133  0.508223  0.173193  1
  Bi  Bi25  1  0.071400  0.507883  0.674289  1
  Bi  Bi26  1  0.428133  0.991777  0.173193  1
  Bi  Bi27  1  0.929976  0.492159  0.326155  1
  Bi  Bi28  1  0.571226  0.008318  0.827071  1
  Bi  Bi29  1  0.929976  0.007841  0.326155  1
  Bi  Bi30  1  0.071400  0.992117  0.674289  1
  Ru  Ru31  1  0.569783  0.750000  0.510512  1
