# generated using pymatgen
data_Ce2NdMg3Ir2Au
_symmetry_space_group_name_H-M   'P 1'
_cell_length_a   7.65758833
_cell_length_b   7.41998071
_cell_length_c   4.01822000
_cell_angle_alpha   90.00000000
_cell_angle_beta   90.00000000
_cell_angle_gamma   118.97876902
_symmetry_Int_Tables_number   1
_chemical_formula_structural   Ce2NdMg3Ir2Au
_chemical_formula_sum   'Ce2 Nd1 Mg3 Ir2 Au1'
_cell_volume   199.72706772
_cell_formula_units_Z   1
loop_
 _symmetry_equiv_pos_site_id
 _symmetry_equiv_pos_as_xyz
  1  'x, y, z'
loop_
 _atom_site_type_symbol
 _atom_site_label
 _atom_site_symmetry_multiplicity
 _atom_site_fract_x
 _atom_site_fract_y
 _atom_site_fract_z
 _atom_site_occupancy
  Ce  Ce0  1  0.426163  0.429110  0.000000  1
  Ce  Ce1  1  0.573837  0.002947  0.000000  1
  Nd  Nd2  1  0.000000  0.580639  0.000000  1
  Mg  Mg3  1  0.000000  0.252782  0.500000  1
  Mg  Mg4  1  0.245702  0.999185  0.500000  1
  Mg  Mg5  1  0.754298  0.753482  0.500000  1
  Ir  Ir6  1  0.355874  0.668115  0.500000  1
  Ir  Ir7  1  0.644126  0.312241  0.500000  1
  Au  Au8  1  0.000000  0.001499  0.000000  1
