# generated using pymatgen
data_LaPr5FeBr10
_symmetry_space_group_name_H-M   'P 1'
_cell_length_a   7.71971858
_cell_length_b   9.30446716
_cell_length_c   9.71763516
_cell_angle_alpha   108.20960563
_cell_angle_beta   97.51096443
_cell_angle_gamma   105.01686331
_symmetry_Int_Tables_number   1
_chemical_formula_structural   LaPr5FeBr10
_chemical_formula_sum   'La1 Pr5 Fe1 Br10'
_cell_volume   623.11961706
_cell_formula_units_Z   1
loop_
 _symmetry_equiv_pos_site_id
 _symmetry_equiv_pos_as_xyz
  1  'x, y, z'
loop_
 _atom_site_type_symbol
 _atom_site_label
 _atom_site_symmetry_multiplicity
 _atom_site_fract_x
 _atom_site_fract_y
 _atom_site_fract_z
 _atom_site_occupancy
  La  La0  1  0.531313  0.230588  0.420456  1
  Pr  Pr1  1  0.466390  0.776649  0.581473  1
  Pr  Pr2  1  0.130466  0.359059  0.316663  1
  Pr  Pr3  1  0.869869  0.640232  0.682996  1
  Pr  Pr4  1  0.625839  0.548649  0.247976  1
  Pr  Pr5  1  0.375984  0.451254  0.752470  1
  Fe  Fe6  1  0.502962  0.484601  0.495690  1
  Br  Br7  1  0.146555  0.041657  0.226424  1
  Br  Br8  1  0.843288  0.955812  0.769402  1
  Br  Br9  1  0.245490  0.415351  0.047864  1
  Br  Br10  1  0.756138  0.587764  0.953429  1
  Br  Br11  1  0.706986  0.243448  0.152050  1
  Br  Br12  1  0.297502  0.760268  0.844080  1
  Br  Br13  1  0.048155  0.681442  0.417478  1
  Br  Br14  1  0.957518  0.322112  0.585209  1
  Br  Br15  1  0.411923  0.130203  0.677676  1
  Br  Br16  1  0.583625  0.870909  0.328666  1
