# generated using pymatgen
data_Ho3VCo3Ni5P6
_symmetry_space_group_name_H-M   'P 1'
_cell_length_a   3.72596600
_cell_length_b   10.54654300
_cell_length_c   12.26177000
_cell_angle_alpha   90.00000000
_cell_angle_beta   90.00000000
_cell_angle_gamma   90.00000000
_symmetry_Int_Tables_number   1
_chemical_formula_structural   Ho3VCo3Ni5P6
_chemical_formula_sum   'Ho6 V2 Co6 Ni10 P12'
_cell_volume   481.83925742
_cell_formula_units_Z   2
loop_
 _symmetry_equiv_pos_site_id
 _symmetry_equiv_pos_as_xyz
  1  'x, y, z'
loop_
 _atom_site_type_symbol
 _atom_site_label
 _atom_site_symmetry_multiplicity
 _atom_site_fract_x
 _atom_site_fract_y
 _atom_site_fract_z
 _atom_site_occupancy
  Ho  Ho0  1  0.000000  0.500000  0.522111  1
  Ho  Ho1  1  0.500000  0.000000  0.477889  1
  Ho  Ho2  1  0.500000  0.817903  0.204188  1
  Ho  Ho3  1  0.500000  0.182097  0.204188  1
  Ho  Ho4  1  0.000000  0.682097  0.795812  1
  Ho  Ho5  1  0.000000  0.317903  0.795812  1
  V  V6  1  0.500000  0.500000  0.150603  1
  V  V7  1  0.000000  0.000000  0.849397  1
  Co  Co8  1  0.000000  0.500000  0.985461  1
  Co  Co9  1  0.500000  0.000000  0.014539  1
  Co  Co10  1  0.500000  0.333392  0.991410  1
  Co  Co11  1  0.500000  0.666608  0.991410  1
  Co  Co12  1  0.000000  0.166608  0.008590  1
  Co  Co13  1  0.000000  0.833392  0.008590  1
  Ni  Ni14  1  0.500000  0.301644  0.427816  1
  Ni  Ni15  1  0.500000  0.698356  0.427816  1
  Ni  Ni16  1  0.000000  0.198356  0.572184  1
  Ni  Ni17  1  0.000000  0.801644  0.572184  1
  Ni  Ni18  1  0.500000  0.879818  0.712614  1
  Ni  Ni19  1  0.500000  0.120182  0.712614  1
  Ni  Ni20  1  0.000000  0.620182  0.287386  1
  Ni  Ni21  1  0.000000  0.379818  0.287386  1
  Ni  Ni22  1  0.500000  0.500000  0.702322  1
  Ni  Ni23  1  0.000000  0.000000  0.297678  1
  P  P24  1  0.500000  0.314532  0.615004  1
  P  P25  1  0.500000  0.685468  0.615004  1
  P  P26  1  0.000000  0.185468  0.384996  1
  P  P27  1  0.000000  0.814532  0.384996  1
  P  P28  1  0.500000  0.500000  0.880721  1
  P  P29  1  0.000000  0.000000  0.119279  1
  P  P30  1  0.500000  0.845572  0.895314  1
  P  P31  1  0.500000  0.154428  0.895314  1
  P  P32  1  0.000000  0.654428  0.104686  1
  P  P33  1  0.000000  0.345572  0.104686  1
  P  P34  1  0.500000  0.500000  0.344413  1
  P  P35  1  0.000000  0.000000  0.655587  1
