# generated using pymatgen
data_Tb10ZnSiPb6
_symmetry_space_group_name_H-M   'P 1'
_cell_length_a   9.27737400
_cell_length_b   9.27737388
_cell_length_c   6.73605400
_cell_angle_alpha   90.00000000
_cell_angle_beta   90.00000000
_cell_angle_gamma   119.99999331
_symmetry_Int_Tables_number   1
_chemical_formula_structural   Tb10ZnSiPb6
_chemical_formula_sum   'Tb10 Zn1 Si1 Pb6'
_cell_volume   502.09551813
_cell_formula_units_Z   1
loop_
 _symmetry_equiv_pos_site_id
 _symmetry_equiv_pos_as_xyz
  1  'x, y, z'
loop_
 _atom_site_type_symbol
 _atom_site_label
 _atom_site_symmetry_multiplicity
 _atom_site_fract_x
 _atom_site_fract_y
 _atom_site_fract_z
 _atom_site_occupancy
  Tb  Tb0  1  0.253880  0.000000  0.234577  1
  Tb  Tb1  1  0.746120  0.000000  0.765423  1
  Tb  Tb2  1  0.000000  0.253880  0.234577  1
  Tb  Tb3  1  0.000000  0.746120  0.765423  1
  Tb  Tb4  1  0.746120  0.746120  0.234577  1
  Tb  Tb5  1  0.253880  0.253880  0.765423  1
  Tb  Tb6  1  0.333333  0.666667  0.000000  1
  Tb  Tb7  1  0.666667  0.333333  0.000000  1
  Tb  Tb8  1  0.666667  0.333333  0.500000  1
  Tb  Tb9  1  0.333333  0.666667  0.500000  1
  Zn  Zn10  1  0.000000  0.000000  0.500000  1
  Si  Si11  1  0.000000  0.000000  0.000000  1
  Pb  Pb12  1  0.608291  0.000000  0.249582  1
  Pb  Pb13  1  0.391709  0.000000  0.750418  1
  Pb  Pb14  1  0.000000  0.608291  0.249582  1
  Pb  Pb15  1  0.000000  0.391709  0.750418  1
  Pb  Pb16  1  0.391709  0.391709  0.249582  1
  Pb  Pb17  1  0.608291  0.608291  0.750418  1
