# generated using pymatgen
data_Dy3Mg2ZnGe2Au
_symmetry_space_group_name_H-M   'P 1'
_cell_length_a   7.12740200
_cell_length_b   7.16047391
_cell_length_c   4.34987500
_cell_angle_alpha   90.00000000
_cell_angle_beta   90.00000000
_cell_angle_gamma   119.84733266
_symmetry_Int_Tables_number   1
_chemical_formula_structural   Dy3Mg2ZnGe2Au
_chemical_formula_sum   'Dy3 Mg2 Zn1 Ge2 Au1'
_cell_volume   192.55131350
_cell_formula_units_Z   1
loop_
 _symmetry_equiv_pos_site_id
 _symmetry_equiv_pos_as_xyz
  1  'x, y, z'
loop_
 _atom_site_type_symbol
 _atom_site_label
 _atom_site_symmetry_multiplicity
 _atom_site_fract_x
 _atom_site_fract_y
 _atom_site_fract_z
 _atom_site_occupancy
  Dy  Dy0  1  0.574503  0.000000  0.000000  1
  Dy  Dy1  1  0.002802  0.585809  0.000000  1
  Dy  Dy2  1  0.416993  0.414191  0.000000  1
  Mg  Mg3  1  0.002612  0.240798  0.500000  1
  Mg  Mg4  1  0.761814  0.759202  0.500000  1
  Zn  Zn5  1  0.247097  0.000000  0.500000  1
  Ge  Ge6  1  0.331974  0.670071  0.500000  1
  Ge  Ge7  1  0.661904  0.329929  0.500000  1
  Au  Au8  1  0.000301  0.000000  0.000000  1
