# generated using pymatgen
data_VRe(TcIr2)2
_symmetry_space_group_name_H-M   'P 1'
_cell_length_a   5.47347400
_cell_length_b   5.51957371
_cell_length_c   4.37934600
_cell_angle_alpha   90.00000000
_cell_angle_beta   90.00000000
_cell_angle_gamma   119.72409913
_symmetry_Int_Tables_number   1
_chemical_formula_structural   VRe(TcIr2)2
_chemical_formula_sum   'V1 Re1 Tc2 Ir4'
_cell_volume   114.89713372
_cell_formula_units_Z   1
loop_
 _symmetry_equiv_pos_site_id
 _symmetry_equiv_pos_as_xyz
  1  'x, y, z'
loop_
 _atom_site_type_symbol
 _atom_site_label
 _atom_site_symmetry_multiplicity
 _atom_site_fract_x
 _atom_site_fract_y
 _atom_site_fract_z
 _atom_site_occupancy
  V  V0  1  0.832420  0.664841  0.750000  1
  Re  Re1  1  0.167730  0.335461  0.250000  1
  Tc  Tc2  1  0.332964  0.665928  0.750000  1
  Tc  Tc3  1  0.668647  0.337294  0.250000  1
  Ir  Ir4  1  0.663973  0.826719  0.250000  1
  Ir  Ir5  1  0.162747  0.826719  0.250000  1
  Ir  Ir6  1  0.336235  0.171519  0.750000  1
  Ir  Ir7  1  0.835283  0.171519  0.750000  1
