# generated using pymatgen
data_La3Ho2Tl2InBr
_symmetry_space_group_name_H-M   'P 1'
_cell_length_a   9.59311741
_cell_length_b   9.59311784
_cell_length_c   6.84729300
_cell_angle_alpha   90.00000000
_cell_angle_beta   90.00000000
_cell_angle_gamma   119.93796305
_symmetry_Int_Tables_number   1
_chemical_formula_structural   La3Ho2Tl2InBr
_chemical_formula_sum   'La6 Ho4 Tl4 In2 Br2'
_cell_volume   546.05983275
_cell_formula_units_Z   2
loop_
 _symmetry_equiv_pos_site_id
 _symmetry_equiv_pos_as_xyz
  1  'x, y, z'
loop_
 _atom_site_type_symbol
 _atom_site_label
 _atom_site_symmetry_multiplicity
 _atom_site_fract_x
 _atom_site_fract_y
 _atom_site_fract_z
 _atom_site_occupancy
  La  La0  1  0.731102  0.731102  0.250000  1
  La  La1  1  0.999673  0.731099  0.750000  1
  La  La2  1  0.731099  0.999673  0.750000  1
  La  La3  1  0.268898  0.268898  0.750000  1
  La  La4  1  0.000327  0.268901  0.250000  1
  La  La5  1  0.268901  0.000327  0.250000  1
  Ho  Ho6  1  0.333660  0.666340  0.500000  1
  Ho  Ho7  1  0.666340  0.333660  0.500000  1
  Ho  Ho8  1  0.333660  0.666340  0.000000  1
  Ho  Ho9  1  0.666340  0.333660  0.000000  1
  Tl  Tl10  1  0.393871  0.000016  0.750000  1
  Tl  Tl11  1  0.999984  0.606129  0.250000  1
  Tl  Tl12  1  0.606129  0.999984  0.250000  1
  Tl  Tl13  1  0.000016  0.393871  0.750000  1
  In  In14  1  0.394161  0.394161  0.250000  1
  In  In15  1  0.605839  0.605839  0.750000  1
  Br  Br16  1  0.000000  0.000000  0.500000  1
  Br  Br17  1  0.000000  0.000000  0.000000  1
