# generated using pymatgen
data_Ti8Al14AsIr5Rh2
_symmetry_space_group_name_H-M   'P 1'
_cell_length_a   8.64387200
_cell_length_b   8.64390151
_cell_length_c   8.64387406
_cell_angle_alpha   119.94548424
_cell_angle_beta   119.82896694
_cell_angle_gamma   90.19537561
_symmetry_Int_Tables_number   1
_chemical_formula_structural   Ti8Al14AsIr5Rh2
_chemical_formula_sum   'Ti8 Al14 As1 Ir5 Rh2'
_cell_volume   457.45491812
_cell_formula_units_Z   1
loop_
 _symmetry_equiv_pos_site_id
 _symmetry_equiv_pos_as_xyz
  1  'x, y, z'
loop_
 _atom_site_type_symbol
 _atom_site_label
 _atom_site_symmetry_multiplicity
 _atom_site_fract_x
 _atom_site_fract_y
 _atom_site_fract_z
 _atom_site_occupancy
  Ti  Ti0  1  0.795832  0.296577  0.085573  1
  Ti  Ti1  1  0.211004  0.296577  0.500745  1
  Ti  Ti2  1  0.204197  0.704192  0.499995  1
  Ti  Ti3  1  0.210998  0.710229  0.914372  1
  Ti  Ti4  1  0.795857  0.710229  0.499232  1
  Ti  Ti5  1  0.790399  0.290384  0.499985  1
  Ti  Ti6  1  0.379409  0.122451  0.743043  1
  Ti  Ti7  1  0.379368  0.636345  0.256978  1
  Al  Al8  1  0.157784  0.337274  0.179490  1
  Al  Al9  1  0.157883  0.978479  0.820596  1
  Al  Al10  1  0.154655  0.340893  0.813665  1
  Al  Al11  1  0.527227  0.340893  0.186239  1
  Al  Al12  1  0.840961  0.659900  0.818940  1
  Al  Al13  1  0.841039  0.022162  0.181126  1
  Al  Al14  1  0.838208  0.660102  0.178033  1
  Al  Al15  1  0.482068  0.660102  0.821894  1
  Al  Al16  1  0.380293  0.119785  0.260629  1
  Al  Al17  1  0.859157  0.119785  0.739492  1
  Al  Al18  1  0.620433  0.879692  0.259259  1
  Al  Al19  1  0.620376  0.361139  0.740764  1
  Al  Al20  1  0.620415  0.879612  0.740924  1
  Al  Al21  1  0.138689  0.879612  0.259196  1
  As  As22  1  0.997899  0.497790  0.499891  1
  Ir  Ir23  1  0.001506  0.999847  0.501509  1
  Ir  Ir24  1  0.498338  0.999847  0.998342  1
  Ir  Ir25  1  0.497414  0.497409  0.999995  1
  Ir  Ir26  1  0.498325  0.499970  0.498453  1
  Ir  Ir27  1  0.001517  0.499970  0.001644  1
  Rh  Rh28  1  0.000017  0.999996  0.999979  1
  Rh  Rh29  1  0.498732  0.998751  0.500018  1
