# generated using pymatgen
data_Sr8Mg8Si15Ge
_symmetry_space_group_name_H-M   'P 1'
_cell_length_a   4.41410600
_cell_length_b   11.47918971
_cell_length_c   14.48065940
_cell_angle_alpha   89.92141508
_cell_angle_beta   90.00000000
_cell_angle_gamma   90.00000000
_symmetry_Int_Tables_number   1
_chemical_formula_structural   Sr8Mg8Si15Ge
_chemical_formula_sum   'Sr8 Mg8 Si15 Ge1'
_cell_volume   733.73953678
_cell_formula_units_Z   1
loop_
 _symmetry_equiv_pos_site_id
 _symmetry_equiv_pos_as_xyz
  1  'x, y, z'
loop_
 _atom_site_type_symbol
 _atom_site_label
 _atom_site_symmetry_multiplicity
 _atom_site_fract_x
 _atom_site_fract_y
 _atom_site_fract_z
 _atom_site_occupancy
  Sr  Sr0  1  0.250000  0.523575  0.196409  1
  Sr  Sr1  1  0.250000  0.740490  0.938642  1
  Sr  Sr2  1  0.750000  0.259026  0.061478  1
  Sr  Sr3  1  0.750000  0.241045  0.561410  1
  Sr  Sr4  1  0.250000  0.759003  0.438564  1
  Sr  Sr5  1  0.250000  0.976349  0.695890  1
  Sr  Sr6  1  0.750000  0.023630  0.303607  1
  Sr  Sr7  1  0.750000  0.476427  0.803524  1
  Mg  Mg8  1  0.250000  0.441735  0.440212  1
  Mg  Mg9  1  0.750000  0.558300  0.559838  1
  Mg  Mg10  1  0.750000  0.941655  0.060568  1
  Mg  Mg11  1  0.250000  0.059238  0.940853  1
  Mg  Mg12  1  0.250000  0.679735  0.689908  1
  Mg  Mg13  1  0.750000  0.320090  0.309988  1
  Mg  Mg14  1  0.750000  0.180955  0.809752  1
  Mg  Mg15  1  0.250000  0.820041  0.190002  1
  Si  Si16  1  0.250000  0.452138  0.632284  1
  Si  Si17  1  0.750000  0.547874  0.367637  1
  Si  Si18  1  0.250000  0.028638  0.465876  1
  Si  Si19  1  0.250000  0.047913  0.132392  1
  Si  Si20  1  0.250000  0.274414  0.722776  1
  Si  Si21  1  0.750000  0.725533  0.277169  1
  Si  Si22  1  0.750000  0.771904  0.776091  1
  Si  Si23  1  0.250000  0.212441  0.393501  1
  Si  Si24  1  0.750000  0.971366  0.534094  1
  Si  Si25  1  0.750000  0.528739  0.034106  1
  Si  Si26  1  0.250000  0.471250  0.965872  1
  Si  Si27  1  0.250000  0.287685  0.893622  1
  Si  Si28  1  0.750000  0.787521  0.606349  1
  Si  Si29  1  0.750000  0.712272  0.106448  1
  Si  Si30  1  0.250000  0.225551  0.222791  1
  Ge  Ge31  1  0.750000  0.953470  0.868347  1
