# generated using pymatgen
data_YbTm(Al5Fe)4
_symmetry_space_group_name_H-M   'P 1'
_cell_length_a   6.76884143
_cell_length_b   6.76884120
_cell_length_c   8.95713500
_cell_angle_alpha   90.00000000
_cell_angle_beta   90.00000000
_cell_angle_gamma   97.14525577
_symmetry_Int_Tables_number   1
_chemical_formula_structural   YbTm(Al5Fe)4
_chemical_formula_sum   'Yb1 Tm1 Al20 Fe4'
_cell_volume   407.20386409
_cell_formula_units_Z   1
loop_
 _symmetry_equiv_pos_site_id
 _symmetry_equiv_pos_as_xyz
  1  'x, y, z'
loop_
 _atom_site_type_symbol
 _atom_site_label
 _atom_site_symmetry_multiplicity
 _atom_site_fract_x
 _atom_site_fract_y
 _atom_site_fract_z
 _atom_site_occupancy
  Yb  Yb0  1  0.876445  0.123555  0.750000  1
  Tm  Tm1  1  0.125452  0.874548  0.250000  1
  Al  Al2  1  0.625893  0.374107  0.545917  1
  Al  Al3  1  0.374088  0.625912  0.449996  1
  Al  Al4  1  0.374088  0.625912  0.050004  1
  Al  Al5  1  0.625893  0.374107  0.954083  1
  Al  Al6  1  0.226990  0.227709  0.499376  1
  Al  Al7  1  0.772291  0.773010  0.499376  1
  Al  Al8  1  0.772291  0.773010  0.000624  1
  Al  Al9  1  0.226990  0.227709  0.000624  1
  Al  Al10  1  0.843817  0.156183  0.096604  1
  Al  Al11  1  0.158624  0.841376  0.903692  1
  Al  Al12  1  0.158624  0.841376  0.596308  1
  Al  Al13  1  0.843817  0.156183  0.403396  1
  Al  Al14  1  0.866373  0.585449  0.750000  1
  Al  Al15  1  0.134281  0.417622  0.250000  1
  Al  Al16  1  0.414551  0.133627  0.750000  1
  Al  Al17  1  0.582378  0.865719  0.250000  1
  Al  Al18  1  0.219824  0.476639  0.750000  1
  Al  Al19  1  0.779564  0.522122  0.250000  1
  Al  Al20  1  0.523361  0.780176  0.750000  1
  Al  Al21  1  0.477878  0.220436  0.250000  1
  Fe  Fe22  1  0.999750  0.501508  0.499380  1
  Fe  Fe23  1  0.999750  0.501508  0.000620  1
  Fe  Fe24  1  0.498492  0.000250  0.000620  1
  Fe  Fe25  1  0.498492  0.000250  0.499380  1
