# generated using pymatgen
data_Sc8Ti11Si16Tc
_symmetry_space_group_name_H-M   'P 1'
_cell_length_a   6.84874658
_cell_length_b   6.84874694
_cell_length_c   12.53761621
_cell_angle_alpha   89.99416926
_cell_angle_beta   90.00583036
_cell_angle_gamma   89.96682397
_symmetry_Int_Tables_number   1
_chemical_formula_structural   Sc8Ti11Si16Tc
_chemical_formula_sum   'Sc8 Ti11 Si16 Tc1'
_cell_volume   588.08094899
_cell_formula_units_Z   1
loop_
 _symmetry_equiv_pos_site_id
 _symmetry_equiv_pos_as_xyz
  1  'x, y, z'
loop_
 _atom_site_type_symbol
 _atom_site_label
 _atom_site_symmetry_multiplicity
 _atom_site_fract_x
 _atom_site_fract_y
 _atom_site_fract_z
 _atom_site_occupancy
  Sc  Sc0  1  0.001802  0.659565  0.031601  1
  Sc  Sc1  1  0.838967  0.499882  0.281679  1
  Sc  Sc2  1  0.160469  0.498095  0.784123  1
  Sc  Sc3  1  0.499882  0.838967  0.718321  1
  Sc  Sc4  1  0.498095  0.160469  0.215877  1
  Sc  Sc5  1  0.000449  0.339703  0.532210  1
  Sc  Sc6  1  0.659565  0.001802  0.968399  1
  Sc  Sc7  1  0.339703  0.000449  0.467790  1
  Ti  Ti8  1  0.171517  0.829806  0.248698  1
  Ti  Ti9  1  0.829806  0.171517  0.751302  1
  Ti  Ti10  1  0.671456  0.671456  0.500000  1
  Ti  Ti11  1  0.004211  0.151568  0.126538  1
  Ti  Ti12  1  0.349739  0.506129  0.374094  1
  Ti  Ti13  1  0.652489  0.492688  0.876941  1
  Ti  Ti14  1  0.506129  0.349739  0.625906  1
  Ti  Ti15  1  0.492688  0.652489  0.123059  1
  Ti  Ti16  1  0.994163  0.849365  0.625705  1
  Ti  Ti17  1  0.151568  0.004211  0.873462  1
  Ti  Ti18  1  0.849365  0.994163  0.374295  1
  Si  Si19  1  0.295580  0.958435  0.064269  1
  Si  Si20  1  0.543571  0.798792  0.315068  1
  Si  Si21  1  0.454839  0.202449  0.816594  1
  Si  Si22  1  0.798792  0.543571  0.684932  1
  Si  Si23  1  0.202449  0.454839  0.183406  1
  Si  Si24  1  0.701476  0.044702  0.565467  1
  Si  Si25  1  0.958435  0.295580  0.935731  1
  Si  Si26  1  0.044702  0.701476  0.434533  1
  Si  Si27  1  0.705256  0.367323  0.071335  1
  Si  Si28  1  0.135027  0.205800  0.320598  1
  Si  Si29  1  0.864941  0.793154  0.820921  1
  Si  Si30  1  0.205800  0.135027  0.679402  1
  Si  Si31  1  0.793154  0.864941  0.179079  1
  Si  Si32  1  0.293821  0.634539  0.570640  1
  Si  Si33  1  0.367323  0.705256  0.928665  1
  Si  Si34  1  0.634539  0.293821  0.429360  1
  Tc  Tc35  1  0.328234  0.328234  0.000000  1
