# generated using pymatgen
data_MoIr(RhO3)4
_symmetry_space_group_name_H-M   'P 1'
_cell_length_a   4.58373195
_cell_length_b   4.58373195
_cell_length_c   9.45813000
_cell_angle_alpha   90.00000000
_cell_angle_beta   90.00000000
_cell_angle_gamma   89.92627611
_symmetry_Int_Tables_number   1
_chemical_formula_structural   MoIr(RhO3)4
_chemical_formula_sum   'Mo1 Ir1 Rh4 O12'
_cell_volume   198.72080821
_cell_formula_units_Z   1
loop_
 _symmetry_equiv_pos_site_id
 _symmetry_equiv_pos_as_xyz
  1  'x, y, z'
loop_
 _atom_site_type_symbol
 _atom_site_label
 _atom_site_symmetry_multiplicity
 _atom_site_fract_x
 _atom_site_fract_y
 _atom_site_fract_z
 _atom_site_occupancy
  Mo  Mo0  1  0.500000  0.500000  0.500000  1
  Ir  Ir1  1  0.000000  0.000000  0.000000  1
  Rh  Rh2  1  0.500000  0.500000  0.834107  1
  Rh  Rh3  1  0.000000  0.000000  0.331292  1
  Rh  Rh4  1  0.500000  0.500000  0.165893  1
  Rh  Rh5  1  0.000000  0.000000  0.668708  1
  O  O6  1  0.692838  0.692838  0.665672  1
  O  O7  1  0.307162  0.307162  0.665672  1
  O  O8  1  0.692838  0.692838  0.334328  1
  O  O9  1  0.191347  0.808653  0.164251  1
  O  O10  1  0.808653  0.191347  0.164251  1
  O  O11  1  0.808653  0.191347  0.835749  1
  O  O12  1  0.301269  0.301269  0.000000  1
  O  O13  1  0.195198  0.804802  0.500000  1
  O  O14  1  0.804802  0.195198  0.500000  1
  O  O15  1  0.698731  0.698731  0.000000  1
  O  O16  1  0.307162  0.307162  0.334328  1
  O  O17  1  0.191347  0.808653  0.835749  1
