# generated using pymatgen
data_Ti8Al15Ru3Rh4
_symmetry_space_group_name_H-M   'P 1'
_cell_length_a   8.65111491
_cell_length_b   8.66041621
_cell_length_c   8.65111393
_cell_angle_alpha   120.08846523
_cell_angle_beta   119.85441265
_cell_angle_gamma   90.01869875
_symmetry_Int_Tables_number   1
_chemical_formula_structural   Ti8Al15Ru3Rh4
_chemical_formula_sum   'Ti8 Al15 Ru3 Rh4'
_cell_volume   458.63788437
_cell_formula_units_Z   1
loop_
 _symmetry_equiv_pos_site_id
 _symmetry_equiv_pos_as_xyz
  1  'x, y, z'
loop_
 _atom_site_type_symbol
 _atom_site_label
 _atom_site_symmetry_multiplicity
 _atom_site_fract_x
 _atom_site_fract_y
 _atom_site_fract_z
 _atom_site_occupancy
  Ti  Ti0  1  0.785476  0.287457  0.070510  1
  Ti  Ti1  1  0.216947  0.287457  0.501982  1
  Ti  Ti2  1  0.209389  0.715720  0.506331  1
  Ti  Ti3  1  0.221009  0.721578  0.928532  1
  Ti  Ti4  1  0.793046  0.721578  0.500569  1
  Ti  Ti5  1  0.779987  0.274137  0.494150  1
  Ti  Ti6  1  0.377289  0.122717  0.745428  1
  Ti  Ti7  1  0.380402  0.634855  0.254453  1
  Al  Al8  1  0.995470  0.494827  0.499358  1
  Al  Al9  1  0.151845  0.347499  0.195652  1
  Al  Al10  1  0.155731  0.970019  0.814289  1
  Al  Al11  1  0.150268  0.347612  0.804065  1
  Al  Al12  1  0.543546  0.347612  0.197344  1
  Al  Al13  1  0.848677  0.648897  0.800220  1
  Al  Al14  1  0.846289  0.038074  0.191785  1
  Al  Al15  1  0.844030  0.653618  0.188278  1
  Al  Al16  1  0.465340  0.653618  0.809589  1
  Al  Al17  1  0.379556  0.122609  0.258840  1
  Al  Al18  1  0.863770  0.122609  0.743054  1
  Al  Al19  1  0.620964  0.874728  0.253764  1
  Al  Al20  1  0.620635  0.364800  0.744164  1
  Al  Al21  1  0.619616  0.877336  0.741960  1
  Al  Al22  1  0.135375  0.877336  0.257720  1
  Ru  Ru23  1  0.001138  0.999560  0.501333  1
  Ru  Ru24  1  0.498226  0.999560  0.998421  1
  Ru  Ru25  1  0.497405  0.497396  0.999991  1
  Rh  Rh26  1  0.498896  0.499654  0.498631  1
  Rh  Rh27  1  0.001021  0.499654  0.000758  1
  Rh  Rh28  1  0.999460  0.999103  0.999643  1
  Rh  Rh29  1  0.499194  0.998377  0.499183  1
