# generated using pymatgen
data_TbHo9AlBi5
_symmetry_space_group_name_H-M   'P 1'
_cell_length_a   9.08538369
_cell_length_b   9.07067694
_cell_length_c   6.41024800
_cell_angle_alpha   90.00000000
_cell_angle_beta   90.00000000
_cell_angle_gamma   119.80101377
_symmetry_Int_Tables_number   1
_chemical_formula_structural   TbHo9AlBi5
_chemical_formula_sum   'Tb1 Ho9 Al1 Bi5'
_cell_volume   458.41176967
_cell_formula_units_Z   1
loop_
 _symmetry_equiv_pos_site_id
 _symmetry_equiv_pos_as_xyz
  1  'x, y, z'
loop_
 _atom_site_type_symbol
 _atom_site_label
 _atom_site_symmetry_multiplicity
 _atom_site_fract_x
 _atom_site_fract_y
 _atom_site_fract_z
 _atom_site_occupancy
  Tb  Tb0  1  0.000459  0.758680  0.250000  1
  Ho  Ho1  1  0.658326  0.335751  0.997774  1
  Ho  Ho2  1  0.334870  0.657818  0.997981  1
  Ho  Ho3  1  0.334870  0.657818  0.502019  1
  Ho  Ho4  1  0.658326  0.335751  0.502226  1
  Ho  Ho5  1  0.749953  0.750010  0.750000  1
  Ho  Ho6  1  0.244861  0.014493  0.750000  1
  Ho  Ho7  1  0.014166  0.243694  0.750000  1
  Ho  Ho8  1  0.241248  0.241208  0.250000  1
  Ho  Ho9  1  0.758553  0.000353  0.250000  1
  Al  Al10  1  0.394072  0.394227  0.750000  1
  Bi  Bi11  1  0.613081  0.002824  0.750000  1
  Bi  Bi12  1  0.002782  0.613190  0.750000  1
  Bi  Bi13  1  0.609486  0.610311  0.250000  1
  Bi  Bi14  1  0.389933  0.995869  0.250000  1
  Bi  Bi15  1  0.995014  0.388007  0.250000  1
