# generated using pymatgen
data_Er3Mn2Al6(Si3Ru)2
_symmetry_space_group_name_H-M   'P 1'
_cell_length_a   8.58003193
_cell_length_b   8.58003236
_cell_length_c   9.15430100
_cell_angle_alpha   90.00000000
_cell_angle_beta   90.00000000
_cell_angle_gamma   119.87720481
_symmetry_Int_Tables_number   1
_chemical_formula_structural   Er3Mn2Al6(Si3Ru)2
_chemical_formula_sum   'Er6 Mn4 Al12 Si12 Ru4'
_cell_volume   584.34549741
_cell_formula_units_Z   2
loop_
 _symmetry_equiv_pos_site_id
 _symmetry_equiv_pos_as_xyz
  1  'x, y, z'
loop_
 _atom_site_type_symbol
 _atom_site_label
 _atom_site_symmetry_multiplicity
 _atom_site_fract_x
 _atom_site_fract_y
 _atom_site_fract_z
 _atom_site_occupancy
  Er  Er0  1  0.194712  0.384649  0.250000  1
  Er  Er1  1  0.805288  0.615351  0.750000  1
  Er  Er2  1  0.615351  0.805288  0.250000  1
  Er  Er3  1  0.384649  0.194712  0.750000  1
  Er  Er4  1  0.192742  0.807258  0.250000  1
  Er  Er5  1  0.807258  0.192742  0.750000  1
  Mn  Mn6  1  0.500000  0.500000  0.000000  1
  Mn  Mn7  1  0.500000  0.500000  0.500000  1
  Mn  Mn8  1  0.000000  0.000000  0.000000  1
  Mn  Mn9  1  0.000000  0.000000  0.500000  1
  Al  Al10  1  0.168535  0.328761  0.578232  1
  Al  Al11  1  0.831465  0.671239  0.421768  1
  Al  Al12  1  0.671239  0.831465  0.578232  1
  Al  Al13  1  0.831465  0.671239  0.078232  1
  Al  Al14  1  0.328761  0.168535  0.421768  1
  Al  Al15  1  0.168535  0.328761  0.921768  1
  Al  Al16  1  0.162613  0.837387  0.579319  1
  Al  Al17  1  0.328761  0.168535  0.078232  1
  Al  Al18  1  0.837387  0.162613  0.420681  1
  Al  Al19  1  0.671239  0.831465  0.921768  1
  Al  Al20  1  0.837387  0.162613  0.079319  1
  Al  Al21  1  0.162613  0.837387  0.920681  1
  Si  Si22  1  0.337694  0.662306  0.040468  1
  Si  Si23  1  0.662306  0.337694  0.959532  1
  Si  Si24  1  0.662306  0.337694  0.540468  1
  Si  Si25  1  0.337694  0.662306  0.459532  1
  Si  Si26  1  0.562769  0.124426  0.250000  1
  Si  Si27  1  0.437231  0.875574  0.750000  1
  Si  Si28  1  0.875574  0.437231  0.250000  1
  Si  Si29  1  0.124426  0.562769  0.750000  1
  Si  Si30  1  0.557556  0.442444  0.250000  1
  Si  Si31  1  0.442444  0.557556  0.750000  1
  Si  Si32  1  0.000240  0.999760  0.250000  1
  Si  Si33  1  0.999760  0.000240  0.750000  1
  Ru  Ru34  1  0.500000  0.000000  0.000000  1
  Ru  Ru35  1  0.000000  0.500000  0.000000  1
  Ru  Ru36  1  0.500000  0.000000  0.500000  1
  Ru  Ru37  1  0.000000  0.500000  0.500000  1
