# generated using pymatgen
data_CsPaN3O11
_symmetry_space_group_name_H-M   'P 1'
_cell_length_a   8.93204960
_cell_length_b   8.93204851
_cell_length_c   8.93204912
_cell_angle_alpha   67.45130786
_cell_angle_beta   112.54869046
_cell_angle_gamma   112.54868749
_symmetry_Int_Tables_number   1
_chemical_formula_structural   CsPaN3O11
_chemical_formula_sum   'Cs2 Pa2 N6 O22'
_cell_volume   584.00847159
_cell_formula_units_Z   2
loop_
 _symmetry_equiv_pos_site_id
 _symmetry_equiv_pos_as_xyz
  1  'x, y, z'
loop_
 _atom_site_type_symbol
 _atom_site_label
 _atom_site_symmetry_multiplicity
 _atom_site_fract_x
 _atom_site_fract_y
 _atom_site_fract_z
 _atom_site_occupancy
  Cs  Cs0  1  0.000000  0.000000  0.000000  1
  Cs  Cs1  1  0.500000  0.499999  0.500001  1
  Pa  Pa2  1  0.750000  0.249999  0.250001  1
  Pa  Pa3  1  0.250000  0.749999  0.750001  1
  N  N4  1  0.549894  0.750000  0.049895  1
  N  N5  1  0.049894  0.549894  0.250000  1
  N  N6  1  0.250000  0.049895  0.450106  1
  N  N7  1  0.750000  0.950105  0.549896  1
  N  N8  1  0.950105  0.450105  0.750000  1
  N  N9  1  0.450106  0.250001  0.950105  1
  O  O10  1  0.407827  0.636043  0.054017  1
  O  O11  1  0.445983  0.136043  0.092173  1
  O  O12  1  0.907827  0.554017  0.136043  1
  O  O13  1  0.840711  0.159288  0.159290  1
  O  O14  1  0.673988  0.750001  0.173988  1
  O  O15  1  0.173987  0.673988  0.250000  1
  O  O16  1  0.250000  0.173988  0.326013  1
  O  O17  1  0.659289  0.340710  0.340712  1
  O  O18  1  0.054017  0.407826  0.363957  1
  O  O19  1  0.636043  0.945983  0.407826  1
  O  O20  1  0.136043  0.907827  0.445983  1
  O  O21  1  0.863958  0.092175  0.554017  1
  O  O22  1  0.363957  0.054017  0.592173  1
  O  O23  1  0.945983  0.592174  0.636043  1
  O  O24  1  0.340711  0.659288  0.659290  1
  O  O25  1  0.750000  0.826013  0.673987  1
  O  O26  1  0.826013  0.326013  0.750000  1
  O  O27  1  0.326013  0.250001  0.826013  1
  O  O28  1  0.159289  0.840710  0.840712  1
  O  O29  1  0.092174  0.445982  0.863958  1
  O  O30  1  0.554017  0.863957  0.907826  1
  O  O31  1  0.592175  0.363957  0.945984  1
