# generated using pymatgen
data_Ho6Er7Tm3(In3Co)2
_symmetry_space_group_name_H-M   'P 1'
_cell_length_a   10.27679400
_cell_length_b   10.27679292
_cell_length_c   6.95324200
_cell_angle_alpha   90.00000000
_cell_angle_beta   90.00000000
_cell_angle_gamma   119.99999705
_symmetry_Int_Tables_number   1
_chemical_formula_structural   Ho6Er7Tm3(In3Co)2
_chemical_formula_sum   'Ho6 Er7 Tm3 In6 Co2'
_cell_volume   635.96504498
_cell_formula_units_Z   1
loop_
 _symmetry_equiv_pos_site_id
 _symmetry_equiv_pos_as_xyz
  1  'x, y, z'
loop_
 _atom_site_type_symbol
 _atom_site_label
 _atom_site_symmetry_multiplicity
 _atom_site_fract_x
 _atom_site_fract_y
 _atom_site_fract_z
 _atom_site_occupancy
  Ho  Ho0  1  0.534636  0.069273  0.790901  1
  Ho  Ho1  1  0.930727  0.465364  0.790901  1
  Ho  Ho2  1  0.534636  0.465364  0.790901  1
  Ho  Ho3  1  0.465577  0.931153  0.291785  1
  Ho  Ho4  1  0.068847  0.534423  0.291785  1
  Ho  Ho5  1  0.465577  0.534423  0.291785  1
  Er  Er6  1  0.178301  0.356602  0.999314  1
  Er  Er7  1  0.643398  0.821699  0.999314  1
  Er  Er8  1  0.178301  0.821699  0.999314  1
  Er  Er9  1  0.666667  0.333333  0.183352  1
  Er  Er10  1  0.333333  0.666667  0.682032  1
  Er  Er11  1  0.000000  0.000000  0.778934  1
  Er  Er12  1  0.000000  0.000000  0.280207  1
  Tm  Tm13  1  0.821634  0.643269  0.499245  1
  Tm  Tm14  1  0.356731  0.178366  0.499245  1
  Tm  Tm15  1  0.821634  0.178366  0.499245  1
  In  In16  1  0.837114  0.674229  0.038949  1
  In  In17  1  0.325771  0.162886  0.038949  1
  In  In18  1  0.837114  0.162886  0.038949  1
  In  In19  1  0.162579  0.325158  0.538415  1
  In  In20  1  0.674842  0.837421  0.538415  1
  In  In21  1  0.162579  0.837421  0.538415  1
  Co  Co22  1  0.666667  0.333333  0.567623  1
  Co  Co23  1  0.333333  0.666667  0.067929  1
