# generated using pymatgen
data_Zr8Ge3P9Ir16
_symmetry_space_group_name_H-M   'P 1'
_cell_length_a   12.95811200
_cell_length_b   12.95811135
_cell_length_c   3.90727400
_cell_angle_alpha   90.00000000
_cell_angle_beta   90.00000000
_cell_angle_gamma   119.99999656
_symmetry_Int_Tables_number   1
_chemical_formula_structural   Zr8Ge3P9Ir16
_chemical_formula_sum   'Zr8 Ge3 P9 Ir16'
_cell_volume   568.18262773
_cell_formula_units_Z   1
loop_
 _symmetry_equiv_pos_site_id
 _symmetry_equiv_pos_as_xyz
  1  'x, y, z'
loop_
 _atom_site_type_symbol
 _atom_site_label
 _atom_site_symmetry_multiplicity
 _atom_site_fract_x
 _atom_site_fract_y
 _atom_site_fract_z
 _atom_site_occupancy
  Zr  Zr0  1  0.443785  0.443785  0.000000  1
  Zr  Zr1  1  0.556215  0.000000  0.000000  1
  Zr  Zr2  1  0.000000  0.556215  0.000000  1
  Zr  Zr3  1  0.666667  0.333333  0.000000  1
  Zr  Zr4  1  0.333333  0.666667  0.000000  1
  Zr  Zr5  1  0.821028  0.821028  0.500000  1
  Zr  Zr6  1  0.178972  0.000000  0.500000  1
  Zr  Zr7  1  0.000000  0.178972  0.500000  1
  Ge  Ge8  1  0.652235  0.652235  0.000000  1
  Ge  Ge9  1  0.347765  0.000000  0.000000  1
  Ge  Ge10  1  0.000000  0.347765  0.000000  1
  P  P11  1  0.482472  0.310769  0.500000  1
  P  P12  1  0.689231  0.171702  0.500000  1
  P  P13  1  0.828298  0.517528  0.500000  1
  P  P14  1  0.517528  0.828298  0.500000  1
  P  P15  1  0.171702  0.689231  0.500000  1
  P  P16  1  0.826798  0.000000  0.000000  1
  P  P17  1  0.000000  0.826798  0.000000  1
  P  P18  1  0.310769  0.482472  0.500000  1
  P  P19  1  0.173202  0.173202  0.000000  1
  Ir  Ir20  1  0.198685  0.373129  0.000000  1
  Ir  Ir21  1  0.174443  0.801315  0.000000  1
  Ir  Ir22  1  0.825557  0.626871  0.000000  1
  Ir  Ir23  1  0.801315  0.174443  0.000000  1
  Ir  Ir24  1  0.373129  0.198685  0.000000  1
  Ir  Ir25  1  0.138134  0.497389  0.500000  1
  Ir  Ir26  1  0.359256  0.861866  0.500000  1
  Ir  Ir27  1  0.502611  0.640744  0.500000  1
  Ir  Ir28  1  0.640744  0.502611  0.500000  1
  Ir  Ir29  1  0.861866  0.359256  0.500000  1
  Ir  Ir30  1  0.497389  0.138134  0.500000  1
  Ir  Ir31  1  0.000000  0.000000  0.000000  1
  Ir  Ir32  1  0.728261  0.000000  0.500000  1
  Ir  Ir33  1  0.000000  0.728261  0.500000  1
  Ir  Ir34  1  0.626871  0.825557  0.000000  1
  Ir  Ir35  1  0.271739  0.271739  0.500000  1
