# generated using pymatgen
data_La4Sb(AsO2)2
_symmetry_space_group_name_H-M   'P 1'
_cell_length_a   7.42775592
_cell_length_b   7.42775583
_cell_length_c   8.30321017
_cell_angle_alpha   87.57550574
_cell_angle_beta   92.42449250
_cell_angle_gamma   147.78410925
_symmetry_Int_Tables_number   1
_chemical_formula_structural   La4Sb(AsO2)2
_chemical_formula_sum   'La4 Sb1 As2 O4'
_cell_volume   243.98181919
_cell_formula_units_Z   1
loop_
 _symmetry_equiv_pos_site_id
 _symmetry_equiv_pos_as_xyz
  1  'x, y, z'
loop_
 _atom_site_type_symbol
 _atom_site_label
 _atom_site_symmetry_multiplicity
 _atom_site_fract_x
 _atom_site_fract_y
 _atom_site_fract_z
 _atom_site_occupancy
  La  La0  1  0.316313  0.683687  0.752298  1
  La  La1  1  0.328523  0.671477  0.229987  1
  La  La2  1  0.980732  0.019268  0.509285  1
  La  La3  1  0.997966  0.002034  0.995955  1
  Sb  Sb4  1  0.636905  0.363095  0.299800  1
  As  As5  1  0.624812  0.375188  0.728311  1
  As  As6  1  0.698540  0.301460  0.997741  1
  O  O7  1  0.391932  0.608068  0.500324  1
  O  O8  1  0.414975  0.585025  0.992490  1
  O  O9  1  0.899346  0.100654  0.750222  1
  O  O10  1  0.911166  0.088834  0.243588  1
