# generated using pymatgen
data_NbRe22(TcMo2)2
_symmetry_space_group_name_H-M   'P 1'
_cell_length_a   8.37591506
_cell_length_b   8.36496882
_cell_length_c   8.37591623
_cell_angle_alpha   109.47966142
_cell_angle_beta   109.53891813
_cell_angle_gamma   109.44802856
_symmetry_Int_Tables_number   1
_chemical_formula_structural   NbRe22(TcMo2)2
_chemical_formula_sum   'Nb1 Re22 Tc2 Mo4'
_cell_volume   451.46356811
_cell_formula_units_Z   1
loop_
 _symmetry_equiv_pos_site_id
 _symmetry_equiv_pos_as_xyz
  1  'x, y, z'
loop_
 _atom_site_type_symbol
 _atom_site_label
 _atom_site_symmetry_multiplicity
 _atom_site_fract_x
 _atom_site_fract_y
 _atom_site_fract_z
 _atom_site_occupancy
  Nb  Nb0  1  0.000044  0.000000  0.000044  1
  Re  Re1  1  0.684880  0.402005  0.000970  1
  Re  Re2  1  0.597932  0.281780  0.597803  1
  Re  Re3  1  0.401506  0.000809  0.685921  1
  Re  Re4  1  0.001693  0.401641  0.684852  1
  Re  Re5  1  0.283211  0.598359  0.600052  1
  Re  Re6  1  0.717258  0.314009  0.315204  1
  Re  Re7  1  0.316023  0.718220  0.316152  1
  Re  Re8  1  0.685112  0.999191  0.400698  1
  Re  Re9  1  0.001195  0.685991  0.403249  1
  Re  Re10  1  0.598966  0.597995  0.282875  1
  Re  Re11  1  0.805357  0.804904  0.181022  1
  Re  Re12  1  0.376119  0.195096  0.000453  1
  Re  Re13  1  0.194385  0.378648  0.000389  1
  Re  Re14  1  0.623083  0.817376  0.623141  1
  Re  Re15  1  0.376442  0.999838  0.193969  1
  Re  Re16  1  0.000537  0.377675  0.194237  1
  Re  Re17  1  0.816563  0.622325  0.622862  1
  Re  Re18  1  0.181774  0.805505  0.806136  1
  Re  Re19  1  0.805767  0.182624  0.805709  1
  Re  Re20  1  0.194131  0.000162  0.376604  1
  Re  Re21  1  0.000631  0.194495  0.376270  1
  Re  Re22  1  0.621742  0.621352  0.815739  1
  Tc  Tc23  1  0.315440  0.314522  0.716563  1
  Tc  Tc24  1  0.402042  0.685478  0.000917  1
  Mo  Mo25  1  0.999112  0.000161  0.639089  1
  Mo  Mo26  1  0.638929  0.999839  0.998951  1
  Mo  Mo27  1  0.999894  0.638745  0.998978  1
  Mo  Mo28  1  0.360234  0.361255  0.361149  1
