# generated using pymatgen
data_Er4GeI6
_symmetry_space_group_name_H-M   'P 1'
_cell_length_a   4.19525300
_cell_length_b   13.89470600
_cell_length_c   14.69101700
_cell_angle_alpha   90.00000000
_cell_angle_beta   90.00000000
_cell_angle_gamma   90.00000000
_symmetry_Int_Tables_number   1
_chemical_formula_structural   Er4GeI6
_chemical_formula_sum   'Er8 Ge2 I12'
_cell_volume   856.36592805
_cell_formula_units_Z   2
loop_
 _symmetry_equiv_pos_site_id
 _symmetry_equiv_pos_as_xyz
  1  'x, y, z'
loop_
 _atom_site_type_symbol
 _atom_site_label
 _atom_site_symmetry_multiplicity
 _atom_site_fract_x
 _atom_site_fract_y
 _atom_site_fract_z
 _atom_site_occupancy
  Er  Er0  1  0.500000  0.114193  0.347269  1
  Er  Er1  1  0.500000  0.885807  0.652731  1
  Er  Er2  1  0.500000  0.614193  0.152731  1
  Er  Er3  1  0.500000  0.385807  0.847269  1
  Er  Er4  1  0.000000  0.110715  0.574040  1
  Er  Er5  1  0.000000  0.889285  0.425960  1
  Er  Er6  1  0.000000  0.610715  0.925960  1
  Er  Er7  1  0.000000  0.389285  0.074040  1
  Ge  Ge8  1  0.500000  0.000000  0.500000  1
  Ge  Ge9  1  0.500000  0.500000  0.000000  1
  I  I10  1  0.500000  0.247274  0.162019  1
  I  I11  1  0.500000  0.752726  0.837981  1
  I  I12  1  0.500000  0.747274  0.337981  1
  I  I13  1  0.500000  0.252726  0.662019  1
  I  I14  1  0.000000  0.258494  0.414411  1
  I  I15  1  0.000000  0.741506  0.585589  1
  I  I16  1  0.000000  0.758494  0.085589  1
  I  I17  1  0.000000  0.241506  0.914411  1
  I  I18  1  0.000000  0.999478  0.240488  1
  I  I19  1  0.000000  0.000522  0.759512  1
  I  I20  1  0.000000  0.499478  0.259512  1
  I  I21  1  0.000000  0.500522  0.740488  1
