# generated using pymatgen
data_Sr20CdHg3Au8
_symmetry_space_group_name_H-M   'P 1'
_cell_length_a   8.57169400
_cell_length_b   8.57169400
_cell_length_c   15.68196400
_cell_angle_alpha   90.00000000
_cell_angle_beta   90.00000000
_cell_angle_gamma   90.00000000
_symmetry_Int_Tables_number   1
_chemical_formula_structural   Sr20CdHg3Au8
_chemical_formula_sum   'Sr20 Cd1 Hg3 Au8'
_cell_volume   1152.21565112
_cell_formula_units_Z   1
loop_
 _symmetry_equiv_pos_site_id
 _symmetry_equiv_pos_as_xyz
  1  'x, y, z'
loop_
 _atom_site_type_symbol
 _atom_site_label
 _atom_site_symmetry_multiplicity
 _atom_site_fract_x
 _atom_site_fract_y
 _atom_site_fract_z
 _atom_site_occupancy
  Sr  Sr0  1  0.000000  0.000000  0.753207  1
  Sr  Sr1  1  0.500000  0.500000  0.250544  1
  Sr  Sr2  1  0.000000  0.000000  0.246793  1
  Sr  Sr3  1  0.500000  0.500000  0.749456  1
  Sr  Sr4  1  0.164734  0.664591  0.110264  1
  Sr  Sr5  1  0.666308  0.164486  0.610942  1
  Sr  Sr6  1  0.835266  0.335409  0.110264  1
  Sr  Sr7  1  0.333692  0.835514  0.610942  1
  Sr  Sr8  1  0.335409  0.164734  0.110264  1
  Sr  Sr9  1  0.835514  0.666308  0.610942  1
  Sr  Sr10  1  0.664591  0.835266  0.110264  1
  Sr  Sr11  1  0.164486  0.333692  0.610942  1
  Sr  Sr12  1  0.335409  0.835266  0.889736  1
  Sr  Sr13  1  0.835514  0.333692  0.389058  1
  Sr  Sr14  1  0.664591  0.164734  0.889736  1
  Sr  Sr15  1  0.164486  0.666308  0.389058  1
  Sr  Sr16  1  0.164734  0.335409  0.889736  1
  Sr  Sr17  1  0.666308  0.835514  0.389058  1
  Sr  Sr18  1  0.835266  0.664591  0.889736  1
  Sr  Sr19  1  0.333692  0.164486  0.389058  1
  Cd  Cd20  1  0.500000  0.500000  0.000000  1
  Hg  Hg21  1  0.000000  0.000000  0.500000  1
  Hg  Hg22  1  0.000000  0.000000  0.000000  1
  Hg  Hg23  1  0.500000  0.500000  0.500000  1
  Au  Au24  1  0.628187  0.127841  0.249240  1
  Au  Au25  1  0.127841  0.628187  0.750760  1
  Au  Au26  1  0.872159  0.371813  0.750760  1
  Au  Au27  1  0.371813  0.872159  0.249240  1
  Au  Au28  1  0.371813  0.127841  0.750760  1
  Au  Au29  1  0.872159  0.628187  0.249240  1
  Au  Au30  1  0.127841  0.371813  0.249240  1
  Au  Au31  1  0.628187  0.872159  0.750760  1
