# generated using pymatgen
data_Tm8TcB24Mo2Ru
_symmetry_space_group_name_H-M   'P 1'
_cell_length_a   3.62516700
_cell_length_b   9.13846430
_cell_length_c   11.50717655
_cell_angle_alpha   89.94531391
_cell_angle_beta   90.00000000
_cell_angle_gamma   90.00000000
_symmetry_Int_Tables_number   1
_chemical_formula_structural   Tm8TcB24Mo2Ru
_chemical_formula_sum   'Tm8 Tc1 B24 Mo2 Ru1'
_cell_volume   381.21485538
_cell_formula_units_Z   1
loop_
 _symmetry_equiv_pos_site_id
 _symmetry_equiv_pos_as_xyz
  1  'x, y, z'
loop_
 _atom_site_type_symbol
 _atom_site_label
 _atom_site_symmetry_multiplicity
 _atom_site_fract_x
 _atom_site_fract_y
 _atom_site_fract_z
 _atom_site_occupancy
  Tm  Tm0  1  0.000000  0.324312  0.413136  1
  Tm  Tm1  1  0.000000  0.677676  0.583647  1
  Tm  Tm2  1  0.000000  0.819901  0.087117  1
  Tm  Tm3  1  0.000000  0.177202  0.914068  1
  Tm  Tm4  1  0.000000  0.940944  0.371878  1
  Tm  Tm5  1  0.000000  0.054724  0.629647  1
  Tm  Tm6  1  0.000000  0.445810  0.129381  1
  Tm  Tm7  1  0.000000  0.559235  0.871054  1
  Tc  Tc8  1  0.000000  0.639075  0.320324  1
  B  B9  1  0.500000  0.553142  0.432419  1
  B  B10  1  0.500000  0.448701  0.564582  1
  B  B11  1  0.500000  0.051079  0.064228  1
  B  B12  1  0.500000  0.945913  0.932379  1
  B  B13  1  0.500000  0.748447  0.419320  1
  B  B14  1  0.500000  0.248266  0.578737  1
  B  B15  1  0.500000  0.252169  0.078608  1
  B  B16  1  0.500000  0.751792  0.919182  1
  B  B17  1  0.500000  0.791820  0.265960  1
  B  B18  1  0.500000  0.204770  0.736415  1
  B  B19  1  0.500000  0.294925  0.235741  1
  B  B20  1  0.500000  0.708882  0.765314  1
  B  B21  1  0.500000  0.631396  0.185507  1
  B  B22  1  0.500000  0.369830  0.817471  1
  B  B23  1  0.500000  0.130459  0.316761  1
  B  B24  1  0.500000  0.868645  0.685355  1
  B  B25  1  0.500000  0.977519  0.212559  1
  B  B26  1  0.500000  0.016981  0.788174  1
  B  B27  1  0.500000  0.482405  0.287933  1
  B  B28  1  0.500000  0.522596  0.712242  1
  B  B29  1  0.500000  0.603256  0.028278  1
  B  B30  1  0.500000  0.400633  0.971729  1
  B  B31  1  0.500000  0.100250  0.472419  1
  B  B32  1  0.500000  0.897257  0.529103  1
  Mo  Mo33  1  0.000000  0.361253  0.680164  1
  Mo  Mo34  1  0.000000  0.137770  0.178772  1
  Ru  Ru35  1  0.000000  0.860967  0.820398  1
