# generated using pymatgen
data_KSr4Sb2As
_symmetry_space_group_name_H-M   'P 1'
_cell_length_a   8.47580500
_cell_length_b   10.04706300
_cell_length_c   13.68298100
_cell_angle_alpha   90.00000000
_cell_angle_beta   90.00000000
_cell_angle_gamma   90.00000000
_symmetry_Int_Tables_number   1
_chemical_formula_structural   KSr4Sb2As
_chemical_formula_sum   'K4 Sr16 Sb8 As4'
_cell_volume   1165.20088523
_cell_formula_units_Z   4
loop_
 _symmetry_equiv_pos_site_id
 _symmetry_equiv_pos_as_xyz
  1  'x, y, z'
loop_
 _atom_site_type_symbol
 _atom_site_label
 _atom_site_symmetry_multiplicity
 _atom_site_fract_x
 _atom_site_fract_y
 _atom_site_fract_z
 _atom_site_occupancy
  K  K0  1  0.014192  0.750000  0.500336  1
  K  K1  1  0.985808  0.250000  0.499664  1
  K  K2  1  0.514192  0.250000  0.999664  1
  K  K3  1  0.485808  0.750000  0.000336  1
  Sr  Sr4  1  0.841775  0.750000  0.798610  1
  Sr  Sr5  1  0.158225  0.250000  0.201390  1
  Sr  Sr6  1  0.341775  0.250000  0.701390  1
  Sr  Sr7  1  0.658225  0.750000  0.298610  1
  Sr  Sr8  1  0.688924  0.505317  0.576575  1
  Sr  Sr9  1  0.311076  0.494683  0.423425  1
  Sr  Sr10  1  0.188924  0.494683  0.923425  1
  Sr  Sr11  1  0.311076  0.005317  0.423425  1
  Sr  Sr12  1  0.811076  0.505317  0.076575  1
  Sr  Sr13  1  0.688924  0.994683  0.576575  1
  Sr  Sr14  1  0.811076  0.994683  0.076575  1
  Sr  Sr15  1  0.188924  0.005317  0.923425  1
  Sr  Sr16  1  0.339474  0.750000  0.704800  1
  Sr  Sr17  1  0.660526  0.250000  0.295200  1
  Sr  Sr18  1  0.839474  0.250000  0.795200  1
  Sr  Sr19  1  0.160526  0.750000  0.204800  1
  Sb  Sb20  1  0.559444  0.500690  0.820192  1
  Sb  Sb21  1  0.440556  0.499310  0.179808  1
  Sb  Sb22  1  0.059444  0.499310  0.679808  1
  Sb  Sb23  1  0.440556  0.000690  0.179808  1
  Sb  Sb24  1  0.940556  0.500690  0.320192  1
  Sb  Sb25  1  0.559444  0.999310  0.820192  1
  Sb  Sb26  1  0.940556  0.999310  0.320192  1
  Sb  Sb27  1  0.059444  0.000690  0.679808  1
  As  As28  1  0.010559  0.750000  0.998253  1
  As  As29  1  0.989441  0.250000  0.001747  1
  As  As30  1  0.510559  0.250000  0.501747  1
  As  As31  1  0.489441  0.750000  0.498253  1
