# generated using pymatgen
data_Ho2ReTcB8
_symmetry_space_group_name_H-M   'P 1'
_cell_length_a   3.59861800
_cell_length_b   5.95895513
_cell_length_c   11.53527025
_cell_angle_alpha   90.02382396
_cell_angle_beta   90.00000000
_cell_angle_gamma   90.00000000
_symmetry_Int_Tables_number   1
_chemical_formula_structural   Ho2ReTcB8
_chemical_formula_sum   'Ho4 Re2 Tc2 B16'
_cell_volume   247.36235061
_cell_formula_units_Z   2
loop_
 _symmetry_equiv_pos_site_id
 _symmetry_equiv_pos_as_xyz
  1  'x, y, z'
loop_
 _atom_site_type_symbol
 _atom_site_label
 _atom_site_symmetry_multiplicity
 _atom_site_fract_x
 _atom_site_fract_y
 _atom_site_fract_z
 _atom_site_occupancy
  Ho  Ho0  1  0.000000  0.627118  0.150704  1
  Ho  Ho1  1  0.000000  0.372882  0.849296  1
  Ho  Ho2  1  0.000000  0.127008  0.350943  1
  Ho  Ho3  1  0.000000  0.872992  0.649057  1
  Re  Re4  1  0.000000  0.133561  0.087588  1
  Re  Re5  1  0.000000  0.866439  0.912412  1
  Tc  Tc6  1  0.000000  0.634060  0.411947  1
  Tc  Tc7  1  0.000000  0.365940  0.588053  1
  B  B8  1  0.500000  0.977201  0.192647  1
  B  B9  1  0.500000  0.022799  0.807353  1
  B  B10  1  0.500000  0.477139  0.307499  1
  B  B11  1  0.500000  0.522861  0.692501  1
  B  B12  1  0.500000  0.787862  0.315086  1
  B  B13  1  0.500000  0.212138  0.684914  1
  B  B14  1  0.500000  0.288125  0.185208  1
  B  B15  1  0.500000  0.711875  0.814792  1
  B  B16  1  0.500000  0.864068  0.468600  1
  B  B17  1  0.500000  0.135932  0.531400  1
  B  B18  1  0.500000  0.363989  0.031312  1
  B  B19  1  0.500000  0.636011  0.968688  1
  B  B20  1  0.500000  0.885949  0.047500  1
  B  B21  1  0.500000  0.114051  0.952500  1
  B  B22  1  0.500000  0.386345  0.452697  1
  B  B23  1  0.500000  0.613655  0.547303  1
