# generated using pymatgen
data_CaDyCuS3
_symmetry_space_group_name_H-M   'P 1'
_cell_length_a   10.25791700
_cell_length_b   3.85796100
_cell_length_c   12.62095900
_cell_angle_alpha   90.00000000
_cell_angle_beta   90.00000000
_cell_angle_gamma   90.00000000
_symmetry_Int_Tables_number   1
_chemical_formula_structural   CaDyCuS3
_chemical_formula_sum   'Ca4 Dy4 Cu4 S12'
_cell_volume   499.46995592
_cell_formula_units_Z   4
loop_
 _symmetry_equiv_pos_site_id
 _symmetry_equiv_pos_as_xyz
  1  'x, y, z'
loop_
 _atom_site_type_symbol
 _atom_site_label
 _atom_site_symmetry_multiplicity
 _atom_site_fract_x
 _atom_site_fract_y
 _atom_site_fract_z
 _atom_site_occupancy
  Ca  Ca0  1  0.774873  0.250000  0.998591  1
  Ca  Ca1  1  0.274874  0.250000  0.501410  1
  Ca  Ca2  1  0.725127  0.750001  0.498590  1
  Ca  Ca3  1  0.225126  0.750001  0.001409  1
  Dy  Dy4  1  0.485466  0.750001  0.241966  1
  Dy  Dy5  1  0.985466  0.750001  0.258035  1
  Dy  Dy6  1  0.014534  0.250000  0.741966  1
  Dy  Dy7  1  0.514534  0.250000  0.758034  1
  Cu  Cu8  1  0.236647  0.250000  0.224732  1
  Cu  Cu9  1  0.736647  0.250000  0.275268  1
  Cu  Cu10  1  0.263353  0.750001  0.724732  1
  Cu  Cu11  1  0.763353  0.750001  0.775269  1
  S  S12  1  0.406794  0.250000  0.104606  1
  S  S13  1  0.056160  0.250000  0.112718  1
  S  S14  1  0.739867  0.750001  0.165457  1
  S  S15  1  0.239867  0.750001  0.334543  1
  S  S16  1  0.556159  0.250000  0.387282  1
  S  S17  1  0.906794  0.250000  0.395394  1
  S  S18  1  0.093205  0.750001  0.604606  1
  S  S19  1  0.443840  0.750001  0.612718  1
  S  S20  1  0.760133  0.250000  0.665457  1
  S  S21  1  0.260133  0.250000  0.834543  1
  S  S22  1  0.943840  0.750001  0.887282  1
  S  S23  1  0.593205  0.750001  0.895394  1
