# generated using pymatgen
data_Sc8Re3B24Pt
_symmetry_space_group_name_H-M   'P 1'
_cell_length_a   3.52779500
_cell_length_b   8.91050930
_cell_length_c   11.22743026
_cell_angle_alpha   90.08573158
_cell_angle_beta   90.00000000
_cell_angle_gamma   90.00000000
_symmetry_Int_Tables_number   1
_chemical_formula_structural   Sc8Re3B24Pt
_chemical_formula_sum   'Sc8 Re3 B24 Pt1'
_cell_volume   352.92770201
_cell_formula_units_Z   1
loop_
 _symmetry_equiv_pos_site_id
 _symmetry_equiv_pos_as_xyz
  1  'x, y, z'
loop_
 _atom_site_type_symbol
 _atom_site_label
 _atom_site_symmetry_multiplicity
 _atom_site_fract_x
 _atom_site_fract_y
 _atom_site_fract_z
 _atom_site_occupancy
  Sc  Sc0  1  0.000000  0.309851  0.415732  1
  Sc  Sc1  1  0.000000  0.683177  0.595588  1
  Sc  Sc2  1  0.000000  0.827796  0.077786  1
  Sc  Sc3  1  0.000000  0.180288  0.910789  1
  Sc  Sc4  1  0.000000  0.946578  0.372620  1
  Sc  Sc5  1  0.000000  0.055612  0.628031  1
  Sc  Sc6  1  0.000000  0.440362  0.125400  1
  Sc  Sc7  1  0.000000  0.555898  0.871713  1
  Re  Re8  1  0.000000  0.361156  0.678537  1
  Re  Re9  1  0.000000  0.139165  0.180773  1
  Re  Re10  1  0.000000  0.861576  0.820310  1
  B  B11  1  0.500000  0.553717  0.437899  1
  B  B12  1  0.500000  0.446335  0.564829  1
  B  B13  1  0.500000  0.052884  0.065044  1
  B  B14  1  0.500000  0.947297  0.934435  1
  B  B15  1  0.500000  0.752702  0.424825  1
  B  B16  1  0.500000  0.246504  0.579039  1
  B  B17  1  0.500000  0.252356  0.078518  1
  B  B18  1  0.500000  0.747662  0.920820  1
  B  B19  1  0.500000  0.794097  0.262558  1
  B  B20  1  0.500000  0.205867  0.735626  1
  B  B21  1  0.500000  0.295031  0.237137  1
  B  B22  1  0.500000  0.705425  0.764438  1
  B  B23  1  0.500000  0.631177  0.178442  1
  B  B24  1  0.500000  0.370829  0.817146  1
  B  B25  1  0.500000  0.129410  0.318154  1
  B  B26  1  0.500000  0.870413  0.682804  1
  B  B27  1  0.500000  0.978934  0.212511  1
  B  B28  1  0.500000  0.021326  0.787117  1
  B  B29  1  0.500000  0.479221  0.286787  1
  B  B30  1  0.500000  0.521214  0.712733  1
  B  B31  1  0.500000  0.600489  0.027195  1
  B  B32  1  0.500000  0.401151  0.972747  1
  B  B33  1  0.500000  0.098254  0.472700  1
  B  B34  1  0.500000  0.898722  0.527640  1
  Pt  Pt35  1  0.000000  0.637522  0.321580  1
