# generated using pymatgen
data_TmV6InO18
_symmetry_space_group_name_H-M   'P 1'
_cell_length_a   8.32482983
_cell_length_b   8.31939379
_cell_length_c   10.69458600
_cell_angle_alpha   57.75645162
_cell_angle_beta   122.21579403
_cell_angle_gamma   127.67398207
_symmetry_Int_Tables_number   1
_chemical_formula_structural   TmV6InO18
_chemical_formula_sum   'Tm1 V6 In1 O18'
_cell_volume   471.53343630
_cell_formula_units_Z   1
loop_
 _symmetry_equiv_pos_site_id
 _symmetry_equiv_pos_as_xyz
  1  'x, y, z'
loop_
 _atom_site_type_symbol
 _atom_site_label
 _atom_site_symmetry_multiplicity
 _atom_site_fract_x
 _atom_site_fract_y
 _atom_site_fract_z
 _atom_site_occupancy
  Tm  Tm0  1  0.869451  0.611912  0.854558  1
  V  V1  1  0.649559  0.121324  0.179603  1
  V  V2  1  0.873300  0.345676  0.675530  1
  V  V3  1  0.085373  0.103089  0.523650  1
  V  V4  1  0.901446  0.920158  0.027529  1
  V  V5  1  0.327447  0.587401  0.590180  1
  V  V6  1  0.416194  0.667607  0.095153  1
  In  In7  1  0.388608  0.130701  0.354085  1
  O  O8  1  0.852624  0.075136  0.357123  1
  O  O9  1  0.923610  0.147253  0.856248  1
  O  O10  1  0.242673  0.052674  0.509227  1
  O  O11  1  0.950061  0.762059  0.013160  1
  O  O12  1  0.010802  0.929283  0.685796  1
  O  O13  1  0.075984  0.997280  0.188556  1
  O  O14  1  0.218120  0.374523  0.520576  1
  O  O15  1  0.629042  0.782569  0.024219  1
  O  O16  1  0.536650  0.220800  0.195281  1
  O  O17  1  0.776815  0.459434  0.692358  1
  O  O18  1  0.457934  0.866015  0.147405  1
  O  O19  1  0.129209  0.540954  0.644207  1
  O  O20  1  0.389799  0.826826  0.450790  1
  O  O21  1  0.179060  0.606861  0.954662  1
  O  O22  1  0.414740  0.447367  0.250128  1
  O  O23  1  0.546663  0.588307  0.745411  1
  O  O24  1  0.699648  0.238937  0.528252  1
  O  O25  1  0.755787  0.295260  0.032110  1
