# generated using pymatgen
data_Sc12Fe3Si12Ru
_symmetry_space_group_name_H-M   'P 1'
_cell_length_a   3.98591700
_cell_length_b   10.14198275
_cell_length_c   11.69798939
_cell_angle_alpha   89.83278190
_cell_angle_beta   90.00000000
_cell_angle_gamma   90.00000000
_symmetry_Int_Tables_number   1
_chemical_formula_structural   Sc12Fe3Si12Ru
_chemical_formula_sum   'Sc12 Fe3 Si12 Ru1'
_cell_volume   472.89039402
_cell_formula_units_Z   1
loop_
 _symmetry_equiv_pos_site_id
 _symmetry_equiv_pos_as_xyz
  1  'x, y, z'
loop_
 _atom_site_type_symbol
 _atom_site_label
 _atom_site_symmetry_multiplicity
 _atom_site_fract_x
 _atom_site_fract_y
 _atom_site_fract_z
 _atom_site_occupancy
  Sc  Sc0  1  0.250000  0.880679  0.023935  1
  Sc  Sc1  1  0.250000  0.618086  0.522872  1
  Sc  Sc2  1  0.750000  0.123380  0.979123  1
  Sc  Sc3  1  0.750000  0.380052  0.474690  1
  Sc  Sc4  1  0.250000  0.920958  0.604370  1
  Sc  Sc5  1  0.250000  0.578361  0.102970  1
  Sc  Sc6  1  0.750000  0.077938  0.398291  1
  Sc  Sc7  1  0.750000  0.421871  0.899097  1
  Sc  Sc8  1  0.250000  0.654833  0.798716  1
  Sc  Sc9  1  0.250000  0.839809  0.298914  1
  Sc  Sc10  1  0.750000  0.340378  0.201157  1
  Sc  Sc11  1  0.750000  0.166284  0.699515  1
  Fe  Fe12  1  0.250000  0.388536  0.675632  1
  Fe  Fe13  1  0.250000  0.110258  0.177070  1
  Fe  Fe14  1  0.750000  0.610135  0.323081  1
  Si  Si15  1  0.250000  0.016301  0.822726  1
  Si  Si16  1  0.250000  0.494094  0.321269  1
  Si  Si17  1  0.750000  0.994370  0.179280  1
  Si  Si18  1  0.750000  0.502577  0.678081  1
  Si  Si19  1  0.250000  0.257200  0.839073  1
  Si  Si20  1  0.250000  0.245768  0.338123  1
  Si  Si21  1  0.750000  0.745766  0.162188  1
  Si  Si22  1  0.750000  0.748007  0.656518  1
  Si  Si23  1  0.250000  0.199461  0.544864  1
  Si  Si24  1  0.250000  0.301626  0.046905  1
  Si  Si25  1  0.750000  0.799533  0.452596  1
  Si  Si26  1  0.750000  0.694686  0.956982  1
  Ru  Ru27  1  0.750000  0.889053  0.821962  1
