# generated using pymatgen
data_Tb(NbCl3)6
_symmetry_space_group_name_H-M   'P 1'
_cell_length_a   10.17216799
_cell_length_b   10.17216811
_cell_length_c   10.17216801
_cell_angle_alpha   55.93415241
_cell_angle_beta   55.93415319
_cell_angle_gamma   55.93415516
_symmetry_Int_Tables_number   1
_chemical_formula_structural   Tb(NbCl3)6
_chemical_formula_sum   'Tb1 Nb6 Cl18'
_cell_volume   674.13598865
_cell_formula_units_Z   1
loop_
 _symmetry_equiv_pos_site_id
 _symmetry_equiv_pos_as_xyz
  1  'x, y, z'
loop_
 _atom_site_type_symbol
 _atom_site_label
 _atom_site_symmetry_multiplicity
 _atom_site_fract_x
 _atom_site_fract_y
 _atom_site_fract_z
 _atom_site_occupancy
  Tb  Tb0  1  0.000000  0.000000  0.000000  1
  Nb  Nb1  1  0.407980  0.299090  0.650693  1
  Nb  Nb2  1  0.349307  0.592020  0.700910  1
  Nb  Nb3  1  0.700910  0.349307  0.592020  1
  Nb  Nb4  1  0.299090  0.650693  0.407980  1
  Nb  Nb5  1  0.650693  0.407980  0.299090  1
  Nb  Nb6  1  0.592020  0.700910  0.349307  1
  Cl  Cl7  1  0.568860  0.161084  0.441681  1
  Cl  Cl8  1  0.223942  0.369936  0.909167  1
  Cl  Cl9  1  0.909167  0.223942  0.369936  1
  Cl  Cl10  1  0.369936  0.909167  0.223942  1
  Cl  Cl11  1  0.776058  0.630064  0.090833  1
  Cl  Cl12  1  0.090833  0.776058  0.630064  1
  Cl  Cl13  1  0.702119  0.957942  0.160514  1
  Cl  Cl14  1  0.957942  0.160514  0.702119  1
  Cl  Cl15  1  0.160514  0.702119  0.957942  1
  Cl  Cl16  1  0.297881  0.042058  0.839486  1
  Cl  Cl17  1  0.042058  0.839486  0.297881  1
  Cl  Cl18  1  0.839486  0.297881  0.042058  1
  Cl  Cl19  1  0.558319  0.431140  0.838916  1
  Cl  Cl20  1  0.161084  0.441681  0.568860  1
  Cl  Cl21  1  0.441681  0.568860  0.161084  1
  Cl  Cl22  1  0.431140  0.838916  0.558319  1
  Cl  Cl23  1  0.838916  0.558319  0.431140  1
  Cl  Cl24  1  0.630064  0.090833  0.776058  1
