# generated using pymatgen
data_SmEu9Si5Sn
_symmetry_space_group_name_H-M   'P 1'
_cell_length_a   9.44806432
_cell_length_b   9.46592090
_cell_length_c   9.46156600
_cell_angle_alpha   130.77091133
_cell_angle_beta   130.76717186
_cell_angle_gamma   72.28973798
_symmetry_Int_Tables_number   1
_chemical_formula_structural   SmEu9Si5Sn
_chemical_formula_sum   'Sm1 Eu9 Si5 Sn1'
_cell_volume   474.20841470
_cell_formula_units_Z   1
loop_
 _symmetry_equiv_pos_site_id
 _symmetry_equiv_pos_as_xyz
  1  'x, y, z'
loop_
 _atom_site_type_symbol
 _atom_site_label
 _atom_site_symmetry_multiplicity
 _atom_site_fract_x
 _atom_site_fract_y
 _atom_site_fract_z
 _atom_site_occupancy
  Sm  Sm0  1  0.827797  0.307100  0.863137  1
  Eu  Eu1  1  0.194700  0.675201  0.150568  1
  Eu  Eu2  1  0.457879  0.977156  0.148157  1
  Eu  Eu3  1  0.310610  0.455029  0.481919  1
  Eu  Eu4  1  0.040904  0.190744  0.517018  1
  Eu  Eu5  1  0.524255  0.043918  0.851256  1
  Eu  Eu6  1  0.671922  0.522554  0.477703  1
  Eu  Eu7  1  0.973583  0.827760  0.517457  1
  Eu  Eu8  1  0.991967  0.982590  0.001925  1
  Eu  Eu9  1  0.507077  0.516127  0.000548  1
  Si  Si10  1  0.107847  0.607930  0.713742  1
  Si  Si11  1  0.887174  0.386654  0.269469  1
  Si  Si12  1  0.618286  0.897386  0.508936  1
  Si  Si13  1  0.397323  0.117335  0.507791  1
  Si  Si14  1  0.236638  0.251823  0.994764  1
  Sn  Sn15  1  0.752039  0.740690  0.995610  1
