# generated using pymatgen
data_Ti2Tc2SnC3
_symmetry_space_group_name_H-M   'P 1'
_cell_length_a   3.08950100
_cell_length_b   3.08950045
_cell_length_c   23.63541900
_cell_angle_alpha   90.00000000
_cell_angle_beta   90.00000000
_cell_angle_gamma   119.99999522
_symmetry_Int_Tables_number   1
_chemical_formula_structural   Ti2Tc2SnC3
_chemical_formula_sum   'Ti4 Tc4 Sn2 C6'
_cell_volume   195.37570614
_cell_formula_units_Z   2
loop_
 _symmetry_equiv_pos_site_id
 _symmetry_equiv_pos_as_xyz
  1  'x, y, z'
loop_
 _atom_site_type_symbol
 _atom_site_label
 _atom_site_symmetry_multiplicity
 _atom_site_fract_x
 _atom_site_fract_y
 _atom_site_fract_z
 _atom_site_occupancy
  Ti  Ti0  1  0.333333  0.666667  0.447298  1
  Ti  Ti1  1  0.666667  0.333333  0.552702  1
  Ti  Ti2  1  0.666667  0.333333  0.947298  1
  Ti  Ti3  1  0.333333  0.666667  0.052702  1
  Tc  Tc4  1  0.000000  0.000000  0.347697  1
  Tc  Tc5  1  0.000000  0.000000  0.652303  1
  Tc  Tc6  1  0.000000  0.000000  0.847697  1
  Tc  Tc7  1  0.000000  0.000000  0.152303  1
  Sn  Sn8  1  0.333333  0.666667  0.250000  1
  Sn  Sn9  1  0.666667  0.333333  0.750000  1
  C  C10  1  0.000000  0.000000  0.500000  1
  C  C11  1  0.000000  0.000000  0.000000  1
  C  C12  1  0.666667  0.333333  0.392074  1
  C  C13  1  0.333333  0.666667  0.607926  1
  C  C14  1  0.333333  0.666667  0.892074  1
  C  C15  1  0.666667  0.333333  0.107926  1
