# generated using pymatgen
data_Sc20AlCd5Ni2
_symmetry_space_group_name_H-M   'P 1'
_cell_length_a   8.99434595
_cell_length_b   8.99434668
_cell_length_c   8.99211200
_cell_angle_alpha   90.00000000
_cell_angle_beta   90.00000000
_cell_angle_gamma   120.09284132
_symmetry_Int_Tables_number   1
_chemical_formula_structural   Sc20AlCd5Ni2
_chemical_formula_sum   'Sc20 Al1 Cd5 Ni2'
_cell_volume   629.39674675
_cell_formula_units_Z   1
loop_
 _symmetry_equiv_pos_site_id
 _symmetry_equiv_pos_as_xyz
  1  'x, y, z'
loop_
 _atom_site_type_symbol
 _atom_site_label
 _atom_site_symmetry_multiplicity
 _atom_site_fract_x
 _atom_site_fract_y
 _atom_site_fract_z
 _atom_site_occupancy
  Sc  Sc0  1  0.999952  0.000048  0.499203  1
  Sc  Sc1  1  0.999952  0.000048  0.000797  1
  Sc  Sc2  1  0.541885  0.458115  0.250000  1
  Sc  Sc3  1  0.542867  0.085363  0.250000  1
  Sc  Sc4  1  0.914637  0.457133  0.250000  1
  Sc  Sc5  1  0.457409  0.542591  0.750000  1
  Sc  Sc6  1  0.457908  0.915031  0.750000  1
  Sc  Sc7  1  0.084969  0.542092  0.750000  1
  Sc  Sc8  1  0.210656  0.789344  0.438077  1
  Sc  Sc9  1  0.209148  0.419697  0.436640  1
  Sc  Sc10  1  0.580303  0.790852  0.436640  1
  Sc  Sc11  1  0.790000  0.210000  0.558281  1
  Sc  Sc12  1  0.789099  0.578424  0.562357  1
  Sc  Sc13  1  0.421576  0.210901  0.562357  1
  Sc  Sc14  1  0.790000  0.210000  0.941719  1
  Sc  Sc15  1  0.789099  0.578424  0.937643  1
  Sc  Sc16  1  0.421576  0.210901  0.937643  1
  Sc  Sc17  1  0.210656  0.789344  0.061923  1
  Sc  Sc18  1  0.209148  0.419697  0.063360  1
  Sc  Sc19  1  0.580303  0.790852  0.063360  1
  Al  Al20  1  0.882641  0.117359  0.250000  1
  Cd  Cd21  1  0.882886  0.767267  0.250000  1
  Cd  Cd22  1  0.232733  0.117114  0.250000  1
  Cd  Cd23  1  0.116659  0.883341  0.750000  1
  Cd  Cd24  1  0.116687  0.233339  0.750000  1
  Cd  Cd25  1  0.766661  0.883313  0.750000  1
  Ni  Ni26  1  0.333352  0.666648  0.250000  1
  Ni  Ni27  1  0.667236  0.332764  0.750000  1
