# generated using pymatgen
data_PrNdNp(SnRh)3
_symmetry_space_group_name_H-M   'P 1'
_cell_length_a   7.71135384
_cell_length_b   7.58991975
_cell_length_c   3.97679800
_cell_angle_alpha   90.00000000
_cell_angle_beta   90.00000000
_cell_angle_gamma   120.64690167
_symmetry_Int_Tables_number   1
_chemical_formula_structural   PrNdNp(SnRh)3
_chemical_formula_sum   'Pr1 Nd1 Np1 Sn3 Rh3'
_cell_volume   200.24602867
_cell_formula_units_Z   1
loop_
 _symmetry_equiv_pos_site_id
 _symmetry_equiv_pos_as_xyz
  1  'x, y, z'
loop_
 _atom_site_type_symbol
 _atom_site_label
 _atom_site_symmetry_multiplicity
 _atom_site_fract_x
 _atom_site_fract_y
 _atom_site_fract_z
 _atom_site_occupancy
  Pr  Pr0  1  0.001143  0.590501  0.000000  1
  Nd  Nd1  1  0.410569  0.409128  0.000000  1
  Np  Np2  1  0.585778  0.000138  0.000000  1
  Sn  Sn3  1  0.241094  0.001083  0.500000  1
  Sn  Sn4  1  0.008143  0.261324  0.500000  1
  Sn  Sn5  1  0.744982  0.737907  0.500000  1
  Rh  Rh6  1  0.371810  0.713707  0.500000  1
  Rh  Rh7  1  0.657175  0.285830  0.500000  1
  Rh  Rh8  1  0.979306  0.000381  0.000000  1
