# generated using pymatgen
data_Gd4Er(SiB4)2
_symmetry_space_group_name_H-M   'P 1'
_cell_length_a   7.26797400
_cell_length_b   7.26797400
_cell_length_c   8.17128400
_cell_angle_alpha   90.00000000
_cell_angle_beta   90.00000000
_cell_angle_gamma   90.00000000
_symmetry_Int_Tables_number   1
_chemical_formula_structural   Gd4Er(SiB4)2
_chemical_formula_sum   'Gd8 Er2 Si4 B16'
_cell_volume   431.63537965
_cell_formula_units_Z   2
loop_
 _symmetry_equiv_pos_site_id
 _symmetry_equiv_pos_as_xyz
  1  'x, y, z'
loop_
 _atom_site_type_symbol
 _atom_site_label
 _atom_site_symmetry_multiplicity
 _atom_site_fract_x
 _atom_site_fract_y
 _atom_site_fract_z
 _atom_site_occupancy
  Gd  Gd0  1  0.680594  0.180594  0.225990  1
  Gd  Gd1  1  0.319406  0.819406  0.774010  1
  Gd  Gd2  1  0.319406  0.819406  0.225990  1
  Gd  Gd3  1  0.819406  0.680594  0.225990  1
  Gd  Gd4  1  0.819406  0.680594  0.774010  1
  Gd  Gd5  1  0.680594  0.180594  0.774010  1
  Gd  Gd6  1  0.180594  0.319406  0.774010  1
  Gd  Gd7  1  0.180594  0.319406  0.225990  1
  Er  Er8  1  0.000000  0.000000  0.500000  1
  Er  Er9  1  0.500000  0.500000  0.500000  1
  Si  Si10  1  0.115184  0.615184  0.500000  1
  Si  Si11  1  0.884816  0.384816  0.500000  1
  Si  Si12  1  0.384816  0.115184  0.500000  1
  Si  Si13  1  0.615184  0.884816  0.500000  1
  B  B14  1  0.172128  0.039353  0.000000  1
  B  B15  1  0.827872  0.960647  0.000000  1
  B  B16  1  0.960647  0.172128  0.000000  1
  B  B17  1  0.327872  0.539353  0.000000  1
  B  B18  1  0.039353  0.827872  0.000000  1
  B  B19  1  0.672128  0.460647  0.000000  1
  B  B20  1  0.539353  0.672128  0.000000  1
  B  B21  1  0.460647  0.327872  0.000000  1
  B  B22  1  0.090110  0.590110  0.000000  1
  B  B23  1  0.909890  0.409890  0.000000  1
  B  B24  1  0.409890  0.090110  0.000000  1
  B  B25  1  0.590110  0.909890  0.000000  1
  B  B26  1  0.000000  0.000000  0.160192  1
  B  B27  1  0.000000  0.000000  0.839808  1
  B  B28  1  0.500000  0.500000  0.839808  1
  B  B29  1  0.500000  0.500000  0.160192  1
