# generated using pymatgen
data_YbPdAu5
_symmetry_space_group_name_H-M   'P 1'
_cell_length_a   5.68819490
_cell_length_b   5.68827637
_cell_length_c   5.68819548
_cell_angle_alpha   103.35395366
_cell_angle_beta   103.35224094
_cell_angle_gamma   122.55341928
_symmetry_Int_Tables_number   1
_chemical_formula_structural   YbPdAu5
_chemical_formula_sum   'Yb1 Pd1 Au5'
_cell_volume   136.04390694
_cell_formula_units_Z   1
loop_
 _symmetry_equiv_pos_site_id
 _symmetry_equiv_pos_as_xyz
  1  'x, y, z'
loop_
 _atom_site_type_symbol
 _atom_site_label
 _atom_site_symmetry_multiplicity
 _atom_site_fract_x
 _atom_site_fract_y
 _atom_site_fract_z
 _atom_site_occupancy
  Yb  Yb0  1  0.999998  0.999998  0.000000  1
  Pd  Pd1  1  0.250058  0.750046  0.499989  1
  Au  Au2  1  0.699279  0.300718  0.000006  1
  Au  Au3  1  0.300706  0.699270  0.000002  1
  Au  Au4  1  0.300712  0.300718  0.601439  1
  Au  Au5  1  0.699269  0.699270  0.398564  1
  Au  Au6  1  0.749979  0.249979  0.500000  1
