# generated using pymatgen
data_Np2Hg3(TeCl4)2
_symmetry_space_group_name_H-M   'P 1'
_cell_length_a   10.01077701
_cell_length_b   10.01108038
_cell_length_c   13.52305352
_cell_angle_alpha   75.61048595
_cell_angle_beta   75.60033056
_cell_angle_gamma   45.47934406
_symmetry_Int_Tables_number   1
_chemical_formula_structural   Np2Hg3(TeCl4)2
_chemical_formula_sum   'Np4 Hg6 Te4 Cl16'
_cell_volume   930.53288534
_cell_formula_units_Z   2
loop_
 _symmetry_equiv_pos_site_id
 _symmetry_equiv_pos_as_xyz
  1  'x, y, z'
loop_
 _atom_site_type_symbol
 _atom_site_label
 _atom_site_symmetry_multiplicity
 _atom_site_fract_x
 _atom_site_fract_y
 _atom_site_fract_z
 _atom_site_occupancy
  Np  Np0  1  0.212278  0.732816  0.930254  1
  Np  Np1  1  0.266853  0.787446  0.569864  1
  Np  Np2  1  0.787722  0.267184  0.069746  1
  Np  Np3  1  0.733147  0.212554  0.430136  1
  Hg  Hg4  1  0.500000  0.000000  0.000000  1
  Hg  Hg5  1  0.000000  0.500000  0.500000  1
  Hg  Hg6  1  0.250071  0.240449  0.754848  1
  Hg  Hg7  1  0.759774  0.750111  0.745018  1
  Hg  Hg8  1  0.749929  0.759551  0.245152  1
  Hg  Hg9  1  0.240226  0.249889  0.254982  1
  Te  Te10  1  0.584615  0.085781  0.802931  1
  Te  Te11  1  0.914012  0.415708  0.696970  1
  Te  Te12  1  0.415385  0.914219  0.197069  1
  Te  Te13  1  0.085988  0.584292  0.303030  1
  Cl  Cl14  1  0.451070  0.365569  0.031580  1
  Cl  Cl15  1  0.634455  0.548990  0.467956  1
  Cl  Cl16  1  0.548930  0.634431  0.968420  1
  Cl  Cl17  1  0.365545  0.451010  0.532044  1
  Cl  Cl18  1  0.173348  0.644334  0.761751  1
  Cl  Cl19  1  0.356500  0.825658  0.738318  1
  Cl  Cl20  1  0.826652  0.355666  0.238249  1
  Cl  Cl21  1  0.643500  0.174342  0.261682  1
  Cl  Cl22  1  0.951067  0.713762  0.021959  1
  Cl  Cl23  1  0.285915  0.048862  0.478051  1
  Cl  Cl24  1  0.048933  0.286238  0.978041  1
  Cl  Cl25  1  0.714085  0.951138  0.521949  1
  Cl  Cl26  1  0.108722  0.888113  0.112676  1
  Cl  Cl27  1  0.112257  0.890294  0.387599  1
  Cl  Cl28  1  0.891278  0.111887  0.887324  1
  Cl  Cl29  1  0.887743  0.109706  0.612401  1
