# generated using pymatgen
data_Tm4Sc8Ni4AgSn
_symmetry_space_group_name_H-M   'P 1'
_cell_length_a   7.96976812
_cell_length_b   7.96034847
_cell_length_c   7.94478826
_cell_angle_alpha   106.59949818
_cell_angle_beta   109.76608760
_cell_angle_gamma   112.06203376
_symmetry_Int_Tables_number   1
_chemical_formula_structural   Tm4Sc8Ni4AgSn
_chemical_formula_sum   'Tm4 Sc8 Ni4 Ag1 Sn1'
_cell_volume   387.27451263
_cell_formula_units_Z   1
loop_
 _symmetry_equiv_pos_site_id
 _symmetry_equiv_pos_as_xyz
  1  'x, y, z'
loop_
 _atom_site_type_symbol
 _atom_site_label
 _atom_site_symmetry_multiplicity
 _atom_site_fract_x
 _atom_site_fract_y
 _atom_site_fract_z
 _atom_site_occupancy
  Tm  Tm0  1  0.606691  0.793645  0.813970  1
  Tm  Tm1  1  0.979557  0.792782  0.186103  1
  Tm  Tm2  1  0.020540  0.207463  0.813914  1
  Tm  Tm3  1  0.393570  0.206603  0.186193  1
  Sc  Sc4  1  0.703816  0.276385  0.980298  1
  Sc  Sc5  1  0.296190  0.723648  0.019639  1
  Sc  Sc6  1  0.704031  0.723890  0.428009  1
  Sc  Sc7  1  0.296211  0.275916  0.571931  1
  Sc  Sc8  1  0.802198  0.125251  0.323116  1
  Sc  Sc9  1  0.802562  0.479702  0.677022  1
  Sc  Sc10  1  0.197534  0.874306  0.676876  1
  Sc  Sc11  1  0.197920  0.520998  0.323352  1
  Ni  Ni12  1  0.860309  0.499944  0.361027  1
  Ni  Ni13  1  0.139292  0.499143  0.638888  1
  Ni  Ni14  1  0.000825  0.136082  0.136829  1
  Ni  Ni15  1  0.998700  0.864104  0.862985  1
  Ag  Ag16  1  0.500106  0.500213  0.999934  1
  Sn  Sn17  1  0.499946  0.999927  0.499913  1
