# generated using pymatgen
data_Dy6Co17Si12Os
_symmetry_space_group_name_H-M   'P 1'
_cell_length_a   3.80247900
_cell_length_b   10.66948800
_cell_length_c   12.40532200
_cell_angle_alpha   90.00000000
_cell_angle_beta   90.00000000
_cell_angle_gamma   90.00000000
_symmetry_Int_Tables_number   1
_chemical_formula_structural   Dy6Co17Si12Os
_chemical_formula_sum   'Dy6 Co17 Si12 Os1'
_cell_volume   503.29016658
_cell_formula_units_Z   1
loop_
 _symmetry_equiv_pos_site_id
 _symmetry_equiv_pos_as_xyz
  1  'x, y, z'
loop_
 _atom_site_type_symbol
 _atom_site_label
 _atom_site_symmetry_multiplicity
 _atom_site_fract_x
 _atom_site_fract_y
 _atom_site_fract_z
 _atom_site_occupancy
  Dy  Dy0  1  0.000000  0.500000  0.526143  1
  Dy  Dy1  1  0.500000  0.000000  0.474077  1
  Dy  Dy2  1  0.500000  0.816934  0.206110  1
  Dy  Dy3  1  0.500000  0.183066  0.206110  1
  Dy  Dy4  1  0.000000  0.683525  0.796197  1
  Dy  Dy5  1  0.000000  0.316475  0.796197  1
  Co  Co6  1  0.000000  0.000000  0.847398  1
  Co  Co7  1  0.500000  0.500000  0.696042  1
  Co  Co8  1  0.000000  0.000000  0.303411  1
  Co  Co9  1  0.000000  0.500000  0.981085  1
  Co  Co10  1  0.500000  0.000000  0.018934  1
  Co  Co11  1  0.500000  0.328965  0.991784  1
  Co  Co12  1  0.500000  0.671035  0.991784  1
  Co  Co13  1  0.000000  0.167599  0.005367  1
  Co  Co14  1  0.000000  0.832401  0.005367  1
  Co  Co15  1  0.500000  0.301147  0.430739  1
  Co  Co16  1  0.500000  0.698853  0.430739  1
  Co  Co17  1  0.000000  0.198105  0.571273  1
  Co  Co18  1  0.000000  0.801895  0.571273  1
  Co  Co19  1  0.500000  0.883186  0.708215  1
  Co  Co20  1  0.500000  0.116814  0.708215  1
  Co  Co21  1  0.000000  0.618428  0.291605  1
  Co  Co22  1  0.000000  0.381572  0.291605  1
  Si  Si23  1  0.500000  0.500000  0.881867  1
  Si  Si24  1  0.000000  0.000000  0.117165  1
  Si  Si25  1  0.500000  0.500000  0.341470  1
  Si  Si26  1  0.000000  0.000000  0.661937  1
  Si  Si27  1  0.500000  0.303439  0.614804  1
  Si  Si28  1  0.500000  0.696561  0.614804  1
  Si  Si29  1  0.000000  0.196477  0.386932  1
  Si  Si30  1  0.000000  0.803523  0.386932  1
  Si  Si31  1  0.500000  0.854832  0.893127  1
  Si  Si32  1  0.500000  0.145168  0.893127  1
  Si  Si33  1  0.000000  0.650182  0.104446  1
  Si  Si34  1  0.000000  0.349818  0.104446  1
  Os  Os35  1  0.500000  0.500000  0.149276  1
