# generated using pymatgen
data_Eu5TlNi2
_symmetry_space_group_name_H-M   'P 1'
_cell_length_a   9.39344406
_cell_length_b   9.39344444
_cell_length_c   9.39344376
_cell_angle_alpha   129.15595612
_cell_angle_beta   129.15595406
_cell_angle_gamma   74.75975765
_symmetry_Int_Tables_number   1
_chemical_formula_structural   Eu5TlNi2
_chemical_formula_sum   'Eu10 Tl2 Ni4'
_cell_volume   485.49452428
_cell_formula_units_Z   2
loop_
 _symmetry_equiv_pos_site_id
 _symmetry_equiv_pos_as_xyz
  1  'x, y, z'
loop_
 _atom_site_type_symbol
 _atom_site_label
 _atom_site_symmetry_multiplicity
 _atom_site_fract_x
 _atom_site_fract_y
 _atom_site_fract_z
 _atom_site_occupancy
  Eu  Eu0  1  0.500000  0.500000  0.000000  1
  Eu  Eu1  1  0.000000  0.000000  0.000000  1
  Eu  Eu2  1  0.536205  0.036205  0.839902  1
  Eu  Eu3  1  0.196302  0.696302  0.160098  1
  Eu  Eu4  1  0.036205  0.196302  0.500000  1
  Eu  Eu5  1  0.696302  0.536205  0.500000  1
  Eu  Eu6  1  0.463795  0.963795  0.160098  1
  Eu  Eu7  1  0.803698  0.303698  0.839902  1
  Eu  Eu8  1  0.963795  0.803698  0.500000  1
  Eu  Eu9  1  0.303698  0.463795  0.500000  1
  Tl  Tl10  1  0.250000  0.250000  0.000000  1
  Tl  Tl11  1  0.750000  0.750000  0.000000  1
  Ni  Ni12  1  0.108953  0.608953  0.717903  1
  Ni  Ni13  1  0.891047  0.391047  0.282097  1
  Ni  Ni14  1  0.608953  0.891047  0.500000  1
  Ni  Ni15  1  0.391047  0.108953  0.500000  1
