# generated using pymatgen
data_Tm2LuZr7(In2Pt)4
_symmetry_space_group_name_H-M   'P 1'
_cell_length_a   3.54281800
_cell_length_b   7.72612877
_cell_length_c   17.62750602
_cell_angle_alpha   90.14219419
_cell_angle_beta   90.00000000
_cell_angle_gamma   90.00000000
_symmetry_Int_Tables_number   1
_chemical_formula_structural   Tm2LuZr7(In2Pt)4
_chemical_formula_sum   'Tm2 Lu1 Zr7 In8 Pt4'
_cell_volume   482.50333446
_cell_formula_units_Z   1
loop_
 _symmetry_equiv_pos_site_id
 _symmetry_equiv_pos_as_xyz
  1  'x, y, z'
loop_
 _atom_site_type_symbol
 _atom_site_label
 _atom_site_symmetry_multiplicity
 _atom_site_fract_x
 _atom_site_fract_y
 _atom_site_fract_z
 _atom_site_occupancy
  Tm  Tm0  1  0.000000  0.749865  0.780763  1
  Tm  Tm1  1  0.000000  0.250017  0.720068  1
  Lu  Lu2  1  0.000000  0.749049  0.279657  1
  Zr  Zr3  1  0.000000  0.130403  0.419968  1
  Zr  Zr4  1  0.000000  0.869893  0.578236  1
  Zr  Zr5  1  0.000000  0.371125  0.923010  1
  Zr  Zr6  1  0.000000  0.631138  0.079560  1
  Zr  Zr7  1  0.000000  0.246648  0.218954  1
  Zr  Zr8  1  0.000000  0.001953  0.001629  1
  Zr  Zr9  1  0.000000  0.500591  0.498708  1
  In  In10  1  0.500000  0.425794  0.350749  1
  In  In11  1  0.500000  0.570860  0.646608  1
  In  In12  1  0.500000  0.072164  0.853963  1
  In  In13  1  0.500000  0.930706  0.147457  1
  In  In14  1  0.500000  0.295969  0.065619  1
  In  In15  1  0.500000  0.705175  0.937466  1
  In  In16  1  0.500000  0.203312  0.562634  1
  In  In17  1  0.500000  0.798374  0.435337  1
  Pt  Pt18  1  0.500000  0.043671  0.305550  1
  Pt  Pt19  1  0.500000  0.959682  0.691348  1
  Pt  Pt20  1  0.500000  0.459976  0.809606  1
  Pt  Pt21  1  0.500000  0.533636  0.193109  1
