# generated using pymatgen
data_Sm3Tm3CoBr10
_symmetry_space_group_name_H-M   'P 1'
_cell_length_a   7.35124064
_cell_length_b   9.20235876
_cell_length_c   9.30440108
_cell_angle_alpha   107.97623463
_cell_angle_beta   96.16893403
_cell_angle_gamma   104.16326712
_symmetry_Int_Tables_number   1
_chemical_formula_structural   Sm3Tm3CoBr10
_chemical_formula_sum   'Sm3 Tm3 Co1 Br10'
_cell_volume   568.96656387
_cell_formula_units_Z   1
loop_
 _symmetry_equiv_pos_site_id
 _symmetry_equiv_pos_as_xyz
  1  'x, y, z'
loop_
 _atom_site_type_symbol
 _atom_site_label
 _atom_site_symmetry_multiplicity
 _atom_site_fract_x
 _atom_site_fract_y
 _atom_site_fract_z
 _atom_site_occupancy
  Sm  Sm0  1  0.034805  0.716092  0.409090  1
  Sm  Sm1  1  0.965160  0.283065  0.586272  1
  Sm  Sm2  1  0.874351  0.952376  0.748073  1
  Tm  Tm3  1  0.122966  0.046364  0.261804  1
  Tm  Tm4  1  0.347150  0.125352  0.671375  1
  Tm  Tm5  1  0.652696  0.875360  0.329863  1
  Co  Co6  1  0.000019  0.999341  0.500514  1
  Br  Br7  1  0.453350  0.823644  0.581567  1
  Br  Br8  1  0.540533  0.174038  0.414025  1
  Br  Br9  1  0.912784  0.627154  0.670459  1
  Br  Br10  1  0.090612  0.362476  0.320812  1
  Br  Br11  1  0.251272  0.083954  0.954774  1
  Br  Br12  1  0.759048  0.920532  0.055930  1
  Br  Br13  1  0.347384  0.439753  0.768562  1
  Br  Br14  1  0.650426  0.560493  0.230056  1
  Br  Br15  1  0.759740  0.248910  0.839296  1
  Br  Br16  1  0.237701  0.761097  0.157527  1
