# generated using pymatgen
data_TbEr7Tl2InCo
_symmetry_space_group_name_H-M   'P 1'
_cell_length_a   10.26058302
_cell_length_b   10.27114762
_cell_length_c   7.02180644
_cell_angle_alpha   90.02539112
_cell_angle_beta   89.98010480
_cell_angle_gamma   119.95440202
_symmetry_Int_Tables_number   1
_chemical_formula_structural   TbEr7Tl2InCo
_chemical_formula_sum   'Tb2 Er14 Tl4 In2 Co2'
_cell_volume   641.16500829
_cell_formula_units_Z   2
loop_
 _symmetry_equiv_pos_site_id
 _symmetry_equiv_pos_as_xyz
  1  'x, y, z'
loop_
 _atom_site_type_symbol
 _atom_site_label
 _atom_site_symmetry_multiplicity
 _atom_site_fract_x
 _atom_site_fract_y
 _atom_site_fract_z
 _atom_site_occupancy
  Tb  Tb0  1  0.534663  0.069424  0.789821  1
  Tb  Tb1  1  0.929630  0.465617  0.790710  1
  Er  Er2  1  0.536257  0.465239  0.791526  1
  Er  Er3  1  0.463689  0.927284  0.293102  1
  Er  Er4  1  0.072885  0.536492  0.292798  1
  Er  Er5  1  0.463919  0.536177  0.293321  1
  Er  Er6  1  0.821082  0.643172  0.496637  1
  Er  Er7  1  0.356602  0.178876  0.496630  1
  Er  Er8  1  0.821886  0.178347  0.496000  1
  Er  Er9  1  0.178900  0.356686  0.997575  1
  Er  Er10  1  0.643518  0.821349  0.999223  1
  Er  Er11  1  0.178064  0.822212  0.999607  1
  Er  Er12  1  0.666365  0.333622  0.183813  1
  Er  Er13  1  0.333856  0.666762  0.682967  1
  Er  Er14  1  0.999494  0.999030  0.777229  1
  Er  Er15  1  0.999373  0.998962  0.280848  1
  Tl  Tl16  1  0.836800  0.673959  0.040626  1
  Tl  Tl17  1  0.326169  0.163350  0.040745  1
  Tl  Tl18  1  0.837349  0.162668  0.041372  1
  Tl  Tl19  1  0.163087  0.326312  0.540934  1
  In  In20  1  0.674235  0.837177  0.539481  1
  In  In21  1  0.162997  0.836975  0.539169  1
  Co  Co22  1  0.665985  0.334016  0.565476  1
  Co  Co23  1  0.333200  0.666287  0.066300  1
