# generated using pymatgen
data_TbTm7(TlPt)2
_symmetry_space_group_name_H-M   'P 1'
_cell_length_a   9.61444228
_cell_length_b   9.61444154
_cell_length_c   9.60209000
_cell_angle_alpha   60.04248797
_cell_angle_beta   60.04249052
_cell_angle_gamma   59.91501777
_symmetry_Int_Tables_number   1
_chemical_formula_structural   TbTm7(TlPt)2
_chemical_formula_sum   'Tb2 Tm14 Tl4 Pt4'
_cell_volume   627.62103349
_cell_formula_units_Z   2
loop_
 _symmetry_equiv_pos_site_id
 _symmetry_equiv_pos_as_xyz
  1  'x, y, z'
loop_
 _atom_site_type_symbol
 _atom_site_label
 _atom_site_symmetry_multiplicity
 _atom_site_fract_x
 _atom_site_fract_y
 _atom_site_fract_z
 _atom_site_occupancy
  Tb  Tb0  1  0.564180  0.564180  0.935820  1
  Tb  Tb1  1  0.935820  0.935820  0.564180  1
  Tm  Tm2  1  0.351108  0.351108  0.350288  1
  Tm  Tm3  1  0.351108  0.351108  0.947497  1
  Tm  Tm4  1  0.350288  0.947497  0.351108  1
  Tm  Tm5  1  0.947497  0.350288  0.351108  1
  Tm  Tm6  1  0.811346  0.188654  0.188654  1
  Tm  Tm7  1  0.188654  0.811346  0.811346  1
  Tm  Tm8  1  0.188654  0.811346  0.188654  1
  Tm  Tm9  1  0.811346  0.188654  0.811346  1
  Tm  Tm10  1  0.188648  0.188648  0.811352  1
  Tm  Tm11  1  0.811352  0.811352  0.188648  1
  Tm  Tm12  1  0.939675  0.560325  0.560325  1
  Tm  Tm13  1  0.560325  0.939675  0.939675  1
  Tm  Tm14  1  0.560325  0.939675  0.560325  1
  Tm  Tm15  1  0.939675  0.560325  0.939675  1
  Tl  Tl16  1  0.586365  0.586365  0.585038  1
  Tl  Tl17  1  0.586365  0.586365  0.242232  1
  Tl  Tl18  1  0.585038  0.242232  0.586365  1
  Tl  Tl19  1  0.242232  0.585038  0.586365  1
  Pt  Pt20  1  0.143543  0.143543  0.141463  1
  Pt  Pt21  1  0.143543  0.143543  0.571452  1
  Pt  Pt22  1  0.141463  0.571452  0.143543  1
  Pt  Pt23  1  0.571452  0.141463  0.143543  1
