# generated using pymatgen
data_YSi2IrRu
_symmetry_space_group_name_H-M   'P 1'
_cell_length_a   5.69564753
_cell_length_b   5.69564797
_cell_length_c   5.69564759
_cell_angle_alpha   137.37262924
_cell_angle_beta   137.37263164
_cell_angle_gamma   61.86521850
_symmetry_Int_Tables_number   1
_chemical_formula_structural   YSi2IrRu
_chemical_formula_sum   'Y1 Si2 Ir1 Ru1'
_cell_volume   83.75438658
_cell_formula_units_Z   1
loop_
 _symmetry_equiv_pos_site_id
 _symmetry_equiv_pos_as_xyz
  1  'x, y, z'
loop_
 _atom_site_type_symbol
 _atom_site_label
 _atom_site_symmetry_multiplicity
 _atom_site_fract_x
 _atom_site_fract_y
 _atom_site_fract_z
 _atom_site_occupancy
  Y  Y0  1  0.000000  0.000000  0.000000  1
  Si  Si1  1  0.626828  0.626828  0.000000  1
  Si  Si2  1  0.373172  0.373172  0.000000  1
  Ir  Ir3  1  0.750000  0.250000  0.500000  1
  Ru  Ru4  1  0.250000  0.750000  0.500000  1
