# generated using pymatgen
data_La2Nd2Cd2RuAu3
_symmetry_space_group_name_H-M   'P 1'
_cell_length_a   8.02102954
_cell_length_b   8.02102909
_cell_length_c   3.97534100
_cell_angle_alpha   90.00000000
_cell_angle_beta   90.00000000
_cell_angle_gamma   90.80734746
_symmetry_Int_Tables_number   1
_chemical_formula_structural   La2Nd2Cd2RuAu3
_chemical_formula_sum   'La2 Nd2 Cd2 Ru1 Au3'
_cell_volume   255.73577068
_cell_formula_units_Z   1
loop_
 _symmetry_equiv_pos_site_id
 _symmetry_equiv_pos_as_xyz
  1  'x, y, z'
loop_
 _atom_site_type_symbol
 _atom_site_label
 _atom_site_symmetry_multiplicity
 _atom_site_fract_x
 _atom_site_fract_y
 _atom_site_fract_z
 _atom_site_occupancy
  La  La0  1  0.669398  0.169398  0.500000  1
  La  La1  1  0.305001  0.805001  0.500000  1
  Nd  Nd2  1  0.174555  0.347868  0.500000  1
  Nd  Nd3  1  0.847868  0.674555  0.500000  1
  Cd  Cd4  1  0.000827  0.997228  0.000000  1
  Cd  Cd5  1  0.497228  0.500827  0.000000  1
  Ru  Ru6  1  0.138512  0.638512  0.000000  1
  Au  Au7  1  0.876415  0.376415  0.000000  1
  Au  Au8  1  0.625250  0.864945  0.000000  1
  Au  Au9  1  0.364945  0.125250  0.000000  1
