# generated using pymatgen
data_Nd16Al4IrRu3
_symmetry_space_group_name_H-M   'P 1'
_cell_length_a   9.84725456
_cell_length_b   9.85509168
_cell_length_c   9.85509200
_cell_angle_alpha   59.99999893
_cell_angle_beta   59.97366832
_cell_angle_gamma   59.97366860
_symmetry_Int_Tables_number   1
_chemical_formula_structural   Nd16Al4IrRu3
_chemical_formula_sum   'Nd16 Al4 Ir1 Ru3'
_cell_volume   676.00288763
_cell_formula_units_Z   1
loop_
 _symmetry_equiv_pos_site_id
 _symmetry_equiv_pos_as_xyz
  1  'x, y, z'
loop_
 _atom_site_type_symbol
 _atom_site_label
 _atom_site_symmetry_multiplicity
 _atom_site_fract_x
 _atom_site_fract_y
 _atom_site_fract_z
 _atom_site_occupancy
  Nd  Nd0  1  0.347916  0.350171  0.350171  1
  Nd  Nd1  1  0.347916  0.350171  0.951742  1
  Nd  Nd2  1  0.347916  0.951742  0.350171  1
  Nd  Nd3  1  0.953561  0.348813  0.348813  1
  Nd  Nd4  1  0.808142  0.194004  0.194004  1
  Nd  Nd5  1  0.194633  0.806108  0.806108  1
  Nd  Nd6  1  0.194633  0.806108  0.193149  1
  Nd  Nd7  1  0.808142  0.194004  0.803850  1
  Nd  Nd8  1  0.194633  0.193149  0.806108  1
  Nd  Nd9  1  0.808142  0.803850  0.194004  1
  Nd  Nd10  1  0.937937  0.561903  0.561903  1
  Nd  Nd11  1  0.560484  0.938907  0.938907  1
  Nd  Nd12  1  0.560484  0.938907  0.561702  1
  Nd  Nd13  1  0.937937  0.561903  0.938257  1
  Nd  Nd14  1  0.560484  0.561702  0.938907  1
  Nd  Nd15  1  0.937937  0.938257  0.561903  1
  Al  Al16  1  0.574984  0.574073  0.574073  1
  Al  Al17  1  0.574984  0.574073  0.276868  1
  Al  Al18  1  0.574984  0.276868  0.574073  1
  Al  Al19  1  0.277392  0.574203  0.574203  1
  Ir  Ir20  1  0.578486  0.140504  0.140504  1
  Ru  Ru21  1  0.139423  0.138523  0.138523  1
  Ru  Ru22  1  0.139423  0.138523  0.583529  1
  Ru  Ru23  1  0.139423  0.583529  0.138523  1
