# generated using pymatgen
data_Zr4Co2Hg5
_symmetry_space_group_name_H-M   'P 1'
_cell_length_a   3.29762600
_cell_length_b   7.57211912
_cell_length_c   9.01311740
_cell_angle_alpha   86.38201606
_cell_angle_beta   90.00000000
_cell_angle_gamma   90.00000000
_symmetry_Int_Tables_number   1
_chemical_formula_structural   Zr4Co2Hg5
_chemical_formula_sum   'Zr4 Co2 Hg5'
_cell_volume   224.60914715
_cell_formula_units_Z   1
loop_
 _symmetry_equiv_pos_site_id
 _symmetry_equiv_pos_as_xyz
  1  'x, y, z'
loop_
 _atom_site_type_symbol
 _atom_site_label
 _atom_site_symmetry_multiplicity
 _atom_site_fract_x
 _atom_site_fract_y
 _atom_site_fract_z
 _atom_site_occupancy
  Zr  Zr0  1  0.500000  0.796560  0.440484  1
  Zr  Zr1  1  0.500000  0.173253  0.164211  1
  Zr  Zr2  1  0.500000  0.203440  0.559516  1
  Zr  Zr3  1  0.500000  0.826747  0.835789  1
  Co  Co4  1  0.000000  0.078303  0.367897  1
  Co  Co5  1  0.000000  0.921697  0.632103  1
  Hg  Hg6  1  0.000000  0.542835  0.664310  1
  Hg  Hg7  1  0.000000  0.159219  0.860914  1
  Hg  Hg8  1  0.000000  0.500000  0.000000  1
  Hg  Hg9  1  0.000000  0.840781  0.139086  1
  Hg  Hg10  1  0.000000  0.457165  0.335690  1
