# generated using pymatgen
data_Er8AlPd7Pt17
_symmetry_space_group_name_H-M   'P 1'
_cell_length_a   8.31731423
_cell_length_b   8.32215302
_cell_length_c   8.33677900
_cell_angle_alpha   90.00384168
_cell_angle_beta   89.98647052
_cell_angle_gamma   89.99929866
_symmetry_Int_Tables_number   1
_chemical_formula_structural   Er8AlPd7Pt17
_chemical_formula_sum   'Er8 Al1 Pd7 Pt17'
_cell_volume   577.05483249
_cell_formula_units_Z   1
loop_
 _symmetry_equiv_pos_site_id
 _symmetry_equiv_pos_as_xyz
  1  'x, y, z'
loop_
 _atom_site_type_symbol
 _atom_site_label
 _atom_site_symmetry_multiplicity
 _atom_site_fract_x
 _atom_site_fract_y
 _atom_site_fract_z
 _atom_site_occupancy
  Er  Er0  1  0.250986  0.250852  0.251990  1
  Er  Er1  1  0.747572  0.746846  0.747393  1
  Er  Er2  1  0.747477  0.747687  0.252891  1
  Er  Er3  1  0.748698  0.252220  0.748414  1
  Er  Er4  1  0.251123  0.251025  0.748242  1
  Er  Er5  1  0.252494  0.748874  0.253018  1
  Er  Er6  1  0.252573  0.748645  0.747178  1
  Er  Er7  1  0.748668  0.251732  0.251930  1
  Al  Al8  1  0.000224  0.004958  0.000430  1
  Pd  Pd9  1  0.500814  0.999151  0.738615  1
  Pd  Pd10  1  0.740171  0.998753  0.500336  1
  Pd  Pd11  1  0.000749  0.501302  0.259472  1
  Pd  Pd12  1  0.002032  0.501117  0.740459  1
  Pd  Pd13  1  0.001428  0.714556  0.000150  1
  Pd  Pd14  1  0.998533  0.998393  0.290139  1
  Pd  Pd15  1  0.998186  0.998529  0.710056  1
  Pt  Pt16  1  0.259490  0.500728  0.000169  1
  Pt  Pt17  1  0.740667  0.500288  0.999911  1
  Pt  Pt18  1  0.000006  0.259723  0.500292  1
  Pt  Pt19  1  0.499497  0.258250  0.000272  1
  Pt  Pt20  1  0.000206  0.738938  0.500209  1
  Pt  Pt21  1  0.499820  0.739867  0.000139  1
  Pt  Pt22  1  0.500660  0.000214  0.261130  1
  Pt  Pt23  1  0.258570  0.000218  0.500034  1
  Pt  Pt24  1  0.251961  0.499715  0.499892  1
  Pt  Pt25  1  0.748079  0.499265  0.500003  1
  Pt  Pt26  1  0.500022  0.252499  0.499659  1
  Pt  Pt27  1  0.499726  0.747176  0.499581  1
  Pt  Pt28  1  0.499870  0.499211  0.253143  1
  Pt  Pt29  1  0.499630  0.499146  0.746347  1
  Pt  Pt30  1  0.288207  0.998532  0.999645  1
  Pt  Pt31  1  0.711901  0.997554  0.999480  1
  Pt  Pt32  1  0.999960  0.294036  0.999385  1
