# generated using pymatgen
data_Ca2Nb3Si(Ni3As2)3
_symmetry_space_group_name_H-M   'P 1'
_cell_length_a   3.83147200
_cell_length_b   9.64391529
_cell_length_c   9.64391600
_cell_angle_alpha   119.99999559
_cell_angle_beta   90.00000000
_cell_angle_gamma   90.00000000
_symmetry_Int_Tables_number   1
_chemical_formula_structural   Ca2Nb3Si(Ni3As2)3
_chemical_formula_sum   'Ca2 Nb3 Si1 Ni9 As6'
_cell_volume   308.60510988
_cell_formula_units_Z   1
loop_
 _symmetry_equiv_pos_site_id
 _symmetry_equiv_pos_as_xyz
  1  'x, y, z'
loop_
 _atom_site_type_symbol
 _atom_site_label
 _atom_site_symmetry_multiplicity
 _atom_site_fract_x
 _atom_site_fract_y
 _atom_site_fract_z
 _atom_site_occupancy
  Ca  Ca0  1  0.000000  0.666667  0.333333  1
  Ca  Ca1  1  0.500000  0.333333  0.666667  1
  Nb  Nb2  1  0.500000  0.780768  0.896136  1
  Nb  Nb3  1  0.500000  0.115368  0.219232  1
  Nb  Nb4  1  0.500000  0.103864  0.884632  1
  Si  Si5  1  0.000000  0.000000  0.000000  1
  Ni  Ni6  1  0.000000  0.574208  0.937109  1
  Ni  Ni7  1  0.000000  0.362900  0.425792  1
  Ni  Ni8  1  0.000000  0.062891  0.637100  1
  Ni  Ni9  1  0.000000  0.875369  0.151368  1
  Ni  Ni10  1  0.000000  0.276000  0.124631  1
  Ni  Ni11  1  0.000000  0.848632  0.724000  1
  Ni  Ni12  1  0.500000  0.943416  0.379798  1
  Ni  Ni13  1  0.500000  0.436382  0.056584  1
  Ni  Ni14  1  0.500000  0.620202  0.563618  1
  As  As15  1  0.500000  0.706261  0.118648  1
  As  As16  1  0.500000  0.412389  0.293739  1
  As  As17  1  0.500000  0.881352  0.587611  1
  As  As18  1  0.000000  0.583454  0.692664  1
  As  As19  1  0.000000  0.109211  0.416546  1
  As  As20  1  0.000000  0.307336  0.890789  1
