# generated using pymatgen
data_Dy5Zr3Fe2(As6Pd7)2
_symmetry_space_group_name_H-M   'P 1'
_cell_length_a   13.53124103
_cell_length_b   13.56261452
_cell_length_c   4.04933600
_cell_angle_alpha   90.00000000
_cell_angle_beta   90.00000000
_cell_angle_gamma   120.07673206
_symmetry_Int_Tables_number   1
_chemical_formula_structural   Dy5Zr3Fe2(As6Pd7)2
_chemical_formula_sum   'Dy5 Zr3 Fe2 As12 Pd14'
_cell_volume   643.07137367
_cell_formula_units_Z   1
loop_
 _symmetry_equiv_pos_site_id
 _symmetry_equiv_pos_as_xyz
  1  'x, y, z'
loop_
 _atom_site_type_symbol
 _atom_site_label
 _atom_site_symmetry_multiplicity
 _atom_site_fract_x
 _atom_site_fract_y
 _atom_site_fract_z
 _atom_site_occupancy
  Dy  Dy0  1  0.188548  0.189837  0.500000  1
  Dy  Dy1  1  0.811452  0.001288  0.500000  1
  Dy  Dy2  1  0.000000  0.811372  0.500000  1
  Dy  Dy3  1  0.333781  0.666775  0.000000  1
  Dy  Dy4  1  0.666219  0.332993  0.000000  1
  Zr  Zr5  1  0.558720  0.559390  0.000000  1
  Zr  Zr6  1  0.441280  0.000670  0.000000  1
  Zr  Zr7  1  0.000000  0.444118  0.000000  1
  Fe  Fe8  1  0.716062  0.715088  0.500000  1
  Fe  Fe9  1  0.283938  0.999026  0.500000  1
  As  As10  1  0.819660  0.818461  0.000000  1
  As  As11  1  0.180340  0.998800  0.000000  1
  As  As12  1  0.000000  0.169468  0.000000  1
  As  As13  1  0.167445  0.485487  0.500000  1
  As  As14  1  0.523748  0.685381  0.500000  1
  As  As15  1  0.316768  0.839238  0.500000  1
  As  As16  1  0.683232  0.522471  0.500000  1
  As  As17  1  0.832555  0.318042  0.500000  1
  As  As18  1  0.476252  0.161633  0.500000  1
  As  As19  1  0.358209  0.359826  0.000000  1
  As  As20  1  0.641791  0.001617  0.000000  1
  As  As21  1  0.000000  0.641901  0.000000  1
  Pd  Pd22  1  0.000000  0.276295  0.500000  1
  Pd  Pd23  1  0.179792  0.370997  0.000000  1
  Pd  Pd24  1  0.631434  0.811541  0.000000  1
  Pd  Pd25  1  0.190699  0.819835  0.000000  1
  Pd  Pd26  1  0.809301  0.629137  0.000000  1
  Pd  Pd27  1  0.820208  0.191205  0.000000  1
  Pd  Pd28  1  0.368566  0.180107  0.000000  1
  Pd  Pd29  1  0.359421  0.487794  0.500000  1
  Pd  Pd30  1  0.512714  0.868831  0.500000  1
  Pd  Pd31  1  0.132476  0.647841  0.500000  1
  Pd  Pd32  1  0.867524  0.515366  0.500000  1
  Pd  Pd33  1  0.640579  0.128373  0.500000  1
  Pd  Pd34  1  0.487286  0.356117  0.500000  1
  Pd  Pd35  1  0.000000  0.993676  0.000000  1
