# generated using pymatgen
data_La4Tm2Sn7Hg3
_symmetry_space_group_name_H-M   'P 1'
_cell_length_a   6.60616247
_cell_length_b   6.60616163
_cell_length_c   10.43057600
_cell_angle_alpha   90.51461555
_cell_angle_beta   90.51462416
_cell_angle_gamma   102.26057468
_symmetry_Int_Tables_number   1
_chemical_formula_structural   La4Tm2Sn7Hg3
_chemical_formula_sum   'La4 Tm2 Sn7 Hg3'
_cell_volume   444.77679787
_cell_formula_units_Z   1
loop_
 _symmetry_equiv_pos_site_id
 _symmetry_equiv_pos_as_xyz
  1  'x, y, z'
loop_
 _atom_site_type_symbol
 _atom_site_label
 _atom_site_symmetry_multiplicity
 _atom_site_fract_x
 _atom_site_fract_y
 _atom_site_fract_z
 _atom_site_occupancy
  La  La0  1  0.205725  0.797546  0.500164  1
  La  La1  1  0.206726  0.791838  0.000867  1
  La  La2  1  0.797546  0.205725  0.500164  1
  La  La3  1  0.791838  0.206726  0.000867  1
  Tm  Tm4  1  0.627824  0.627824  0.250811  1
  Tm  Tm5  1  0.372117  0.372117  0.743717  1
  Sn  Sn6  1  0.010371  0.010371  0.246139  1
  Sn  Sn7  1  0.988533  0.988533  0.753297  1
  Sn  Sn8  1  0.686688  0.686688  0.543728  1
  Sn  Sn9  1  0.486101  0.068262  0.248841  1
  Sn  Sn10  1  0.933754  0.511567  0.753053  1
  Sn  Sn11  1  0.511567  0.933754  0.753053  1
  Sn  Sn12  1  0.068262  0.486101  0.248841  1
  Hg  Hg13  1  0.316302  0.316302  0.033937  1
  Hg  Hg14  1  0.683891  0.683891  0.963725  1
  Hg  Hg15  1  0.312757  0.312757  0.458797  1
