# generated using pymatgen
data_Y3Mg3TlAgIr
_symmetry_space_group_name_H-M   'P 1'
_cell_length_a   8.01758700
_cell_length_b   8.01758637
_cell_length_c   3.85034000
_cell_angle_alpha   90.00000000
_cell_angle_beta   90.00000000
_cell_angle_gamma   120.00000674
_symmetry_Int_Tables_number   1
_chemical_formula_structural   Y3Mg3TlAgIr
_chemical_formula_sum   'Y3 Mg3 Tl1 Ag1 Ir1'
_cell_volume   214.34680356
_cell_formula_units_Z   1
loop_
 _symmetry_equiv_pos_site_id
 _symmetry_equiv_pos_as_xyz
  1  'x, y, z'
loop_
 _atom_site_type_symbol
 _atom_site_label
 _atom_site_symmetry_multiplicity
 _atom_site_fract_x
 _atom_site_fract_y
 _atom_site_fract_z
 _atom_site_occupancy
  Y  Y0  1  0.433289  0.393192  0.500000  1
  Y  Y1  1  0.959903  0.566711  0.500000  1
  Y  Y2  1  0.606808  0.040097  0.500000  1
  Mg  Mg3  1  0.749053  0.746236  0.000000  1
  Mg  Mg4  1  0.253764  0.002818  0.000000  1
  Mg  Mg5  1  0.997182  0.250947  0.000000  1
  Tl  Tl6  1  0.333333  0.666667  0.000000  1
  Ag  Ag7  1  0.000000  0.000000  0.500000  1
  Ir  Ir8  1  0.666667  0.333333  0.000000  1
