# generated using pymatgen
data_LaBeNi4P3
_symmetry_space_group_name_H-M   'P 1'
_cell_length_a   6.06859348
_cell_length_b   6.06859265
_cell_length_c   11.35441000
_cell_angle_alpha   90.00000000
_cell_angle_beta   90.00000000
_cell_angle_gamma   144.71396395
_symmetry_Int_Tables_number   1
_chemical_formula_structural   LaBeNi4P3
_chemical_formula_sum   'La2 Be2 Ni8 P6'
_cell_volume   241.55271557
_cell_formula_units_Z   2
loop_
 _symmetry_equiv_pos_site_id
 _symmetry_equiv_pos_as_xyz
  1  'x, y, z'
loop_
 _atom_site_type_symbol
 _atom_site_label
 _atom_site_symmetry_multiplicity
 _atom_site_fract_x
 _atom_site_fract_y
 _atom_site_fract_z
 _atom_site_occupancy
  La  La0  1  0.326955  0.673045  0.250000  1
  La  La1  1  0.673045  0.326955  0.750000  1
  Be  Be2  1  0.500000  0.500000  0.500000  1
  Be  Be3  1  0.500000  0.500000  0.000000  1
  Ni  Ni4  1  0.043890  0.956110  0.141944  1
  Ni  Ni5  1  0.043890  0.956110  0.358056  1
  Ni  Ni6  1  0.684592  0.315408  0.436988  1
  Ni  Ni7  1  0.315408  0.684592  0.563012  1
  Ni  Ni8  1  0.315408  0.684592  0.936988  1
  Ni  Ni9  1  0.684592  0.315408  0.063012  1
  Ni  Ni10  1  0.956110  0.043890  0.641944  1
  Ni  Ni11  1  0.956110  0.043890  0.858056  1
  P  P12  1  0.607500  0.392500  0.250000  1
  P  P13  1  0.392500  0.607500  0.750000  1
  P  P14  1  0.123678  0.876322  0.540401  1
  P  P15  1  0.876322  0.123678  0.459599  1
  P  P16  1  0.876322  0.123678  0.040401  1
  P  P17  1  0.123678  0.876322  0.959599  1
