# generated using pymatgen
data_TbY2Er2Sb3
_symmetry_space_group_name_H-M   'P 1'
_cell_length_a   8.98881909
_cell_length_b   8.99100188
_cell_length_c   6.27501800
_cell_angle_alpha   90.00000000
_cell_angle_beta   90.00000000
_cell_angle_gamma   120.00803820
_symmetry_Int_Tables_number   1
_chemical_formula_structural   TbY2Er2Sb3
_chemical_formula_sum   'Tb2 Y4 Er4 Sb6'
_cell_volume   439.15835856
_cell_formula_units_Z   2
loop_
 _symmetry_equiv_pos_site_id
 _symmetry_equiv_pos_as_xyz
  1  'x, y, z'
loop_
 _atom_site_type_symbol
 _atom_site_label
 _atom_site_symmetry_multiplicity
 _atom_site_fract_x
 _atom_site_fract_y
 _atom_site_fract_z
 _atom_site_occupancy
  Tb  Tb0  1  0.247476  0.247472  0.750000  1
  Tb  Tb1  1  0.247476  0.000004  0.250000  1
  Y  Y2  1  0.000033  0.752546  0.750000  1
  Y  Y3  1  0.000033  0.247487  0.250000  1
  Y  Y4  1  0.752555  0.752526  0.250000  1
  Y  Y5  1  0.752555  0.000029  0.750000  1
  Er  Er6  1  0.333358  0.666679  0.500000  1
  Er  Er7  1  0.666632  0.333316  0.000000  1
  Er  Er8  1  0.666632  0.333316  0.500000  1
  Er  Er9  1  0.333358  0.666679  0.000000  1
  Sb  Sb10  1  0.389233  0.999918  0.750000  1
  Sb  Sb11  1  0.389233  0.389315  0.250000  1
  Sb  Sb12  1  0.999905  0.610673  0.250000  1
  Sb  Sb13  1  0.999905  0.389232  0.750000  1
  Sb  Sb14  1  0.610807  0.610821  0.750000  1
  Sb  Sb15  1  0.610807  0.999986  0.250000  1
