# generated using pymatgen
data_Er9Tm3(TcIr)2
_symmetry_space_group_name_H-M   'P 1'
_cell_length_a   6.26618127
_cell_length_b   7.30521520
_cell_length_c   9.04726060
_cell_angle_alpha   89.99939772
_cell_angle_beta   90.20585395
_cell_angle_gamma   90.02658959
_symmetry_Int_Tables_number   1
_chemical_formula_structural   Er9Tm3(TcIr)2
_chemical_formula_sum   'Er9 Tm3 Tc2 Ir2'
_cell_volume   414.14289861
_cell_formula_units_Z   1
loop_
 _symmetry_equiv_pos_site_id
 _symmetry_equiv_pos_as_xyz
  1  'x, y, z'
loop_
 _atom_site_type_symbol
 _atom_site_label
 _atom_site_symmetry_multiplicity
 _atom_site_fract_x
 _atom_site_fract_y
 _atom_site_fract_z
 _atom_site_occupancy
  Er  Er0  1  0.329035  0.677625  0.065857  1
  Er  Er1  1  0.170358  0.177325  0.434475  1
  Er  Er2  1  0.668698  0.322659  0.559846  1
  Er  Er3  1  0.831222  0.822536  0.939848  1
  Er  Er4  1  0.666407  0.323584  0.939289  1
  Er  Er5  1  0.874268  0.539170  0.250468  1
  Er  Er6  1  0.625603  0.038918  0.250087  1
  Er  Er7  1  0.134729  0.459618  0.750459  1
  Er  Er8  1  0.365354  0.959295  0.749228  1
  Tm  Tm9  1  0.833837  0.823748  0.560819  1
  Tm  Tm10  1  0.332120  0.676274  0.434908  1
  Tm  Tm11  1  0.167900  0.176193  0.065339  1
  Tc  Tc12  1  0.035651  0.886396  0.251302  1
  Tc  Tc13  1  0.464388  0.386371  0.248920  1
  Ir  Ir14  1  0.956558  0.114900  0.751844  1
  Ir  Ir15  1  0.543870  0.615388  0.747310  1
