# generated using pymatgen
data_LaY5Zn4IrPd12
_symmetry_space_group_name_H-M   'P 1'
_cell_length_a   8.28167514
_cell_length_b   8.28163625
_cell_length_c   8.28163661
_cell_angle_alpha   109.65461475
_cell_angle_beta   109.37954344
_cell_angle_gamma   109.37954600
_symmetry_Int_Tables_number   1
_chemical_formula_structural   LaY5Zn4IrPd12
_chemical_formula_sum   'La1 Y5 Zn4 Ir1 Pd12'
_cell_volume   437.24604517
_cell_formula_units_Z   1
loop_
 _symmetry_equiv_pos_site_id
 _symmetry_equiv_pos_as_xyz
  1  'x, y, z'
loop_
 _atom_site_type_symbol
 _atom_site_label
 _atom_site_symmetry_multiplicity
 _atom_site_fract_x
 _atom_site_fract_y
 _atom_site_fract_z
 _atom_site_occupancy
  La  La0  1  0.000000  0.709671  0.709671  1
  Y  Y1  1  0.703267  0.704388  0.001120  1
  Y  Y2  1  0.296733  0.001121  0.297853  1
  Y  Y3  1  0.000000  0.295056  0.295056  1
  Y  Y4  1  0.296733  0.297853  0.001121  1
  Y  Y5  1  0.703267  0.001120  0.704388  1
  Zn  Zn6  1  0.000000  0.000823  0.496151  1
  Zn  Zn7  1  0.000000  0.496151  0.000823  1
  Zn  Zn8  1  0.504672  0.000822  0.000822  1
  Zn  Zn9  1  0.495328  0.496150  0.496150  1
  Ir  Ir10  1  0.999999  0.004169  0.004169  1
  Pd  Pd11  1  0.333492  0.333360  0.666852  1
  Pd  Pd12  1  0.666510  0.999869  0.333360  1
  Pd  Pd13  1  0.000000  0.668293  0.330309  1
  Pd  Pd14  1  0.666510  0.333360  0.999869  1
  Pd  Pd15  1  0.333492  0.666852  0.333360  1
  Pd  Pd16  1  0.000000  0.330309  0.668293  1
  Pd  Pd17  1  0.335120  0.665508  0.000628  1
  Pd  Pd18  1  0.335120  0.000628  0.665508  1
  Pd  Pd19  1  0.662018  0.330310  0.330310  1
  Pd  Pd20  1  0.664879  0.665508  0.330387  1
  Pd  Pd21  1  0.664879  0.330387  0.665508  1
  Pd  Pd22  1  0.337981  0.668292  0.668292  1
