# generated using pymatgen
data_TbHo2Fe9
_symmetry_space_group_name_H-M   'P 1'
_cell_length_a   8.62782893
_cell_length_b   8.62782942
_cell_length_c   8.62783085
_cell_angle_alpha   34.36751225
_cell_angle_beta   34.36750817
_cell_angle_gamma   34.36750958
_symmetry_Int_Tables_number   1
_chemical_formula_structural   TbHo2Fe9
_chemical_formula_sum   'Tb1 Ho2 Fe9'
_cell_volume   182.54041198
_cell_formula_units_Z   1
loop_
 _symmetry_equiv_pos_site_id
 _symmetry_equiv_pos_as_xyz
  1  'x, y, z'
loop_
 _atom_site_type_symbol
 _atom_site_label
 _atom_site_symmetry_multiplicity
 _atom_site_fract_x
 _atom_site_fract_y
 _atom_site_fract_z
 _atom_site_occupancy
  Tb  Tb0  1  0.000000  0.000000  0.000000  1
  Ho  Ho1  1  0.141996  0.141996  0.141996  1
  Ho  Ho2  1  0.858004  0.858004  0.858004  1
  Fe  Fe3  1  0.500000  0.500000  0.500000  1
  Fe  Fe4  1  0.332645  0.332645  0.332645  1
  Fe  Fe5  1  0.667355  0.667355  0.667355  1
  Fe  Fe6  1  0.082663  0.581321  0.581321  1
  Fe  Fe7  1  0.581321  0.581321  0.082663  1
  Fe  Fe8  1  0.581321  0.082663  0.581321  1
  Fe  Fe9  1  0.418679  0.917337  0.418679  1
  Fe  Fe10  1  0.917337  0.418679  0.418679  1
  Fe  Fe11  1  0.418679  0.418679  0.917337  1
