# generated using pymatgen
data_Zr6Mn5Si12Tc
_symmetry_space_group_name_H-M   'P 1'
_cell_length_a   9.91022056
_cell_length_b   9.91022030
_cell_length_c   9.91021965
_cell_angle_alpha   149.70093246
_cell_angle_beta   132.74506710
_cell_angle_gamma   57.17047485
_symmetry_Int_Tables_number   1
_chemical_formula_structural   Zr6Mn5Si12Tc
_chemical_formula_sum   'Zr6 Mn5 Si12 Tc1'
_cell_volume   358.07694822
_cell_formula_units_Z   1
loop_
 _symmetry_equiv_pos_site_id
 _symmetry_equiv_pos_as_xyz
  1  'x, y, z'
loop_
 _atom_site_type_symbol
 _atom_site_label
 _atom_site_symmetry_multiplicity
 _atom_site_fract_x
 _atom_site_fract_y
 _atom_site_fract_z
 _atom_site_occupancy
  Zr  Zr0  1  0.354651  0.095868  0.258783  1
  Zr  Zr1  1  0.645994  0.904198  0.741795  1
  Zr  Zr2  1  0.162917  0.904132  0.258783  1
  Zr  Zr3  1  0.837596  0.095802  0.741795  1
  Zr  Zr4  1  0.641727  0.640784  0.000944  1
  Zr  Zr5  1  0.360160  0.359216  0.000944  1
  Mn  Mn6  1  0.500629  0.001022  0.000845  1
  Mn  Mn7  1  0.500629  0.499784  0.499607  1
  Mn  Mn8  1  0.999824  0.998978  0.499607  1
  Mn  Mn9  1  0.999824  0.500216  0.000845  1
  Mn  Mn10  1  0.751941  0.500000  0.251941  1
  Si  Si11  1  0.991967  0.764389  0.756356  1
  Si  Si12  1  0.991967  0.235611  0.227578  1
  Si  Si13  1  0.506592  0.238478  0.745069  1
  Si  Si14  1  0.506592  0.761522  0.268114  1
  Si  Si15  1  0.203507  0.202888  0.000619  1
  Si  Si16  1  0.797730  0.797112  0.000619  1
  Si  Si17  1  0.288128  0.788258  0.499869  1
  Si  Si18  1  0.711612  0.211742  0.499869  1
  Si  Si19  1  0.714047  0.363398  0.350647  1
  Si  Si20  1  0.288762  0.640046  0.648717  1
  Si  Si21  1  0.987250  0.636602  0.350647  1
  Si  Si22  1  0.008670  0.359954  0.648717  1
  Tc  Tc23  1  0.247288  0.500000  0.747288  1
