# generated using pymatgen
data_LiLaCu5
_symmetry_space_group_name_H-M   'P 1'
_cell_length_a   5.10253800
_cell_length_b   8.32390800
_cell_length_c   10.45509500
_cell_angle_alpha   90.00000000
_cell_angle_beta   90.00000000
_cell_angle_gamma   90.00000000
_symmetry_Int_Tables_number   1
_chemical_formula_structural   LiLaCu5
_chemical_formula_sum   'Li4 La4 Cu20'
_cell_volume   444.05984461
_cell_formula_units_Z   4
loop_
 _symmetry_equiv_pos_site_id
 _symmetry_equiv_pos_as_xyz
  1  'x, y, z'
loop_
 _atom_site_type_symbol
 _atom_site_label
 _atom_site_symmetry_multiplicity
 _atom_site_fract_x
 _atom_site_fract_y
 _atom_site_fract_z
 _atom_site_occupancy
  Li  Li0  1  0.250000  0.141704  0.861817  1
  Li  Li1  1  0.250000  0.641704  0.638183  1
  Li  Li2  1  0.750000  0.858296  0.138183  1
  Li  Li3  1  0.750000  0.358296  0.361817  1
  La  La4  1  0.250000  0.256645  0.564652  1
  La  La5  1  0.250000  0.756645  0.935348  1
  La  La6  1  0.750000  0.743355  0.435348  1
  La  La7  1  0.750000  0.243355  0.064652  1
  Cu  Cu8  1  0.250000  0.815942  0.252553  1
  Cu  Cu9  1  0.250000  0.315942  0.247447  1
  Cu  Cu10  1  0.750000  0.184058  0.747447  1
  Cu  Cu11  1  0.750000  0.684058  0.752553  1
  Cu  Cu12  1  0.250000  0.555423  0.394152  1
  Cu  Cu13  1  0.250000  0.055423  0.105848  1
  Cu  Cu14  1  0.750000  0.444577  0.605848  1
  Cu  Cu15  1  0.750000  0.944577  0.894152  1
  Cu  Cu16  1  0.250000  0.909606  0.484378  1
  Cu  Cu17  1  0.250000  0.409606  0.015622  1
  Cu  Cu18  1  0.750000  0.090394  0.515622  1
  Cu  Cu19  1  0.750000  0.590394  0.984378  1
  Cu  Cu20  1  0.002378  0.434091  0.812209  1
  Cu  Cu21  1  0.497622  0.934091  0.687791  1
  Cu  Cu22  1  0.502378  0.565909  0.187791  1
  Cu  Cu23  1  0.997622  0.065909  0.312209  1
  Cu  Cu24  1  0.997622  0.565909  0.187791  1
  Cu  Cu25  1  0.502378  0.065909  0.312209  1
  Cu  Cu26  1  0.497622  0.434091  0.812209  1
  Cu  Cu27  1  0.002378  0.934091  0.687791  1
