# generated using pymatgen
data_Yb3HoCdRu
_symmetry_space_group_name_H-M   'P 1'
_cell_length_a   9.81205894
_cell_length_b   9.81205943
_cell_length_c   9.81205900
_cell_angle_alpha   59.99999806
_cell_angle_beta   59.99999643
_cell_angle_gamma   60.00000120
_symmetry_Int_Tables_number   1
_chemical_formula_structural   Yb3HoCdRu
_chemical_formula_sum   'Yb12 Ho4 Cd4 Ru4'
_cell_volume   667.98307253
_cell_formula_units_Z   4
loop_
 _symmetry_equiv_pos_site_id
 _symmetry_equiv_pos_as_xyz
  1  'x, y, z'
loop_
 _atom_site_type_symbol
 _atom_site_label
 _atom_site_symmetry_multiplicity
 _atom_site_fract_x
 _atom_site_fract_y
 _atom_site_fract_z
 _atom_site_occupancy
  Yb  Yb0  1  0.951912  0.548088  0.548088  1
  Yb  Yb1  1  0.548088  0.951912  0.951912  1
  Yb  Yb2  1  0.548088  0.951912  0.548088  1
  Yb  Yb3  1  0.951912  0.548088  0.951912  1
  Yb  Yb4  1  0.548088  0.548088  0.951912  1
  Yb  Yb5  1  0.951912  0.951912  0.548088  1
  Yb  Yb6  1  0.805711  0.194289  0.194289  1
  Yb  Yb7  1  0.194289  0.805711  0.805711  1
  Yb  Yb8  1  0.194289  0.805711  0.194289  1
  Yb  Yb9  1  0.805711  0.194289  0.805711  1
  Yb  Yb10  1  0.194289  0.194289  0.805711  1
  Yb  Yb11  1  0.805711  0.805711  0.194289  1
  Ho  Ho12  1  0.339428  0.339428  0.339428  1
  Ho  Ho13  1  0.339428  0.339428  0.981715  1
  Ho  Ho14  1  0.339428  0.981715  0.339428  1
  Ho  Ho15  1  0.981715  0.339428  0.339428  1
  Cd  Cd16  1  0.580418  0.580418  0.580418  1
  Cd  Cd17  1  0.580418  0.580418  0.258746  1
  Cd  Cd18  1  0.580418  0.258746  0.580418  1
  Cd  Cd19  1  0.258746  0.580418  0.580418  1
  Ru  Ru20  1  0.138328  0.138328  0.138328  1
  Ru  Ru21  1  0.138328  0.138328  0.585016  1
  Ru  Ru22  1  0.138328  0.585016  0.138328  1
  Ru  Ru23  1  0.585016  0.138328  0.138328  1
