# generated using pymatgen
data_Dy3Zr(Si3Ni5)4
_symmetry_space_group_name_H-M   'P 1'
_cell_length_a   3.77537400
_cell_length_b   6.60395904
_cell_length_c   18.63954911
_cell_angle_alpha   89.98786349
_cell_angle_beta   90.00000000
_cell_angle_gamma   90.00000000
_symmetry_Int_Tables_number   1
_chemical_formula_structural   Dy3Zr(Si3Ni5)4
_chemical_formula_sum   'Dy3 Zr1 Si12 Ni20'
_cell_volume   464.72896784
_cell_formula_units_Z   1
loop_
 _symmetry_equiv_pos_site_id
 _symmetry_equiv_pos_as_xyz
  1  'x, y, z'
loop_
 _atom_site_type_symbol
 _atom_site_label
 _atom_site_symmetry_multiplicity
 _atom_site_fract_x
 _atom_site_fract_y
 _atom_site_fract_z
 _atom_site_occupancy
  Dy  Dy0  1  0.750000  0.123727  0.642426  1
  Dy  Dy1  1  0.750000  0.376047  0.144260  1
  Dy  Dy2  1  0.250000  0.623941  0.856424  1
  Zr  Zr3  1  0.250000  0.877856  0.356427  1
  Si  Si4  1  0.250000  0.079024  0.087510  1
  Si  Si5  1  0.750000  0.920562  0.913862  1
  Si  Si6  1  0.750000  0.591865  0.412309  1
  Si  Si7  1  0.250000  0.418198  0.583490  1
  Si  Si8  1  0.250000  0.656900  0.075585  1
  Si  Si9  1  0.750000  0.344088  0.926273  1
  Si  Si10  1  0.750000  0.146894  0.423862  1
  Si  Si11  1  0.250000  0.843673  0.573917  1
  Si  Si12  1  0.250000  0.377977  0.263539  1
  Si  Si13  1  0.750000  0.621996  0.737335  1
  Si  Si14  1  0.750000  0.878518  0.240601  1
  Si  Si15  1  0.250000  0.122653  0.761718  1
  Ni  Ni16  1  0.250000  0.068759  0.208649  1
  Ni  Ni17  1  0.750000  0.931092  0.793121  1
  Ni  Ni18  1  0.750000  0.570588  0.293529  1
  Ni  Ni19  1  0.250000  0.431455  0.705173  1
  Ni  Ni20  1  0.250000  0.619313  0.482527  1
  Ni  Ni21  1  0.750000  0.384669  0.511766  1
  Ni  Ni22  1  0.750000  0.113788  0.016302  1
  Ni  Ni23  1  0.250000  0.885284  0.984742  1
  Ni  Ni24  1  0.250000  0.685144  0.201525  1
  Ni  Ni25  1  0.750000  0.315044  0.800412  1
  Ni  Ni26  1  0.750000  0.181503  0.301558  1
  Ni  Ni27  1  0.250000  0.815421  0.699000  1
  Ni  Ni28  1  0.250000  0.353091  0.385593  1
  Ni  Ni29  1  0.750000  0.642368  0.614627  1
  Ni  Ni30  1  0.750000  0.855505  0.117565  1
  Ni  Ni31  1  0.250000  0.145727  0.884519  1
  Ni  Ni32  1  0.250000  0.365721  0.006484  1
  Ni  Ni33  1  0.750000  0.634810  0.995285  1
  Ni  Ni34  1  0.750000  0.865698  0.493917  1
  Ni  Ni35  1  0.250000  0.131099  0.504170  1
