# generated using pymatgen
data_Sc2Al4Ga4Co
_symmetry_space_group_name_H-M   'P 1'
_cell_length_a   4.10070800
_cell_length_b   4.10070800
_cell_length_c   10.83883600
_cell_angle_alpha   90.00000000
_cell_angle_beta   90.00000000
_cell_angle_gamma   90.00000000
_symmetry_Int_Tables_number   1
_chemical_formula_structural   Sc2Al4Ga4Co
_chemical_formula_sum   'Sc2 Al4 Ga4 Co1'
_cell_volume   182.26376454
_cell_formula_units_Z   1
loop_
 _symmetry_equiv_pos_site_id
 _symmetry_equiv_pos_as_xyz
  1  'x, y, z'
loop_
 _atom_site_type_symbol
 _atom_site_label
 _atom_site_symmetry_multiplicity
 _atom_site_fract_x
 _atom_site_fract_y
 _atom_site_fract_z
 _atom_site_occupancy
  Sc  Sc0  1  0.000000  0.000000  0.313785  1
  Sc  Sc1  1  0.000000  0.000000  0.686215  1
  Al  Al2  1  0.000000  0.500000  0.120833  1
  Al  Al3  1  0.000000  0.500000  0.879167  1
  Al  Al4  1  0.500000  0.000000  0.120833  1
  Al  Al5  1  0.500000  0.000000  0.879167  1
  Ga  Ga6  1  0.500000  0.500000  0.299099  1
  Ga  Ga7  1  0.500000  0.500000  0.700901  1
  Ga  Ga8  1  0.000000  0.500000  0.500000  1
  Ga  Ga9  1  0.500000  0.000000  0.500000  1
  Co  Co10  1  0.000000  0.000000  0.000000  1
