# generated using pymatgen
data_Yb2CrOsO6
_symmetry_space_group_name_H-M   'P 1'
_cell_length_a   5.56199100
_cell_length_b   5.33253626
_cell_length_c   9.32332748
_cell_angle_alpha   55.05596597
_cell_angle_beta   90.00000000
_cell_angle_gamma   90.00000000
_symmetry_Int_Tables_number   1
_chemical_formula_structural   Yb2CrOsO6
_chemical_formula_sum   'Yb4 Cr2 Os2 O12'
_cell_volume   226.67117053
_cell_formula_units_Z   2
loop_
 _symmetry_equiv_pos_site_id
 _symmetry_equiv_pos_as_xyz
  1  'x, y, z'
loop_
 _atom_site_type_symbol
 _atom_site_label
 _atom_site_symmetry_multiplicity
 _atom_site_fract_x
 _atom_site_fract_y
 _atom_site_fract_z
 _atom_site_occupancy
  Yb  Yb0  1  0.936930  0.232699  0.749129  1
  Yb  Yb1  1  0.563070  0.232699  0.249129  1
  Yb  Yb2  1  0.063070  0.767301  0.250871  1
  Yb  Yb3  1  0.436930  0.767301  0.750871  1
  Cr  Cr4  1  0.000000  0.500000  0.000000  1
  Cr  Cr5  1  0.500000  0.500000  0.500000  1
  Os  Os6  1  0.000000  0.000000  0.500000  1
  Os  Os7  1  0.500000  0.000000  0.000000  1
  O  O8  1  0.532582  0.349484  0.752609  1
  O  O9  1  0.967418  0.349484  0.252609  1
  O  O10  1  0.467418  0.650516  0.247391  1
  O  O11  1  0.032582  0.650516  0.747391  1
  O  O12  1  0.698374  0.751710  0.948412  1
  O  O13  1  0.801626  0.751710  0.448412  1
  O  O14  1  0.301626  0.248290  0.051588  1
  O  O15  1  0.198374  0.248290  0.551588  1
  O  O16  1  0.795194  0.140417  0.053810  1
  O  O17  1  0.704806  0.140417  0.553810  1
  O  O18  1  0.204806  0.859583  0.946190  1
  O  O19  1  0.295194  0.859583  0.446190  1
