# generated using pymatgen
data_Dy6Sn(P3Rh5)4
_symmetry_space_group_name_H-M   'P 1'
_cell_length_a   13.49336700
_cell_length_b   13.49336623
_cell_length_c   3.89900500
_cell_angle_alpha   90.00000000
_cell_angle_beta   90.00000000
_cell_angle_gamma   119.99999944
_symmetry_Int_Tables_number   1
_chemical_formula_structural   Dy6Sn(P3Rh5)4
_chemical_formula_sum   'Dy6 Sn1 P12 Rh20'
_cell_volume   614.78755380
_cell_formula_units_Z   1
loop_
 _symmetry_equiv_pos_site_id
 _symmetry_equiv_pos_as_xyz
  1  'x, y, z'
loop_
 _atom_site_type_symbol
 _atom_site_label
 _atom_site_symmetry_multiplicity
 _atom_site_fract_x
 _atom_site_fract_y
 _atom_site_fract_z
 _atom_site_occupancy
  Dy  Dy0  1  0.530295  0.716705  0.253450  1
  Dy  Dy1  1  0.283295  0.813588  0.253450  1
  Dy  Dy2  1  0.186412  0.469705  0.253450  1
  Dy  Dy3  1  0.469705  0.283295  0.746550  1
  Dy  Dy4  1  0.716705  0.186412  0.746550  1
  Dy  Dy5  1  0.813588  0.530295  0.746550  1
  Sn  Sn6  1  0.000000  0.000000  0.000000  1
  P  P7  1  0.528038  0.138996  0.248642  1
  P  P8  1  0.861004  0.389042  0.248642  1
  P  P9  1  0.610958  0.471962  0.248642  1
  P  P10  1  0.948948  0.715510  0.243926  1
  P  P11  1  0.284490  0.233438  0.243926  1
  P  P12  1  0.766562  0.051052  0.243926  1
  P  P13  1  0.389042  0.528038  0.751358  1
  P  P14  1  0.471962  0.861004  0.751358  1
  P  P15  1  0.138996  0.610958  0.751358  1
  P  P16  1  0.715510  0.766562  0.756074  1
  P  P17  1  0.233438  0.948948  0.756074  1
  P  P18  1  0.051052  0.284490  0.756074  1
  Rh  Rh19  1  0.333333  0.666667  0.754020  1
  Rh  Rh20  1  0.917066  0.252219  0.243052  1
  Rh  Rh21  1  0.747781  0.664846  0.243052  1
  Rh  Rh22  1  0.335154  0.082934  0.243052  1
  Rh  Rh23  1  0.443080  0.026493  0.748251  1
  Rh  Rh24  1  0.973507  0.416588  0.748251  1
  Rh  Rh25  1  0.583412  0.556920  0.748251  1
  Rh  Rh26  1  0.666667  0.333333  0.245980  1
  Rh  Rh27  1  0.098029  0.206485  0.266216  1
  Rh  Rh28  1  0.793515  0.891544  0.266216  1
  Rh  Rh29  1  0.108456  0.901971  0.266216  1
  Rh  Rh30  1  0.026493  0.583412  0.251749  1
  Rh  Rh31  1  0.416588  0.443080  0.251749  1
  Rh  Rh32  1  0.556920  0.973507  0.251749  1
  Rh  Rh33  1  0.664846  0.917066  0.756948  1
  Rh  Rh34  1  0.082934  0.747781  0.756948  1
  Rh  Rh35  1  0.252219  0.335154  0.756948  1
  Rh  Rh36  1  0.901971  0.793515  0.733784  1
  Rh  Rh37  1  0.206485  0.108456  0.733784  1
  Rh  Rh38  1  0.891544  0.098029  0.733784  1
