# generated using pymatgen
data_NbGa(SeO3)4
_symmetry_space_group_name_H-M   'P 1'
_cell_length_a   8.27394700
_cell_length_b   8.23953503
_cell_length_c   8.32154501
_cell_angle_alpha   89.21023934
_cell_angle_beta   90.00000000
_cell_angle_gamma   90.00000000
_symmetry_Int_Tables_number   1
_chemical_formula_structural   NbGa(SeO3)4
_chemical_formula_sum   'Nb2 Ga2 Se8 O24'
_cell_volume   567.25475761
_cell_formula_units_Z   2
loop_
 _symmetry_equiv_pos_site_id
 _symmetry_equiv_pos_as_xyz
  1  'x, y, z'
loop_
 _atom_site_type_symbol
 _atom_site_label
 _atom_site_symmetry_multiplicity
 _atom_site_fract_x
 _atom_site_fract_y
 _atom_site_fract_z
 _atom_site_occupancy
  Nb  Nb0  1  0.000000  0.000000  0.500000  1
  Nb  Nb1  1  0.500000  0.000000  0.000000  1
  Ga  Ga2  1  0.000000  0.500000  0.000000  1
  Ga  Ga3  1  0.500000  0.500000  0.500000  1
  Se  Se4  1  0.318335  0.649301  0.179813  1
  Se  Se5  1  0.818335  0.350699  0.320187  1
  Se  Se6  1  0.663734  0.807132  0.663795  1
  Se  Se7  1  0.163734  0.192868  0.836205  1
  Se  Se8  1  0.681665  0.350699  0.820187  1
  Se  Se9  1  0.181665  0.649301  0.679813  1
  Se  Se10  1  0.336266  0.192868  0.336205  1
  Se  Se11  1  0.836266  0.807132  0.163795  1
  O  O12  1  0.238542  0.526088  0.036001  1
  O  O13  1  0.738542  0.473912  0.463999  1
  O  O14  1  0.765561  0.955577  0.549355  1
  O  O15  1  0.265561  0.044423  0.950645  1
  O  O16  1  0.538871  0.940493  0.768248  1
  O  O17  1  0.461898  0.522942  0.262180  1
  O  O18  1  0.961898  0.477058  0.237820  1
  O  O19  1  0.038871  0.059507  0.731752  1
  O  O20  1  0.946952  0.229415  0.445916  1
  O  O21  1  0.530672  0.740653  0.523728  1
  O  O22  1  0.446952  0.770585  0.054084  1
  O  O23  1  0.030672  0.259347  0.976272  1
  O  O24  1  0.761458  0.473912  0.963999  1
  O  O25  1  0.261458  0.526088  0.536001  1
  O  O26  1  0.234439  0.044423  0.450645  1
  O  O27  1  0.734439  0.955577  0.049355  1
  O  O28  1  0.461129  0.059507  0.231752  1
  O  O29  1  0.538102  0.477058  0.737820  1
  O  O30  1  0.038102  0.522942  0.762180  1
  O  O31  1  0.961129  0.940493  0.268248  1
  O  O32  1  0.053048  0.770585  0.554084  1
  O  O33  1  0.469328  0.259347  0.476272  1
  O  O34  1  0.553048  0.229415  0.945916  1
  O  O35  1  0.969328  0.740653  0.023728  1
