# generated using pymatgen
data_Mn5Al6FeRh12
_symmetry_space_group_name_H-M   'P 1'
_cell_length_a   4.28209600
_cell_length_b   6.03144700
_cell_length_c   12.83842300
_cell_angle_alpha   90.00000000
_cell_angle_beta   89.99972785
_cell_angle_gamma   90.00000000
_symmetry_Int_Tables_number   1
_chemical_formula_structural   Mn5Al6FeRh12
_chemical_formula_sum   'Mn5 Al6 Fe1 Rh12'
_cell_volume   331.58096878
_cell_formula_units_Z   1
loop_
 _symmetry_equiv_pos_site_id
 _symmetry_equiv_pos_as_xyz
  1  'x, y, z'
loop_
 _atom_site_type_symbol
 _atom_site_label
 _atom_site_symmetry_multiplicity
 _atom_site_fract_x
 _atom_site_fract_y
 _atom_site_fract_z
 _atom_site_occupancy
  Mn  Mn0  1  0.000001  0.500001  0.000222  1
  Mn  Mn1  1  0.499660  0.000000  0.166611  1
  Mn  Mn2  1  0.999663  0.500001  0.333328  1
  Mn  Mn3  1  0.500002  0.000000  0.500044  1
  Mn  Mn4  1  0.000335  0.500001  0.666466  1
  Al  Al5  1  0.999997  0.000000  0.000970  1
  Al  Al6  1  0.499706  0.500001  0.166576  1
  Al  Al7  1  0.999724  0.000000  0.333349  1
  Al  Al8  1  0.500001  0.500001  0.500082  1
  Al  Al9  1  0.000282  0.000000  0.665677  1
  Al  Al10  1  0.500298  0.500001  0.833338  1
  Fe  Fe11  1  0.500340  0.000000  0.833332  1
  Rh  Rh12  1  0.500007  0.248025  0.998441  1
  Rh  Rh13  1  0.500007  0.751974  0.998441  1
  Rh  Rh14  1  0.999703  0.250635  0.166276  1
  Rh  Rh15  1  0.999703  0.749367  0.166276  1
  Rh  Rh16  1  0.499703  0.248946  0.333312  1
  Rh  Rh17  1  0.499703  0.751054  0.333312  1
  Rh  Rh18  1  0.999999  0.250706  0.500414  1
  Rh  Rh19  1  0.999999  0.749296  0.500414  1
  Rh  Rh20  1  0.500287  0.248084  0.668240  1
  Rh  Rh21  1  0.500287  0.751916  0.668240  1
  Rh  Rh22  1  0.000298  0.247943  0.833319  1
  Rh  Rh23  1  0.000298  0.752059  0.833319  1
