# generated using pymatgen
data_Np27Se40
_symmetry_space_group_name_H-M   'P 1'
_cell_length_a   7.60806974
_cell_length_b   12.42954800
_cell_length_c   19.15433000
_cell_angle_alpha   108.92935791
_cell_angle_beta   97.65622002
_cell_angle_gamma   89.84674763
_symmetry_Int_Tables_number   1
_chemical_formula_structural   Np27Se40
_chemical_formula_sum   'Np27 Se40'
_cell_volume   1696.50577957
_cell_formula_units_Z   1
loop_
 _symmetry_equiv_pos_site_id
 _symmetry_equiv_pos_as_xyz
  1  'x, y, z'
loop_
 _atom_site_type_symbol
 _atom_site_label
 _atom_site_symmetry_multiplicity
 _atom_site_fract_x
 _atom_site_fract_y
 _atom_site_fract_z
 _atom_site_occupancy
  Np  Np0  1  0.653327  0.473601  0.199021  1
  Np  Np1  1  0.922303  0.324927  0.023679  1
  Np  Np2  1  0.052146  0.069516  0.396545  1
  Np  Np3  1  0.151729  0.219077  0.199964  1
  Np  Np4  1  0.279514  0.603373  0.074036  1
  Np  Np5  1  0.427267  0.203247  0.022606  1
  Np  Np6  1  0.547030  0.824122  0.396762  1
  Np  Np7  1  0.847007  0.279878  0.802604  1
  Np  Np8  1  0.717044  0.528529  0.428089  1
  Np  Np9  1  0.665352  0.194089  0.274458  1
  Np  Np10  1  0.824305  0.805244  0.224582  1
  Np  Np11  1  0.771370  0.973058  0.075152  1
  Np  Np12  1  0.946601  0.424879  0.601686  1
  Np  Np13  1  0.252260  0.876949  0.004526  1
  Np  Np14  1  0.127959  0.126762  0.626952  1
  Np  Np15  1  0.078053  0.798893  0.477934  1
  Np  Np16  1  0.230716  0.406756  0.429070  1
  Np  Np17  1  0.175620  0.576469  0.274791  1
  Np  Np18  1  0.350918  0.030342  0.801005  1
  Np  Np19  1  0.524306  0.722546  0.821288  1
  Np  Np20  1  0.474366  0.403473  0.677119  1
  Np  Np21  1  0.578736  0.175697  0.473694  1
  Np  Np22  1  0.624911  0.993449  0.624613  1
  Np  Np23  1  0.741138  0.621726  0.995527  1
  Np  Np24  1  0.880758  0.001348  0.876698  1
  Np  Np25  1  0.972653  0.769804  0.671439  1
  Np  Np26  1  0.028825  0.592490  0.824266  1
  Se  Se27  1  0.563177  0.441566  0.033238  1
  Se  Se28  1  0.764446  0.239242  0.130236  1
  Se  Se29  1  0.932880  0.572149  0.140877  1
  Se  Se30  1  0.950963  0.041081  0.229853  1
  Se  Se31  1  0.058855  0.089780  0.032031  1
  Se  Se32  1  0.327971  0.178943  0.343780  1
  Se  Se33  1  0.258243  0.388241  0.129596  1
  Se  Se34  1  0.357578  0.637987  0.426481  1
  Se  Se35  1  0.433492  0.072421  0.136990  1
  Se  Se36  1  0.466456  0.684073  0.229460  1
  Se  Se37  1  0.551834  0.797020  0.097550  1
  Se  Se38  1  0.756689  0.237619  0.629221  1
  Se  Se39  1  0.729619  0.770920  0.535931  1
  Se  Se40  1  0.663057  0.992554  0.332736  1
  Se  Se41  1  0.832144  0.667566  0.340510  1
  Se  Se42  1  0.958933  0.045143  0.731399  1
  Se  Se43  1  0.865078  0.288426  0.429414  1
  Se  Se44  1  0.955427  0.398387  0.300778  1
  Se  Se45  1  0.126677  0.365693  0.737370  1
  Se  Se46  1  0.047642  0.587880  0.529932  1
  Se  Se47  1  0.162091  0.841776  0.827894  1
  Se  Se48  1  0.039436  0.796389  0.096591  1
  Se  Se49  1  0.231630  0.271742  0.540787  1
  Se  Se50  1  0.158636  0.835872  0.331512  1
  Se  Se51  1  0.358312  0.648827  0.930430  1
  Se  Se52  1  0.255806  0.896214  0.631851  1
  Se  Se53  1  0.353629  0.001093  0.499275  1
  Se  Se54  1  0.529111  0.968902  0.939934  1
  Se  Se55  1  0.466799  0.185789  0.726331  1
  Se  Se56  1  0.451808  0.399938  0.298833  1
  Se  Se57  1  0.563887  0.435791  0.530911  1
  Se  Se58  1  0.634719  0.877706  0.744342  1
  Se  Se59  1  0.663227  0.494282  0.830330  1
  Se  Se60  1  0.754720  0.599697  0.702768  1
  Se  Se61  1  0.860770  0.788947  0.926822  1
  Se  Se62  1  0.855048  0.001929  0.500513  1
  Se  Se63  1  0.022911  0.471625  0.941942  1
  Se  Se64  1  0.143803  0.198505  0.901383  1
  Se  Se65  1  0.243135  0.597767  0.701604  1
  Se  Se66  1  0.653150  0.195275  0.900462  1
