# generated using pymatgen
data_Na12Cr2MoWN12
_symmetry_space_group_name_H-M   'P 1'
_cell_length_a   8.71817005
_cell_length_b   8.70866370
_cell_length_c   6.35295711
_cell_angle_alpha   69.09678129
_cell_angle_beta   69.14588326
_cell_angle_gamma   76.57716087
_symmetry_Int_Tables_number   1
_chemical_formula_structural   Na12Cr2MoWN12
_chemical_formula_sum   'Na12 Cr2 Mo1 W1 N12'
_cell_volume   418.01154919
_cell_formula_units_Z   1
loop_
 _symmetry_equiv_pos_site_id
 _symmetry_equiv_pos_as_xyz
  1  'x, y, z'
loop_
 _atom_site_type_symbol
 _atom_site_label
 _atom_site_symmetry_multiplicity
 _atom_site_fract_x
 _atom_site_fract_y
 _atom_site_fract_z
 _atom_site_occupancy
  Na  Na0  1  0.736244  0.288507  0.012886  1
  Na  Na1  1  0.287965  0.736058  0.513004  1
  Na  Na2  1  0.640443  0.594186  0.571343  1
  Na  Na3  1  0.594410  0.641683  0.069509  1
  Na  Na4  1  0.398748  0.352757  0.801768  1
  Na  Na5  1  0.354386  0.398565  0.301757  1
  Na  Na6  1  0.010604  0.523856  0.040251  1
  Na  Na7  1  0.524044  0.010591  0.541582  1
  Na  Na8  1  0.884092  0.877087  0.673812  1
  Na  Na9  1  0.877143  0.884675  0.173068  1
  Na  Na10  1  0.126830  0.138715  0.111444  1
  Na  Na11  1  0.138730  0.126565  0.613080  1
  Cr  Cr12  1  0.243885  0.756943  0.996893  1
  Cr  Cr13  1  0.756411  0.243263  0.497426  1
  Mo  Mo14  1  0.499282  0.003066  0.073837  1
  W  W15  1  0.003255  0.499662  0.572208  1
  N  N16  1  0.379874  0.605434  0.900058  1
  N  N17  1  0.605407  0.379867  0.399928  1
  N  N18  1  0.111685  0.842661  0.832416  1
  N  N19  1  0.842258  0.111178  0.332754  1
  N  N20  1  0.146538  0.363986  0.737807  1
  N  N21  1  0.365062  0.145371  0.237689  1
  N  N22  1  0.833236  0.597432  0.773064  1
  N  N23  1  0.596098  0.834483  0.273178  1
  N  N24  1  0.669153  0.120532  0.801363  1
  N  N25  1  0.120368  0.668660  0.301941  1
  N  N26  1  0.917078  0.361436  0.475874  1
  N  N27  1  0.360890  0.916900  0.976462  1
