# generated using pymatgen
data_Dy5YPa2(ReB6)4
_symmetry_space_group_name_H-M   'P 1'
_cell_length_a   3.70591200
_cell_length_b   9.18294476
_cell_length_c   11.54590400
_cell_angle_alpha   90.36669470
_cell_angle_beta   90.00000000
_cell_angle_gamma   90.00000000
_symmetry_Int_Tables_number   1
_chemical_formula_structural   Dy5YPa2(ReB6)4
_chemical_formula_sum   'Dy5 Y1 Pa2 Re4 B24'
_cell_volume   392.91275016
_cell_formula_units_Z   1
loop_
 _symmetry_equiv_pos_site_id
 _symmetry_equiv_pos_as_xyz
  1  'x, y, z'
loop_
 _atom_site_type_symbol
 _atom_site_label
 _atom_site_symmetry_multiplicity
 _atom_site_fract_x
 _atom_site_fract_y
 _atom_site_fract_z
 _atom_site_occupancy
  Dy  Dy0  1  0.000000  0.175774  0.914251  1
  Dy  Dy1  1  0.000000  0.944806  0.372915  1
  Dy  Dy2  1  0.000000  0.055225  0.627110  1
  Dy  Dy3  1  0.000000  0.443728  0.126557  1
  Dy  Dy4  1  0.000000  0.556196  0.873413  1
  Y  Y5  1  0.000000  0.824096  0.085721  1
  Pa  Pa6  1  0.000000  0.322019  0.412976  1
  Pa  Pa7  1  0.000000  0.677991  0.587028  1
  Re  Re8  1  0.000000  0.634854  0.325170  1
  Re  Re9  1  0.000000  0.365064  0.674866  1
  Re  Re10  1  0.000000  0.140559  0.181787  1
  Re  Re11  1  0.000000  0.859563  0.818154  1
  B  B12  1  0.500000  0.553090  0.432994  1
  B  B13  1  0.500000  0.446909  0.567028  1
  B  B14  1  0.500000  0.053430  0.067483  1
  B  B15  1  0.500000  0.946829  0.932393  1
  B  B16  1  0.500000  0.747435  0.419812  1
  B  B17  1  0.500000  0.252575  0.580223  1
  B  B18  1  0.500000  0.247427  0.080346  1
  B  B19  1  0.500000  0.752550  0.919510  1
  B  B20  1  0.500000  0.791113  0.266356  1
  B  B21  1  0.500000  0.208872  0.733760  1
  B  B22  1  0.500000  0.292065  0.233684  1
  B  B23  1  0.500000  0.707938  0.766310  1
  B  B24  1  0.500000  0.631517  0.186001  1
  B  B25  1  0.500000  0.368354  0.814076  1
  B  B26  1  0.500000  0.132756  0.313873  1
  B  B27  1  0.500000  0.867272  0.686141  1
  B  B28  1  0.500000  0.982710  0.212527  1
  B  B29  1  0.500000  0.017439  0.787543  1
  B  B30  1  0.500000  0.483029  0.286916  1
  B  B31  1  0.500000  0.516943  0.713099  1
  B  B32  1  0.500000  0.606041  0.029747  1
  B  B33  1  0.500000  0.393821  0.970219  1
  B  B34  1  0.500000  0.113206  0.468687  1
  B  B35  1  0.500000  0.886804  0.531322  1
