# generated using pymatgen
data_Hf6Fe5Si12Ru
_symmetry_space_group_name_H-M   'P 1'
_cell_length_a   9.69597488
_cell_length_b   9.71035737
_cell_length_c   9.69921138
_cell_angle_alpha   148.94732045
_cell_angle_beta   133.04659090
_cell_angle_gamma   57.32530929
_symmetry_Int_Tables_number   1
_chemical_formula_structural   Hf6Fe5Si12Ru
_chemical_formula_sum   'Hf6 Fe5 Si12 Ru1'
_cell_volume   341.79119736
_cell_formula_units_Z   1
loop_
 _symmetry_equiv_pos_site_id
 _symmetry_equiv_pos_as_xyz
  1  'x, y, z'
loop_
 _atom_site_type_symbol
 _atom_site_label
 _atom_site_symmetry_multiplicity
 _atom_site_fract_x
 _atom_site_fract_y
 _atom_site_fract_z
 _atom_site_occupancy
  Hf  Hf0  1  0.855418  0.596335  0.261278  1
  Hf  Hf1  1  0.144582  0.403665  0.738722  1
  Hf  Hf2  1  0.665717  0.404707  0.260468  1
  Hf  Hf3  1  0.334283  0.595293  0.739532  1
  Hf  Hf4  1  0.140135  0.140955  0.998874  1
  Hf  Hf5  1  0.859865  0.859045  0.001126  1
  Fe  Fe6  1  0.746576  0.001945  0.746277  1
  Fe  Fe7  1  0.000000  0.000000  0.500000  1
  Fe  Fe8  1  0.500000  0.000000  0.000000  1
  Fe  Fe9  1  0.253424  0.998055  0.253723  1
  Fe  Fe10  1  0.000000  0.500000  0.000000  1
  Si  Si11  1  0.485834  0.127878  0.341209  1
  Si  Si12  1  0.514166  0.872122  0.658791  1
  Si  Si13  1  0.209285  0.857753  0.346439  1
  Si  Si14  1  0.790715  0.142247  0.653561  1
  Si  Si15  1  0.705277  0.719146  0.021220  1
  Si  Si16  1  0.294723  0.280854  0.978780  1
  Si  Si17  1  0.499204  0.740742  0.242280  1
  Si  Si18  1  0.500796  0.259258  0.757720  1
  Si  Si19  1  0.000224  0.255267  0.255002  1
  Si  Si20  1  0.208608  0.722360  0.505094  1
  Si  Si21  1  0.999776  0.744733  0.744998  1
  Si  Si22  1  0.791392  0.277640  0.494906  1
  Ru  Ru23  1  0.500000  0.500000  0.500000  1
