# generated using pymatgen
data_Tm3Lu(Al3Rh)6
_symmetry_space_group_name_H-M   'P 1'
_cell_length_a   7.52620236
_cell_length_b   7.52969722
_cell_length_c   9.41837500
_cell_angle_alpha   90.00000000
_cell_angle_beta   90.00000000
_cell_angle_gamma   119.27038047
_symmetry_Int_Tables_number   1
_chemical_formula_structural   Tm3Lu(Al3Rh)6
_chemical_formula_sum   'Tm3 Lu1 Al18 Rh6'
_cell_volume   465.59282625
_cell_formula_units_Z   1
loop_
 _symmetry_equiv_pos_site_id
 _symmetry_equiv_pos_as_xyz
  1  'x, y, z'
loop_
 _atom_site_type_symbol
 _atom_site_label
 _atom_site_symmetry_multiplicity
 _atom_site_fract_x
 _atom_site_fract_y
 _atom_site_fract_z
 _atom_site_occupancy
  Tm  Tm0  1  0.994369  0.672510  0.250000  1
  Tm  Tm1  1  0.005881  0.327778  0.750000  1
  Tm  Tm2  1  0.672366  0.994169  0.250000  1
  Lu  Lu3  1  0.327444  0.005703  0.750000  1
  Al  Al4  1  0.128125  0.127830  0.250000  1
  Al  Al5  1  0.871921  0.871545  0.750000  1
  Al  Al6  1  0.000776  0.335837  0.075816  1
  Al  Al7  1  0.999811  0.664660  0.924191  1
  Al  Al8  1  0.999811  0.664660  0.575809  1
  Al  Al9  1  0.335758  0.000604  0.425077  1
  Al  Al10  1  0.000776  0.335837  0.424184  1
  Al  Al11  1  0.663379  0.999252  0.575926  1
  Al  Al12  1  0.663379  0.999252  0.924074  1
  Al  Al13  1  0.335758  0.000604  0.074923  1
  Al  Al14  1  0.332860  0.332297  0.550724  1
  Al  Al15  1  0.667239  0.667262  0.450257  1
  Al  Al16  1  0.667239  0.667262  0.049743  1
  Al  Al17  1  0.332860  0.332297  0.949276  1
  Al  Al18  1  0.339889  0.551221  0.250000  1
  Al  Al19  1  0.659664  0.449143  0.750000  1
  Al  Al20  1  0.551040  0.339616  0.250000  1
  Al  Al21  1  0.449736  0.660740  0.750000  1
  Rh  Rh22  1  0.672191  0.327621  0.999800  1
  Rh  Rh23  1  0.327522  0.672113  0.999792  1
  Rh  Rh24  1  0.327522  0.672113  0.500208  1
  Rh  Rh25  1  0.672191  0.327621  0.500200  1
  Rh  Rh26  1  0.000246  0.000227  0.999653  1
  Rh  Rh27  1  0.000246  0.000227  0.500347  1
