# generated using pymatgen
data_Lu8Zn4Cu3Ir
_symmetry_space_group_name_H-M   'P 1'
_cell_length_a   6.92507500
_cell_length_b   6.89884300
_cell_length_c   6.92480000
_cell_angle_alpha   90.00000000
_cell_angle_beta   89.99886651
_cell_angle_gamma   90.00000000
_symmetry_Int_Tables_number   1
_chemical_formula_structural   Lu8Zn4Cu3Ir
_chemical_formula_sum   'Lu8 Zn4 Cu3 Ir1'
_cell_volume   330.83235593
_cell_formula_units_Z   1
loop_
 _symmetry_equiv_pos_site_id
 _symmetry_equiv_pos_as_xyz
  1  'x, y, z'
loop_
 _atom_site_type_symbol
 _atom_site_label
 _atom_site_symmetry_multiplicity
 _atom_site_fract_x
 _atom_site_fract_y
 _atom_site_fract_z
 _atom_site_occupancy
  Lu  Lu0  1  0.246896  0.997876  0.253092  1
  Lu  Lu1  1  0.246906  0.502128  0.253042  1
  Lu  Lu2  1  0.753125  0.502538  0.253097  1
  Lu  Lu3  1  0.753149  0.997461  0.253106  1
  Lu  Lu4  1  0.246862  0.997847  0.746878  1
  Lu  Lu5  1  0.246900  0.502091  0.746939  1
  Lu  Lu6  1  0.753089  0.502535  0.746909  1
  Lu  Lu7  1  0.753107  0.997472  0.746925  1
  Zn  Zn8  1  0.999529  0.250002  0.999993  1
  Zn  Zn9  1  0.000510  0.750001  0.000012  1
  Zn  Zn10  1  0.499511  0.749998  0.500006  1
  Zn  Zn11  1  0.500507  0.250017  0.499989  1
  Cu  Cu12  1  0.500374  0.250003  0.000000  1
  Cu  Cu13  1  0.499615  0.749992  0.000023  1
  Cu  Cu14  1  0.999578  0.250021  0.499996  1
  Ir  Ir15  1  0.000343  0.750011  0.499995  1
