# generated using pymatgen
data_Lu3Fe7Si2
_symmetry_space_group_name_H-M   'P 1'
_cell_length_a   5.08886500
_cell_length_b   5.08886393
_cell_length_c   15.66956800
_cell_angle_alpha   90.00000000
_cell_angle_beta   90.00000000
_cell_angle_gamma   119.99998744
_symmetry_Int_Tables_number   1
_chemical_formula_structural   Lu3Fe7Si2
_chemical_formula_sum   'Lu6 Fe14 Si4'
_cell_volume   351.42243099
_cell_formula_units_Z   2
loop_
 _symmetry_equiv_pos_site_id
 _symmetry_equiv_pos_as_xyz
  1  'x, y, z'
loop_
 _atom_site_type_symbol
 _atom_site_label
 _atom_site_symmetry_multiplicity
 _atom_site_fract_x
 _atom_site_fract_y
 _atom_site_fract_z
 _atom_site_occupancy
  Lu  Lu0  1  0.333333  0.666667  0.538236  1
  Lu  Lu1  1  0.666667  0.333333  0.038236  1
  Lu  Lu2  1  0.666667  0.333333  0.461764  1
  Lu  Lu3  1  0.333333  0.666667  0.961764  1
  Lu  Lu4  1  0.333333  0.666667  0.750000  1
  Lu  Lu5  1  0.666667  0.333333  0.250000  1
  Fe  Fe6  1  0.000000  0.000000  0.000000  1
  Fe  Fe7  1  0.000000  0.000000  0.500000  1
  Fe  Fe8  1  0.166454  0.332908  0.129610  1
  Fe  Fe9  1  0.833546  0.667092  0.629610  1
  Fe  Fe10  1  0.667092  0.833546  0.129610  1
  Fe  Fe11  1  0.166454  0.833546  0.129610  1
  Fe  Fe12  1  0.833546  0.166454  0.629610  1
  Fe  Fe13  1  0.332908  0.166454  0.629610  1
  Fe  Fe14  1  0.833546  0.667092  0.870390  1
  Fe  Fe15  1  0.833546  0.166454  0.870390  1
  Fe  Fe16  1  0.332908  0.166454  0.870390  1
  Fe  Fe17  1  0.667092  0.833546  0.370390  1
  Fe  Fe18  1  0.166454  0.833546  0.370390  1
  Fe  Fe19  1  0.166454  0.332908  0.370390  1
  Si  Si20  1  0.333333  0.666667  0.250000  1
  Si  Si21  1  0.666667  0.333333  0.750000  1
  Si  Si22  1  0.000000  0.000000  0.250000  1
  Si  Si23  1  0.000000  0.000000  0.750000  1
