# generated using pymatgen
data_LaTbIrO6
_symmetry_space_group_name_H-M   'P 1'
_cell_length_a   5.45328900
_cell_length_b   9.37819800
_cell_length_c   10.10081400
_cell_angle_alpha   90.00000000
_cell_angle_beta   90.00000000
_cell_angle_gamma   90.00000000
_symmetry_Int_Tables_number   1
_chemical_formula_structural   LaTbIrO6
_chemical_formula_sum   'La4 Tb4 Ir4 O24'
_cell_volume   516.57607194
_cell_formula_units_Z   4
loop_
 _symmetry_equiv_pos_site_id
 _symmetry_equiv_pos_as_xyz
  1  'x, y, z'
loop_
 _atom_site_type_symbol
 _atom_site_label
 _atom_site_symmetry_multiplicity
 _atom_site_fract_x
 _atom_site_fract_y
 _atom_site_fract_z
 _atom_site_occupancy
  La  La0  1  0.534432  0.221529  0.360614  1
  La  La1  1  0.034432  0.278471  0.639386  1
  La  La2  1  0.465568  0.721529  0.139386  1
  La  La3  1  0.965568  0.778471  0.860614  1
  Tb  Tb4  1  0.521594  0.100814  0.959670  1
  Tb  Tb5  1  0.021594  0.399186  0.040330  1
  Tb  Tb6  1  0.478406  0.600814  0.540330  1
  Tb  Tb7  1  0.978406  0.899186  0.459670  1
  Ir  Ir8  1  0.461860  0.992316  0.640170  1
  Ir  Ir9  1  0.961860  0.507684  0.359830  1
  Ir  Ir10  1  0.538140  0.492316  0.859830  1
  Ir  Ir11  1  0.038140  0.007684  0.140170  1
  O  O12  1  0.318137  0.133100  0.170536  1
  O  O13  1  0.818137  0.366900  0.829464  1
  O  O14  1  0.681863  0.633100  0.329464  1
  O  O15  1  0.181863  0.866900  0.670536  1
  O  O16  1  0.732060  0.105891  0.563359  1
  O  O17  1  0.232060  0.394109  0.436641  1
  O  O18  1  0.267940  0.605891  0.936641  1
  O  O19  1  0.767940  0.894109  0.063359  1
  O  O20  1  0.668599  0.637058  0.741795  1
  O  O21  1  0.168599  0.862942  0.258205  1
  O  O22  1  0.331401  0.137058  0.758205  1
  O  O23  1  0.831401  0.362942  0.241795  1
  O  O24  1  0.659494  0.945035  0.791159  1
  O  O25  1  0.159494  0.554965  0.208841  1
  O  O26  1  0.340506  0.445035  0.708841  1
  O  O27  1  0.840506  0.054965  0.291159  1
  O  O28  1  0.253657  0.079957  0.499472  1
  O  O29  1  0.753657  0.420043  0.500528  1
  O  O30  1  0.746343  0.579957  0.000528  1
  O  O31  1  0.246343  0.920043  0.999472  1
  O  O32  1  0.092370  0.660406  0.472248  1
  O  O33  1  0.592370  0.839594  0.527752  1
  O  O34  1  0.907630  0.160406  0.027752  1
  O  O35  1  0.407630  0.339594  0.972248  1
