# generated using pymatgen
data_NdTh3(PdPt)6
_symmetry_space_group_name_H-M   'P 1'
_cell_length_a   5.96045727
_cell_length_b   5.96045680
_cell_length_c   9.81239110
_cell_angle_alpha   89.93558805
_cell_angle_beta   90.06440884
_cell_angle_gamma   120.25115576
_symmetry_Int_Tables_number   1
_chemical_formula_structural   NdTh3(PdPt)6
_chemical_formula_sum   'Nd1 Th3 Pd6 Pt6'
_cell_volume   301.13383105
_cell_formula_units_Z   1
loop_
 _symmetry_equiv_pos_site_id
 _symmetry_equiv_pos_as_xyz
  1  'x, y, z'
loop_
 _atom_site_type_symbol
 _atom_site_label
 _atom_site_symmetry_multiplicity
 _atom_site_fract_x
 _atom_site_fract_y
 _atom_site_fract_z
 _atom_site_occupancy
  Nd  Nd0  1  0.000268  0.999732  0.499356  1
  Th  Th1  1  0.000430  0.999570  0.001184  1
  Th  Th2  1  0.331748  0.668252  0.253011  1
  Th  Th3  1  0.667677  0.332323  0.746786  1
  Pd  Pd4  1  0.500122  0.499878  0.501097  1
  Pd  Pd5  1  0.500201  0.499799  0.998711  1
  Pd  Pd6  1  0.823368  0.176632  0.249018  1
  Pd  Pd7  1  0.176309  0.349868  0.751366  1
  Pd  Pd8  1  0.650132  0.823691  0.751366  1
  Pd  Pd9  1  0.176395  0.823605  0.751197  1
  Pt  Pt10  1  0.500151  0.999971  0.501747  1
  Pt  Pt11  1  0.000029  0.499849  0.501747  1
  Pt  Pt12  1  0.500694  0.000093  0.998264  1
  Pt  Pt13  1  0.999907  0.499306  0.998264  1
  Pt  Pt14  1  0.823502  0.650930  0.248442  1
  Pt  Pt15  1  0.349070  0.176498  0.248442  1
