# generated using pymatgen
data_LaEuNi2(As2Rh)2
_symmetry_space_group_name_H-M   'P 1'
_cell_length_a   4.24618200
_cell_length_b   4.24618200
_cell_length_c   9.88875700
_cell_angle_alpha   90.00000000
_cell_angle_beta   90.00000000
_cell_angle_gamma   90.00000000
_symmetry_Int_Tables_number   1
_chemical_formula_structural   LaEuNi2(As2Rh)2
_chemical_formula_sum   'La1 Eu1 Ni2 As4 Rh2'
_cell_volume   178.29489763
_cell_formula_units_Z   1
loop_
 _symmetry_equiv_pos_site_id
 _symmetry_equiv_pos_as_xyz
  1  'x, y, z'
loop_
 _atom_site_type_symbol
 _atom_site_label
 _atom_site_symmetry_multiplicity
 _atom_site_fract_x
 _atom_site_fract_y
 _atom_site_fract_z
 _atom_site_occupancy
  La  La0  1  0.500000  0.000000  0.740846  1
  Eu  Eu1  1  0.000000  0.500000  0.258185  1
  Ni  Ni2  1  0.000000  0.500000  0.616572  1
  Ni  Ni3  1  0.500000  0.000000  0.385205  1
  As  As4  1  0.000000  0.000000  0.497982  1
  As  As5  1  0.500000  0.500000  0.497982  1
  As  As6  1  0.000000  0.500000  0.858822  1
  As  As7  1  0.500000  0.000000  0.145164  1
  Rh  Rh8  1  0.000000  0.000000  0.999621  1
  Rh  Rh9  1  0.500000  0.500000  0.999621  1
