# generated using pymatgen
data_CsBi(PSe3)2
_symmetry_space_group_name_H-M   'P 1'
_cell_length_a   8.02909600
_cell_length_b   7.30724674
_cell_length_c   10.99590948
_cell_angle_alpha   87.63858454
_cell_angle_beta   90.00000000
_cell_angle_gamma   90.00000000
_symmetry_Int_Tables_number   1
_chemical_formula_structural   CsBi(PSe3)2
_chemical_formula_sum   'Cs2 Bi2 P4 Se12'
_cell_volume   644.58860072
_cell_formula_units_Z   2
loop_
 _symmetry_equiv_pos_site_id
 _symmetry_equiv_pos_as_xyz
  1  'x, y, z'
loop_
 _atom_site_type_symbol
 _atom_site_label
 _atom_site_symmetry_multiplicity
 _atom_site_fract_x
 _atom_site_fract_y
 _atom_site_fract_z
 _atom_site_occupancy
  Cs  Cs0  1  0.489110  0.711015  0.497441  1
  Cs  Cs1  1  0.989110  0.288985  0.502559  1
  Bi  Bi2  1  0.238123  0.201923  0.990214  1
  Bi  Bi3  1  0.738123  0.798077  0.009786  1
  P  P4  1  0.679182  0.304859  0.837138  1
  P  P5  1  0.958637  0.782443  0.280344  1
  P  P6  1  0.179182  0.695141  0.162862  1
  P  P7  1  0.458637  0.217557  0.719656  1
  Se  Se8  1  0.773480  0.569037  0.764326  1
  Se  Se9  1  0.531284  0.200490  0.532154  1
  Se  Se10  1  0.767150  0.575286  0.244477  1
  Se  Se11  1  0.563806  0.338302  0.022672  1
  Se  Se12  1  0.377100  0.958252  0.818871  1
  Se  Se13  1  0.267150  0.424714  0.755523  1
  Se  Se14  1  0.063806  0.661698  0.977328  1
  Se  Se15  1  0.877100  0.041748  0.181129  1
  Se  Se16  1  0.031284  0.799510  0.467846  1
  Se  Se17  1  0.371019  0.916764  0.166761  1
  Se  Se18  1  0.871019  0.083236  0.833239  1
  Se  Se19  1  0.273480  0.430963  0.235674  1
