# generated using pymatgen
data_TmTh2Sc(AsPt)4
_symmetry_space_group_name_H-M   'P 1'
_cell_length_a   4.28606000
_cell_length_b   4.28605977
_cell_length_c   15.32520300
_cell_angle_alpha   90.00000000
_cell_angle_beta   90.00000000
_cell_angle_gamma   120.00001721
_symmetry_Int_Tables_number   1
_chemical_formula_structural   TmTh2Sc(AsPt)4
_chemical_formula_sum   'Tm1 Th2 Sc1 As4 Pt4'
_cell_volume   243.81098099
_cell_formula_units_Z   1
loop_
 _symmetry_equiv_pos_site_id
 _symmetry_equiv_pos_as_xyz
  1  'x, y, z'
loop_
 _atom_site_type_symbol
 _atom_site_label
 _atom_site_symmetry_multiplicity
 _atom_site_fract_x
 _atom_site_fract_y
 _atom_site_fract_z
 _atom_site_occupancy
  Tm  Tm0  1  0.000000  0.000000  0.750000  1
  Th  Th1  1  0.000000  0.000000  0.496315  1
  Th  Th2  1  0.000000  0.000000  0.003685  1
  Sc  Sc3  1  0.000000  0.000000  0.250000  1
  As  As4  1  0.333333  0.666667  0.882917  1
  As  As5  1  0.666667  0.333333  0.121664  1
  As  As6  1  0.666667  0.333333  0.378336  1
  As  As7  1  0.333333  0.666667  0.617083  1
  Pt  Pt8  1  0.333333  0.666667  0.347149  1
  Pt  Pt9  1  0.666667  0.333333  0.643321  1
  Pt  Pt10  1  0.666667  0.333333  0.856679  1
  Pt  Pt11  1  0.333333  0.666667  0.152851  1
