# generated using pymatgen
data_Lu(NbRe6)4
_symmetry_space_group_name_H-M   'P 1'
_cell_length_a   8.44186601
_cell_length_b   8.44185434
_cell_length_c   8.44187100
_cell_angle_alpha   109.47125830
_cell_angle_beta   109.47147716
_cell_angle_gamma   109.47109828
_symmetry_Int_Tables_number   1
_chemical_formula_structural   Lu(NbRe6)4
_chemical_formula_sum   'Lu1 Nb4 Re24'
_cell_volume   463.11858393
_cell_formula_units_Z   1
loop_
 _symmetry_equiv_pos_site_id
 _symmetry_equiv_pos_as_xyz
  1  'x, y, z'
loop_
 _atom_site_type_symbol
 _atom_site_label
 _atom_site_symmetry_multiplicity
 _atom_site_fract_x
 _atom_site_fract_y
 _atom_site_fract_z
 _atom_site_occupancy
  Lu  Lu0  1  0.000000  0.000000  0.999998  1
  Nb  Nb1  1  0.369734  0.369736  0.369735  1
  Nb  Nb2  1  0.000002  0.630271  0.000001  1
  Nb  Nb3  1  0.630268  0.999999  0.999999  1
  Nb  Nb4  1  0.999998  0.999998  0.630264  1
  Re  Re5  1  0.999999  0.399497  0.681741  1
  Re  Re6  1  0.282242  0.600503  0.600502  1
  Re  Re7  1  0.717760  0.318260  0.318262  1
  Re  Re8  1  0.318263  0.717758  0.318259  1
  Re  Re9  1  0.681737  0.999998  0.399497  1
  Re  Re10  1  0.999997  0.681738  0.399495  1
  Re  Re11  1  0.600503  0.600503  0.282240  1
  Re  Re12  1  0.804795  0.804798  0.182107  1
  Re  Re13  1  0.377309  0.195203  0.000002  1
  Re  Re14  1  0.195201  0.377306  0.000001  1
  Re  Re15  1  0.622694  0.817894  0.622692  1
  Re  Re16  1  0.377306  0.999997  0.195199  1
  Re  Re17  1  0.000001  0.377307  0.195200  1
  Re  Re18  1  0.817893  0.622690  0.622691  1
  Re  Re19  1  0.182106  0.804798  0.804800  1
  Re  Re20  1  0.804797  0.182107  0.804798  1
  Re  Re21  1  0.195201  0.000000  0.377306  1
  Re  Re22  1  0.999996  0.195202  0.377305  1
  Re  Re23  1  0.622696  0.622694  0.817898  1
  Re  Re24  1  0.399499  0.999999  0.681740  1
  Re  Re25  1  0.600504  0.282242  0.600503  1
  Re  Re26  1  0.681741  0.399501  0.000003  1
  Re  Re27  1  0.399499  0.681739  0.000001  1
  Re  Re28  1  0.318259  0.318261  0.717760  1
