# generated using pymatgen
data_Y2SiP(Ru2C)2
_symmetry_space_group_name_H-M   'P 1'
_cell_length_a   5.86772694
_cell_length_b   5.86772600
_cell_length_c   7.11918400
_cell_angle_alpha   90.00000000
_cell_angle_beta   90.00000000
_cell_angle_gamma   142.23087205
_symmetry_Int_Tables_number   1
_chemical_formula_structural   Y2SiP(Ru2C)2
_chemical_formula_sum   'Y2 Si1 P1 Ru4 C2'
_cell_volume   150.12834989
_cell_formula_units_Z   1
loop_
 _symmetry_equiv_pos_site_id
 _symmetry_equiv_pos_as_xyz
  1  'x, y, z'
loop_
 _atom_site_type_symbol
 _atom_site_label
 _atom_site_symmetry_multiplicity
 _atom_site_fract_x
 _atom_site_fract_y
 _atom_site_fract_z
 _atom_site_occupancy
  Y  Y0  1  0.546190  0.453810  0.250000  1
  Y  Y1  1  0.453758  0.546242  0.750000  1
  Si  Si2  1  0.731801  0.268199  0.750000  1
  P  P3  1  0.267754  0.732246  0.250000  1
  Ru  Ru4  1  0.835697  0.164303  0.059001  1
  Ru  Ru5  1  0.165007  0.834993  0.948091  1
  Ru  Ru6  1  0.165007  0.834993  0.551909  1
  Ru  Ru7  1  0.835697  0.164303  0.440999  1
  C  C8  1  0.999545  0.000455  0.998643  1
  C  C9  1  0.999545  0.000455  0.501357  1
