# generated using pymatgen
data_Eu2DyHoH9
_symmetry_space_group_name_H-M   'P 1'
_cell_length_a   6.59408343
_cell_length_b   6.59408426
_cell_length_c   6.59408400
_cell_angle_alpha   132.10806193
_cell_angle_beta   132.10806844
_cell_angle_gamma   70.05840367
_symmetry_Int_Tables_number   1
_chemical_formula_structural   Eu2DyHoH9
_chemical_formula_sum   'Eu2 Dy1 Ho1 H9'
_cell_volume   154.70962434
_cell_formula_units_Z   1
loop_
 _symmetry_equiv_pos_site_id
 _symmetry_equiv_pos_as_xyz
  1  'x, y, z'
loop_
 _atom_site_type_symbol
 _atom_site_label
 _atom_site_symmetry_multiplicity
 _atom_site_fract_x
 _atom_site_fract_y
 _atom_site_fract_z
 _atom_site_occupancy
  Eu  Eu0  1  0.500185  0.000185  0.500000  1
  Eu  Eu1  1  0.000185  0.500185  0.500000  1
  Dy  Dy2  1  0.263663  0.263663  0.000000  1
  Ho  Ho3  1  0.736525  0.736525  0.000000  1
  H  H4  1  0.899052  0.376542  0.000000  1
  H  H5  1  0.376542  0.899052  0.000000  1
  H  H6  1  0.625665  0.098684  0.000000  1
  H  H7  1  0.098684  0.098684  0.473020  1
  H  H8  1  0.376542  0.376542  0.477489  1
  H  H9  1  0.499555  0.499555  0.000000  1
  H  H10  1  0.098684  0.625665  0.000000  1
  H  H11  1  0.625665  0.625665  0.526980  1
  H  H12  1  0.899052  0.899052  0.522511  1
