# generated using pymatgen
data_Tm4Sc4Pt3Rh
_symmetry_space_group_name_H-M   'P 1'
_cell_length_a   4.54366600
_cell_length_b   6.95135956
_cell_length_c   8.37601409
_cell_angle_alpha   90.10312286
_cell_angle_beta   90.00000000
_cell_angle_gamma   90.00000000
_symmetry_Int_Tables_number   1
_chemical_formula_structural   Tm4Sc4Pt3Rh
_chemical_formula_sum   'Tm4 Sc4 Pt3 Rh1'
_cell_volume   264.55309600
_cell_formula_units_Z   1
loop_
 _symmetry_equiv_pos_site_id
 _symmetry_equiv_pos_as_xyz
  1  'x, y, z'
loop_
 _atom_site_type_symbol
 _atom_site_label
 _atom_site_symmetry_multiplicity
 _atom_site_fract_x
 _atom_site_fract_y
 _atom_site_fract_z
 _atom_site_occupancy
  Tm  Tm0  1  0.250000  0.980248  0.327294  1
  Tm  Tm1  1  0.750000  0.518347  0.826160  1
  Tm  Tm2  1  0.250000  0.480228  0.174760  1
  Tm  Tm3  1  0.750000  0.019174  0.673838  1
  Sc  Sc4  1  0.750000  0.642109  0.429398  1
  Sc  Sc5  1  0.750000  0.140509  0.071712  1
  Sc  Sc6  1  0.250000  0.361063  0.573453  1
  Sc  Sc7  1  0.250000  0.857636  0.927963  1
  Pt  Pt8  1  0.750000  0.750685  0.103372  1
  Pt  Pt9  1  0.750000  0.253556  0.397132  1
  Pt  Pt10  1  0.250000  0.247081  0.897288  1
  Rh  Rh11  1  0.250000  0.749365  0.597629  1
