# generated using pymatgen
data_Pu2Al4Ga3Si
_symmetry_space_group_name_H-M   'P 1'
_cell_length_a   7.78121283
_cell_length_b   7.80154721
_cell_length_c   7.80154821
_cell_angle_alpha   148.14281750
_cell_angle_beta   133.22486559
_cell_angle_gamma   57.73498283
_symmetry_Int_Tables_number   1
_chemical_formula_structural   Pu2Al4Ga3Si
_chemical_formula_sum   'Pu2 Al4 Ga3 Si1'
_cell_volume   180.72719007
_cell_formula_units_Z   1
loop_
 _symmetry_equiv_pos_site_id
 _symmetry_equiv_pos_as_xyz
  1  'x, y, z'
loop_
 _atom_site_type_symbol
 _atom_site_label
 _atom_site_symmetry_multiplicity
 _atom_site_fract_x
 _atom_site_fract_y
 _atom_site_fract_z
 _atom_site_occupancy
  Pu  Pu0  1  0.131061  0.883067  0.247994  1
  Pu  Pu1  1  0.864554  0.118395  0.746159  1
  Al  Al2  1  0.356783  0.104756  0.252027  1
  Al  Al3  1  0.645164  0.896180  0.748983  1
  Al  Al4  1  0.502447  0.501521  0.000926  1
  Al  Al5  1  0.995889  0.500519  0.495371  1
  Ga  Ga6  1  0.331656  0.302832  0.028824  1
  Ga  Ga7  1  0.768011  0.301490  0.466521  1
  Ga  Ga8  1  0.238792  0.696223  0.542569  1
  Si  Si9  1  0.665643  0.695016  0.970627  1
