# generated using pymatgen
data_Tb3Y3(Er2Sn3)2
_symmetry_space_group_name_H-M   'P 1'
_cell_length_a   8.96094224
_cell_length_b   8.96773480
_cell_length_c   6.52324300
_cell_angle_alpha   90.00016647
_cell_angle_beta   89.99966687
_cell_angle_gamma   120.00124283
_symmetry_Int_Tables_number   1
_chemical_formula_structural   Tb3Y3(Er2Sn3)2
_chemical_formula_sum   'Tb3 Y3 Er4 Sn6'
_cell_volume   453.96794048
_cell_formula_units_Z   1
loop_
 _symmetry_equiv_pos_site_id
 _symmetry_equiv_pos_as_xyz
  1  'x, y, z'
loop_
 _atom_site_type_symbol
 _atom_site_label
 _atom_site_symmetry_multiplicity
 _atom_site_fract_x
 _atom_site_fract_y
 _atom_site_fract_z
 _atom_site_occupancy
  Tb  Tb0  1  0.760922  0.999974  0.750000  1
  Tb  Tb1  1  0.239189  0.239151  0.750000  1
  Tb  Tb2  1  0.239112  0.000015  0.249999  1
  Y  Y3  1  0.999988  0.760690  0.750007  1
  Y  Y4  1  0.999954  0.239300  0.249993  1
  Y  Y5  1  0.760812  0.760843  0.250005  1
  Er  Er6  1  0.333302  0.666638  0.499978  1
  Er  Er7  1  0.666721  0.333391  0.000022  1
  Er  Er8  1  0.666723  0.333392  0.499976  1
  Er  Er9  1  0.333303  0.666638  0.000022  1
  Sn  Sn10  1  0.395979  0.999872  0.749999  1
  Sn  Sn11  1  0.396089  0.396223  0.250000  1
  Sn  Sn12  1  0.999854  0.603672  0.250002  1
  Sn  Sn13  1  0.999997  0.396381  0.749999  1
  Sn  Sn14  1  0.603955  0.603814  0.750000  1
  Sn  Sn15  1  0.604100  0.000005  0.250000  1
