# generated using pymatgen
data_LiTb14Lu2In3Rh4
_symmetry_space_group_name_H-M   'P 1'
_cell_length_a   9.67256506
_cell_length_b   9.65640405
_cell_length_c   9.65640451
_cell_angle_alpha   59.98996656
_cell_angle_beta   59.93981359
_cell_angle_gamma   59.93980563
_symmetry_Int_Tables_number   1
_chemical_formula_structural   LiTb14Lu2In3Rh4
_chemical_formula_sum   'Li1 Tb14 Lu2 In3 Rh4'
_cell_volume   637.13131028
_cell_formula_units_Z   1
loop_
 _symmetry_equiv_pos_site_id
 _symmetry_equiv_pos_as_xyz
  1  'x, y, z'
loop_
 _atom_site_type_symbol
 _atom_site_label
 _atom_site_symmetry_multiplicity
 _atom_site_fract_x
 _atom_site_fract_y
 _atom_site_fract_z
 _atom_site_occupancy
  Li  Li0  1  0.427908  0.428051  0.428051  1
  Tb  Tb1  1  0.185910  0.187251  0.812765  1
  Tb  Tb2  1  0.651246  0.048664  0.650537  1
  Tb  Tb3  1  0.061482  0.063047  0.438564  1
  Tb  Tb4  1  0.438094  0.435844  0.062714  1
  Tb  Tb5  1  0.650940  0.649162  0.649162  1
  Tb  Tb6  1  0.812975  0.185747  0.185747  1
  Tb  Tb7  1  0.188159  0.810437  0.810437  1
  Tb  Tb8  1  0.047380  0.650786  0.650786  1
  Tb  Tb9  1  0.439959  0.061646  0.061646  1
  Tb  Tb10  1  0.438094  0.062714  0.435844  1
  Tb  Tb11  1  0.061482  0.438564  0.063047  1
  Tb  Tb12  1  0.651246  0.650537  0.048664  1
  Tb  Tb13  1  0.185910  0.812765  0.187251  1
  Tb  Tb14  1  0.061949  0.436682  0.436682  1
  Lu  Lu15  1  0.809156  0.810545  0.189206  1
  Lu  Lu16  1  0.809156  0.189206  0.810545  1
  In  In17  1  0.417930  0.417451  0.745204  1
  In  In18  1  0.417930  0.745204  0.417451  1
  In  In19  1  0.745358  0.417663  0.417663  1
  Rh  Rh20  1  0.857248  0.424799  0.856877  1
  Rh  Rh21  1  0.856310  0.858917  0.858917  1
  Rh  Rh22  1  0.857248  0.856877  0.424799  1
  Rh  Rh23  1  0.426930  0.857441  0.857441  1
