# generated using pymatgen
data_LaPr2Tl3Pd2Rh
_symmetry_space_group_name_H-M   'P 1'
_cell_length_a   7.80004600
_cell_length_b   7.82112597
_cell_length_c   4.02418800
_cell_angle_alpha   90.00000000
_cell_angle_beta   90.00000000
_cell_angle_gamma   119.47156558
_symmetry_Int_Tables_number   1
_chemical_formula_structural   LaPr2Tl3Pd2Rh
_chemical_formula_sum   'La1 Pr2 Tl3 Pd2 Rh1'
_cell_volume   213.72894995
_cell_formula_units_Z   1
loop_
 _symmetry_equiv_pos_site_id
 _symmetry_equiv_pos_as_xyz
  1  'x, y, z'
loop_
 _atom_site_type_symbol
 _atom_site_label
 _atom_site_symmetry_multiplicity
 _atom_site_fract_x
 _atom_site_fract_y
 _atom_site_fract_z
 _atom_site_occupancy
  La  La0  1  0.414938  0.401204  0.500000  1
  Pr  Pr1  1  0.599607  0.010269  0.500000  1
  Pr  Pr2  1  0.989460  0.588334  0.500000  1
  Tl  Tl3  1  0.740930  0.743656  0.000000  1
  Tl  Tl4  1  0.259585  0.994467  0.000000  1
  Tl  Tl5  1  0.000022  0.262496  0.000000  1
  Pd  Pd6  1  0.333147  0.663460  0.000000  1
  Pd  Pd7  1  0.002108  0.001917  0.500000  1
  Rh  Rh8  1  0.660205  0.334199  0.000000  1
