# generated using pymatgen
data_Tb3Er5(InPt)2
_symmetry_space_group_name_H-M   'P 1'
_cell_length_a   9.68446996
_cell_length_b   9.68446928
_cell_length_c   9.68447000
_cell_angle_alpha   59.99999754
_cell_angle_beta   59.99999988
_cell_angle_gamma   60.00000152
_symmetry_Int_Tables_number   1
_chemical_formula_structural   Tb3Er5(InPt)2
_chemical_formula_sum   'Tb6 Er10 In4 Pt4'
_cell_volume   642.26246109
_cell_formula_units_Z   2
loop_
 _symmetry_equiv_pos_site_id
 _symmetry_equiv_pos_as_xyz
  1  'x, y, z'
loop_
 _atom_site_type_symbol
 _atom_site_label
 _atom_site_symmetry_multiplicity
 _atom_site_fract_x
 _atom_site_fract_y
 _atom_site_fract_z
 _atom_site_occupancy
  Tb  Tb0  1  0.938209  0.561791  0.561791  1
  Tb  Tb1  1  0.561791  0.938209  0.938209  1
  Tb  Tb2  1  0.561791  0.938209  0.561791  1
  Tb  Tb3  1  0.938209  0.561791  0.938209  1
  Tb  Tb4  1  0.561791  0.561791  0.938209  1
  Tb  Tb5  1  0.938209  0.938209  0.561791  1
  Er  Er6  1  0.350593  0.350593  0.350593  1
  Er  Er7  1  0.350593  0.350593  0.948220  1
  Er  Er8  1  0.350593  0.948220  0.350593  1
  Er  Er9  1  0.948220  0.350593  0.350593  1
  Er  Er10  1  0.811088  0.188912  0.188912  1
  Er  Er11  1  0.188912  0.811088  0.811088  1
  Er  Er12  1  0.188912  0.811088  0.188912  1
  Er  Er13  1  0.811088  0.188912  0.811088  1
  Er  Er14  1  0.188912  0.188912  0.811088  1
  Er  Er15  1  0.811088  0.811088  0.188912  1
  In  In16  1  0.582367  0.582367  0.582367  1
  In  In17  1  0.582367  0.582367  0.252898  1
  In  In18  1  0.582367  0.252898  0.582367  1
  In  In19  1  0.252898  0.582367  0.582367  1
  Pt  Pt20  1  0.142941  0.142941  0.142941  1
  Pt  Pt21  1  0.142941  0.142941  0.571177  1
  Pt  Pt22  1  0.142941  0.571177  0.142941  1
  Pt  Pt23  1  0.571177  0.142941  0.142941  1
