# generated using pymatgen
data_Ba2ScFe3(P2O7)4
_symmetry_space_group_name_H-M   'P 1'
_cell_length_a   7.61661684
_cell_length_b   9.21965516
_cell_length_c   9.70221010
_cell_angle_alpha   64.75190186
_cell_angle_beta   100.93072096
_cell_angle_gamma   100.76260777
_symmetry_Int_Tables_number   1
_chemical_formula_structural   Ba2ScFe3(P2O7)4
_chemical_formula_sum   'Ba2 Sc1 Fe3 P8 O28'
_cell_volume   600.73367210
_cell_formula_units_Z   1
loop_
 _symmetry_equiv_pos_site_id
 _symmetry_equiv_pos_as_xyz
  1  'x, y, z'
loop_
 _atom_site_type_symbol
 _atom_site_label
 _atom_site_symmetry_multiplicity
 _atom_site_fract_x
 _atom_site_fract_y
 _atom_site_fract_z
 _atom_site_occupancy
  Ba  Ba0  1  0.998999  0.997919  0.002059  1
  Ba  Ba1  1  0.499559  0.500707  0.498062  1
  Sc  Sc2  1  0.078865  0.456746  0.772521  1
  Fe  Fe3  1  0.917845  0.542049  0.228027  1
  Fe  Fe4  1  0.581533  0.957772  0.273069  1
  Fe  Fe5  1  0.419471  0.042984  0.727229  1
  P  P6  1  0.695202  0.214989  0.449771  1
  P  P7  1  0.196038  0.718700  0.952632  1
  P  P8  1  0.802980  0.281897  0.054175  1
  P  P9  1  0.306140  0.787885  0.547095  1
  P  P10  1  0.424033  0.232657  0.956544  1
  P  P11  1  0.921021  0.739606  0.449592  1
  P  P12  1  0.077307  0.260036  0.544375  1
  P  P13  1  0.578099  0.763676  0.046274  1
  O  O14  1  0.591774  0.121556  0.358559  1
  O  O15  1  0.092951  0.625687  0.861036  1
  O  O16  1  0.905943  0.379192  0.142076  1
  O  O17  1  0.405334  0.882513  0.638715  1
  O  O18  1  0.613954  0.185474  0.594492  1
  O  O19  1  0.113688  0.686982  0.097282  1
  O  O20  1  0.882727  0.310380  0.909672  1
  O  O21  1  0.387060  0.819305  0.402023  1
  O  O22  1  0.716792  0.400835  0.356876  1
  O  O23  1  0.218634  0.904085  0.859109  1
  O  O24  1  0.784315  0.096891  0.148192  1
  O  O25  1  0.289126  0.603032  0.640651  1
  O  O26  1  0.895542  0.157786  0.500407  1
  O  O27  1  0.395840  0.660577  0.003956  1
  O  O28  1  0.602943  0.338021  0.000480  1
  O  O29  1  0.103437  0.840251  0.495611  1
  O  O30  1  0.766635  0.831974  0.433616  1
  O  O31  1  0.267583  0.322455  0.940307  1
  O  O32  1  0.734557  0.672395  0.063681  1
  O  O33  1  0.236117  0.171867  0.561000  1
  O  O34  1  0.053114  0.267554  0.694424  1
  O  O35  1  0.554996  0.774030  0.195625  1
  O  O36  1  0.447724  0.224587  0.806029  1
  O  O37  1  0.946380  0.728793  0.300980  1
  O  O38  1  0.401193  0.065976  0.091094  1
  O  O39  1  0.893058  0.572584  0.582502  1
  O  O40  1  0.099793  0.428128  0.410320  1
  O  O41  1  0.601696  0.929469  0.909867  1
