# generated using pymatgen
data_Th3U(NiAs)4
_symmetry_space_group_name_H-M   'P 1'
_cell_length_a   4.07546600
_cell_length_b   4.07546642
_cell_length_c   16.02491900
_cell_angle_alpha   90.00000000
_cell_angle_beta   90.00000000
_cell_angle_gamma   120.00001280
_symmetry_Int_Tables_number   1
_chemical_formula_structural   Th3U(NiAs)4
_chemical_formula_sum   'Th3 U1 Ni4 As4'
_cell_volume   230.50535146
_cell_formula_units_Z   1
loop_
 _symmetry_equiv_pos_site_id
 _symmetry_equiv_pos_as_xyz
  1  'x, y, z'
loop_
 _atom_site_type_symbol
 _atom_site_label
 _atom_site_symmetry_multiplicity
 _atom_site_fract_x
 _atom_site_fract_y
 _atom_site_fract_z
 _atom_site_occupancy
  Th  Th0  1  0.000000  0.000000  0.253704  1
  Th  Th1  1  0.000000  0.000000  0.746296  1
  Th  Th2  1  0.000000  0.000000  0.000000  1
  U  U3  1  0.000000  0.000000  0.500000  1
  Ni  Ni4  1  0.333333  0.666667  0.127859  1
  Ni  Ni5  1  0.666667  0.333333  0.872141  1
  Ni  Ni6  1  0.666667  0.333333  0.603367  1
  Ni  Ni7  1  0.333333  0.666667  0.396633  1
  As  As8  1  0.333333  0.666667  0.622962  1
  As  As9  1  0.666667  0.333333  0.377038  1
  As  As10  1  0.666667  0.333333  0.127167  1
  As  As11  1  0.333333  0.666667  0.872833  1
