# generated using pymatgen
data_Dy2Si6GeRh12
_symmetry_space_group_name_H-M   'P 1'
_cell_length_a   9.79353900
_cell_length_b   9.79354049
_cell_length_c   3.85424400
_cell_angle_alpha   90.00000000
_cell_angle_beta   90.00000000
_cell_angle_gamma   119.99999834
_symmetry_Int_Tables_number   1
_chemical_formula_structural   Dy2Si6GeRh12
_chemical_formula_sum   'Dy2 Si6 Ge1 Rh12'
_cell_volume   320.14684355
_cell_formula_units_Z   1
loop_
 _symmetry_equiv_pos_site_id
 _symmetry_equiv_pos_as_xyz
  1  'x, y, z'
loop_
 _atom_site_type_symbol
 _atom_site_label
 _atom_site_symmetry_multiplicity
 _atom_site_fract_x
 _atom_site_fract_y
 _atom_site_fract_z
 _atom_site_occupancy
  Dy  Dy0  1  0.333333  0.666667  0.751394  1
  Dy  Dy1  1  0.666667  0.333333  0.251355  1
  Si  Si2  1  0.888034  0.598759  0.751641  1
  Si  Si3  1  0.401241  0.289276  0.751641  1
  Si  Si4  1  0.710724  0.111966  0.751641  1
  Si  Si5  1  0.111137  0.401490  0.250892  1
  Si  Si6  1  0.598510  0.709645  0.250892  1
  Si  Si7  1  0.290355  0.888863  0.250892  1
  Ge  Ge8  1  0.000000  0.000000  0.577695  1
  Rh  Rh9  1  0.619716  0.554858  0.752012  1
  Rh  Rh10  1  0.445142  0.064858  0.752012  1
  Rh  Rh11  1  0.935142  0.380284  0.752012  1
  Rh  Rh12  1  0.383274  0.444672  0.250097  1
  Rh  Rh13  1  0.555328  0.938602  0.250097  1
  Rh  Rh14  1  0.061398  0.616726  0.250097  1
  Rh  Rh15  1  0.123774  0.849903  0.749951  1
  Rh  Rh16  1  0.150097  0.273871  0.749951  1
  Rh  Rh17  1  0.726129  0.876226  0.749951  1
  Rh  Rh18  1  0.881502  0.143613  0.253353  1
  Rh  Rh19  1  0.856387  0.737890  0.253353  1
  Rh  Rh20  1  0.262110  0.118498  0.253353  1
