# generated using pymatgen
data_Ho3Er13(CdCu)4
_symmetry_space_group_name_H-M   'P 1'
_cell_length_a   9.56114198
_cell_length_b   9.55739158
_cell_length_c   9.55739100
_cell_angle_alpha   59.99999855
_cell_angle_beta   60.01297337
_cell_angle_gamma   60.01297351
_symmetry_Int_Tables_number   1
_chemical_formula_structural   Ho3Er13(CdCu)4
_chemical_formula_sum   'Ho3 Er13 Cd4 Cu4'
_cell_volume   617.67302195
_cell_formula_units_Z   1
loop_
 _symmetry_equiv_pos_site_id
 _symmetry_equiv_pos_as_xyz
  1  'x, y, z'
loop_
 _atom_site_type_symbol
 _atom_site_label
 _atom_site_symmetry_multiplicity
 _atom_site_fract_x
 _atom_site_fract_y
 _atom_site_fract_z
 _atom_site_occupancy
  Ho  Ho0  1  0.352038  0.352388  0.352388  1
  Ho  Ho1  1  0.352038  0.352388  0.943187  1
  Ho  Ho2  1  0.352038  0.943187  0.352388  1
  Er  Er3  1  0.943285  0.352239  0.352239  1
  Er  Er4  1  0.812664  0.187530  0.187530  1
  Er  Er5  1  0.187651  0.812589  0.812589  1
  Er  Er6  1  0.187651  0.812589  0.187171  1
  Er  Er7  1  0.812664  0.187530  0.812275  1
  Er  Er8  1  0.187651  0.187171  0.812589  1
  Er  Er9  1  0.812664  0.812275  0.187530  1
  Er  Er10  1  0.934563  0.565497  0.565497  1
  Er  Er11  1  0.565435  0.934491  0.934491  1
  Er  Er12  1  0.565435  0.934491  0.565583  1
  Er  Er13  1  0.934563  0.565497  0.934444  1
  Er  Er14  1  0.565435  0.565583  0.934491  1
  Er  Er15  1  0.934563  0.934444  0.565497  1
  Cd  Cd16  1  0.582480  0.581399  0.581399  1
  Cd  Cd17  1  0.582480  0.581399  0.254722  1
  Cd  Cd18  1  0.582480  0.254722  0.581399  1
  Cd  Cd19  1  0.255069  0.581644  0.581644  1
  Cu  Cu20  1  0.143062  0.144683  0.144683  1
  Cu  Cu21  1  0.143062  0.144683  0.567572  1
  Cu  Cu22  1  0.143062  0.567572  0.144683  1
  Cu  Cu23  1  0.567968  0.144011  0.144011  1
