# generated using pymatgen
data_Ca4DySi12Ir19
_symmetry_space_group_name_H-M   'P 1'
_cell_length_a   12.82370200
_cell_length_b   12.82370226
_cell_length_c   4.01503000
_cell_angle_alpha   90.00000000
_cell_angle_beta   90.00000000
_cell_angle_gamma   119.99999934
_symmetry_Int_Tables_number   1
_chemical_formula_structural   Ca4DySi12Ir19
_chemical_formula_sum   'Ca4 Dy1 Si12 Ir19'
_cell_volume   571.80279310
_cell_formula_units_Z   1
loop_
 _symmetry_equiv_pos_site_id
 _symmetry_equiv_pos_as_xyz
  1  'x, y, z'
loop_
 _atom_site_type_symbol
 _atom_site_label
 _atom_site_symmetry_multiplicity
 _atom_site_fract_x
 _atom_site_fract_y
 _atom_site_fract_z
 _atom_site_occupancy
  Ca  Ca0  1  0.333333  0.666667  0.500000  1
  Ca  Ca1  1  0.999886  0.817747  0.000000  1
  Ca  Ca2  1  0.182253  0.182139  0.000000  1
  Ca  Ca3  1  0.817861  0.000114  0.000000  1
  Dy  Dy4  1  0.666667  0.333333  0.500000  1
  Si  Si5  1  0.000846  0.631951  0.500000  1
  Si  Si6  1  0.368049  0.368896  0.500000  1
  Si  Si7  1  0.631104  0.999154  0.500000  1
  Si  Si8  1  0.519593  0.687945  0.000000  1
  Si  Si9  1  0.312055  0.831648  0.000000  1
  Si  Si10  1  0.168352  0.480407  0.000000  1
  Si  Si11  1  0.479289  0.167856  0.000000  1
  Si  Si12  1  0.688567  0.520711  0.000000  1
  Si  Si13  1  0.832144  0.311433  0.000000  1
  Si  Si14  1  0.000280  0.182908  0.500000  1
  Si  Si15  1  0.817092  0.817372  0.500000  1
  Si  Si16  1  0.182628  0.999720  0.500000  1
  Ir  Ir17  1  0.514022  0.875614  0.000000  1
  Ir  Ir18  1  0.124386  0.638408  0.000000  1
  Ir  Ir19  1  0.361592  0.485978  0.000000  1
  Ir  Ir20  1  0.489382  0.361571  0.000000  1
  Ir  Ir21  1  0.872190  0.510618  0.000000  1
  Ir  Ir22  1  0.638429  0.127810  0.000000  1
  Ir  Ir23  1  0.998473  0.446966  0.500000  1
  Ir  Ir24  1  0.553034  0.551507  0.500000  1
  Ir  Ir25  1  0.448493  0.001527  0.500000  1
  Ir  Ir26  1  0.999979  0.283661  0.000000  1
  Ir  Ir27  1  0.716339  0.716318  0.000000  1
  Ir  Ir28  1  0.283682  0.000021  0.000000  1
  Ir  Ir29  1  0.621217  0.804529  0.500000  1
  Ir  Ir30  1  0.195471  0.816687  0.500000  1
  Ir  Ir31  1  0.183313  0.378783  0.500000  1
  Ir  Ir32  1  0.379061  0.184395  0.500000  1
  Ir  Ir33  1  0.805333  0.620939  0.500000  1
  Ir  Ir34  1  0.815605  0.194667  0.500000  1
  Ir  Ir35  1  0.000000  0.000000  0.500000  1
