# generated using pymatgen
data_La5Nd3Cd2TcIr
_symmetry_space_group_name_H-M   'P 1'
_cell_length_a   10.07943851
_cell_length_b   10.07943789
_cell_length_c   10.11027700
_cell_angle_alpha   59.89873406
_cell_angle_beta   59.89873608
_cell_angle_gamma   59.69173731
_symmetry_Int_Tables_number   1
_chemical_formula_structural   La5Nd3Cd2TcIr
_chemical_formula_sum   'La10 Nd6 Cd4 Tc2 Ir2'
_cell_volume   723.49471830
_cell_formula_units_Z   2
loop_
 _symmetry_equiv_pos_site_id
 _symmetry_equiv_pos_as_xyz
  1  'x, y, z'
loop_
 _atom_site_type_symbol
 _atom_site_label
 _atom_site_symmetry_multiplicity
 _atom_site_fract_x
 _atom_site_fract_y
 _atom_site_fract_z
 _atom_site_occupancy
  La  La0  1  0.345342  0.345342  0.346742  1
  La  La1  1  0.345342  0.345342  0.962575  1
  La  La2  1  0.343934  0.963462  0.346302  1
  La  La3  1  0.963462  0.343934  0.346302  1
  La  La4  1  0.814948  0.191297  0.187914  1
  La  La5  1  0.191297  0.814948  0.805841  1
  La  La6  1  0.191297  0.814948  0.187914  1
  La  La7  1  0.814948  0.191297  0.805841  1
  La  La8  1  0.190617  0.190617  0.809383  1
  La  La9  1  0.809730  0.809730  0.190270  1
  Nd  Nd10  1  0.934632  0.565452  0.564580  1
  Nd  Nd11  1  0.565452  0.934632  0.935337  1
  Nd  Nd12  1  0.565452  0.934632  0.564580  1
  Nd  Nd13  1  0.934632  0.565452  0.935337  1
  Nd  Nd14  1  0.566295  0.566295  0.933705  1
  Nd  Nd15  1  0.939763  0.939763  0.560237  1
  Cd  Cd16  1  0.580383  0.580383  0.579295  1
  Cd  Cd17  1  0.580383  0.580383  0.259938  1
  Cd  Cd18  1  0.578463  0.260959  0.580289  1
  Cd  Cd19  1  0.260959  0.578463  0.580289  1
  Tc  Tc20  1  0.130178  0.130178  0.137710  1
  Tc  Tc21  1  0.130178  0.130178  0.601934  1
  Ir  Ir22  1  0.140670  0.581644  0.138842  1
  Ir  Ir23  1  0.581644  0.140670  0.138842  1
