# generated using pymatgen
data_YbY14Ho5TlCd5Ru2
_symmetry_space_group_name_H-M   'P 1'
_cell_length_a   9.65281063
_cell_length_b   9.65089492
_cell_length_c   9.84376900
_cell_angle_alpha   90.00000000
_cell_angle_beta   89.91497167
_cell_angle_gamma   119.99343443
_symmetry_Int_Tables_number   1
_chemical_formula_structural   YbY14Ho5TlCd5Ru2
_chemical_formula_sum   'Yb1 Y14 Ho5 Tl1 Cd5 Ru2'
_cell_volume   794.22126275
_cell_formula_units_Z   1
loop_
 _symmetry_equiv_pos_site_id
 _symmetry_equiv_pos_as_xyz
  1  'x, y, z'
loop_
 _atom_site_type_symbol
 _atom_site_label
 _atom_site_symmetry_multiplicity
 _atom_site_fract_x
 _atom_site_fract_y
 _atom_site_fract_z
 _atom_site_occupancy
  Yb  Yb0  1  0.999624  0.999140  0.500950  1
  Y  Y1  1  0.001095  0.999076  0.998826  1
  Y  Y2  1  0.420726  0.210490  0.560472  1
  Y  Y3  1  0.790173  0.209756  0.939730  1
  Y  Y4  1  0.789888  0.580665  0.939938  1
  Y  Y5  1  0.419974  0.210294  0.940186  1
  Y  Y6  1  0.209855  0.789995  0.060300  1
  Y  Y7  1  0.209443  0.419358  0.060066  1
  Y  Y8  1  0.580914  0.790596  0.060065  1
  Y  Y9  1  0.540619  0.459774  0.252475  1
  Y  Y10  1  0.539085  0.082175  0.252418  1
  Y  Y11  1  0.917319  0.460958  0.252913  1
  Y  Y12  1  0.458216  0.542054  0.747451  1
  Y  Y13  1  0.458926  0.917054  0.747472  1
  Y  Y14  1  0.081993  0.540783  0.747241  1
  Ho  Ho15  1  0.210517  0.788615  0.438906  1
  Ho  Ho16  1  0.210498  0.421337  0.438944  1
  Ho  Ho17  1  0.578464  0.788959  0.439078  1
  Ho  Ho18  1  0.789518  0.210903  0.560875  1
  Ho  Ho19  1  0.789210  0.578299  0.561288  1
  Tl  Tl20  1  0.883939  0.116091  0.250099  1
  Cd  Cd21  1  0.885449  0.768420  0.250315  1
  Cd  Cd22  1  0.231622  0.114545  0.250312  1
  Cd  Cd23  1  0.114873  0.885203  0.749604  1
  Cd  Cd24  1  0.114730  0.229927  0.749584  1
  Cd  Cd25  1  0.770107  0.885279  0.749753  1
  Ru  Ru26  1  0.334136  0.666027  0.252622  1
  Ru  Ru27  1  0.669086  0.334228  0.748114  1
