# generated using pymatgen
data_HoLu2GaNi8
_symmetry_space_group_name_H-M   'P 1'
_cell_length_a   4.99392500
_cell_length_b   4.99392582
_cell_length_c   15.91794300
_cell_angle_alpha   90.00000000
_cell_angle_beta   90.00000000
_cell_angle_gamma   120.00001441
_symmetry_Int_Tables_number   1
_chemical_formula_structural   HoLu2GaNi8
_chemical_formula_sum   'Ho2 Lu4 Ga2 Ni16'
_cell_volume   343.79663131
_cell_formula_units_Z   2
loop_
 _symmetry_equiv_pos_site_id
 _symmetry_equiv_pos_as_xyz
  1  'x, y, z'
loop_
 _atom_site_type_symbol
 _atom_site_label
 _atom_site_symmetry_multiplicity
 _atom_site_fract_x
 _atom_site_fract_y
 _atom_site_fract_z
 _atom_site_occupancy
  Ho  Ho0  1  0.333333  0.666667  0.750000  1
  Ho  Ho1  1  0.666667  0.333333  0.250000  1
  Lu  Lu2  1  0.333333  0.666667  0.959813  1
  Lu  Lu3  1  0.666667  0.333333  0.040187  1
  Lu  Lu4  1  0.666667  0.333333  0.459813  1
  Lu  Lu5  1  0.333333  0.666667  0.540187  1
  Ga  Ga6  1  0.333333  0.666667  0.250000  1
  Ga  Ga7  1  0.666667  0.333333  0.750000  1
  Ni  Ni8  1  0.166147  0.833853  0.375247  1
  Ni  Ni9  1  0.166147  0.332296  0.375247  1
  Ni  Ni10  1  0.667704  0.833853  0.375247  1
  Ni  Ni11  1  0.833853  0.166147  0.624753  1
  Ni  Ni12  1  0.833853  0.667704  0.624753  1
  Ni  Ni13  1  0.332296  0.166147  0.624753  1
  Ni  Ni14  1  0.833853  0.166147  0.875247  1
  Ni  Ni15  1  0.833853  0.667704  0.875247  1
  Ni  Ni16  1  0.332296  0.166147  0.875247  1
  Ni  Ni17  1  0.166147  0.833853  0.124753  1
  Ni  Ni18  1  0.166147  0.332296  0.124753  1
  Ni  Ni19  1  0.667704  0.833853  0.124753  1
  Ni  Ni20  1  0.000000  0.000000  0.250000  1
  Ni  Ni21  1  0.000000  0.000000  0.750000  1
  Ni  Ni22  1  0.000000  0.000000  0.500000  1
  Ni  Ni23  1  0.000000  0.000000  0.000000  1
