# generated using pymatgen
data_La7Pr3Sn20Ir3Pd5
_symmetry_space_group_name_H-M   'P 1'
_cell_length_a   14.33543734
_cell_length_b   14.33763300
_cell_length_c   4.72305800
_cell_angle_alpha   90.00000000
_cell_angle_beta   90.00000000
_cell_angle_gamma   90.01184658
_symmetry_Int_Tables_number   1
_chemical_formula_structural   La7Pr3Sn20Ir3Pd5
_chemical_formula_sum   'La7 Pr3 Sn20 Ir3 Pd5'
_cell_volume   970.75955920
_cell_formula_units_Z   1
loop_
 _symmetry_equiv_pos_site_id
 _symmetry_equiv_pos_as_xyz
  1  'x, y, z'
loop_
 _atom_site_type_symbol
 _atom_site_label
 _atom_site_symmetry_multiplicity
 _atom_site_fract_x
 _atom_site_fract_y
 _atom_site_fract_z
 _atom_site_occupancy
  La  La0  1  0.500970  0.497912  0.000000  1
  La  La1  1  0.001020  0.999526  0.000000  1
  La  La2  1  0.822010  0.680764  0.500000  1
  La  La3  1  0.894613  0.390260  0.500000  1
  La  La4  1  0.105409  0.609086  0.500000  1
  La  La5  1  0.393992  0.109856  0.500000  1
  La  La6  1  0.607605  0.892589  0.500000  1
  Pr  Pr7  1  0.677045  0.182313  0.500000  1
  Pr  Pr8  1  0.318822  0.820323  0.500000  1
  Pr  Pr9  1  0.176831  0.318209  0.500000  1
  Sn  Sn10  1  0.568878  0.071724  0.000000  1
  Sn  Sn11  1  0.430701  0.932091  0.000000  1
  Sn  Sn12  1  0.069443  0.429505  0.000000  1
  Sn  Sn13  1  0.931648  0.569915  0.000000  1
  Sn  Sn14  1  0.651354  0.702379  0.000000  1
  Sn  Sn15  1  0.348701  0.294914  0.000000  1
  Sn  Sn16  1  0.149393  0.794831  0.000000  1
  Sn  Sn17  1  0.849595  0.204164  0.000000  1
  Sn  Sn18  1  0.298565  0.651174  0.000000  1
  Sn  Sn19  1  0.699974  0.348019  0.000000  1
  Sn  Sn20  1  0.199191  0.151286  0.000000  1
  Sn  Sn21  1  0.800534  0.849715  0.000000  1
  Sn  Sn22  1  0.665049  0.497243  0.500000  1
  Sn  Sn23  1  0.336116  0.498495  0.500000  1
  Sn  Sn24  1  0.163770  0.000104  0.500000  1
  Sn  Sn25  1  0.836537  0.002887  0.500000  1
  Sn  Sn26  1  0.501289  0.664040  0.500000  1
  Sn  Sn27  1  0.502664  0.336680  0.500000  1
  Sn  Sn28  1  0.003961  0.163046  0.500000  1
  Sn  Sn29  1  0.995842  0.836503  0.500000  1
  Ir  Ir30  1  0.533319  0.257056  0.000000  1
  Ir  Ir31  1  0.033429  0.244124  0.000000  1
  Ir  Ir32  1  0.965326  0.755774  0.000000  1
  Pd  Pd33  1  0.744239  0.532832  0.000000  1
  Pd  Pd34  1  0.256575  0.465974  0.000000  1
  Pd  Pd35  1  0.243162  0.965575  0.000000  1
  Pd  Pd36  1  0.755808  0.033730  0.000000  1
  Pd  Pd37  1  0.466618  0.745381  0.000000  1
