# generated using pymatgen
data_ThSc6MnI12
_symmetry_space_group_name_H-M   'P 1'
_cell_length_a   9.56261458
_cell_length_b   9.43007295
_cell_length_c   9.59390513
_cell_angle_alpha   107.21100737
_cell_angle_beta   107.59237773
_cell_angle_gamma   108.00715584
_symmetry_Int_Tables_number   1
_chemical_formula_structural   ThSc6MnI12
_chemical_formula_sum   'Th1 Sc6 Mn1 I12'
_cell_volume   708.27542376
_cell_formula_units_Z   1
loop_
 _symmetry_equiv_pos_site_id
 _symmetry_equiv_pos_as_xyz
  1  'x, y, z'
loop_
 _atom_site_type_symbol
 _atom_site_label
 _atom_site_symmetry_multiplicity
 _atom_site_fract_x
 _atom_site_fract_y
 _atom_site_fract_z
 _atom_site_occupancy
  Th  Th0  1  0.903876  0.711666  0.969146  1
  Sc  Sc1  1  0.973444  0.907525  0.712060  1
  Sc  Sc2  1  0.708964  0.968566  0.904824  1
  Sc  Sc3  1  0.088749  0.261397  0.027206  1
  Sc  Sc4  1  0.027907  0.097412  0.289851  1
  Sc  Sc5  1  0.292966  0.029640  0.095680  1
  Sc  Sc6  1  0.500774  0.503485  0.499636  1
  Mn  Mn7  1  0.992523  0.977496  0.998641  1
  I  I8  1  0.787406  0.317151  0.928754  1
  I  I9  1  0.929279  0.788473  0.328124  1
  I  I10  1  0.313644  0.933204  0.783709  1
  I  I11  1  0.245796  0.700577  0.084202  1
  I  I12  1  0.074860  0.226722  0.699730  1
  I  I13  1  0.691734  0.077387  0.217552  1
  I  I14  1  0.517610  0.613531  0.829789  1
  I  I15  1  0.839537  0.538405  0.595380  1
  I  I16  1  0.618286  0.848318  0.545579  1
  I  I17  1  0.452492  0.383114  0.157312  1
  I  I18  1  0.157211  0.455822  0.375224  1
  I  I19  1  0.382943  0.160110  0.457601  1
