# generated using pymatgen
data_CaFeSb12OsRu2
_symmetry_space_group_name_H-M   'P 1'
_cell_length_a   8.10528149
_cell_length_b   8.11634934
_cell_length_c   8.12224481
_cell_angle_alpha   109.38097174
_cell_angle_beta   109.43523028
_cell_angle_gamma   109.37310196
_symmetry_Int_Tables_number   1
_chemical_formula_structural   CaFeSb12OsRu2
_chemical_formula_sum   'Ca1 Fe1 Sb12 Os1 Ru2'
_cell_volume   412.45788660
_cell_formula_units_Z   1
loop_
 _symmetry_equiv_pos_site_id
 _symmetry_equiv_pos_as_xyz
  1  'x, y, z'
loop_
 _atom_site_type_symbol
 _atom_site_label
 _atom_site_symmetry_multiplicity
 _atom_site_fract_x
 _atom_site_fract_y
 _atom_site_fract_z
 _atom_site_occupancy
  Ca  Ca0  1  0.000000  0.000000  0.000000  1
  Fe  Fe1  1  0.500000  0.500000  0.500000  1
  Sb  Sb2  1  0.838637  0.660358  0.504442  1
  Sb  Sb3  1  0.161363  0.339642  0.495558  1
  Sb  Sb4  1  0.156695  0.660169  0.817912  1
  Sb  Sb5  1  0.843305  0.339831  0.182088  1
  Sb  Sb6  1  0.659994  0.504222  0.838048  1
  Sb  Sb7  1  0.340006  0.495778  0.161952  1
  Sb  Sb8  1  0.661624  0.817769  0.158060  1
  Sb  Sb9  1  0.338376  0.182231  0.841940  1
  Sb  Sb10  1  0.504239  0.838128  0.659312  1
  Sb  Sb11  1  0.495761  0.161872  0.340688  1
  Sb  Sb12  1  0.181761  0.842331  0.338785  1
  Sb  Sb13  1  0.818239  0.157669  0.661215  1
  Os  Os14  1  0.500000  0.000000  0.000000  1
  Ru  Ru15  1  0.000000  0.500000  0.000000  1
  Ru  Ru16  1  0.000000  0.000000  0.500000  1
