# generated using pymatgen
data_LuFe2SiC
_symmetry_space_group_name_H-M   'P 1'
_cell_length_a   5.50224113
_cell_length_b   5.50224160
_cell_length_c   6.67428100
_cell_angle_alpha   90.00000000
_cell_angle_beta   90.00000000
_cell_angle_gamma   140.88340977
_symmetry_Int_Tables_number   1
_chemical_formula_structural   LuFe2SiC
_chemical_formula_sum   'Lu2 Fe4 Si2 C2'
_cell_volume   127.48075470
_cell_formula_units_Z   2
loop_
 _symmetry_equiv_pos_site_id
 _symmetry_equiv_pos_as_xyz
  1  'x, y, z'
loop_
 _atom_site_type_symbol
 _atom_site_label
 _atom_site_symmetry_multiplicity
 _atom_site_fract_x
 _atom_site_fract_y
 _atom_site_fract_z
 _atom_site_occupancy
  Lu  Lu0  1  0.549301  0.450699  0.250000  1
  Lu  Lu1  1  0.450699  0.549301  0.750000  1
  Fe  Fe2  1  0.834698  0.165302  0.062048  1
  Fe  Fe3  1  0.165302  0.834698  0.937952  1
  Fe  Fe4  1  0.165302  0.834698  0.562048  1
  Fe  Fe5  1  0.834698  0.165302  0.437952  1
  Si  Si6  1  0.268662  0.731338  0.250000  1
  Si  Si7  1  0.731338  0.268662  0.750000  1
  C  C8  1  0.000000  0.000000  0.000000  1
  C  C9  1  0.000000  0.000000  0.500000  1
