# generated using pymatgen
data_Pr4TmGa3
_symmetry_space_group_name_H-M   'P 1'
_cell_length_a   7.83797400
_cell_length_b   7.83797400
_cell_length_c   14.69238900
_cell_angle_alpha   90.00000000
_cell_angle_beta   90.00000000
_cell_angle_gamma   90.00000000
_symmetry_Int_Tables_number   1
_chemical_formula_structural   Pr4TmGa3
_chemical_formula_sum   'Pr16 Tm4 Ga12'
_cell_volume   902.60982251
_cell_formula_units_Z   4
loop_
 _symmetry_equiv_pos_site_id
 _symmetry_equiv_pos_as_xyz
  1  'x, y, z'
loop_
 _atom_site_type_symbol
 _atom_site_label
 _atom_site_symmetry_multiplicity
 _atom_site_fract_x
 _atom_site_fract_y
 _atom_site_fract_z
 _atom_site_occupancy
  Pr  Pr0  1  0.815698  0.839484  0.603757  1
  Pr  Pr1  1  0.184302  0.839484  0.103757  1
  Pr  Pr2  1  0.160516  0.815698  0.396243  1
  Pr  Pr3  1  0.839484  0.184302  0.396243  1
  Pr  Pr4  1  0.684302  0.660516  0.396243  1
  Pr  Pr5  1  0.660516  0.315698  0.603757  1
  Pr  Pr6  1  0.339484  0.684302  0.603757  1
  Pr  Pr7  1  0.660516  0.684302  0.103757  1
  Pr  Pr8  1  0.684302  0.339484  0.896243  1
  Pr  Pr9  1  0.839484  0.815698  0.896243  1
  Pr  Pr10  1  0.315698  0.339484  0.396243  1
  Pr  Pr11  1  0.184302  0.160516  0.603757  1
  Pr  Pr12  1  0.815698  0.160516  0.103757  1
  Pr  Pr13  1  0.315698  0.660516  0.896243  1
  Pr  Pr14  1  0.339484  0.315698  0.103757  1
  Pr  Pr15  1  0.160516  0.184302  0.896243  1
  Tm  Tm16  1  0.000000  0.500000  0.722792  1
  Tm  Tm17  1  0.000000  0.500000  0.222792  1
  Tm  Tm18  1  0.500000  0.000000  0.277208  1
  Tm  Tm19  1  0.500000  0.000000  0.777208  1
  Ga  Ga20  1  0.621726  0.378274  0.250000  1
  Ga  Ga21  1  0.121726  0.878274  0.750000  1
  Ga  Ga22  1  0.378274  0.378274  0.750000  1
  Ga  Ga23  1  0.378274  0.621726  0.250000  1
  Ga  Ga24  1  0.878274  0.878274  0.250000  1
  Ga  Ga25  1  0.621726  0.621726  0.750000  1
  Ga  Ga26  1  0.000000  0.500000  0.512106  1
  Ga  Ga27  1  0.878274  0.121726  0.750000  1
  Ga  Ga28  1  0.500000  0.000000  0.487894  1
  Ga  Ga29  1  0.500000  0.000000  0.987894  1
  Ga  Ga30  1  0.121726  0.121726  0.250000  1
  Ga  Ga31  1  0.000000  0.500000  0.012106  1
