# generated using pymatgen
data_YbTm2Pa(Cu5Sn)4
_symmetry_space_group_name_H-M   'P 1'
_cell_length_a   5.00018400
_cell_length_b   8.20069410
_cell_length_c   10.53514921
_cell_angle_alpha   90.07067189
_cell_angle_beta   90.00000000
_cell_angle_gamma   90.00000000
_symmetry_Int_Tables_number   1
_chemical_formula_structural   YbTm2Pa(Cu5Sn)4
_chemical_formula_sum   'Yb1 Tm2 Pa1 Cu20 Sn4'
_cell_volume   431.99324810
_cell_formula_units_Z   1
loop_
 _symmetry_equiv_pos_site_id
 _symmetry_equiv_pos_as_xyz
  1  'x, y, z'
loop_
 _atom_site_type_symbol
 _atom_site_label
 _atom_site_symmetry_multiplicity
 _atom_site_fract_x
 _atom_site_fract_y
 _atom_site_fract_z
 _atom_site_occupancy
  Yb  Yb0  1  0.750000  0.250130  0.936998  1
  Tm  Tm1  1  0.750000  0.752087  0.562106  1
  Tm  Tm2  1  0.250000  0.247159  0.441155  1
  Pa  Pa3  1  0.250000  0.748781  0.059208  1
  Cu  Cu4  1  0.250000  0.819350  0.744483  1
  Cu  Cu5  1  0.750000  0.182966  0.260085  1
  Cu  Cu6  1  0.750000  0.682952  0.239738  1
  Cu  Cu7  1  0.250000  0.318679  0.756078  1
  Cu  Cu8  1  0.501122  0.570369  0.812941  1
  Cu  Cu9  1  0.497692  0.428751  0.187854  1
  Cu  Cu10  1  0.498901  0.930179  0.312714  1
  Cu  Cu11  1  0.002308  0.428751  0.187854  1
  Cu  Cu12  1  0.500563  0.071641  0.687206  1
  Cu  Cu13  1  0.998878  0.570369  0.812941  1
  Cu  Cu14  1  0.999437  0.071641  0.687206  1
  Cu  Cu15  1  0.001099  0.930179  0.312714  1
  Cu  Cu16  1  0.250000  0.914618  0.517184  1
  Cu  Cu17  1  0.750000  0.082414  0.484067  1
  Cu  Cu18  1  0.750000  0.575657  0.016265  1
  Cu  Cu19  1  0.250000  0.412448  0.981816  1
  Cu  Cu20  1  0.250000  0.563108  0.601853  1
  Cu  Cu21  1  0.750000  0.439337  0.397808  1
  Cu  Cu22  1  0.750000  0.940821  0.102274  1
  Cu  Cu23  1  0.250000  0.063699  0.897749  1
  Sn  Sn24  1  0.250000  0.637516  0.361068  1
  Sn  Sn25  1  0.750000  0.365622  0.638436  1
  Sn  Sn26  1  0.750000  0.863922  0.860433  1
  Sn  Sn27  1  0.250000  0.136852  0.139767  1
