# generated using pymatgen
data_Dy7(ZrGa4)5
_symmetry_space_group_name_H-M   'P 1'
_cell_length_a   5.95360261
_cell_length_b   9.38864657
_cell_length_c   11.30496882
_cell_angle_alpha   90.25426263
_cell_angle_beta   89.94206593
_cell_angle_gamma   90.19821576
_symmetry_Int_Tables_number   1
_chemical_formula_structural   Dy7(ZrGa4)5
_chemical_formula_sum   'Dy7 Zr5 Ga20'
_cell_volume   631.89528113
_cell_formula_units_Z   1
loop_
 _symmetry_equiv_pos_site_id
 _symmetry_equiv_pos_as_xyz
  1  'x, y, z'
loop_
 _atom_site_type_symbol
 _atom_site_label
 _atom_site_symmetry_multiplicity
 _atom_site_fract_x
 _atom_site_fract_y
 _atom_site_fract_z
 _atom_site_occupancy
  Dy  Dy0  1  0.616339  0.994562  0.852229  1
  Dy  Dy1  1  0.113350  0.006301  0.646236  1
  Dy  Dy2  1  0.385394  0.493615  0.147004  1
  Dy  Dy3  1  0.115783  0.492732  0.646396  1
  Dy  Dy4  1  0.385398  0.007269  0.150604  1
  Dy  Dy5  1  0.884823  0.990721  0.351601  1
  Dy  Dy6  1  0.614977  0.507394  0.852838  1
  Zr  Zr7  1  0.856901  0.751430  0.075157  1
  Zr  Zr8  1  0.641527  0.748760  0.573305  1
  Zr  Zr9  1  0.142967  0.250762  0.924842  1
  Zr  Zr10  1  0.358566  0.247703  0.425782  1
  Zr  Zr11  1  0.881893  0.508251  0.352924  1
  Ga  Ga12  1  0.875825  0.054682  0.089206  1
  Ga  Ga13  1  0.626093  0.448213  0.586409  1
  Ga  Ga14  1  0.124110  0.553858  0.911980  1
  Ga  Ga15  1  0.375768  0.943889  0.411313  1
  Ga  Ga16  1  0.126143  0.947526  0.911211  1
  Ga  Ga17  1  0.369221  0.548625  0.409192  1
  Ga  Ga18  1  0.876548  0.449209  0.093370  1
  Ga  Ga19  1  0.625138  0.053480  0.587546  1
  Ga  Ga20  1  0.158078  0.744681  0.256922  1
  Ga  Ga21  1  0.339979  0.750210  0.754929  1
  Ga  Ga22  1  0.840067  0.251262  0.744078  1
  Ga  Ga23  1  0.664732  0.255520  0.247931  1
  Ga  Ga24  1  0.391076  0.750926  0.002344  1
  Ga  Ga25  1  0.105906  0.746692  0.500064  1
  Ga  Ga26  1  0.610599  0.251074  0.999451  1
  Ga  Ga27  1  0.888782  0.253561  0.492412  1
  Ga  Ga28  1  0.607542  0.743888  0.294728  1
  Ga  Ga29  1  0.895769  0.750071  0.792623  1
  Ga  Ga30  1  0.395605  0.250158  0.705678  1
  Ga  Ga31  1  0.105103  0.252972  0.209693  1
