# generated using pymatgen
data_Yb4Cu5Si3
_symmetry_space_group_name_H-M   'P 1'
_cell_length_a   5.46519386
_cell_length_b   5.46519495
_cell_length_c   9.89107292
_cell_angle_alpha   87.37528386
_cell_angle_beta   87.37528156
_cell_angle_gamma   45.90689391
_symmetry_Int_Tables_number   1
_chemical_formula_structural   Yb4Cu5Si3
_chemical_formula_sum   'Yb4 Cu5 Si3'
_cell_volume   211.91825851
_cell_formula_units_Z   1
loop_
 _symmetry_equiv_pos_site_id
 _symmetry_equiv_pos_as_xyz
  1  'x, y, z'
loop_
 _atom_site_type_symbol
 _atom_site_label
 _atom_site_symmetry_multiplicity
 _atom_site_fract_x
 _atom_site_fract_y
 _atom_site_fract_z
 _atom_site_occupancy
  Yb  Yb0  1  0.688274  0.688274  0.695115  1
  Yb  Yb1  1  0.191414  0.191414  0.181306  1
  Yb  Yb2  1  0.394811  0.394811  0.896814  1
  Yb  Yb3  1  0.889969  0.889969  0.390562  1
  Cu  Cu4  1  0.674212  0.674212  0.996713  1
  Cu  Cu5  1  0.388907  0.388907  0.602668  1
  Cu  Cu6  1  0.908483  0.908483  0.099998  1
  Cu  Cu7  1  0.095635  0.095635  0.888725  1
  Cu  Cu8  1  0.602120  0.602120  0.390667  1
  Si  Si9  1  0.172036  0.172036  0.489512  1
  Si  Si10  1  0.987689  0.987689  0.670420  1
  Si  Si11  1  0.487649  0.487649  0.178698  1
