# generated using pymatgen
data_TbYThFe9
_symmetry_space_group_name_H-M   'P 1'
_cell_length_a   8.77134576
_cell_length_b   8.77134544
_cell_length_c   8.77134519
_cell_angle_alpha   33.98145246
_cell_angle_beta   33.98145819
_cell_angle_gamma   33.98145221
_symmetry_Int_Tables_number   1
_chemical_formula_structural   TbYThFe9
_chemical_formula_sum   'Tb1 Y1 Th1 Fe9'
_cell_volume   187.91116515
_cell_formula_units_Z   1
loop_
 _symmetry_equiv_pos_site_id
 _symmetry_equiv_pos_as_xyz
  1  'x, y, z'
loop_
 _atom_site_type_symbol
 _atom_site_label
 _atom_site_symmetry_multiplicity
 _atom_site_fract_x
 _atom_site_fract_y
 _atom_site_fract_z
 _atom_site_occupancy
  Tb  Tb0  1  0.857581  0.857581  0.857581  1
  Y  Y1  1  0.142453  0.142453  0.142453  1
  Th  Th2  1  0.999997  0.999997  0.999997  1
  Fe  Fe3  1  0.500021  0.500021  0.500021  1
  Fe  Fe4  1  0.332483  0.332483  0.332483  1
  Fe  Fe5  1  0.667510  0.667510  0.667510  1
  Fe  Fe6  1  0.083705  0.581399  0.581399  1
  Fe  Fe7  1  0.581399  0.581399  0.083705  1
  Fe  Fe8  1  0.581399  0.083705  0.581399  1
  Fe  Fe9  1  0.418699  0.916053  0.418699  1
  Fe  Fe10  1  0.916053  0.418699  0.418699  1
  Fe  Fe11  1  0.418699  0.418699  0.916053  1
