# generated using pymatgen
data_La15Pr5(OsPt2)4
_symmetry_space_group_name_H-M   'P 1'
_cell_length_a   11.58440386
_cell_length_b   11.60190090
_cell_length_c   6.65057500
_cell_angle_alpha   89.93166621
_cell_angle_beta   89.97791143
_cell_angle_gamma   90.06575425
_symmetry_Int_Tables_number   1
_chemical_formula_structural   La15Pr5(OsPt2)4
_chemical_formula_sum   'La15 Pr5 Os4 Pt8'
_cell_volume   893.84334133
_cell_formula_units_Z   1
loop_
 _symmetry_equiv_pos_site_id
 _symmetry_equiv_pos_as_xyz
  1  'x, y, z'
loop_
 _atom_site_type_symbol
 _atom_site_label
 _atom_site_symmetry_multiplicity
 _atom_site_fract_x
 _atom_site_fract_y
 _atom_site_fract_z
 _atom_site_occupancy
  La  La0  1  0.296892  0.088618  0.375980  1
  La  La1  1  0.297919  0.912113  0.875777  1
  La  La2  1  0.702161  0.087914  0.876671  1
  La  La3  1  0.702887  0.911623  0.375790  1
  La  La4  1  0.588157  0.797451  0.876560  1
  La  La5  1  0.588134  0.201681  0.376678  1
  La  La6  1  0.411841  0.798149  0.375726  1
  La  La7  1  0.411068  0.202801  0.876707  1
  La  La8  1  0.202040  0.411044  0.623772  1
  La  La9  1  0.201361  0.586635  0.123789  1
  La  La10  1  0.799475  0.411659  0.123130  1
  La  La11  1  0.796748  0.588774  0.623458  1
  La  La12  1  0.911793  0.702831  0.123875  1
  La  La13  1  0.913091  0.297915  0.623687  1
  La  La14  1  0.087993  0.702521  0.624195  1
  Pr  Pr15  1  0.088315  0.295906  0.124830  1
  Pr  Pr16  1  0.999745  0.000181  0.499266  1
  Pr  Pr17  1  0.000287  0.000363  0.000361  1
  Pr  Pr18  1  0.500193  0.500109  0.999992  1
  Pr  Pr19  1  0.500055  0.499984  0.500190  1
  Os  Os20  1  0.499865  0.000233  0.117961  1
  Os  Os21  1  0.499980  0.000079  0.618303  1
  Os  Os22  1  0.000033  0.500350  0.881095  1
  Os  Os23  1  0.999758  0.500855  0.383187  1
  Pt  Pt24  1  0.847001  0.153820  0.249684  1
  Pt  Pt25  1  0.846347  0.846845  0.750209  1
  Pt  Pt26  1  0.153443  0.153152  0.749349  1
  Pt  Pt27  1  0.153604  0.846624  0.249942  1
  Pt  Pt28  1  0.653718  0.346385  0.750129  1
  Pt  Pt29  1  0.653357  0.653542  0.249717  1
  Pt  Pt30  1  0.346314  0.346375  0.249946  1
  Pt  Pt31  1  0.346421  0.653465  0.750042  1
