# generated using pymatgen
data_Sm4PI5
_symmetry_space_group_name_H-M   'P 1'
_cell_length_a   4.20132400
_cell_length_b   8.91475100
_cell_length_c   18.78585900
_cell_angle_alpha   90.00000000
_cell_angle_beta   90.00000000
_cell_angle_gamma   90.00000000
_symmetry_Int_Tables_number   1
_chemical_formula_structural   Sm4PI5
_chemical_formula_sum   'Sm8 P2 I10'
_cell_volume   703.60100423
_cell_formula_units_Z   2
loop_
 _symmetry_equiv_pos_site_id
 _symmetry_equiv_pos_as_xyz
  1  'x, y, z'
loop_
 _atom_site_type_symbol
 _atom_site_label
 _atom_site_symmetry_multiplicity
 _atom_site_fract_x
 _atom_site_fract_y
 _atom_site_fract_z
 _atom_site_occupancy
  Sm  Sm0  1  0.000000  0.372275  0.856249  1
  Sm  Sm1  1  0.500000  0.578319  0.000000  1
  Sm  Sm2  1  0.000000  0.372275  0.143751  1
  Sm  Sm3  1  0.000000  0.834236  0.500000  1
  Sm  Sm4  1  0.500000  0.627725  0.356249  1
  Sm  Sm5  1  0.000000  0.421681  0.500000  1
  Sm  Sm6  1  0.500000  0.627725  0.643751  1
  Sm  Sm7  1  0.500000  0.165764  0.000000  1
  P  P8  1  0.500000  0.627919  0.500000  1
  P  P9  1  0.000000  0.372081  0.000000  1
  I  I10  1  0.500000  0.114700  0.167182  1
  I  I11  1  0.000000  0.365123  0.669457  1
  I  I12  1  0.000000  0.870661  0.000000  1
  I  I13  1  0.000000  0.885300  0.332818  1
  I  I14  1  0.500000  0.114700  0.832818  1
  I  I15  1  0.500000  0.634877  0.830543  1
  I  I16  1  0.000000  0.885300  0.667182  1
  I  I17  1  0.000000  0.365123  0.330543  1
  I  I18  1  0.500000  0.634877  0.169457  1
  I  I19  1  0.500000  0.129339  0.500000  1
