# generated using pymatgen
data_PrSi2Tc3Ir
_symmetry_space_group_name_H-M   'P 1'
_cell_length_a   7.41927933
_cell_length_b   7.41927851
_cell_length_c   4.08019800
_cell_angle_alpha   90.00000000
_cell_angle_beta   90.00000000
_cell_angle_gamma   148.28137137
_symmetry_Int_Tables_number   1
_chemical_formula_structural   PrSi2Tc3Ir
_chemical_formula_sum   'Pr1 Si2 Tc3 Ir1'
_cell_volume   118.08166536
_cell_formula_units_Z   1
loop_
 _symmetry_equiv_pos_site_id
 _symmetry_equiv_pos_as_xyz
  1  'x, y, z'
loop_
 _atom_site_type_symbol
 _atom_site_label
 _atom_site_symmetry_multiplicity
 _atom_site_fract_x
 _atom_site_fract_y
 _atom_site_fract_z
 _atom_site_occupancy
  Pr  Pr0  1  0.000097  0.999903  0.000000  1
  Si  Si1  1  0.587627  0.412373  0.500000  1
  Si  Si2  1  0.410407  0.589593  0.500000  1
  Tc  Tc3  1  0.189964  0.810036  0.500000  1
  Tc  Tc4  1  0.693112  0.306888  0.000000  1
  Tc  Tc5  1  0.301713  0.698287  0.000000  1
  Ir  Ir6  1  0.817079  0.182921  0.500000  1
