# generated using pymatgen
data_Y6Er10Cd4TcNi3
_symmetry_space_group_name_H-M   'P 1'
_cell_length_a   9.55513381
_cell_length_b   9.55513513
_cell_length_c   9.55513504
_cell_angle_alpha   59.42375914
_cell_angle_beta   59.42376396
_cell_angle_gamma   59.42375472
_symmetry_Int_Tables_number   1
_chemical_formula_structural   Y6Er10Cd4TcNi3
_chemical_formula_sum   'Y6 Er10 Cd4 Tc1 Ni3'
_cell_volume   608.78453573
_cell_formula_units_Z   1
loop_
 _symmetry_equiv_pos_site_id
 _symmetry_equiv_pos_as_xyz
  1  'x, y, z'
loop_
 _atom_site_type_symbol
 _atom_site_label
 _atom_site_symmetry_multiplicity
 _atom_site_fract_x
 _atom_site_fract_y
 _atom_site_fract_z
 _atom_site_occupancy
  Y  Y0  1  0.186775  0.814319  0.814319  1
  Y  Y1  1  0.804575  0.190501  0.190501  1
  Y  Y2  1  0.814319  0.186775  0.814319  1
  Y  Y3  1  0.190501  0.804575  0.190501  1
  Y  Y4  1  0.814319  0.814319  0.186775  1
  Y  Y5  1  0.190501  0.190501  0.804575  1
  Er  Er6  1  0.596508  0.596508  0.596508  1
  Er  Er7  1  0.601843  0.601843  0.205511  1
  Er  Er8  1  0.601843  0.205511  0.601843  1
  Er  Er9  1  0.205511  0.601843  0.601843  1
  Er  Er10  1  0.061706  0.436791  0.436791  1
  Er  Er11  1  0.435907  0.061552  0.061552  1
  Er  Er12  1  0.436791  0.061706  0.436791  1
  Er  Er13  1  0.061552  0.435907  0.061552  1
  Er  Er14  1  0.436791  0.436791  0.061706  1
  Er  Er15  1  0.061552  0.061552  0.435907  1
  Cd  Cd16  1  0.829243  0.829243  0.829243  1
  Cd  Cd17  1  0.829098  0.829098  0.506781  1
  Cd  Cd18  1  0.829098  0.506781  0.829098  1
  Cd  Cd19  1  0.506781  0.829098  0.829098  1
  Tc  Tc20  1  0.394274  0.394274  0.394274  1
  Ni  Ni21  1  0.391976  0.391976  0.826555  1
  Ni  Ni22  1  0.391976  0.826555  0.391976  1
  Ni  Ni23  1  0.826555  0.391976  0.391976  1
