# generated using pymatgen
data_Lu3ZrTiRe7
_symmetry_space_group_name_H-M   'P 1'
_cell_length_a   5.35700701
_cell_length_b   5.35692859
_cell_length_c   8.81944200
_cell_angle_alpha   90.00118401
_cell_angle_beta   89.99776427
_cell_angle_gamma   119.99911749
_symmetry_Int_Tables_number   1
_chemical_formula_structural   Lu3ZrTiRe7
_chemical_formula_sum   'Lu3 Zr1 Ti1 Re7'
_cell_volume   219.18643559
_cell_formula_units_Z   1
loop_
 _symmetry_equiv_pos_site_id
 _symmetry_equiv_pos_as_xyz
  1  'x, y, z'
loop_
 _atom_site_type_symbol
 _atom_site_label
 _atom_site_symmetry_multiplicity
 _atom_site_fract_x
 _atom_site_fract_y
 _atom_site_fract_z
 _atom_site_occupancy
  Lu  Lu0  1  0.333326  0.666681  0.436195  1
  Lu  Lu1  1  0.333330  0.666673  0.061195  1
  Lu  Lu2  1  0.666672  0.333329  0.938384  1
  Zr  Zr3  1  0.666668  0.333319  0.566787  1
  Ti  Ti4  1  0.999997  0.999991  0.499803  1
  Re  Re5  1  0.000000  0.999999  0.999531  1
  Re  Re6  1  0.170574  0.341078  0.749141  1
  Re  Re7  1  0.170576  0.829431  0.749136  1
  Re  Re8  1  0.658923  0.829430  0.749148  1
  Re  Re9  1  0.829230  0.658529  0.250221  1
  Re  Re10  1  0.829226  0.170769  0.250235  1
  Re  Re11  1  0.341479  0.170770  0.250223  1
