# generated using pymatgen
data_Cs3Bi2Sb3SeS8
_symmetry_space_group_name_H-M   'P 1'
_cell_length_a   13.83404623
_cell_length_b   13.83404540
_cell_length_c   9.58874514
_cell_angle_alpha   84.22457036
_cell_angle_beta   84.22456634
_cell_angle_gamma   139.63862339
_symmetry_Int_Tables_number   1
_chemical_formula_structural   Cs3Bi2Sb3SeS8
_chemical_formula_sum   'Cs6 Bi4 Sb6 Se2 S16'
_cell_volume   1136.74064004
_cell_formula_units_Z   2
loop_
 _symmetry_equiv_pos_site_id
 _symmetry_equiv_pos_as_xyz
  1  'x, y, z'
loop_
 _atom_site_type_symbol
 _atom_site_label
 _atom_site_symmetry_multiplicity
 _atom_site_fract_x
 _atom_site_fract_y
 _atom_site_fract_z
 _atom_site_occupancy
  Cs  Cs0  1  0.417137  0.582863  0.500000  1
  Cs  Cs1  1  0.582863  0.417137  0.500000  1
  Cs  Cs2  1  0.021607  0.452183  0.234259  1
  Cs  Cs3  1  0.452183  0.021607  0.234259  1
  Cs  Cs4  1  0.978393  0.547817  0.765741  1
  Cs  Cs5  1  0.547817  0.978393  0.765741  1
  Bi  Bi6  1  0.423681  0.576319  0.000000  1
  Bi  Bi7  1  0.576319  0.423681  0.000000  1
  Bi  Bi8  1  0.921233  0.078767  0.500000  1
  Bi  Bi9  1  0.078767  0.921233  0.500000  1
  Sb  Sb10  1  0.033828  0.280616  0.838110  1
  Sb  Sb11  1  0.280616  0.033828  0.838110  1
  Sb  Sb12  1  0.966172  0.719384  0.161890  1
  Sb  Sb13  1  0.719384  0.966172  0.161890  1
  Sb  Sb14  1  0.875683  0.875683  0.880807  1
  Sb  Sb15  1  0.124317  0.124317  0.119193  1
  Se  Se16  1  0.135443  0.135443  0.630361  1
  Se  Se17  1  0.864557  0.864557  0.369639  1
  S  S18  1  0.808738  0.191262  0.000000  1
  S  S19  1  0.191262  0.808738  0.000000  1
  S  S20  1  0.239743  0.552642  0.839027  1
  S  S21  1  0.552642  0.239743  0.839027  1
  S  S22  1  0.760257  0.447358  0.160973  1
  S  S23  1  0.447358  0.760257  0.160973  1
  S  S24  1  0.994202  0.314209  0.604219  1
  S  S25  1  0.314209  0.994202  0.604219  1
  S  S26  1  0.005798  0.685791  0.395781  1
  S  S27  1  0.685791  0.005798  0.395781  1
  S  S28  1  0.369766  0.369766  0.881283  1
  S  S29  1  0.630234  0.630234  0.118717  1
  S  S30  1  0.700790  0.848807  0.774354  1
  S  S31  1  0.848807  0.700790  0.774354  1
  S  S32  1  0.299210  0.151193  0.225646  1
  S  S33  1  0.151193  0.299210  0.225646  1
