# generated using pymatgen
data_LiTm6Lu10In3Ni4
_symmetry_space_group_name_H-M   'P 1'
_cell_length_a   9.42919018
_cell_length_b   9.37882773
_cell_length_c   9.37882767
_cell_angle_alpha   60.04044199
_cell_angle_beta   60.17495792
_cell_angle_gamma   60.17495992
_symmetry_Int_Tables_number   1
_chemical_formula_structural   LiTm6Lu10In3Ni4
_chemical_formula_sum   'Li1 Tm6 Lu10 In3 Ni4'
_cell_volume   588.21110220
_cell_formula_units_Z   1
loop_
 _symmetry_equiv_pos_site_id
 _symmetry_equiv_pos_as_xyz
  1  'x, y, z'
loop_
 _atom_site_type_symbol
 _atom_site_label
 _atom_site_symmetry_multiplicity
 _atom_site_fract_x
 _atom_site_fract_y
 _atom_site_fract_z
 _atom_site_occupancy
  Li  Li0  1  0.283133  0.572466  0.572466  1
  Tm  Tm1  1  0.940268  0.561707  0.561707  1
  Tm  Tm2  1  0.564406  0.937477  0.937477  1
  Tm  Tm3  1  0.564690  0.936943  0.561595  1
  Tm  Tm4  1  0.939812  0.562020  0.936347  1
  Tm  Tm5  1  0.564690  0.561595  0.936943  1
  Tm  Tm6  1  0.939812  0.936347  0.562020  1
  Lu  Lu7  1  0.348793  0.345102  0.345102  1
  Lu  Lu8  1  0.348170  0.345921  0.960472  1
  Lu  Lu9  1  0.348170  0.960472  0.345921  1
  Lu  Lu10  1  0.952606  0.348988  0.348988  1
  Lu  Lu11  1  0.810535  0.188143  0.188143  1
  Lu  Lu12  1  0.183388  0.815137  0.815137  1
  Lu  Lu13  1  0.183518  0.814893  0.186847  1
  Lu  Lu14  1  0.810523  0.188538  0.812729  1
  Lu  Lu15  1  0.183518  0.186847  0.814893  1
  Lu  Lu16  1  0.810523  0.812729  0.188538  1
  In  In17  1  0.578010  0.584016  0.584016  1
  In  In18  1  0.578070  0.583785  0.254089  1
  In  In19  1  0.578070  0.254089  0.583785  1
  Ni  Ni20  1  0.139438  0.144009  0.144009  1
  Ni  Ni21  1  0.138061  0.145149  0.572559  1
  Ni  Ni22  1  0.138061  0.572559  0.145149  1
  Ni  Ni23  1  0.573737  0.141065  0.141065  1
