# generated using pymatgen
data_Ho2(Al5Ru)3
_symmetry_space_group_name_H-M   'P 1'
_cell_length_a   13.12142000
_cell_length_b   13.12141995
_cell_length_c   9.05855800
_cell_angle_alpha   90.00000000
_cell_angle_beta   90.00000000
_cell_angle_gamma   120.00000012
_symmetry_Int_Tables_number   1
_chemical_formula_structural   Ho2(Al5Ru)3
_chemical_formula_sum   'Ho8 Al60 Ru12'
_cell_volume   1350.67659048
_cell_formula_units_Z   4
loop_
 _symmetry_equiv_pos_site_id
 _symmetry_equiv_pos_as_xyz
  1  'x, y, z'
loop_
 _atom_site_type_symbol
 _atom_site_label
 _atom_site_symmetry_multiplicity
 _atom_site_fract_x
 _atom_site_fract_y
 _atom_site_fract_z
 _atom_site_occupancy
  Ho  Ho0  1  0.606879  0.000000  0.250000  1
  Ho  Ho1  1  0.393121  0.393121  0.250000  1
  Ho  Ho2  1  0.393121  0.000000  0.750000  1
  Ho  Ho3  1  0.000000  0.000000  0.250000  1
  Ho  Ho4  1  0.000000  0.393121  0.750000  1
  Ho  Ho5  1  0.606879  0.606879  0.750000  1
  Ho  Ho6  1  0.000000  0.606879  0.250000  1
  Ho  Ho7  1  0.000000  0.000000  0.750000  1
  Al  Al8  1  0.727167  0.250632  0.750000  1
  Al  Al9  1  0.615364  0.615364  0.397843  1
  Al  Al10  1  0.798228  0.000000  0.472306  1
  Al  Al11  1  0.749368  0.476536  0.750000  1
  Al  Al12  1  0.798228  0.000000  0.027694  1
  Al  Al13  1  0.749368  0.272833  0.250000  1
  Al  Al14  1  0.000000  0.798228  0.472306  1
  Al  Al15  1  0.798228  0.798228  0.527694  1
  Al  Al16  1  0.818582  0.409292  0.500000  1
  Al  Al17  1  0.000000  0.201772  0.972306  1
  Al  Al18  1  0.409292  0.818582  0.000000  1
  Al  Al19  1  0.476536  0.749368  0.750000  1
  Al  Al20  1  0.835298  0.715253  0.250000  1
  Al  Al21  1  0.590708  0.181418  0.000000  1
  Al  Al22  1  0.615364  0.000000  0.897843  1
  Al  Al23  1  0.201772  0.201772  0.472306  1
  Al  Al24  1  0.590708  0.181418  0.500000  1
  Al  Al25  1  0.272833  0.523464  0.750000  1
  Al  Al26  1  0.715253  0.835298  0.250000  1
  Al  Al27  1  0.201772  0.000000  0.972306  1
  Al  Al28  1  0.409292  0.818582  0.500000  1
  Al  Al29  1  0.476536  0.727167  0.250000  1
  Al  Al30  1  0.384636  0.000000  0.397843  1
  Al  Al31  1  0.120046  0.835298  0.750000  1
  Al  Al32  1  0.201772  0.201772  0.027694  1
  Al  Al33  1  0.000000  0.384636  0.397843  1
  Al  Al34  1  0.000000  0.798228  0.027694  1
  Al  Al35  1  0.201772  0.000000  0.527694  1
  Al  Al36  1  0.590708  0.409292  0.000000  1
  Al  Al37  1  0.727167  0.476536  0.250000  1
  Al  Al38  1  0.523464  0.250632  0.250000  1
  Al  Al39  1  0.590708  0.409292  0.500000  1
  Al  Al40  1  0.181418  0.590708  0.000000  1
  Al  Al41  1  0.181418  0.590708  0.500000  1
  Al  Al42  1  0.384636  0.384636  0.897843  1
  Al  Al43  1  0.284747  0.120046  0.250000  1
  Al  Al44  1  0.164702  0.879954  0.250000  1
  Al  Al45  1  0.615364  0.615364  0.102157  1
  Al  Al46  1  0.835298  0.120046  0.750000  1
  Al  Al47  1  0.284747  0.164702  0.750000  1
  Al  Al48  1  0.879954  0.164702  0.250000  1
  Al  Al49  1  0.000000  0.615364  0.602157  1
  Al  Al50  1  0.000000  0.201772  0.527694  1
  Al  Al51  1  0.384636  0.000000  0.102157  1
  Al  Al52  1  0.879954  0.715253  0.750000  1
  Al  Al53  1  0.120046  0.284747  0.250000  1
  Al  Al54  1  0.523464  0.272833  0.750000  1
  Al  Al55  1  0.798228  0.798228  0.972306  1
  Al  Al56  1  0.000000  0.615364  0.897843  1
  Al  Al57  1  0.164702  0.284747  0.750000  1
  Al  Al58  1  0.615364  0.000000  0.602157  1
  Al  Al59  1  0.272833  0.749368  0.250000  1
  Al  Al60  1  0.250632  0.727167  0.750000  1
  Al  Al61  1  0.409292  0.590708  0.500000  1
  Al  Al62  1  0.384636  0.384636  0.602157  1
  Al  Al63  1  0.818582  0.409292  0.000000  1
  Al  Al64  1  0.000000  0.384636  0.102157  1
  Al  Al65  1  0.250632  0.523464  0.250000  1
  Al  Al66  1  0.715253  0.879954  0.750000  1
  Al  Al67  1  0.409292  0.590708  0.000000  1
  Ru  Ru68  1  0.202640  0.797360  0.000000  1
  Ru  Ru69  1  0.797360  0.594720  0.500000  1
  Ru  Ru70  1  0.594720  0.797360  0.500000  1
  Ru  Ru71  1  0.405280  0.202640  0.000000  1
  Ru  Ru72  1  0.202640  0.405280  0.000000  1
  Ru  Ru73  1  0.202640  0.797360  0.500000  1
  Ru  Ru74  1  0.405280  0.202640  0.500000  1
  Ru  Ru75  1  0.797360  0.594720  0.000000  1
  Ru  Ru76  1  0.797360  0.202640  0.500000  1
  Ru  Ru77  1  0.594720  0.797360  0.000000  1
  Ru  Ru78  1  0.202640  0.405280  0.500000  1
  Ru  Ru79  1  0.797360  0.202640  0.000000  1
