# generated using pymatgen
data_Sr8(FeN3)3
_symmetry_space_group_name_H-M   'P 1'
_cell_length_a   7.66671772
_cell_length_b   10.71900000
_cell_length_c   18.92473200
_cell_angle_alpha   90.00000000
_cell_angle_beta   105.14165973
_cell_angle_gamma   90.00000000
_symmetry_Int_Tables_number   1
_chemical_formula_structural   Sr8(FeN3)3
_chemical_formula_sum   'Sr32 Fe12 N36'
_cell_volume   1501.23307260
_cell_formula_units_Z   4
loop_
 _symmetry_equiv_pos_site_id
 _symmetry_equiv_pos_as_xyz
  1  'x, y, z'
loop_
 _atom_site_type_symbol
 _atom_site_label
 _atom_site_symmetry_multiplicity
 _atom_site_fract_x
 _atom_site_fract_y
 _atom_site_fract_z
 _atom_site_occupancy
  Sr  Sr0  1  0.510745  0.872775  0.073792  1
  Sr  Sr1  1  0.489255  0.372775  0.426208  1
  Sr  Sr2  1  0.489255  0.127225  0.926208  1
  Sr  Sr3  1  0.510745  0.627225  0.573792  1
  Sr  Sr4  1  0.507058  0.130260  0.584962  1
  Sr  Sr5  1  0.492942  0.630260  0.915038  1
  Sr  Sr6  1  0.492942  0.869740  0.415038  1
  Sr  Sr7  1  0.507058  0.369740  0.084962  1
  Sr  Sr8  1  0.721585  0.867529  0.720644  1
  Sr  Sr9  1  0.278415  0.367529  0.779356  1
  Sr  Sr10  1  0.278415  0.132471  0.279356  1
  Sr  Sr11  1  0.721585  0.632471  0.220644  1
  Sr  Sr12  1  0.744146  0.383380  0.730473  1
  Sr  Sr13  1  0.255854  0.883380  0.769527  1
  Sr  Sr14  1  0.255854  0.616620  0.269527  1
  Sr  Sr15  1  0.744146  0.116620  0.230473  1
  Sr  Sr16  1  0.793788  0.373396  0.940897  1
  Sr  Sr17  1  0.206212  0.873396  0.559103  1
  Sr  Sr18  1  0.206212  0.626604  0.059103  1
  Sr  Sr19  1  0.793788  0.126604  0.440897  1
  Sr  Sr20  1  0.925971  0.124544  0.854996  1
  Sr  Sr21  1  0.074029  0.624544  0.645004  1
  Sr  Sr22  1  0.074029  0.875456  0.145004  1
  Sr  Sr23  1  0.925971  0.375456  0.354996  1
  Sr  Sr24  1  0.006170  0.126499  0.645071  1
  Sr  Sr25  1  0.993830  0.626499  0.854929  1
  Sr  Sr26  1  0.993830  0.873501  0.354929  1
  Sr  Sr27  1  0.006170  0.373501  0.145071  1
  Sr  Sr28  1  0.178940  0.372274  0.548707  1
  Sr  Sr29  1  0.821060  0.872274  0.951293  1
  Sr  Sr30  1  0.821060  0.627726  0.451293  1
  Sr  Sr31  1  0.178940  0.127726  0.048707  1
  Fe  Fe32  1  0.549207  0.144037  0.753892  1
  Fe  Fe33  1  0.450793  0.644037  0.746108  1
  Fe  Fe34  1  0.450793  0.855963  0.246108  1
  Fe  Fe35  1  0.549207  0.355963  0.253892  1
  Fe  Fe36  1  0.797745  0.873092  0.563340  1
  Fe  Fe37  1  0.202255  0.373092  0.936660  1
  Fe  Fe38  1  0.202255  0.126908  0.436660  1
  Fe  Fe39  1  0.797745  0.626908  0.063340  1
  Fe  Fe40  1  0.793434  0.379716  0.569875  1
  Fe  Fe41  1  0.206566  0.879716  0.930125  1
  Fe  Fe42  1  0.206566  0.620284  0.430125  1
  Fe  Fe43  1  0.793434  0.120284  0.069875  1
  N  N44  1  0.565102  0.378007  0.574064  1
  N  N45  1  0.434898  0.878007  0.925936  1
  N  N46  1  0.434898  0.621993  0.425936  1
  N  N47  1  0.565102  0.121993  0.074064  1
  N  N48  1  0.602876  0.248943  0.824037  1
  N  N49  1  0.397124  0.748943  0.675963  1
  N  N50  1  0.397124  0.751057  0.175963  1
  N  N51  1  0.602876  0.251057  0.324037  1
  N  N52  1  0.834861  0.122617  0.981516  1
  N  N53  1  0.165139  0.622617  0.518484  1
  N  N54  1  0.165139  0.877383  0.018484  1
  N  N55  1  0.834861  0.377383  0.481516  1
  N  N56  1  0.576603  0.881690  0.565559  1
  N  N57  1  0.423397  0.381690  0.934441  1
  N  N58  1  0.423397  0.118310  0.434441  1
  N  N59  1  0.576603  0.618310  0.065559  1
  N  N60  1  0.731069  0.112907  0.716873  1
  N  N61  1  0.268931  0.612907  0.783127  1
  N  N62  1  0.268931  0.887093  0.283127  1
  N  N63  1  0.731069  0.387093  0.216873  1
  N  N64  1  0.991589  0.380119  0.646648  1
  N  N65  1  0.008411  0.880119  0.853352  1
  N  N66  1  0.008411  0.619881  0.353352  1
  N  N67  1  0.991589  0.119881  0.146648  1
  N  N68  1  0.028866  0.367209  0.855345  1
  N  N69  1  0.971134  0.867209  0.644655  1
  N  N70  1  0.971134  0.632791  0.144655  1
  N  N71  1  0.028866  0.132791  0.355345  1
  N  N72  1  0.154619  0.125104  0.521285  1
  N  N73  1  0.845381  0.625104  0.978715  1
  N  N74  1  0.845381  0.874896  0.478715  1
  N  N75  1  0.154619  0.374896  0.021285  1
  N  N76  1  0.326948  0.104261  0.715134  1
  N  N77  1  0.673052  0.604261  0.784866  1
  N  N78  1  0.673052  0.895739  0.284866  1
  N  N79  1  0.326948  0.395739  0.215134  1
