# generated using pymatgen
data_Dy5Co9Si3P9Ru10
_symmetry_space_group_name_H-M   'P 1'
_cell_length_a   12.38868125
_cell_length_b   12.35588045
_cell_length_c   3.77493500
_cell_angle_alpha   90.00000000
_cell_angle_beta   90.00000000
_cell_angle_gamma   119.79009597
_symmetry_Int_Tables_number   1
_chemical_formula_structural   Dy5Co9Si3P9Ru10
_chemical_formula_sum   'Dy5 Co9 Si3 P9 Ru10'
_cell_volume   501.47997594
_cell_formula_units_Z   1
loop_
 _symmetry_equiv_pos_site_id
 _symmetry_equiv_pos_as_xyz
  1  'x, y, z'
loop_
 _atom_site_type_symbol
 _atom_site_label
 _atom_site_symmetry_multiplicity
 _atom_site_fract_x
 _atom_site_fract_y
 _atom_site_fract_z
 _atom_site_occupancy
  Dy  Dy0  1  0.662823  0.333506  0.000000  1
  Dy  Dy1  1  0.332949  0.666852  0.000000  1
  Dy  Dy2  1  0.181987  0.180477  0.500000  1
  Dy  Dy3  1  0.819958  0.998753  0.500000  1
  Dy  Dy4  1  0.999812  0.820427  0.500000  1
  Co  Co5  1  0.800576  0.629640  0.000000  1
  Co  Co6  1  0.368837  0.168894  0.000000  1
  Co  Co7  1  0.197572  0.829942  0.000000  1
  Co  Co8  1  0.628788  0.797914  0.000000  1
  Co  Co9  1  0.174883  0.371373  0.000000  1
  Co  Co10  1  0.720082  0.719771  0.500000  1
  Co  Co11  1  0.278545  0.000113  0.500000  1
  Co  Co12  1  0.006727  0.283755  0.500000  1
  Co  Co13  1  0.999444  0.999425  0.000000  1
  Si  Si14  1  0.364458  0.363896  0.000000  1
  Si  Si15  1  0.631584  0.996250  0.000000  1
  Si  Si16  1  0.000176  0.636767  0.000000  1
  P  P17  1  0.839486  0.316316  0.500000  1
  P  P18  1  0.684588  0.525077  0.500000  1
  P  P19  1  0.472204  0.158801  0.500000  1
  P  P20  1  0.316029  0.842393  0.500000  1
  P  P21  1  0.525258  0.682923  0.500000  1
  P  P22  1  0.160815  0.477313  0.500000  1
  P  P23  1  0.819433  0.819324  0.000000  1
  P  P24  1  0.179130  0.999770  0.000000  1
  P  P25  1  0.006050  0.182485  0.000000  1
  Ru  Ru26  1  0.560015  0.557638  0.000000  1
  Ru  Ru27  1  0.436097  0.995196  0.000000  1
  Ru  Ru28  1  0.009611  0.447083  0.000000  1
  Ru  Ru29  1  0.828138  0.200113  0.000000  1
  Ru  Ru30  1  0.639978  0.126355  0.500000  1
  Ru  Ru31  1  0.870616  0.517055  0.500000  1
  Ru  Ru32  1  0.482319  0.352465  0.500000  1
  Ru  Ru33  1  0.131654  0.650450  0.500000  1
  Ru  Ru34  1  0.516145  0.867685  0.500000  1
  Ru  Ru35  1  0.353235  0.483800  0.500000  1
