# generated using pymatgen
data_Y7Er17(CoTc)4
_symmetry_space_group_name_H-M   'P 1'
_cell_length_a   6.32575052
_cell_length_b   9.19754200
_cell_length_c   14.14906900
_cell_angle_alpha   90.00000000
_cell_angle_beta   89.83723567
_cell_angle_gamma   90.00000000
_symmetry_Int_Tables_number   1
_chemical_formula_structural   Y7Er17(CoTc)4
_chemical_formula_sum   'Y7 Er17 Co4 Tc4'
_cell_volume   823.20870073
_cell_formula_units_Z   1
loop_
 _symmetry_equiv_pos_site_id
 _symmetry_equiv_pos_as_xyz
  1  'x, y, z'
loop_
 _atom_site_type_symbol
 _atom_site_label
 _atom_site_symmetry_multiplicity
 _atom_site_fract_x
 _atom_site_fract_y
 _atom_site_fract_z
 _atom_site_occupancy
  Y  Y0  1  0.034364  0.250000  0.148899  1
  Y  Y1  1  0.464831  0.250000  0.648892  1
  Y  Y2  1  0.965895  0.750000  0.850992  1
  Y  Y3  1  0.775538  0.750000  0.108787  1
  Y  Y4  1  0.274560  0.250000  0.391445  1
  Y  Y5  1  0.224868  0.250000  0.891794  1
  Y  Y6  1  0.724525  0.750000  0.608220  1
  Er  Er7  1  0.535802  0.750000  0.350719  1
  Er  Er8  1  0.413483  0.932202  0.784529  1
  Er  Er9  1  0.913332  0.067849  0.715331  1
  Er  Er10  1  0.586837  0.432709  0.215769  1
  Er  Er11  1  0.088081  0.568127  0.284871  1
  Er  Er12  1  0.586837  0.067291  0.215769  1
  Er  Er13  1  0.088081  0.931873  0.284871  1
  Er  Er14  1  0.413483  0.567798  0.784529  1
  Er  Er15  1  0.913332  0.432151  0.715331  1
  Er  Er16  1  0.237299  0.935344  0.537245  1
  Er  Er17  1  0.738043  0.064249  0.962229  1
  Er  Er18  1  0.761053  0.436172  0.462048  1
  Er  Er19  1  0.262773  0.564319  0.037898  1
  Er  Er20  1  0.761053  0.063828  0.462048  1
  Er  Er21  1  0.262773  0.935681  0.037898  1
  Er  Er22  1  0.237299  0.564656  0.537245  1
  Er  Er23  1  0.738043  0.435751  0.962229  1
  Co  Co24  1  0.370957  0.750000  0.183536  1
  Co  Co25  1  0.867777  0.250000  0.317830  1
  Co  Co26  1  0.631152  0.250000  0.817731  1
  Co  Co27  1  0.131794  0.750000  0.682024  1
  Tc  Tc28  1  0.933018  0.750000  0.433635  1
  Tc  Tc29  1  0.436949  0.250000  0.065804  1
  Tc  Tc30  1  0.062651  0.250000  0.565197  1
  Tc  Tc31  1  0.563519  0.750000  0.934655  1
