# generated using pymatgen
data_ThZn2InCu2Pd
_symmetry_space_group_name_H-M   'P 1'
_cell_length_a   5.14208700
_cell_length_b   8.62417100
_cell_length_c   10.94438100
_cell_angle_alpha   90.00000000
_cell_angle_beta   90.00000000
_cell_angle_gamma   90.00000000
_symmetry_Int_Tables_number   1
_chemical_formula_structural   ThZn2InCu2Pd
_chemical_formula_sum   'Th4 Zn8 In4 Cu8 Pd4'
_cell_volume   485.34212005
_cell_formula_units_Z   4
loop_
 _symmetry_equiv_pos_site_id
 _symmetry_equiv_pos_as_xyz
  1  'x, y, z'
loop_
 _atom_site_type_symbol
 _atom_site_label
 _atom_site_symmetry_multiplicity
 _atom_site_fract_x
 _atom_site_fract_y
 _atom_site_fract_z
 _atom_site_occupancy
  Th  Th0  1  0.747992  0.241064  0.942514  1
  Th  Th1  1  0.247992  0.758936  0.057486  1
  Th  Th2  1  0.752008  0.741064  0.557486  1
  Th  Th3  1  0.252008  0.258936  0.442514  1
  Zn  Zn4  1  0.000890  0.438812  0.183670  1
  Zn  Zn5  1  0.500890  0.561188  0.816330  1
  Zn  Zn6  1  0.499110  0.938812  0.316330  1
  Zn  Zn7  1  0.999110  0.061188  0.683670  1
  Zn  Zn8  1  0.752229  0.190764  0.260198  1
  Zn  Zn9  1  0.252229  0.809236  0.739802  1
  Zn  Zn10  1  0.747771  0.690764  0.239802  1
  Zn  Zn11  1  0.247771  0.309236  0.760198  1
  In  In12  1  0.749705  0.355220  0.644718  1
  In  In13  1  0.249705  0.644780  0.355282  1
  In  In14  1  0.750295  0.855220  0.855282  1
  In  In15  1  0.250295  0.144780  0.144718  1
  Cu  Cu16  1  0.994861  0.562256  0.814318  1
  Cu  Cu17  1  0.494861  0.437744  0.185682  1
  Cu  Cu18  1  0.505139  0.062256  0.685682  1
  Cu  Cu19  1  0.005139  0.937744  0.314318  1
  Cu  Cu20  1  0.749321  0.078365  0.485036  1
  Cu  Cu21  1  0.249321  0.921635  0.514964  1
  Cu  Cu22  1  0.750679  0.578365  0.014964  1
  Cu  Cu23  1  0.250679  0.421635  0.985036  1
  Pd  Pd24  1  0.751201  0.443609  0.404565  1
  Pd  Pd25  1  0.251201  0.556391  0.595435  1
  Pd  Pd26  1  0.748799  0.943609  0.095435  1
  Pd  Pd27  1  0.248799  0.056391  0.904565  1
