# generated using pymatgen
data_Y4Al4Ir3Pt
_symmetry_space_group_name_H-M   'P 1'
_cell_length_a   4.31798200
_cell_length_b   6.87992201
_cell_length_c   7.87679402
_cell_angle_alpha   90.00636762
_cell_angle_beta   90.00000000
_cell_angle_gamma   90.00000000
_symmetry_Int_Tables_number   1
_chemical_formula_structural   Y4Al4Ir3Pt
_chemical_formula_sum   'Y4 Al4 Ir3 Pt1'
_cell_volume   233.99890677
_cell_formula_units_Z   1
loop_
 _symmetry_equiv_pos_site_id
 _symmetry_equiv_pos_as_xyz
  1  'x, y, z'
loop_
 _atom_site_type_symbol
 _atom_site_label
 _atom_site_symmetry_multiplicity
 _atom_site_fract_x
 _atom_site_fract_y
 _atom_site_fract_z
 _atom_site_occupancy
  Y  Y0  1  0.250000  0.026454  0.678513  1
  Y  Y1  1  0.250000  0.533214  0.817782  1
  Y  Y2  1  0.750000  0.971571  0.319462  1
  Y  Y3  1  0.750000  0.473189  0.184178  1
  Al  Al4  1  0.250000  0.140949  0.065278  1
  Al  Al5  1  0.250000  0.641964  0.436858  1
  Al  Al6  1  0.750000  0.854965  0.936862  1
  Al  Al7  1  0.750000  0.359082  0.560891  1
  Ir  Ir8  1  0.250000  0.269662  0.382454  1
  Ir  Ir9  1  0.250000  0.769753  0.116773  1
  Ir  Ir10  1  0.750000  0.730526  0.618623  1
  Pt  Pt11  1  0.750000  0.228672  0.882324  1
