# generated using pymatgen
data_Y4TmNb3(Co4P3)4
_symmetry_space_group_name_H-M   'P 1'
_cell_length_a   12.20255300
_cell_length_b   12.20081218
_cell_length_c   3.70087400
_cell_angle_alpha   90.00000000
_cell_angle_beta   90.00000000
_cell_angle_gamma   120.00471725
_symmetry_Int_Tables_number   1
_chemical_formula_structural   Y4TmNb3(Co4P3)4
_chemical_formula_sum   'Y4 Tm1 Nb3 Co16 P12'
_cell_volume   477.14868294
_cell_formula_units_Z   1
loop_
 _symmetry_equiv_pos_site_id
 _symmetry_equiv_pos_as_xyz
  1  'x, y, z'
loop_
 _atom_site_type_symbol
 _atom_site_label
 _atom_site_symmetry_multiplicity
 _atom_site_fract_x
 _atom_site_fract_y
 _atom_site_fract_z
 _atom_site_occupancy
  Y  Y0  1  0.000028  0.816306  0.500000  1
  Y  Y1  1  0.183722  0.183694  0.500000  1
  Y  Y2  1  0.333435  0.666788  0.000000  1
  Y  Y3  1  0.666647  0.333212  0.000000  1
  Tm  Tm4  1  0.816014  0.000000  0.500000  1
  Nb  Nb5  1  0.444553  0.000000  0.000000  1
  Nb  Nb6  1  0.999895  0.443967  0.000000  1
  Nb  Nb7  1  0.555929  0.556033  0.000000  1
  Co  Co8  1  0.279145  0.000000  0.500000  1
  Co  Co9  1  0.999551  0.278524  0.500000  1
  Co  Co10  1  0.721027  0.721476  0.500000  1
  Co  Co11  1  0.626833  0.803953  0.000000  1
  Co  Co12  1  0.196846  0.823091  0.000000  1
  Co  Co13  1  0.176847  0.373686  0.000000  1
  Co  Co14  1  0.373755  0.176909  0.000000  1
  Co  Co15  1  0.803162  0.626314  0.000000  1
  Co  Co16  1  0.822880  0.196047  0.000000  1
  Co  Co17  1  0.519921  0.873441  0.500000  1
  Co  Co18  1  0.126767  0.646305  0.500000  1
  Co  Co19  1  0.353772  0.480471  0.500000  1
  Co  Co20  1  0.480462  0.353695  0.500000  1
  Co  Co21  1  0.873301  0.519529  0.500000  1
  Co  Co22  1  0.646480  0.126559  0.500000  1
  Co  Co23  1  0.999179  0.000000  0.000000  1
  P  P24  1  0.178455  0.000000  0.000000  1
  P  P25  1  0.999054  0.177674  0.000000  1
  P  P26  1  0.821380  0.822326  0.000000  1
  P  P27  1  0.520908  0.688696  0.500000  1
  P  P28  1  0.311340  0.832248  0.500000  1
  P  P29  1  0.167728  0.478980  0.500000  1
  P  P30  1  0.479092  0.167752  0.500000  1
  P  P31  1  0.688747  0.521020  0.500000  1
  P  P32  1  0.832211  0.311304  0.500000  1
  P  P33  1  0.644347  0.000000  0.000000  1
  P  P34  1  0.999984  0.643378  0.000000  1
  P  P35  1  0.356606  0.356622  0.000000  1
