# generated using pymatgen
data_UNi(P2O7)2
_symmetry_space_group_name_H-M   'P 1'
_cell_length_a   8.43253790
_cell_length_b   5.12104725
_cell_length_c   7.20930230
_cell_angle_alpha   72.47632640
_cell_angle_beta   91.36211151
_cell_angle_gamma   89.63554450
_symmetry_Int_Tables_number   1
_chemical_formula_structural   UNi(P2O7)2
_chemical_formula_sum   'U1 Ni1 P4 O14'
_cell_volume   296.76098159
_cell_formula_units_Z   1
loop_
 _symmetry_equiv_pos_site_id
 _symmetry_equiv_pos_as_xyz
  1  'x, y, z'
loop_
 _atom_site_type_symbol
 _atom_site_label
 _atom_site_symmetry_multiplicity
 _atom_site_fract_x
 _atom_site_fract_y
 _atom_site_fract_z
 _atom_site_occupancy
  U  U0  1  0.505055  0.792245  0.724296  1
  Ni  Ni1  1  0.007125  0.210957  0.273016  1
  P  P2  1  0.704808  0.390830  0.477829  1
  P  P3  1  0.169202  0.596298  0.505897  1
  P  P4  1  0.791551  0.771503  0.111006  1
  P  P5  1  0.256718  0.240058  0.902222  1
  O  O6  1  0.346627  0.715947  0.530685  1
  O  O7  1  0.329380  0.003550  0.831571  1
  O  O8  1  0.821391  0.035495  0.152804  1
  O  O9  1  0.173974  0.138931  0.087706  1
  O  O10  1  0.922643  0.586414  0.089864  1
  O  O11  1  0.661114  0.593328  0.267710  1
  O  O12  1  0.185783  0.408371  0.384381  1
  O  O13  1  0.866998  0.270231  0.494375  1
  O  O14  1  0.403784  0.429628  0.907111  1
  O  O15  1  0.053697  0.828380  0.463700  1
  O  O16  1  0.671977  0.839715  0.920680  1
  O  O17  1  0.675621  0.562629  0.622011  1
  O  O18  1  0.141344  0.414906  0.733480  1
  O  O19  1  0.570408  0.170586  0.519655  1
