# generated using pymatgen
data_LaSm2Lu17Bi12
_symmetry_space_group_name_H-M   'P 1'
_cell_length_a   8.17935926
_cell_length_b   9.41368000
_cell_length_c   11.86166600
_cell_angle_alpha   90.00000000
_cell_angle_beta   89.98568894
_cell_angle_gamma   90.00000000
_symmetry_Int_Tables_number   1
_chemical_formula_structural   LaSm2Lu17Bi12
_chemical_formula_sum   'La1 Sm2 Lu17 Bi12'
_cell_volume   913.32299567
_cell_formula_units_Z   1
loop_
 _symmetry_equiv_pos_site_id
 _symmetry_equiv_pos_as_xyz
  1  'x, y, z'
loop_
 _atom_site_type_symbol
 _atom_site_label
 _atom_site_symmetry_multiplicity
 _atom_site_fract_x
 _atom_site_fract_y
 _atom_site_fract_z
 _atom_site_occupancy
  La  La0  1  0.684160  0.750000  0.780383  1
  Sm  Sm1  1  0.813551  0.250000  0.282204  1
  Sm  Sm2  1  0.185362  0.750000  0.718186  1
  Lu  Lu3  1  0.351898  0.750000  0.220274  1
  Lu  Lu4  1  0.853151  0.750000  0.280065  1
  Lu  Lu5  1  0.647552  0.250000  0.781546  1
  Lu  Lu6  1  0.149176  0.250000  0.718314  1
  Lu  Lu7  1  0.691084  0.567311  0.061281  1
  Lu  Lu8  1  0.191657  0.933066  0.438837  1
  Lu  Lu9  1  0.309470  0.067626  0.940310  1
  Lu  Lu10  1  0.808917  0.432252  0.559738  1
  Lu  Lu11  1  0.309470  0.432374  0.940310  1
  Lu  Lu12  1  0.808917  0.067748  0.559738  1
  Lu  Lu13  1  0.691084  0.932689  0.061281  1
  Lu  Lu14  1  0.191657  0.566934  0.438837  1
  Lu  Lu15  1  0.477483  0.250000  0.488168  1
  Lu  Lu16  1  0.979396  0.250000  0.012309  1
  Lu  Lu17  1  0.521530  0.750000  0.509664  1
  Lu  Lu18  1  0.021758  0.750000  0.991356  1
  Lu  Lu19  1  0.313076  0.250000  0.215844  1
  Bi  Bi20  1  0.398009  0.750000  0.964468  1
  Bi  Bi21  1  0.902531  0.750000  0.536416  1
  Bi  Bi22  1  0.596710  0.250000  0.041172  1
  Bi  Bi23  1  0.100548  0.250000  0.459776  1
  Bi  Bi24  1  0.561942  0.994200  0.325499  1
  Bi  Bi25  1  0.067961  0.505071  0.174334  1
  Bi  Bi26  1  0.432673  0.490122  0.671886  1
  Bi  Bi27  1  0.938353  0.009828  0.828041  1
  Bi  Bi28  1  0.432673  0.009878  0.671886  1
  Bi  Bi29  1  0.938353  0.490172  0.828041  1
  Bi  Bi30  1  0.561942  0.505800  0.325499  1
  Bi  Bi31  1  0.067961  0.994929  0.174334  1
