# generated using pymatgen
data_Dy3Mg2AlSi2Rh
_symmetry_space_group_name_H-M   'P 1'
_cell_length_a   7.15187095
_cell_length_b   7.08562453
_cell_length_c   4.23190700
_cell_angle_alpha   90.00000000
_cell_angle_beta   90.00000000
_cell_angle_gamma   119.69406056
_symmetry_Int_Tables_number   1
_chemical_formula_structural   Dy3Mg2AlSi2Rh
_chemical_formula_sum   'Dy3 Mg2 Al1 Si2 Rh1'
_cell_volume   186.29241717
_cell_formula_units_Z   1
loop_
 _symmetry_equiv_pos_site_id
 _symmetry_equiv_pos_as_xyz
  1  'x, y, z'
loop_
 _atom_site_type_symbol
 _atom_site_label
 _atom_site_symmetry_multiplicity
 _atom_site_fract_x
 _atom_site_fract_y
 _atom_site_fract_z
 _atom_site_occupancy
  Dy  Dy0  1  0.412978  0.001200  0.000000  1
  Dy  Dy1  1  0.000000  0.421796  0.000000  1
  Dy  Dy2  1  0.587022  0.588222  0.000000  1
  Mg  Mg3  1  0.760830  0.000923  0.500001  1
  Mg  Mg4  1  0.239170  0.240093  0.500001  1
  Al  Al5  1  0.000000  0.760605  0.500001  1
  Si  Si6  1  0.674074  0.345184  0.500001  1
  Si  Si7  1  0.325925  0.671109  0.500001  1
  Rh  Rh8  1  0.000000  0.970867  0.000000  1
