# generated using pymatgen
data_Er4Tm(CoB3)2
_symmetry_space_group_name_H-M   'P 1'
_cell_length_a   5.38655173
_cell_length_b   5.38655322
_cell_length_c   8.22739062
_cell_angle_alpha   70.89168964
_cell_angle_beta   70.89168385
_cell_angle_gamma   60.00001220
_symmetry_Int_Tables_number   1
_chemical_formula_structural   Er4Tm(CoB3)2
_chemical_formula_sum   'Er4 Tm1 Co2 B6'
_cell_volume   191.39692834
_cell_formula_units_Z   1
loop_
 _symmetry_equiv_pos_site_id
 _symmetry_equiv_pos_as_xyz
  1  'x, y, z'
loop_
 _atom_site_type_symbol
 _atom_site_label
 _atom_site_symmetry_multiplicity
 _atom_site_fract_x
 _atom_site_fract_y
 _atom_site_fract_z
 _atom_site_occupancy
  Er  Er0  1  0.252022  0.252022  0.243934  1
  Er  Er1  1  0.747978  0.747978  0.756066  1
  Er  Er2  1  0.415574  0.415574  0.753279  1
  Er  Er3  1  0.584426  0.584426  0.246721  1
  Tm  Tm4  1  0.000000  0.000000  0.000000  1
  Co  Co5  1  0.118994  0.118994  0.643018  1
  Co  Co6  1  0.881006  0.881006  0.356982  1
  B  B7  1  0.168980  0.831020  0.500000  1
  B  B8  1  0.831020  0.500000  0.500000  1
  B  B9  1  0.500000  0.168980  0.500000  1
  B  B10  1  0.168980  0.500000  0.500000  1
  B  B11  1  0.500000  0.831020  0.500000  1
  B  B12  1  0.831020  0.168980  0.500000  1
