# generated using pymatgen
data_CsCr(CuTe2)4
_symmetry_space_group_name_H-M   'P 1'
_cell_length_a   11.59928556
_cell_length_b   11.59928490
_cell_length_c   10.75632089
_cell_angle_alpha   78.50341149
_cell_angle_beta   78.50341256
_cell_angle_gamma   15.40654914
_symmetry_Int_Tables_number   1
_chemical_formula_structural   CsCr(CuTe2)4
_chemical_formula_sum   'Cs1 Cr1 Cu4 Te8'
_cell_volume   376.61381955
_cell_formula_units_Z   1
loop_
 _symmetry_equiv_pos_site_id
 _symmetry_equiv_pos_as_xyz
  1  'x, y, z'
loop_
 _atom_site_type_symbol
 _atom_site_label
 _atom_site_symmetry_multiplicity
 _atom_site_fract_x
 _atom_site_fract_y
 _atom_site_fract_z
 _atom_site_occupancy
  Cs  Cs0  1  0.506452  0.506452  0.478785  1
  Cr  Cr1  1  0.307545  0.307545  0.348231  1
  Cu  Cu2  1  0.646621  0.646621  0.945805  1
  Cu  Cu3  1  0.345600  0.345600  0.040565  1
  Cu  Cu4  1  0.682892  0.682892  0.693234  1
  Cu  Cu5  1  0.998872  0.998872  0.987850  1
  Te  Te6  1  0.759598  0.759598  0.176508  1
  Te  Te7  1  0.240098  0.240098  0.839543  1
  Te  Te8  1  0.423895  0.423895  0.205030  1
  Te  Te9  1  0.564911  0.564911  0.784305  1
  Te  Te10  1  0.910263  0.910263  0.860617  1
  Te  Te11  1  0.081762  0.081762  0.130051  1
  Te  Te12  1  0.845759  0.845759  0.524860  1
  Te  Te13  1  0.185732  0.185732  0.484615  1
