# generated using pymatgen
data_U6AgP13Rh19
_symmetry_space_group_name_H-M   'P 1'
_cell_length_a   13.51994543
_cell_length_b   13.49520180
_cell_length_c   3.86908500
_cell_angle_alpha   90.00000000
_cell_angle_beta   90.00000000
_cell_angle_gamma   120.12795153
_symmetry_Int_Tables_number   1
_chemical_formula_structural   U6AgP13Rh19
_chemical_formula_sum   'U6 Ag1 P13 Rh19'
_cell_volume   610.56489791
_cell_formula_units_Z   1
loop_
 _symmetry_equiv_pos_site_id
 _symmetry_equiv_pos_as_xyz
  1  'x, y, z'
loop_
 _atom_site_type_symbol
 _atom_site_label
 _atom_site_symmetry_multiplicity
 _atom_site_fract_x
 _atom_site_fract_y
 _atom_site_fract_z
 _atom_site_occupancy
  U  U0  1  0.190263  0.473465  0.000000  1
  U  U1  1  0.527578  0.717241  0.000000  1
  U  U2  1  0.281178  0.803646  0.000000  1
  U  U3  1  0.719870  0.190546  0.500000  1
  U  U4  1  0.809601  0.528901  0.500000  1
  U  U5  1  0.470704  0.281409  0.500000  1
  Ag  Ag6  1  0.435360  0.016074  0.500000  1
  P  P7  1  0.388236  0.525763  0.500000  1
  P  P8  1  0.476230  0.854693  0.500000  1
  P  P9  1  0.136217  0.610183  0.500000  1
  P  P10  1  0.772884  0.056919  0.000000  1
  P  P11  1  0.941277  0.712924  0.000000  1
  P  P12  1  0.284822  0.228536  0.000000  1
  P  P13  1  0.055601  0.285842  0.500000  1
  P  P14  1  0.716116  0.769710  0.500000  1
  P  P15  1  0.220609  0.942152  0.500000  1
  P  P16  1  0.535245  0.150156  0.000000  1
  P  P17  1  0.862608  0.387551  0.000000  1
  P  P18  1  0.610588  0.474648  0.000000  1
  P  P19  1  0.002047  0.001965  0.000000  1
  Rh  Rh20  1  0.979209  0.417517  0.500000  1
  Rh  Rh21  1  0.581549  0.561913  0.500000  1
  Rh  Rh22  1  0.673352  0.343034  0.000000  1
  Rh  Rh23  1  0.417573  0.437634  0.000000  1
  Rh  Rh24  1  0.568885  0.983694  0.000000  1
  Rh  Rh25  1  0.018560  0.581030  0.000000  1
  Rh  Rh26  1  0.923612  0.252385  0.000000  1
  Rh  Rh27  1  0.746888  0.671497  0.000000  1
  Rh  Rh28  1  0.329240  0.079665  0.000000  1
  Rh  Rh29  1  0.329812  0.663003  0.500000  1
  Rh  Rh30  1  0.904507  0.093913  0.500000  1
  Rh  Rh31  1  0.906256  0.811505  0.500000  1
  Rh  Rh32  1  0.181329  0.092733  0.500000  1
  Rh  Rh33  1  0.096573  0.193647  0.000000  1
  Rh  Rh34  1  0.811169  0.906185  0.000000  1
  Rh  Rh35  1  0.094535  0.902888  0.000000  1
  Rh  Rh36  1  0.251761  0.330007  0.500000  1
  Rh  Rh37  1  0.671616  0.919234  0.500000  1
  Rh  Rh38  1  0.076542  0.746188  0.500000  1
