# generated using pymatgen
data_BaPr2Ho(AsPt)4
_symmetry_space_group_name_H-M   'P 1'
_cell_length_a   4.34617500
_cell_length_b   4.34617442
_cell_length_c   16.76153000
_cell_angle_alpha   90.00000000
_cell_angle_beta   90.00000000
_cell_angle_gamma   120.00001203
_symmetry_Int_Tables_number   1
_chemical_formula_structural   BaPr2Ho(AsPt)4
_chemical_formula_sum   'Ba1 Pr2 Ho1 As4 Pt4'
_cell_volume   274.19441113
_cell_formula_units_Z   1
loop_
 _symmetry_equiv_pos_site_id
 _symmetry_equiv_pos_as_xyz
  1  'x, y, z'
loop_
 _atom_site_type_symbol
 _atom_site_label
 _atom_site_symmetry_multiplicity
 _atom_site_fract_x
 _atom_site_fract_y
 _atom_site_fract_z
 _atom_site_occupancy
  Ba  Ba0  1  0.000000  0.000000  0.250000  1
  Pr  Pr1  1  0.000000  0.000000  0.514859  1
  Pr  Pr2  1  0.000000  0.000000  0.985141  1
  Ho  Ho3  1  0.000000  0.000000  0.750000  1
  As  As4  1  0.333333  0.666667  0.869431  1
  As  As5  1  0.666667  0.333333  0.106004  1
  As  As6  1  0.666667  0.333333  0.393996  1
  As  As7  1  0.333333  0.666667  0.630569  1
  Pt  Pt8  1  0.333333  0.666667  0.398083  1
  Pt  Pt9  1  0.666667  0.333333  0.648937  1
  Pt  Pt10  1  0.666667  0.333333  0.851063  1
  Pt  Pt11  1  0.333333  0.666667  0.101917  1
