# generated using pymatgen
data_Er3TaNb2(B2Ru5)2
_symmetry_space_group_name_H-M   'P 1'
_cell_length_a   9.57817245
_cell_length_b   9.58114884
_cell_length_c   3.12134100
_cell_angle_alpha   90.00000000
_cell_angle_beta   90.00000000
_cell_angle_gamma   90.29207766
_symmetry_Int_Tables_number   1
_chemical_formula_structural   Er3TaNb2(B2Ru5)2
_chemical_formula_sum   'Er3 Ta1 Nb2 B4 Ru10'
_cell_volume   286.44141688
_cell_formula_units_Z   1
loop_
 _symmetry_equiv_pos_site_id
 _symmetry_equiv_pos_as_xyz
  1  'x, y, z'
loop_
 _atom_site_type_symbol
 _atom_site_label
 _atom_site_symmetry_multiplicity
 _atom_site_fract_x
 _atom_site_fract_y
 _atom_site_fract_z
 _atom_site_occupancy
  Er  Er0  1  0.824103  0.674915  0.000000  1
  Er  Er1  1  0.174788  0.323954  0.000000  1
  Er  Er2  1  0.325631  0.825855  0.000000  1
  Ta  Ta3  1  0.003281  0.998082  0.000000  1
  Nb  Nb4  1  0.675677  0.175465  0.000000  1
  Nb  Nb5  1  0.497994  0.503444  0.000000  1
  B  B6  1  0.623629  0.881026  0.000000  1
  B  B7  1  0.381015  0.123601  0.000000  1
  B  B8  1  0.118884  0.618933  0.000000  1
  B  B9  1  0.876164  0.376225  0.000000  1
  Ru  Ru10  1  0.571416  0.722422  0.500000  1
  Ru  Ru11  1  0.440073  0.280359  0.500000  1
  Ru  Ru12  1  0.069487  0.780302  0.500000  1
  Ru  Ru13  1  0.916532  0.213412  0.500000  1
  Ru  Ru14  1  0.279952  0.569467  0.500000  1
  Ru  Ru15  1  0.713647  0.416209  0.500000  1
  Ru  Ru16  1  0.221986  0.071374  0.500000  1
  Ru  Ru17  1  0.780701  0.939914  0.500000  1
  Ru  Ru18  1  0.509051  0.009074  0.500000  1
  Ru  Ru19  1  0.995993  0.495967  0.500000  1
