# generated using pymatgen
data_U4Al2(IrPt)3
_symmetry_space_group_name_H-M   'P 1'
_cell_length_a   5.54472410
_cell_length_b   5.58677275
_cell_length_c   7.95364900
_cell_angle_alpha   90.00000000
_cell_angle_beta   90.00000000
_cell_angle_gamma   119.19143442
_symmetry_Int_Tables_number   1
_chemical_formula_structural   U4Al2(IrPt)3
_chemical_formula_sum   'U4 Al2 Ir3 Pt3'
_cell_volume   215.08945841
_cell_formula_units_Z   1
loop_
 _symmetry_equiv_pos_site_id
 _symmetry_equiv_pos_as_xyz
  1  'x, y, z'
loop_
 _atom_site_type_symbol
 _atom_site_label
 _atom_site_symmetry_multiplicity
 _atom_site_fract_x
 _atom_site_fract_y
 _atom_site_fract_z
 _atom_site_occupancy
  U  U0  1  0.338430  0.655929  0.426436  1
  U  U1  1  0.667089  0.347064  0.920699  1
  U  U2  1  0.667089  0.347064  0.579301  1
  U  U3  1  0.338430  0.655929  0.073564  1
  Al  Al4  1  0.996513  0.998338  0.501135  1
  Al  Al5  1  0.996513  0.998338  0.998865  1
  Ir  Ir6  1  0.659043  0.837372  0.750000  1
  Ir  Ir7  1  0.165820  0.342848  0.750000  1
  Ir  Ir8  1  0.832517  0.655072  0.250000  1
  Pt  Pt9  1  0.170636  0.837273  0.750000  1
  Pt  Pt10  1  0.337847  0.159439  0.250000  1
  Pt  Pt11  1  0.830074  0.165333  0.250000  1
