# generated using pymatgen
data_Y5NiTe4
_symmetry_space_group_name_H-M   'P 1'
_cell_length_a   7.68358700
_cell_length_b   7.68358729
_cell_length_c   10.89101900
_cell_angle_alpha   60.51039554
_cell_angle_beta   60.51039431
_cell_angle_gamma   31.59684317
_symmetry_Int_Tables_number   1
_chemical_formula_structural   Y5NiTe4
_chemical_formula_sum   'Y5 Ni1 Te4'
_cell_volume   289.45851157
_cell_formula_units_Z   1
loop_
 _symmetry_equiv_pos_site_id
 _symmetry_equiv_pos_as_xyz
  1  'x, y, z'
loop_
 _atom_site_type_symbol
 _atom_site_label
 _atom_site_symmetry_multiplicity
 _atom_site_fract_x
 _atom_site_fract_y
 _atom_site_fract_z
 _atom_site_occupancy
  Y  Y0  1  0.000000  0.000000  0.500000  1
  Y  Y1  1  0.578097  0.578097  0.084266  1
  Y  Y2  1  0.179821  0.179821  0.740107  1
  Y  Y3  1  0.820179  0.820179  0.259893  1
  Y  Y4  1  0.421903  0.421903  0.915734  1
  Ni  Ni5  1  0.000000  0.000000  0.000000  1
  Te  Te6  1  0.613482  0.613482  0.580988  1
  Te  Te7  1  0.190267  0.190267  0.193435  1
  Te  Te8  1  0.809733  0.809733  0.806565  1
  Te  Te9  1  0.386518  0.386518  0.419012  1
