# generated using pymatgen
data_Ca3Pr(Nd3Ir2)2
_symmetry_space_group_name_H-M   'P 1'
_cell_length_a   8.85165025
_cell_length_b   8.87411666
_cell_length_c   7.45828928
_cell_angle_alpha   83.50688027
_cell_angle_beta   83.16541709
_cell_angle_gamma   44.40785259
_symmetry_Int_Tables_number   1
_chemical_formula_structural   Ca3Pr(Nd3Ir2)2
_chemical_formula_sum   'Ca3 Pr1 Nd6 Ir4'
_cell_volume   406.71161993
_cell_formula_units_Z   1
loop_
 _symmetry_equiv_pos_site_id
 _symmetry_equiv_pos_as_xyz
  1  'x, y, z'
loop_
 _atom_site_type_symbol
 _atom_site_label
 _atom_site_symmetry_multiplicity
 _atom_site_fract_x
 _atom_site_fract_y
 _atom_site_fract_z
 _atom_site_occupancy
  Ca  Ca0  1  0.199769  0.985598  0.582486  1
  Ca  Ca1  1  0.983628  0.201192  0.082227  1
  Ca  Ca2  1  0.799421  0.017418  0.417757  1
  Pr  Pr3  1  0.017656  0.797232  0.916464  1
  Nd  Nd4  1  0.350380  0.208324  0.816816  1
  Nd  Nd5  1  0.785548  0.652042  0.681953  1
  Nd  Nd6  1  0.651445  0.786920  0.183209  1
  Nd  Nd7  1  0.212662  0.351192  0.315643  1
  Nd  Nd8  1  0.567502  0.434004  0.748786  1
  Nd  Nd9  1  0.436837  0.563962  0.250827  1
  Ir  Ir10  1  0.180359  0.591582  0.577189  1
  Ir  Ir11  1  0.410577  0.812492  0.930976  1
  Ir  Ir12  1  0.814488  0.415831  0.426855  1
  Ir  Ir13  1  0.589729  0.182209  0.068811  1
