# generated using pymatgen
data_Y3Ho(Co5As3)4
_symmetry_space_group_name_H-M   'P 1'
_cell_length_a   3.79661400
_cell_length_b   12.19801540
_cell_length_c   10.66778635
_cell_angle_alpha   89.97074943
_cell_angle_beta   90.00000000
_cell_angle_gamma   90.00000000
_symmetry_Int_Tables_number   1
_chemical_formula_structural   Y3Ho(Co5As3)4
_chemical_formula_sum   'Y3 Ho1 Co20 As12'
_cell_volume   494.03745366
_cell_formula_units_Z   1
loop_
 _symmetry_equiv_pos_site_id
 _symmetry_equiv_pos_as_xyz
  1  'x, y, z'
loop_
 _atom_site_type_symbol
 _atom_site_label
 _atom_site_symmetry_multiplicity
 _atom_site_fract_x
 _atom_site_fract_y
 _atom_site_fract_z
 _atom_site_occupancy
  Y  Y0  1  0.250000  0.297958  0.918407  1
  Y  Y1  1  0.250000  0.797930  0.581525  1
  Y  Y2  1  0.750000  0.202034  0.418343  1
  Ho  Ho3  1  0.750000  0.702006  0.081442  1
  Co  Co4  1  0.750000  0.696935  0.383101  1
  Co  Co5  1  0.250000  0.303056  0.616616  1
  Co  Co6  1  0.250000  0.802837  0.883818  1
  Co  Co7  1  0.750000  0.196861  0.116596  1
  Co  Co8  1  0.750000  0.991070  0.211850  1
  Co  Co9  1  0.250000  0.008851  0.788199  1
  Co  Co10  1  0.250000  0.508998  0.712002  1
  Co  Co11  1  0.750000  0.491213  0.288041  1
  Co  Co12  1  0.750000  0.677352  0.783855  1
  Co  Co13  1  0.250000  0.322694  0.216265  1
  Co  Co14  1  0.250000  0.822533  0.283508  1
  Co  Co15  1  0.750000  0.177355  0.716354  1
  Co  Co16  1  0.750000  0.931870  0.969438  1
  Co  Co17  1  0.250000  0.067629  0.030844  1
  Co  Co18  1  0.250000  0.567919  0.468961  1
  Co  Co19  1  0.750000  0.432223  0.530720  1
  Co  Co20  1  0.750000  0.988111  0.592946  1
  Co  Co21  1  0.250000  0.011837  0.406980  1
  Co  Co22  1  0.250000  0.512469  0.093031  1
  Co  Co23  1  0.750000  0.488255  0.907204  1
  As  As24  1  0.750000  0.613755  0.584197  1
  As  As25  1  0.250000  0.386306  0.415723  1
  As  As26  1  0.250000  0.885764  0.084252  1
  As  As27  1  0.750000  0.113611  0.915807  1
  As  As28  1  0.750000  0.890678  0.398988  1
  As  As29  1  0.250000  0.109298  0.600953  1
  As  As30  1  0.250000  0.609500  0.899502  1
  As  As31  1  0.750000  0.390773  0.100968  1
  As  As32  1  0.750000  0.870160  0.769092  1
  As  As33  1  0.250000  0.129796  0.230870  1
  As  As34  1  0.250000  0.630162  0.268605  1
  As  As35  1  0.750000  0.370201  0.730994  1
