# generated using pymatgen
data_Tb8ScAgPd23
_symmetry_space_group_name_H-M   'P 1'
_cell_length_a   8.39642900
_cell_length_b   8.34711300
_cell_length_c   8.34161600
_cell_angle_alpha   90.00000000
_cell_angle_beta   90.00000000
_cell_angle_gamma   90.00000000
_symmetry_Int_Tables_number   1
_chemical_formula_structural   Tb8ScAgPd23
_chemical_formula_sum   'Tb8 Sc1 Ag1 Pd23'
_cell_volume   584.63001232
_cell_formula_units_Z   1
loop_
 _symmetry_equiv_pos_site_id
 _symmetry_equiv_pos_as_xyz
  1  'x, y, z'
loop_
 _atom_site_type_symbol
 _atom_site_label
 _atom_site_symmetry_multiplicity
 _atom_site_fract_x
 _atom_site_fract_y
 _atom_site_fract_z
 _atom_site_occupancy
  Tb  Tb0  1  0.258453  0.247930  0.747466  1
  Tb  Tb1  1  0.252496  0.746581  0.252854  1
  Tb  Tb2  1  0.747504  0.253419  0.252854  1
  Tb  Tb3  1  0.741547  0.752070  0.747466  1
  Tb  Tb4  1  0.747504  0.746581  0.252854  1
  Tb  Tb5  1  0.741547  0.247930  0.747466  1
  Tb  Tb6  1  0.258453  0.752070  0.747466  1
  Tb  Tb7  1  0.252496  0.253419  0.252854  1
  Sc  Sc8  1  0.000000  0.000000  0.003191  1
  Ag  Ag9  1  0.000000  0.500000  0.731045  1
  Pd  Pd10  1  0.500000  0.500000  0.745955  1
  Pd  Pd11  1  0.500000  0.254517  0.498559  1
  Pd  Pd12  1  0.255653  0.500000  0.500401  1
  Pd  Pd13  1  0.500000  0.500000  0.253796  1
  Pd  Pd14  1  0.500000  0.745483  0.498559  1
  Pd  Pd15  1  0.744347  0.500000  0.500401  1
  Pd  Pd16  1  0.000000  0.000000  0.697879  1
  Pd  Pd17  1  0.000000  0.304744  0.997384  1
  Pd  Pd18  1  0.306077  0.000000  0.001412  1
  Pd  Pd19  1  0.000000  0.000000  0.306617  1
  Pd  Pd20  1  0.000000  0.695256  0.997384  1
  Pd  Pd21  1  0.693923  0.000000  0.001412  1
  Pd  Pd22  1  0.500000  0.265690  0.001595  1
  Pd  Pd23  1  0.263338  0.000000  0.499659  1
  Pd  Pd24  1  0.000000  0.263035  0.500469  1
  Pd  Pd25  1  0.500000  0.000000  0.734585  1
  Pd  Pd26  1  0.263640  0.500000  0.998529  1
  Pd  Pd27  1  0.000000  0.500000  0.263649  1
  Pd  Pd28  1  0.500000  0.734310  0.001595  1
  Pd  Pd29  1  0.000000  0.736965  0.500469  1
  Pd  Pd30  1  0.500000  0.000000  0.265988  1
  Pd  Pd31  1  0.736662  0.000000  0.499659  1
  Pd  Pd32  1  0.736360  0.500000  0.998529  1
