# generated using pymatgen
data_NdTh2AlZn2Pt3
_symmetry_space_group_name_H-M   'P 1'
_cell_length_a   7.45333951
_cell_length_b   7.34921908
_cell_length_c   4.05325800
_cell_angle_alpha   90.00000000
_cell_angle_beta   90.00000000
_cell_angle_gamma   119.55686449
_symmetry_Int_Tables_number   1
_chemical_formula_structural   NdTh2AlZn2Pt3
_chemical_formula_sum   'Nd1 Th2 Al1 Zn2 Pt3'
_cell_volume   193.12966071
_cell_formula_units_Z   1
loop_
 _symmetry_equiv_pos_site_id
 _symmetry_equiv_pos_as_xyz
  1  'x, y, z'
loop_
 _atom_site_type_symbol
 _atom_site_label
 _atom_site_symmetry_multiplicity
 _atom_site_fract_x
 _atom_site_fract_y
 _atom_site_fract_z
 _atom_site_occupancy
  Nd  Nd0  1  0.413782  0.409640  0.500000  1
  Th  Th1  1  0.583932  0.995512  0.500000  1
  Th  Th2  1  0.999772  0.594613  0.500000  1
  Al  Al3  1  0.004521  0.232403  0.000000  1
  Zn  Zn4  1  0.755041  0.757031  0.000000  1
  Zn  Zn5  1  0.240141  0.004560  0.000000  1
  Pt  Pt6  1  0.688614  0.328729  0.000000  1
  Pt  Pt7  1  0.320318  0.666637  0.000000  1
  Pt  Pt8  1  0.993879  0.010877  0.500000  1
