# generated using pymatgen
data_Dy4Ho8TcOs3
_symmetry_space_group_name_H-M   'P 1'
_cell_length_a   6.28081105
_cell_length_b   7.39508223
_cell_length_c   9.03294700
_cell_angle_alpha   90.00000000
_cell_angle_beta   90.00000000
_cell_angle_gamma   90.05409187
_symmetry_Int_Tables_number   1
_chemical_formula_structural   Dy4Ho8TcOs3
_chemical_formula_sum   'Dy4 Ho8 Tc1 Os3'
_cell_volume   419.55413356
_cell_formula_units_Z   1
loop_
 _symmetry_equiv_pos_site_id
 _symmetry_equiv_pos_as_xyz
  1  'x, y, z'
loop_
 _atom_site_type_symbol
 _atom_site_label
 _atom_site_symmetry_multiplicity
 _atom_site_fract_x
 _atom_site_fract_y
 _atom_site_fract_z
 _atom_site_occupancy
  Dy  Dy0  1  0.871528  0.540025  0.250000  1
  Dy  Dy1  1  0.626617  0.039960  0.250000  1
  Dy  Dy2  1  0.130561  0.459352  0.750000  1
  Dy  Dy3  1  0.369170  0.960088  0.750000  1
  Ho  Ho4  1  0.335139  0.674835  0.062857  1
  Ho  Ho5  1  0.165911  0.175547  0.436836  1
  Ho  Ho6  1  0.667229  0.324523  0.562787  1
  Ho  Ho7  1  0.834193  0.824891  0.936743  1
  Ho  Ho8  1  0.667229  0.324523  0.937213  1
  Ho  Ho9  1  0.834193  0.824891  0.563257  1
  Ho  Ho10  1  0.335139  0.674835  0.437143  1
  Ho  Ho11  1  0.165911  0.175547  0.063164  1
  Tc  Tc12  1  0.037956  0.883905  0.250000  1
  Os  Os13  1  0.460164  0.383289  0.250000  1
  Os  Os14  1  0.959412  0.117439  0.750000  1
  Os  Os15  1  0.539647  0.616347  0.750000  1
