# generated using pymatgen
data_Yb8CeSc11Sn16
_symmetry_space_group_name_H-M   'P 1'
_cell_length_a   7.69054187
_cell_length_b   8.11238412
_cell_length_c   15.18886800
_cell_angle_alpha   90.11959371
_cell_angle_beta   90.05744821
_cell_angle_gamma   91.09856541
_symmetry_Int_Tables_number   1
_chemical_formula_structural   Yb8CeSc11Sn16
_chemical_formula_sum   'Yb8 Ce1 Sc11 Sn16'
_cell_volume   947.43590381
_cell_formula_units_Z   1
loop_
 _symmetry_equiv_pos_site_id
 _symmetry_equiv_pos_as_xyz
  1  'x, y, z'
loop_
 _atom_site_type_symbol
 _atom_site_label
 _atom_site_symmetry_multiplicity
 _atom_site_fract_x
 _atom_site_fract_y
 _atom_site_fract_z
 _atom_site_occupancy
  Yb  Yb0  1  0.824947  0.661178  0.877629  1
  Yb  Yb1  1  0.504130  0.321475  0.907665  1
  Yb  Yb2  1  0.004106  0.180734  0.590261  1
  Yb  Yb3  1  0.499018  0.679611  0.409083  1
  Yb  Yb4  1  0.996682  0.818631  0.094339  1
  Yb  Yb5  1  0.498827  0.680497  0.091845  1
  Yb  Yb6  1  0.997795  0.820096  0.408435  1
  Yb  Yb7  1  0.503199  0.321084  0.590603  1
  Ce  Ce8  1  0.999280  0.177099  0.908631  1
  Sc  Sc9  1  0.326952  0.838474  0.872719  1
  Sc  Sc10  1  0.826015  0.659554  0.624294  1
  Sc  Sc11  1  0.672464  0.158615  0.374814  1
  Sc  Sc12  1  0.173360  0.340775  0.126883  1
  Sc  Sc13  1  0.670632  0.156935  0.127507  1
  Sc  Sc14  1  0.173868  0.341181  0.375354  1
  Sc  Sc15  1  0.326144  0.841941  0.623208  1
  Sc  Sc16  1  0.161252  0.498820  0.749927  1
  Sc  Sc17  1  0.660866  0.001096  0.748505  1
  Sc  Sc18  1  0.841588  0.501142  0.251528  1
  Sc  Sc19  1  0.337973  0.997859  0.249482  1
  Sn  Sn20  1  0.322157  0.044187  0.042990  1
  Sn  Sn21  1  0.829767  0.459916  0.455565  1
  Sn  Sn22  1  0.670982  0.960179  0.543479  1
  Sn  Sn23  1  0.178955  0.534744  0.956916  1
  Sn  Sn24  1  0.661871  0.966950  0.956611  1
  Sn  Sn25  1  0.170225  0.540355  0.544168  1
  Sn  Sn26  1  0.329785  0.042351  0.455109  1
  Sn  Sn27  1  0.833812  0.452459  0.048215  1
  Sn  Sn28  1  0.518268  0.630241  0.744680  1
  Sn  Sn29  1  0.024180  0.882284  0.748006  1
  Sn  Sn30  1  0.479374  0.369357  0.250840  1
  Sn  Sn31  1  0.976955  0.125799  0.251846  1
  Sn  Sn32  1  0.297280  0.142657  0.749727  1
  Sn  Sn33  1  0.799994  0.350952  0.747464  1
  Sn  Sn34  1  0.701399  0.858177  0.250907  1
  Sn  Sn35  1  0.205902  0.642594  0.250766  1
