# generated using pymatgen
data_Sm2Ho4CrCo17P12
_symmetry_space_group_name_H-M   'P 1'
_cell_length_a   3.69857200
_cell_length_b   10.52950400
_cell_length_c   12.20465900
_cell_angle_alpha   90.00000000
_cell_angle_beta   90.00000000
_cell_angle_gamma   90.00000000
_symmetry_Int_Tables_number   1
_chemical_formula_structural   Sm2Ho4CrCo17P12
_chemical_formula_sum   'Sm2 Ho4 Cr1 Co17 P12'
_cell_volume   475.29981045
_cell_formula_units_Z   1
loop_
 _symmetry_equiv_pos_site_id
 _symmetry_equiv_pos_as_xyz
  1  'x, y, z'
loop_
 _atom_site_type_symbol
 _atom_site_label
 _atom_site_symmetry_multiplicity
 _atom_site_fract_x
 _atom_site_fract_y
 _atom_site_fract_z
 _atom_site_occupancy
  Sm  Sm0  1  0.000000  0.500000  0.522650  1
  Sm  Sm1  1  0.500000  0.000000  0.477615  1
  Ho  Ho2  1  0.500000  0.817491  0.205385  1
  Ho  Ho3  1  0.500000  0.182509  0.205385  1
  Ho  Ho4  1  0.000000  0.682142  0.796286  1
  Ho  Ho5  1  0.000000  0.317858  0.796286  1
  Cr  Cr6  1  0.500000  0.500000  0.154322  1
  Co  Co7  1  0.000000  0.500000  0.987472  1
  Co  Co8  1  0.500000  0.000000  0.014240  1
  Co  Co9  1  0.500000  0.296099  0.429727  1
  Co  Co10  1  0.500000  0.703901  0.429727  1
  Co  Co11  1  0.000000  0.203708  0.570193  1
  Co  Co12  1  0.000000  0.796292  0.570193  1
  Co  Co13  1  0.500000  0.879121  0.710863  1
  Co  Co14  1  0.500000  0.120879  0.710863  1
  Co  Co15  1  0.000000  0.620552  0.288947  1
  Co  Co16  1  0.000000  0.379448  0.288947  1
  Co  Co17  1  0.500000  0.332738  0.993454  1
  Co  Co18  1  0.500000  0.667262  0.993454  1
  Co  Co19  1  0.000000  0.166950  0.006093  1
  Co  Co20  1  0.000000  0.833050  0.006093  1
  Co  Co21  1  0.000000  0.000000  0.841741  1
  Co  Co22  1  0.500000  0.500000  0.704639  1
  Co  Co23  1  0.000000  0.000000  0.294600  1
  P  P24  1  0.500000  0.309291  0.617537  1
  P  P25  1  0.500000  0.690709  0.617537  1
  P  P26  1  0.000000  0.190670  0.382970  1
  P  P27  1  0.000000  0.809330  0.382970  1
  P  P28  1  0.500000  0.500000  0.882731  1
  P  P29  1  0.000000  0.000000  0.116752  1
  P  P30  1  0.500000  0.848096  0.893043  1
  P  P31  1  0.500000  0.151904  0.893043  1
  P  P32  1  0.000000  0.653526  0.106778  1
  P  P33  1  0.000000  0.346474  0.106778  1
  P  P34  1  0.500000  0.500000  0.341772  1
  P  P35  1  0.000000  0.000000  0.658915  1
