# generated using pymatgen
data_SmDyYTaO7
_symmetry_space_group_name_H-M   'P 1'
_cell_length_a   6.48977801
_cell_length_b   6.48977636
_cell_length_c   7.58299600
_cell_angle_alpha   90.00000000
_cell_angle_beta   90.00000000
_cell_angle_gamma   109.45091461
_symmetry_Int_Tables_number   1
_chemical_formula_structural   SmDyYTaO7
_chemical_formula_sum   'Sm2 Dy2 Y2 Ta2 O14'
_cell_volume   301.14698903
_cell_formula_units_Z   2
loop_
 _symmetry_equiv_pos_site_id
 _symmetry_equiv_pos_as_xyz
  1  'x, y, z'
loop_
 _atom_site_type_symbol
 _atom_site_label
 _atom_site_symmetry_multiplicity
 _atom_site_fract_x
 _atom_site_fract_y
 _atom_site_fract_z
 _atom_site_occupancy
  Sm  Sm0  1  0.500011  0.500011  0.500000  1
  Sm  Sm1  1  0.500011  0.500011  0.000000  1
  Dy  Dy2  1  0.466105  0.999179  0.250000  1
  Dy  Dy3  1  0.999179  0.466105  0.750000  1
  Y  Y4  1  0.533619  0.000518  0.750000  1
  Y  Y5  1  0.000518  0.533619  0.250000  1
  Ta  Ta6  1  0.000013  0.000013  0.500000  1
  Ta  Ta7  1  0.000013  0.000013  0.000000  1
  O  O8  1  0.679316  0.929679  0.467838  1
  O  O9  1  0.929679  0.679316  0.532162  1
  O  O10  1  0.679316  0.929679  0.032162  1
  O  O11  1  0.929679  0.679316  0.967838  1
  O  O12  1  0.320528  0.070411  0.531360  1
  O  O13  1  0.070411  0.320528  0.468640  1
  O  O14  1  0.320528  0.070411  0.968640  1
  O  O15  1  0.070411  0.320528  0.031360  1
  O  O16  1  0.936025  0.064381  0.750000  1
  O  O17  1  0.064381  0.936025  0.250000  1
  O  O18  1  0.366465  0.633257  0.750000  1
  O  O19  1  0.633257  0.366465  0.250000  1
  O  O20  1  0.640259  0.360278  0.750000  1
  O  O21  1  0.360278  0.640259  0.250000  1
