# generated using pymatgen
data_TmTaNbB2Ru5
_symmetry_space_group_name_H-M   'P 1'
_cell_length_a   9.53553335
_cell_length_b   9.53553385
_cell_length_c   3.08635800
_cell_angle_alpha   90.00000000
_cell_angle_beta   90.00000000
_cell_angle_gamma   90.42803733
_symmetry_Int_Tables_number   1
_chemical_formula_structural   TmTaNbB2Ru5
_chemical_formula_sum   'Tm2 Ta2 Nb2 B4 Ru10'
_cell_volume   280.62359439
_cell_formula_units_Z   2
loop_
 _symmetry_equiv_pos_site_id
 _symmetry_equiv_pos_as_xyz
  1  'x, y, z'
loop_
 _atom_site_type_symbol
 _atom_site_label
 _atom_site_symmetry_multiplicity
 _atom_site_fract_x
 _atom_site_fract_y
 _atom_site_fract_z
 _atom_site_occupancy
  Tm  Tm0  1  0.824147  0.675853  0.000000  1
  Tm  Tm1  1  0.175853  0.324147  0.000000  1
  Ta  Ta2  1  0.500000  0.500000  0.000000  1
  Ta  Ta3  1  0.000000  0.000000  0.000000  1
  Nb  Nb4  1  0.324200  0.824200  0.000000  1
  Nb  Nb5  1  0.675800  0.175800  0.000000  1
  B  B6  1  0.621172  0.878828  0.000000  1
  B  B7  1  0.378828  0.121172  0.000000  1
  B  B8  1  0.120489  0.620489  0.000000  1
  B  B9  1  0.879511  0.379511  0.000000  1
  Ru  Ru10  1  0.561084  0.722141  0.500000  1
  Ru  Ru11  1  0.438916  0.277859  0.500000  1
  Ru  Ru12  1  0.079823  0.784964  0.500000  1
  Ru  Ru13  1  0.920177  0.215036  0.500000  1
  Ru  Ru14  1  0.284964  0.579823  0.500000  1
  Ru  Ru15  1  0.715036  0.420177  0.500000  1
  Ru  Ru16  1  0.222141  0.061084  0.500000  1
  Ru  Ru17  1  0.777859  0.938916  0.500000  1
  Ru  Ru18  1  0.500000  0.000000  0.500000  1
  Ru  Ru19  1  0.000000  0.500000  0.500000  1
