# generated using pymatgen
data_PtF16
_symmetry_space_group_name_H-M   'P 1'
_cell_length_a   5.19712200
_cell_length_b   8.07174506
_cell_length_c   8.07174500
_cell_angle_alpha   120.00000386
_cell_angle_beta   90.00000000
_cell_angle_gamma   90.00000000
_symmetry_Int_Tables_number   1
_chemical_formula_structural   PtF16
_chemical_formula_sum   'Pt1 F16'
_cell_volume   293.24350134
_cell_formula_units_Z   1
loop_
 _symmetry_equiv_pos_site_id
 _symmetry_equiv_pos_as_xyz
  1  'x, y, z'
loop_
 _atom_site_type_symbol
 _atom_site_label
 _atom_site_symmetry_multiplicity
 _atom_site_fract_x
 _atom_site_fract_y
 _atom_site_fract_z
 _atom_site_occupancy
  Pt  Pt0  1  0.000000  0.000000  0.000000  1
  F  F1  1  0.066578  0.666667  0.333333  1
  F  F2  1  0.933422  0.333333  0.666667  1
  F  F3  1  0.611243  0.470082  0.940163  1
  F  F4  1  0.388757  0.529918  0.059837  1
  F  F5  1  0.611243  0.470082  0.529918  1
  F  F6  1  0.388757  0.529918  0.470082  1
  F  F7  1  0.611243  0.059837  0.529918  1
  F  F8  1  0.388757  0.940163  0.470082  1
  F  F9  1  0.789131  0.889170  0.778341  1
  F  F10  1  0.210869  0.110830  0.221659  1
  F  F11  1  0.789131  0.889170  0.110830  1
  F  F12  1  0.210869  0.110830  0.889170  1
  F  F13  1  0.789131  0.221659  0.110830  1
  F  F14  1  0.210869  0.778341  0.889170  1
  F  F15  1  0.792711  0.666667  0.333333  1
  F  F16  1  0.207289  0.333333  0.666667  1
