# generated using pymatgen
data_Zr2Co9NiP6
_symmetry_space_group_name_H-M   'P 1'
_cell_length_a   3.60335400
_cell_length_b   10.12076000
_cell_length_c   11.66008100
_cell_angle_alpha   90.00000000
_cell_angle_beta   90.00000000
_cell_angle_gamma   90.00000000
_symmetry_Int_Tables_number   1
_chemical_formula_structural   Zr2Co9NiP6
_chemical_formula_sum   'Zr4 Co18 Ni2 P12'
_cell_volume   425.22777476
_cell_formula_units_Z   2
loop_
 _symmetry_equiv_pos_site_id
 _symmetry_equiv_pos_as_xyz
  1  'x, y, z'
loop_
 _atom_site_type_symbol
 _atom_site_label
 _atom_site_symmetry_multiplicity
 _atom_site_fract_x
 _atom_site_fract_y
 _atom_site_fract_z
 _atom_site_occupancy
  Zr  Zr0  1  0.250000  0.580129  0.703146  1
  Zr  Zr1  1  0.250000  0.919871  0.203146  1
  Zr  Zr2  1  0.750000  0.420858  0.298222  1
  Zr  Zr3  1  0.750000  0.079142  0.798222  1
  Co  Co4  1  0.750000  0.282053  0.005984  1
  Co  Co5  1  0.750000  0.217947  0.505984  1
  Co  Co6  1  0.250000  0.408614  0.486357  1
  Co  Co7  1  0.250000  0.091386  0.986357  1
  Co  Co8  1  0.750000  0.589796  0.516013  1
  Co  Co9  1  0.750000  0.910204  0.016013  1
  Co  Co10  1  0.250000  0.223994  0.178003  1
  Co  Co11  1  0.250000  0.276007  0.678003  1
  Co  Co12  1  0.750000  0.776513  0.821258  1
  Co  Co13  1  0.750000  0.723487  0.321258  1
  Co  Co14  1  0.250000  0.882473  0.700555  1
  Co  Co15  1  0.250000  0.617527  0.200555  1
  Co  Co16  1  0.750000  0.118431  0.299436  1
  Co  Co17  1  0.750000  0.381569  0.799436  1
  Co  Co18  1  0.250000  0.465923  0.930047  1
  Co  Co19  1  0.250000  0.034077  0.430047  1
  Co  Co20  1  0.750000  0.533500  0.068108  1
  Co  Co21  1  0.750000  0.966500  0.568108  1
  Ni  Ni22  1  0.250000  0.716502  0.992505  1
  Ni  Ni23  1  0.250000  0.783498  0.492505  1
  P  P24  1  0.250000  0.420589  0.114092  1
  P  P25  1  0.250000  0.079411  0.614092  1
  P  P26  1  0.750000  0.579608  0.884608  1
  P  P27  1  0.750000  0.920392  0.384608  1
  P  P28  1  0.250000  0.265486  0.869139  1
  P  P29  1  0.250000  0.234514  0.369139  1
  P  P30  1  0.750000  0.733623  0.132152  1
  P  P31  1  0.750000  0.766377  0.632152  1
  P  P32  1  0.250000  0.600997  0.390075  1
  P  P33  1  0.250000  0.899003  0.890075  1
  P  P34  1  0.750000  0.398563  0.610300  1
  P  P35  1  0.750000  0.101437  0.110300  1
