# generated using pymatgen
data_HoTh3(Al3Re)2
_symmetry_space_group_name_H-M   'P 1'
_cell_length_a   5.55903800
_cell_length_b   5.55903789
_cell_length_c   9.15593300
_cell_angle_alpha   90.00000000
_cell_angle_beta   90.00000000
_cell_angle_gamma   120.00000066
_symmetry_Int_Tables_number   1
_chemical_formula_structural   HoTh3(Al3Re)2
_chemical_formula_sum   'Ho1 Th3 Al6 Re2'
_cell_volume   245.03747669
_cell_formula_units_Z   1
loop_
 _symmetry_equiv_pos_site_id
 _symmetry_equiv_pos_as_xyz
  1  'x, y, z'
loop_
 _atom_site_type_symbol
 _atom_site_label
 _atom_site_symmetry_multiplicity
 _atom_site_fract_x
 _atom_site_fract_y
 _atom_site_fract_z
 _atom_site_occupancy
  Ho  Ho0  1  0.333333  0.666666  0.942431  1
  Th  Th1  1  0.666666  0.333333  0.050656  1
  Th  Th2  1  0.666666  0.333333  0.454589  1
  Th  Th3  1  0.333333  0.666666  0.546102  1
  Al  Al4  1  0.162343  0.324687  0.246549  1
  Al  Al5  1  0.162343  0.837656  0.246549  1
  Al  Al6  1  0.675313  0.837656  0.246549  1
  Al  Al7  1  0.323163  0.161581  0.754149  1
  Al  Al8  1  0.838418  0.161581  0.754149  1
  Al  Al9  1  0.838418  0.676835  0.754149  1
  Re  Re10  1  0.000000  0.000000  0.002308  1
  Re  Re11  1  0.000000  0.000000  0.501820  1
