# generated using pymatgen
data_SmH6Ir
_symmetry_space_group_name_H-M   'P 1'
_cell_length_a   4.72084208
_cell_length_b   4.72084380
_cell_length_c   4.72361286
_cell_angle_alpha   57.23579256
_cell_angle_beta   57.23578988
_cell_angle_gamma   57.23447245
_symmetry_Int_Tables_number   1
_chemical_formula_structural   SmH6Ir
_chemical_formula_sum   'Sm1 H6 Ir1'
_cell_volume   69.69901704
_cell_formula_units_Z   1
loop_
 _symmetry_equiv_pos_site_id
 _symmetry_equiv_pos_as_xyz
  1  'x, y, z'
loop_
 _atom_site_type_symbol
 _atom_site_label
 _atom_site_symmetry_multiplicity
 _atom_site_fract_x
 _atom_site_fract_y
 _atom_site_fract_z
 _atom_site_occupancy
  Sm  Sm0  1  0.500000  0.500000  0.500000  1
  H  H1  1  0.566699  0.100973  0.100903  1
  H  H2  1  0.100973  0.566699  0.100903  1
  H  H3  1  0.899338  0.899338  0.432795  1
  H  H4  1  0.100662  0.100662  0.567204  1
  H  H5  1  0.899027  0.433300  0.899097  1
  H  H6  1  0.433300  0.899027  0.899097  1
  Ir  Ir7  1  0.000000  0.000000  0.000000  1
