# generated using pymatgen
data_Tb3YFe8(PRh)12
_symmetry_space_group_name_H-M   'P 1'
_cell_length_a   3.80827900
_cell_length_b   10.56146861
_cell_length_c   12.28609202
_cell_angle_alpha   90.08042990
_cell_angle_beta   90.00000000
_cell_angle_gamma   90.00000000
_symmetry_Int_Tables_number   1
_chemical_formula_structural   Tb3YFe8(PRh)12
_chemical_formula_sum   'Tb3 Y1 Fe8 P12 Rh12'
_cell_volume   494.15865498
_cell_formula_units_Z   1
loop_
 _symmetry_equiv_pos_site_id
 _symmetry_equiv_pos_as_xyz
  1  'x, y, z'
loop_
 _atom_site_type_symbol
 _atom_site_label
 _atom_site_symmetry_multiplicity
 _atom_site_fract_x
 _atom_site_fract_y
 _atom_site_fract_z
 _atom_site_occupancy
  Tb  Tb0  1  0.250000  0.921411  0.210027  1
  Tb  Tb1  1  0.750000  0.421501  0.289838  1
  Tb  Tb2  1  0.750000  0.078568  0.790001  1
  Y  Y3  1  0.250000  0.578438  0.710206  1
  Fe  Fe4  1  0.250000  0.875399  0.698427  1
  Fe  Fe5  1  0.250000  0.624312  0.198272  1
  Fe  Fe6  1  0.750000  0.124421  0.301644  1
  Fe  Fe7  1  0.750000  0.375733  0.801563  1
  Fe  Fe8  1  0.250000  0.459171  0.934555  1
  Fe  Fe9  1  0.250000  0.040964  0.434873  1
  Fe  Fe10  1  0.750000  0.540948  0.065212  1
  Fe  Fe11  1  0.750000  0.958899  0.565315  1
  P  P12  1  0.250000  0.441262  0.111177  1
  P  P13  1  0.250000  0.058629  0.611430  1
  P  P14  1  0.750000  0.558791  0.888544  1
  P  P15  1  0.750000  0.941226  0.388705  1
  P  P16  1  0.250000  0.272751  0.863886  1
  P  P17  1  0.250000  0.227285  0.363933  1
  P  P18  1  0.750000  0.727220  0.136063  1
  P  P19  1  0.750000  0.772537  0.636167  1
  P  P20  1  0.250000  0.602483  0.381103  1
  P  P21  1  0.250000  0.897638  0.881206  1
  P  P22  1  0.750000  0.397751  0.618880  1
  P  P23  1  0.750000  0.102361  0.118831  1
  Rh  Rh24  1  0.250000  0.714057  0.991343  1
  Rh  Rh25  1  0.250000  0.786065  0.491203  1
  Rh  Rh26  1  0.750000  0.286051  0.008765  1
  Rh  Rh27  1  0.750000  0.214126  0.508720  1
  Rh  Rh28  1  0.250000  0.408038  0.479516  1
  Rh  Rh29  1  0.250000  0.092028  0.979572  1
  Rh  Rh30  1  0.750000  0.592106  0.520667  1
  Rh  Rh31  1  0.750000  0.908054  0.020419  1
  Rh  Rh32  1  0.250000  0.232431  0.173612  1
  Rh  Rh33  1  0.250000  0.267507  0.673667  1
  Rh  Rh34  1  0.750000  0.767393  0.826382  1
  Rh  Rh35  1  0.750000  0.732445  0.326277  1
