# generated using pymatgen
data_ErHf7(V3Si4)4
_symmetry_space_group_name_H-M   'P 1'
_cell_length_a   6.62436403
_cell_length_b   6.62302322
_cell_length_c   12.26749944
_cell_angle_alpha   89.94084558
_cell_angle_beta   90.00868066
_cell_angle_gamma   89.93243098
_symmetry_Int_Tables_number   1
_chemical_formula_structural   ErHf7(V3Si4)4
_chemical_formula_sum   'Er1 Hf7 V12 Si16'
_cell_volume   538.21522202
_cell_formula_units_Z   1
loop_
 _symmetry_equiv_pos_site_id
 _symmetry_equiv_pos_as_xyz
  1  'x, y, z'
loop_
 _atom_site_type_symbol
 _atom_site_label
 _atom_site_symmetry_multiplicity
 _atom_site_fract_x
 _atom_site_fract_y
 _atom_site_fract_z
 _atom_site_occupancy
  Er  Er0  1  0.999370  0.663716  0.029697  1
  Hf  Hf1  1  0.337718  0.997625  0.470349  1
  Hf  Hf2  1  0.502591  0.837925  0.718892  1
  Hf  Hf3  1  0.496175  0.162524  0.221659  1
  Hf  Hf4  1  0.837849  0.503312  0.281001  1
  Hf  Hf5  1  0.162542  0.496783  0.779681  1
  Hf  Hf6  1  0.658928  0.005181  0.968996  1
  Hf  Hf7  1  0.996991  0.338419  0.529927  1
  V  V8  1  0.335847  0.330356  0.999840  1
  V  V9  1  0.166798  0.834891  0.251314  1
  V  V10  1  0.833194  0.166697  0.749096  1
  V  V11  1  0.666713  0.667039  0.500127  1
  V  V12  1  0.163073  0.003090  0.871278  1
  V  V13  1  0.496830  0.659315  0.124547  1
  V  V14  1  0.503312  0.340850  0.622791  1
  V  V15  1  0.660251  0.492356  0.874511  1
  V  V16  1  0.340612  0.504085  0.377605  1
  V  V17  1  0.839733  0.997312  0.374584  1
  V  V18  1  0.005573  0.159437  0.128282  1
  V  V19  1  0.995976  0.840755  0.625404  1
  Si  Si20  1  0.204949  0.126793  0.678073  1
  Si  Si21  1  0.377349  0.703665  0.928152  1
  Si  Si22  1  0.626496  0.295209  0.428806  1
  Si  Si23  1  0.702521  0.369650  0.071358  1
  Si  Si24  1  0.294131  0.626816  0.571469  1
  Si  Si25  1  0.792171  0.876673  0.181526  1
  Si  Si26  1  0.126475  0.205756  0.322412  1
  Si  Si27  1  0.872312  0.796997  0.818113  1
  Si  Si28  1  0.293353  0.962084  0.064856  1
  Si  Si29  1  0.538181  0.791435  0.315521  1
  Si  Si30  1  0.460537  0.208584  0.813149  1
  Si  Si31  1  0.791141  0.538801  0.684784  1
  Si  Si32  1  0.210223  0.460397  0.187081  1
  Si  Si33  1  0.708552  0.039890  0.564487  1
  Si  Si34  1  0.962265  0.286074  0.935114  1
  Si  Si35  1  0.039271  0.709512  0.435517  1
