# generated using pymatgen
data_YbSm4Lu3(B6Os)4
_symmetry_space_group_name_H-M   'P 1'
_cell_length_a   3.65952000
_cell_length_b   9.14108400
_cell_length_c   11.55812800
_cell_angle_alpha   90.00141715
_cell_angle_beta   90.00000000
_cell_angle_gamma   90.00000000
_symmetry_Int_Tables_number   1
_chemical_formula_structural   YbSm4Lu3(B6Os)4
_chemical_formula_sum   'Yb1 Sm4 Lu3 B24 Os4'
_cell_volume   386.64226339
_cell_formula_units_Z   1
loop_
 _symmetry_equiv_pos_site_id
 _symmetry_equiv_pos_as_xyz
  1  'x, y, z'
loop_
 _atom_site_type_symbol
 _atom_site_label
 _atom_site_symmetry_multiplicity
 _atom_site_fract_x
 _atom_site_fract_y
 _atom_site_fract_z
 _atom_site_occupancy
  Yb  Yb0  1  0.000000  0.943878  0.371753  1
  Sm  Sm1  1  0.000000  0.321293  0.413542  1
  Sm  Sm2  1  0.000000  0.678626  0.584131  1
  Sm  Sm3  1  0.000000  0.822747  0.087244  1
  Sm  Sm4  1  0.000000  0.177936  0.915181  1
  Lu  Lu5  1  0.000000  0.055676  0.627056  1
  Lu  Lu6  1  0.000000  0.444087  0.127728  1
  Lu  Lu7  1  0.000000  0.556185  0.872391  1
  B  B8  1  0.500000  0.555011  0.430814  1
  B  B9  1  0.500000  0.444130  0.568942  1
  B  B10  1  0.500000  0.055673  0.069055  1
  B  B11  1  0.500000  0.944550  0.931294  1
  B  B12  1  0.500000  0.749731  0.417257  1
  B  B13  1  0.500000  0.249222  0.582020  1
  B  B14  1  0.500000  0.250787  0.082081  1
  B  B15  1  0.500000  0.749499  0.917996  1
  B  B16  1  0.500000  0.790905  0.266747  1
  B  B17  1  0.500000  0.208161  0.733613  1
  B  B18  1  0.500000  0.291498  0.233260  1
  B  B19  1  0.500000  0.708511  0.766261  1
  B  B20  1  0.500000  0.630014  0.185248  1
  B  B21  1  0.500000  0.369879  0.815256  1
  B  B22  1  0.500000  0.130294  0.314512  1
  B  B23  1  0.500000  0.869586  0.684444  1
  B  B24  1  0.500000  0.984944  0.213952  1
  B  B25  1  0.500000  0.015884  0.785733  1
  B  B26  1  0.500000  0.483469  0.285863  1
  B  B27  1  0.500000  0.516198  0.714162  1
  B  B28  1  0.500000  0.601729  0.027725  1
  B  B29  1  0.500000  0.398514  0.972148  1
  B  B30  1  0.500000  0.102390  0.473324  1
  B  B31  1  0.500000  0.898704  0.528983  1
  Os  Os32  1  0.000000  0.637902  0.318945  1
  Os  Os33  1  0.000000  0.360845  0.681476  1
  Os  Os34  1  0.000000  0.140659  0.179713  1
  Os  Os35  1  0.000000  0.860884  0.820148  1
