# generated using pymatgen
data_Sm4Dy4Sc12Si15Au
_symmetry_space_group_name_H-M   'P 1'
_cell_length_a   7.16493267
_cell_length_b   7.41510640
_cell_length_c   14.13514941
_cell_angle_alpha   89.95026888
_cell_angle_beta   89.72705084
_cell_angle_gamma   90.25172478
_symmetry_Int_Tables_number   1
_chemical_formula_structural   Sm4Dy4Sc12Si15Au
_chemical_formula_sum   'Sm4 Dy4 Sc12 Si15 Au1'
_cell_volume   750.96658542
_cell_formula_units_Z   1
loop_
 _symmetry_equiv_pos_site_id
 _symmetry_equiv_pos_as_xyz
  1  'x, y, z'
loop_
 _atom_site_type_symbol
 _atom_site_label
 _atom_site_symmetry_multiplicity
 _atom_site_fract_x
 _atom_site_fract_y
 _atom_site_fract_z
 _atom_site_occupancy
  Sm  Sm0  1  0.011975  0.174103  0.098065  1
  Sm  Sm1  1  0.987685  0.827244  0.903721  1
  Sm  Sm2  1  0.487717  0.674396  0.904568  1
  Sm  Sm3  1  0.988693  0.829508  0.596386  1
  Dy  Dy4  1  0.512075  0.324091  0.097952  1
  Dy  Dy5  1  0.010476  0.175098  0.398550  1
  Dy  Dy6  1  0.510100  0.324324  0.400456  1
  Dy  Dy7  1  0.491091  0.676104  0.598921  1
  Sc  Sc8  1  0.163037  0.500173  0.750660  1
  Sc  Sc9  1  0.837264  0.498697  0.251134  1
  Sc  Sc10  1  0.338060  0.999637  0.249546  1
  Sc  Sc11  1  0.664401  0.998176  0.750847  1
  Sc  Sc12  1  0.339482  0.176812  0.625295  1
  Sc  Sc13  1  0.666176  0.823161  0.373536  1
  Sc  Sc14  1  0.169270  0.672039  0.373274  1
  Sc  Sc15  1  0.670237  0.824223  0.126031  1
  Sc  Sc16  1  0.827660  0.325922  0.624313  1
  Sc  Sc17  1  0.329375  0.175662  0.875837  1
  Sc  Sc18  1  0.829547  0.323377  0.875951  1
  Sc  Sc19  1  0.169638  0.675430  0.125693  1
  Si  Si20  1  0.036443  0.123618  0.750269  1
  Si  Si21  1  0.966008  0.880843  0.250489  1
  Si  Si22  1  0.466688  0.615993  0.248614  1
  Si  Si23  1  0.536002  0.382466  0.751602  1
  Si  Si24  1  0.287295  0.877694  0.749551  1
  Si  Si25  1  0.710739  0.126507  0.250075  1
  Si  Si26  1  0.215713  0.373075  0.249110  1
  Si  Si27  1  0.786343  0.623272  0.751195  1
  Si  Si28  1  0.834960  0.535206  0.458256  1
  Si  Si29  1  0.342281  0.963459  0.459556  1
  Si  Si30  1  0.843346  0.535353  0.039969  1
  Si  Si31  1  0.654346  0.037364  0.536787  1
  Si  Si32  1  0.153134  0.463053  0.961976  1
  Si  Si33  1  0.653644  0.038518  0.962068  1
  Si  Si34  1  0.346435  0.965250  0.040364  1
  Au  Au35  1  0.162666  0.460152  0.539379  1
