# generated using pymatgen
data_Ac3Cu3Bi4
_symmetry_space_group_name_H-M   'P 1'
_cell_length_a   8.97500912
_cell_length_b   8.97500826
_cell_length_c   8.97500900
_cell_angle_alpha   109.47121779
_cell_angle_beta   109.47121584
_cell_angle_gamma   109.47122099
_symmetry_Int_Tables_number   1
_chemical_formula_structural   Ac3Cu3Bi4
_chemical_formula_sum   'Ac6 Cu6 Bi8'
_cell_volume   556.52258882
_cell_formula_units_Z   2
loop_
 _symmetry_equiv_pos_site_id
 _symmetry_equiv_pos_as_xyz
  1  'x, y, z'
loop_
 _atom_site_type_symbol
 _atom_site_label
 _atom_site_symmetry_multiplicity
 _atom_site_fract_x
 _atom_site_fract_y
 _atom_site_fract_z
 _atom_site_occupancy
  Ac  Ac0  1  0.125000  0.875000  0.250000  1
  Ac  Ac1  1  0.375000  0.625000  0.750000  1
  Ac  Ac2  1  0.875000  0.250000  0.125000  1
  Ac  Ac3  1  0.625000  0.750000  0.375000  1
  Ac  Ac4  1  0.250000  0.125000  0.875000  1
  Ac  Ac5  1  0.750000  0.375000  0.625000  1
  Cu  Cu6  1  0.625000  0.375000  0.250000  1
  Cu  Cu7  1  0.875000  0.125000  0.750000  1
  Cu  Cu8  1  0.375000  0.250000  0.625000  1
  Cu  Cu9  1  0.125000  0.750000  0.875000  1
  Cu  Cu10  1  0.250000  0.625000  0.375000  1
  Cu  Cu11  1  0.750000  0.875000  0.125000  1
  Bi  Bi12  1  0.338180  0.338180  0.338180  1
  Bi  Bi13  1  0.161820  0.500000  0.000000  1
  Bi  Bi14  1  0.000000  0.161820  0.500000  1
  Bi  Bi15  1  0.838180  0.838180  0.838180  1
  Bi  Bi16  1  0.500000  0.000000  0.161820  1
  Bi  Bi17  1  0.661820  0.500000  0.000000  1
  Bi  Bi18  1  0.500000  0.000000  0.661820  1
  Bi  Bi19  1  0.000000  0.661820  0.500000  1
