# generated using pymatgen
data_Pu3NiO12
_symmetry_space_group_name_H-M   'P 1'
_cell_length_a   8.38721207
_cell_length_b   6.05584902
_cell_length_c   7.15478918
_cell_angle_alpha   107.59587684
_cell_angle_beta   55.93704551
_cell_angle_gamma   118.90612661
_symmetry_Int_Tables_number   1
_chemical_formula_structural   Pu3NiO12
_chemical_formula_sum   'Pu3 Ni1 O12'
_cell_volume   263.29507358
_cell_formula_units_Z   1
loop_
 _symmetry_equiv_pos_site_id
 _symmetry_equiv_pos_as_xyz
  1  'x, y, z'
loop_
 _atom_site_type_symbol
 _atom_site_label
 _atom_site_symmetry_multiplicity
 _atom_site_fract_x
 _atom_site_fract_y
 _atom_site_fract_z
 _atom_site_occupancy
  Pu  Pu0  1  0.000000  0.000000  0.500000  1
  Pu  Pu1  1  0.500000  0.500000  0.000000  1
  Pu  Pu2  1  0.000000  0.500000  0.000000  1
  Ni  Ni3  1  0.000000  0.000000  0.000000  1
  O  O4  1  0.797989  0.626188  0.049527  1
  O  O5  1  0.202011  0.373812  0.950473  1
  O  O6  1  0.800206  0.182498  0.099400  1
  O  O7  1  0.199794  0.817502  0.900600  1
  O  O8  1  0.085194  0.943706  0.664488  1
  O  O9  1  0.914806  0.056294  0.335512  1
  O  O10  1  0.659011  0.752771  0.788835  1
  O  O11  1  0.340989  0.247229  0.211165  1
  O  O12  1  0.412178  0.718922  0.223436  1
  O  O13  1  0.587822  0.281078  0.776564  1
  O  O14  1  0.019890  0.321960  0.658395  1
  O  O15  1  0.980110  0.678040  0.341605  1
