# generated using pymatgen
data_SrPrBO4
_symmetry_space_group_name_H-M   'P 1'
_cell_length_a   3.85120500
_cell_length_b   10.02213100
_cell_length_c   11.11514500
_cell_angle_alpha   90.00000000
_cell_angle_beta   90.00000000
_cell_angle_gamma   90.00000000
_symmetry_Int_Tables_number   1
_chemical_formula_structural   SrPrBO4
_chemical_formula_sum   'Sr4 Pr4 B4 O16'
_cell_volume   429.01437512
_cell_formula_units_Z   4
loop_
 _symmetry_equiv_pos_site_id
 _symmetry_equiv_pos_as_xyz
  1  'x, y, z'
loop_
 _atom_site_type_symbol
 _atom_site_label
 _atom_site_symmetry_multiplicity
 _atom_site_fract_x
 _atom_site_fract_y
 _atom_site_fract_z
 _atom_site_occupancy
  Sr  Sr0  1  0.250000  0.666517  0.080183  1
  Sr  Sr1  1  0.750000  0.333483  0.919817  1
  Sr  Sr2  1  0.750000  0.166517  0.419817  1
  Sr  Sr3  1  0.250000  0.833483  0.580183  1
  Pr  Pr4  1  0.250000  0.085574  0.115342  1
  Pr  Pr5  1  0.750000  0.914426  0.884658  1
  Pr  Pr6  1  0.750000  0.585574  0.384658  1
  Pr  Pr7  1  0.250000  0.414426  0.615342  1
  B  B8  1  0.250000  0.367240  0.203047  1
  B  B9  1  0.750000  0.632760  0.796953  1
  B  B10  1  0.750000  0.867240  0.296953  1
  B  B11  1  0.250000  0.132760  0.703047  1
  O  O12  1  0.250000  0.495601  0.250615  1
  O  O13  1  0.750000  0.504399  0.749385  1
  O  O14  1  0.750000  0.995601  0.249385  1
  O  O15  1  0.250000  0.004399  0.750615  1
  O  O16  1  0.250000  0.254371  0.277478  1
  O  O17  1  0.750000  0.745629  0.722522  1
  O  O18  1  0.750000  0.754371  0.222522  1
  O  O19  1  0.250000  0.245629  0.777478  1
  O  O20  1  0.250000  0.349668  0.077137  1
  O  O21  1  0.750000  0.650332  0.922863  1
  O  O22  1  0.750000  0.849668  0.422863  1
  O  O23  1  0.250000  0.150332  0.577137  1
  O  O24  1  0.250000  0.613094  0.500209  1
  O  O25  1  0.750000  0.386906  0.499791  1
  O  O26  1  0.750000  0.113094  0.999791  1
  O  O27  1  0.250000  0.886906  0.000209  1
