# generated using pymatgen
data_Hf3Zr(Si3Ni5)4
_symmetry_space_group_name_H-M   'P 1'
_cell_length_a   3.69462400
_cell_length_b   6.62548322
_cell_length_c   18.30467800
_cell_angle_alpha   90.10065167
_cell_angle_beta   90.00000000
_cell_angle_gamma   90.00000000
_symmetry_Int_Tables_number   1
_chemical_formula_structural   Hf3Zr(Si3Ni5)4
_chemical_formula_sum   'Hf3 Zr1 Si12 Ni20'
_cell_volume   448.07346853
_cell_formula_units_Z   1
loop_
 _symmetry_equiv_pos_site_id
 _symmetry_equiv_pos_as_xyz
  1  'x, y, z'
loop_
 _atom_site_type_symbol
 _atom_site_label
 _atom_site_symmetry_multiplicity
 _atom_site_fract_x
 _atom_site_fract_y
 _atom_site_fract_z
 _atom_site_occupancy
  Hf  Hf0  1  0.250000  0.620819  0.643001  1
  Hf  Hf1  1  0.750000  0.379089  0.357592  1
  Hf  Hf2  1  0.750000  0.120599  0.856637  1
  Zr  Zr3  1  0.250000  0.879157  0.142789  1
  Si  Si4  1  0.250000  0.853550  0.922721  1
  Si  Si5  1  0.750000  0.149921  0.077167  1
  Si  Si6  1  0.750000  0.352849  0.577319  1
  Si  Si7  1  0.250000  0.647994  0.423062  1
  Si  Si8  1  0.750000  0.623237  0.759965  1
  Si  Si9  1  0.250000  0.374607  0.240390  1
  Si  Si10  1  0.250000  0.405280  0.913317  1
  Si  Si11  1  0.750000  0.594475  0.085389  1
  Si  Si12  1  0.750000  0.905145  0.586278  1
  Si  Si13  1  0.250000  0.094643  0.414554  1
  Si  Si14  1  0.250000  0.123165  0.739703  1
  Si  Si15  1  0.750000  0.874890  0.260212  1
  Ni  Ni16  1  0.250000  0.130895  0.994088  1
  Ni  Ni17  1  0.750000  0.379144  0.985834  1
  Ni  Ni18  1  0.750000  0.120799  0.487140  1
  Ni  Ni19  1  0.250000  0.620270  0.012075  1
  Ni  Ni20  1  0.250000  0.358985  0.115002  1
  Ni  Ni21  1  0.750000  0.644469  0.884976  1
  Ni  Ni22  1  0.750000  0.856531  0.385324  1
  Ni  Ni23  1  0.250000  0.144286  0.614690  1
  Ni  Ni24  1  0.250000  0.068992  0.294267  1
  Ni  Ni25  1  0.750000  0.929313  0.706805  1
  Ni  Ni26  1  0.750000  0.567473  0.206651  1
  Ni  Ni27  1  0.250000  0.429669  0.792944  1
  Ni  Ni28  1  0.750000  0.629286  0.505803  1
  Ni  Ni29  1  0.250000  0.371149  0.494573  1
  Ni  Ni30  1  0.250000  0.820084  0.799327  1
  Ni  Ni31  1  0.750000  0.180332  0.201366  1
  Ni  Ni32  1  0.750000  0.319690  0.700504  1
  Ni  Ni33  1  0.250000  0.678297  0.299807  1
  Ni  Ni34  1  0.250000  0.879034  0.513719  1
  Ni  Ni35  1  0.750000  0.871884  0.005014  1
