# generated using pymatgen
data_Dy4Sc4Cr(B8Ru)3
_symmetry_space_group_name_H-M   'P 1'
_cell_length_a   3.53811400
_cell_length_b   8.97397742
_cell_length_c   11.35765900
_cell_angle_alpha   89.98388465
_cell_angle_beta   90.00000000
_cell_angle_gamma   90.00000000
_symmetry_Int_Tables_number   1
_chemical_formula_structural   Dy4Sc4Cr(B8Ru)3
_chemical_formula_sum   'Dy4 Sc4 Cr1 B24 Ru3'
_cell_volume   360.61650742
_cell_formula_units_Z   1
loop_
 _symmetry_equiv_pos_site_id
 _symmetry_equiv_pos_as_xyz
  1  'x, y, z'
loop_
 _atom_site_type_symbol
 _atom_site_label
 _atom_site_symmetry_multiplicity
 _atom_site_fract_x
 _atom_site_fract_y
 _atom_site_fract_z
 _atom_site_occupancy
  Dy  Dy0  1  0.000000  0.820520  0.084777  1
  Dy  Dy1  1  0.000000  0.181149  0.912239  1
  Dy  Dy2  1  0.000000  0.320717  0.416507  1
  Dy  Dy3  1  0.000000  0.677625  0.587067  1
  Sc  Sc4  1  0.000000  0.444329  0.127707  1
  Sc  Sc5  1  0.000000  0.553898  0.871373  1
  Sc  Sc6  1  0.000000  0.943480  0.372603  1
  Sc  Sc7  1  0.000000  0.057550  0.627595  1
  Cr  Cr8  1  0.000000  0.359730  0.681823  1
  B  B9  1  0.500000  0.054886  0.067142  1
  B  B10  1  0.500000  0.945438  0.932222  1
  B  B11  1  0.500000  0.554581  0.432869  1
  B  B12  1  0.500000  0.445754  0.567959  1
  B  B13  1  0.500000  0.252953  0.081472  1
  B  B14  1  0.500000  0.746547  0.918036  1
  B  B15  1  0.500000  0.752372  0.418641  1
  B  B16  1  0.500000  0.247773  0.582104  1
  B  B17  1  0.500000  0.293230  0.235205  1
  B  B18  1  0.500000  0.706218  0.765256  1
  B  B19  1  0.500000  0.793412  0.265177  1
  B  B20  1  0.500000  0.206812  0.734484  1
  B  B21  1  0.500000  0.128672  0.317373  1
  B  B22  1  0.500000  0.871512  0.683297  1
  B  B23  1  0.500000  0.628616  0.182726  1
  B  B24  1  0.500000  0.371392  0.816216  1
  B  B25  1  0.500000  0.481697  0.285876  1
  B  B26  1  0.500000  0.518406  0.714035  1
  B  B27  1  0.500000  0.981633  0.214125  1
  B  B28  1  0.500000  0.018939  0.785411  1
  B  B29  1  0.500000  0.098252  0.473156  1
  B  B30  1  0.500000  0.901284  0.526836  1
  B  B31  1  0.500000  0.598439  0.026734  1
  B  B32  1  0.500000  0.401477  0.973456  1
  Ru  Ru33  1  0.000000  0.139835  0.181712  1
  Ru  Ru34  1  0.000000  0.860233  0.818983  1
  Ru  Ru35  1  0.000000  0.640636  0.317802  1
