# generated using pymatgen
data_Na7Nb(SO4)6
_symmetry_space_group_name_H-M   'P 1'
_cell_length_a   8.60524734
_cell_length_b   8.60524791
_cell_length_c   8.60524740
_cell_angle_alpha   108.13064427
_cell_angle_beta   108.13064017
_cell_angle_gamma   108.13065744
_symmetry_Int_Tables_number   1
_chemical_formula_structural   Na7Nb(SO4)6
_chemical_formula_sum   'Na7 Nb1 S6 O24'
_cell_volume   513.43736986
_cell_formula_units_Z   1
loop_
 _symmetry_equiv_pos_site_id
 _symmetry_equiv_pos_as_xyz
  1  'x, y, z'
loop_
 _atom_site_type_symbol
 _atom_site_label
 _atom_site_symmetry_multiplicity
 _atom_site_fract_x
 _atom_site_fract_y
 _atom_site_fract_z
 _atom_site_occupancy
  Na  Na0  1  0.500000  0.500000  0.500000  1
  Na  Na1  1  0.839722  0.340742  0.682473  1
  Na  Na2  1  0.340742  0.682473  0.839722  1
  Na  Na3  1  0.682473  0.839722  0.340742  1
  Na  Na4  1  0.160278  0.659258  0.317527  1
  Na  Na5  1  0.659258  0.317527  0.160278  1
  Na  Na6  1  0.317527  0.160278  0.659258  1
  Nb  Nb7  1  0.000000  0.000000  0.000000  1
  S  S8  1  0.964330  0.738141  0.594434  1
  S  S9  1  0.738141  0.594434  0.964330  1
  S  S10  1  0.594434  0.964330  0.738141  1
  S  S11  1  0.035670  0.261859  0.405566  1
  S  S12  1  0.261859  0.405566  0.035670  1
  S  S13  1  0.405566  0.035670  0.261859  1
  O  O14  1  0.474340  0.915197  0.176362  1
  O  O15  1  0.915197  0.176362  0.474340  1
  O  O16  1  0.176362  0.474340  0.915197  1
  O  O17  1  0.525660  0.084803  0.823638  1
  O  O18  1  0.084803  0.823638  0.525660  1
  O  O19  1  0.823638  0.525660  0.084803  1
  O  O20  1  0.320026  0.975460  0.369095  1
  O  O21  1  0.975460  0.369095  0.320026  1
  O  O22  1  0.369095  0.320026  0.975460  1
  O  O23  1  0.679974  0.024540  0.630905  1
  O  O24  1  0.024540  0.630905  0.679974  1
  O  O25  1  0.630905  0.679974  0.024540  1
  O  O26  1  0.747305  0.976014  0.905002  1
  O  O27  1  0.976014  0.905002  0.747305  1
  O  O28  1  0.636548  0.457040  0.769362  1
  O  O29  1  0.769362  0.636548  0.457040  1
  O  O30  1  0.457040  0.769362  0.636548  1
  O  O31  1  0.363452  0.542960  0.230638  1
  O  O32  1  0.230638  0.363452  0.542960  1
  O  O33  1  0.542960  0.230638  0.363452  1
  O  O34  1  0.094998  0.252695  0.023986  1
  O  O35  1  0.023986  0.094998  0.252695  1
  O  O36  1  0.252695  0.023986  0.094998  1
  O  O37  1  0.905002  0.747305  0.976014  1
