# generated using pymatgen
data_NaZr3(Al8Pt3)3
_symmetry_space_group_name_H-M   'P 1'
_cell_length_a   7.48355594
_cell_length_b   7.48113435
_cell_length_c   12.98743100
_cell_angle_alpha   84.48639626
_cell_angle_beta   101.03237144
_cell_angle_gamma   119.92004777
_symmetry_Int_Tables_number   1
_chemical_formula_structural   NaZr3(Al8Pt3)3
_chemical_formula_sum   'Na1 Zr3 Al24 Pt9'
_cell_volume   618.55363644
_cell_formula_units_Z   1
loop_
 _symmetry_equiv_pos_site_id
 _symmetry_equiv_pos_as_xyz
  1  'x, y, z'
loop_
 _atom_site_type_symbol
 _atom_site_label
 _atom_site_symmetry_multiplicity
 _atom_site_fract_x
 _atom_site_fract_y
 _atom_site_fract_z
 _atom_site_occupancy
  Na  Na0  1  0.232655  0.498561  0.191972  1
  Zr  Zr1  1  0.438502  0.830501  0.810534  1
  Zr  Zr2  1  0.561605  0.169111  0.189516  1
  Zr  Zr3  1  0.769598  0.501287  0.810302  1
  Al  Al4  1  0.483831  0.166233  0.940489  1
  Al  Al5  1  0.514481  0.832120  0.057529  1
  Al  Al6  1  0.021944  0.168093  0.563691  1
  Al  Al7  1  0.978962  0.832772  0.437162  1
  Al  Al8  1  0.353134  0.832263  0.561341  1
  Al  Al9  1  0.646817  0.166514  0.439275  1
  Al  Al10  1  0.610164  0.832798  0.324256  1
  Al  Al11  1  0.386816  0.165512  0.677660  1
  Al  Al12  1  0.058298  0.495196  0.677825  1
  Al  Al13  1  0.944514  0.504119  0.324244  1
  Al  Al14  1  0.730355  0.838242  0.676198  1
  Al  Al15  1  0.271025  0.165487  0.325233  1
  Al  Al16  1  0.147092  0.502344  0.942923  1
  Al  Al17  1  0.854029  0.496454  0.057622  1
  Al  Al18  1  0.812706  0.829738  0.948197  1
  Al  Al19  1  0.186476  0.170792  0.049141  1
  Al  Al20  1  0.313645  0.500678  0.439015  1
  Al  Al21  1  0.685943  0.499470  0.561039  1
  Al  Al22  1  0.111036  0.844474  0.182522  1
  Al  Al23  1  0.892193  0.164580  0.816399  1
  Al  Al24  1  0.312365  0.373498  0.815253  1
  Al  Al25  1  0.691671  0.623137  0.183566  1
  Al  Al26  1  0.103147  0.953965  0.815848  1
  Al  Al27  1  0.889611  0.042915  0.183121  1
  Pt  Pt28  1  0.390017  0.510248  0.639564  1
  Pt  Pt29  1  0.615555  0.492395  0.362697  1
  Pt  Pt30  1  0.170127  0.828384  0.996924  1
  Pt  Pt31  1  0.824998  0.169565  0.997429  1
  Pt  Pt32  1  0.295467  0.835571  0.363214  1
  Pt  Pt33  1  0.702266  0.166428  0.639291  1
  Pt  Pt34  1  0.045430  0.823168  0.638086  1
  Pt  Pt35  1  0.952202  0.172104  0.364284  1
  Pt  Pt36  1  0.501324  0.501283  0.996638  1
