# generated using pymatgen
data_Er6Tm10Cd3AgIr4
_symmetry_space_group_name_H-M   'P 1'
_cell_length_a   9.53559167
_cell_length_b   9.53559131
_cell_length_c   9.53559209
_cell_angle_alpha   59.66036333
_cell_angle_beta   59.66035685
_cell_angle_gamma   59.66036382
_symmetry_Int_Tables_number   1
_chemical_formula_structural   Er6Tm10Cd3AgIr4
_chemical_formula_sum   'Er6 Tm10 Cd3 Ag1 Ir4'
_cell_volume   608.36414054
_cell_formula_units_Z   1
loop_
 _symmetry_equiv_pos_site_id
 _symmetry_equiv_pos_as_xyz
  1  'x, y, z'
loop_
 _atom_site_type_symbol
 _atom_site_label
 _atom_site_symmetry_multiplicity
 _atom_site_fract_x
 _atom_site_fract_y
 _atom_site_fract_z
 _atom_site_occupancy
  Er  Er0  1  0.186492  0.811055  0.811055  1
  Er  Er1  1  0.811575  0.186526  0.186526  1
  Er  Er2  1  0.811055  0.186492  0.811055  1
  Er  Er3  1  0.186526  0.811575  0.186526  1
  Er  Er4  1  0.811055  0.811055  0.186492  1
  Er  Er5  1  0.186526  0.186526  0.811575  1
  Tm  Tm6  1  0.599907  0.599907  0.599907  1
  Tm  Tm7  1  0.600014  0.600014  0.202510  1
  Tm  Tm8  1  0.600014  0.202510  0.600014  1
  Tm  Tm9  1  0.202510  0.600014  0.600014  1
  Tm  Tm10  1  0.060308  0.438945  0.438945  1
  Tm  Tm11  1  0.437090  0.060233  0.060233  1
  Tm  Tm12  1  0.438945  0.060308  0.438945  1
  Tm  Tm13  1  0.060233  0.437090  0.060233  1
  Tm  Tm14  1  0.438945  0.438945  0.060308  1
  Tm  Tm15  1  0.060233  0.060233  0.437090  1
  Cd  Cd16  1  0.831433  0.831433  0.508514  1
  Cd  Cd17  1  0.831433  0.508514  0.831433  1
  Cd  Cd18  1  0.508514  0.831433  0.831433  1
  Ag  Ag19  1  0.833283  0.833283  0.833283  1
  Ir  Ir20  1  0.392081  0.392081  0.392081  1
  Ir  Ir21  1  0.393302  0.393302  0.825221  1
  Ir  Ir22  1  0.393302  0.825221  0.393302  1
  Ir  Ir23  1  0.825221  0.393302  0.393302  1
