# generated using pymatgen
data_Yb3Zn4Si3Ge
_symmetry_space_group_name_H-M   'P 1'
_cell_length_a   8.08958826
_cell_length_b   8.08958765
_cell_length_c   8.08958800
_cell_angle_alpha   149.26885156
_cell_angle_beta   130.71946648
_cell_angle_gamma   59.20749905
_symmetry_Int_Tables_number   1
_chemical_formula_structural   Yb3Zn4Si3Ge
_chemical_formula_sum   'Yb3 Zn4 Si3 Ge1'
_cell_volume   203.39972453
_cell_formula_units_Z   1
loop_
 _symmetry_equiv_pos_site_id
 _symmetry_equiv_pos_as_xyz
  1  'x, y, z'
loop_
 _atom_site_type_symbol
 _atom_site_label
 _atom_site_symmetry_multiplicity
 _atom_site_fract_x
 _atom_site_fract_y
 _atom_site_fract_z
 _atom_site_occupancy
  Yb  Yb0  1  0.371460  0.871460  0.500000  1
  Yb  Yb1  1  0.627756  0.127756  0.500000  1
  Yb  Yb2  1  0.000174  0.000174  0.000000  1
  Zn  Zn3  1  0.645379  0.336089  0.309289  1
  Zn  Zn4  1  0.362801  0.664502  0.698299  1
  Zn  Zn5  1  0.026800  0.336089  0.690711  1
  Zn  Zn6  1  0.966203  0.664502  0.301701  1
  Si  Si7  1  0.781918  0.781918  0.000000  1
  Si  Si8  1  0.676876  0.499579  0.177297  1
  Si  Si9  1  0.322283  0.499579  0.822703  1
  Ge  Ge10  1  0.218349  0.218349  0.000000  1
