# generated using pymatgen
data_Sc8Ta5Nb7Si15Ge
_symmetry_space_group_name_H-M   'P 1'
_cell_length_a   6.71540520
_cell_length_b   6.89519687
_cell_length_c   13.16617121
_cell_angle_alpha   89.93392020
_cell_angle_beta   90.10686489
_cell_angle_gamma   90.03958357
_symmetry_Int_Tables_number   1
_chemical_formula_structural   Sc8Ta5Nb7Si15Ge
_chemical_formula_sum   'Sc8 Ta5 Nb7 Si15 Ge1'
_cell_volume   609.64531971
_cell_formula_units_Z   1
loop_
 _symmetry_equiv_pos_site_id
 _symmetry_equiv_pos_as_xyz
  1  'x, y, z'
loop_
 _atom_site_type_symbol
 _atom_site_label
 _atom_site_symmetry_multiplicity
 _atom_site_fract_x
 _atom_site_fract_y
 _atom_site_fract_z
 _atom_site_occupancy
  Sc  Sc0  1  0.499832  0.672593  0.595780  1
  Sc  Sc1  1  0.001155  0.825555  0.904511  1
  Sc  Sc2  1  0.498895  0.325263  0.094940  1
  Sc  Sc3  1  0.002488  0.176792  0.404086  1
  Sc  Sc4  1  0.498211  0.327228  0.404613  1
  Sc  Sc5  1  0.998520  0.174383  0.095101  1
  Sc  Sc6  1  0.501405  0.674577  0.904669  1
  Sc  Sc7  1  0.002023  0.823860  0.596150  1
  Ta  Ta8  1  0.660422  0.177485  0.626745  1
  Ta  Ta9  1  0.837513  0.494126  0.749999  1
  Ta  Ta10  1  0.338355  0.006306  0.749990  1
  Ta  Ta11  1  0.161900  0.505866  0.249841  1
  Ta  Ta12  1  0.661654  0.993057  0.248280  1
  Nb  Nb13  1  0.162283  0.325058  0.875321  1
  Nb  Nb14  1  0.336603  0.825532  0.124685  1
  Nb  Nb15  1  0.839436  0.670795  0.373945  1
  Nb  Nb16  1  0.335408  0.825261  0.374924  1
  Nb  Nb17  1  0.837023  0.674567  0.124637  1
  Nb  Nb18  1  0.663161  0.174672  0.875136  1
  Nb  Nb19  1  0.163375  0.325314  0.625055  1
  Si  Si20  1  0.168511  0.532003  0.039381  1
  Si  Si21  1  0.331585  0.031842  0.960261  1
  Si  Si22  1  0.830519  0.467489  0.539542  1
  Si  Si23  1  0.327565  0.031970  0.540018  1
  Si  Si24  1  0.831261  0.468057  0.960487  1
  Si  Si25  1  0.668278  0.968019  0.039313  1
  Si  Si26  1  0.169012  0.532471  0.460837  1
  Si  Si27  1  0.458616  0.387018  0.751201  1
  Si  Si28  1  0.959349  0.114216  0.749868  1
  Si  Si29  1  0.540358  0.614345  0.249985  1
  Si  Si30  1  0.040323  0.886162  0.249757  1
  Si  Si31  1  0.705250  0.861738  0.749939  1
  Si  Si32  1  0.205185  0.638735  0.750174  1
  Si  Si33  1  0.295233  0.138627  0.250059  1
  Si  Si34  1  0.794038  0.360417  0.249525  1
  Ge  Ge35  1  0.675258  0.968594  0.461247  1
