# generated using pymatgen
data_Pr2Lu(InIr6)3
_symmetry_space_group_name_H-M   'P 1'
_cell_length_a   8.95102572
_cell_length_b   8.95102572
_cell_length_c   5.21380400
_cell_angle_alpha   90.00000000
_cell_angle_beta   90.00000000
_cell_angle_gamma   89.82264020
_symmetry_Int_Tables_number   1
_chemical_formula_structural   Pr2Lu(InIr6)3
_chemical_formula_sum   'Pr2 Lu1 In3 Ir18'
_cell_volume   417.73246658
_cell_formula_units_Z   1
loop_
 _symmetry_equiv_pos_site_id
 _symmetry_equiv_pos_as_xyz
  1  'x, y, z'
loop_
 _atom_site_type_symbol
 _atom_site_label
 _atom_site_symmetry_multiplicity
 _atom_site_fract_x
 _atom_site_fract_y
 _atom_site_fract_z
 _atom_site_occupancy
  Pr  Pr0  1  0.504029  0.499446  0.000000  1
  Pr  Pr1  1  0.999446  0.004029  0.000000  1
  Lu  Lu2  1  0.118466  0.618466  0.000000  1
  In  In3  1  0.878633  0.378633  0.000000  1
  In  In4  1  0.379226  0.120404  0.000000  1
  In  In5  1  0.620404  0.879226  0.000000  1
  Ir  Ir6  1  0.998455  0.498455  0.500000  1
  Ir  Ir7  1  0.501699  0.001699  0.500000  1
  Ir  Ir8  1  0.555683  0.703559  0.500000  1
  Ir  Ir9  1  0.441875  0.296600  0.500000  1
  Ir  Ir10  1  0.942957  0.203504  0.500000  1
  Ir  Ir11  1  0.059242  0.793026  0.500000  1
  Ir  Ir12  1  0.703504  0.442957  0.500000  1
  Ir  Ir13  1  0.293026  0.559242  0.500000  1
  Ir  Ir14  1  0.203559  0.055683  0.500000  1
  Ir  Ir15  1  0.796600  0.941875  0.500000  1
  Ir  Ir16  1  0.321202  0.821202  0.755814  1
  Ir  Ir17  1  0.680579  0.180579  0.757014  1
  Ir  Ir18  1  0.180683  0.319133  0.755867  1
  Ir  Ir19  1  0.819133  0.680683  0.755867  1
  Ir  Ir20  1  0.680579  0.180579  0.242986  1
  Ir  Ir21  1  0.321202  0.821202  0.244186  1
  Ir  Ir22  1  0.819133  0.680683  0.244133  1
  Ir  Ir23  1  0.180683  0.319133  0.244133  1
