# generated using pymatgen
data_LaPr5Al23VOs8
_symmetry_space_group_name_H-M   'P 1'
_cell_length_a   8.95644200
_cell_length_b   8.94876441
_cell_length_c   9.72064636
_cell_angle_alpha   90.02720158
_cell_angle_beta   90.00000000
_cell_angle_gamma   120.02837742
_symmetry_Int_Tables_number   1
_chemical_formula_structural   LaPr5Al23VOs8
_chemical_formula_sum   'La1 Pr5 Al23 V1 Os8'
_cell_volume   674.52809831
_cell_formula_units_Z   1
loop_
 _symmetry_equiv_pos_site_id
 _symmetry_equiv_pos_as_xyz
  1  'x, y, z'
loop_
 _atom_site_type_symbol
 _atom_site_label
 _atom_site_symmetry_multiplicity
 _atom_site_fract_x
 _atom_site_fract_y
 _atom_site_fract_z
 _atom_site_occupancy
  La  La0  1  0.194225  0.388451  0.248616  1
  Pr  Pr1  1  0.807907  0.615813  0.749893  1
  Pr  Pr2  1  0.613641  0.806804  0.248832  1
  Pr  Pr3  1  0.384758  0.192023  0.749639  1
  Pr  Pr4  1  0.193162  0.806804  0.248832  1
  Pr  Pr5  1  0.807266  0.192023  0.749639  1
  Al  Al6  1  0.666489  0.332978  0.985974  1
  Al  Al7  1  0.666560  0.333119  0.511903  1
  Al  Al8  1  0.333564  0.667130  0.490848  1
  Al  Al9  1  0.162608  0.325215  0.574204  1
  Al  Al10  1  0.837346  0.674694  0.426152  1
  Al  Al11  1  0.674924  0.837427  0.574017  1
  Al  Al12  1  0.835996  0.671993  0.075453  1
  Al  Al13  1  0.325233  0.162235  0.426100  1
  Al  Al14  1  0.160527  0.321052  0.926645  1
  Al  Al15  1  0.162504  0.837427  0.574017  1
  Al  Al16  1  0.328190  0.163679  0.075414  1
  Al  Al17  1  0.837001  0.162235  0.426100  1
  Al  Al18  1  0.678605  0.839347  0.927241  1
  Al  Al19  1  0.835488  0.163679  0.075414  1
  Al  Al20  1  0.160744  0.839347  0.927241  1
  Al  Al21  1  0.563393  0.126786  0.252373  1
  Al  Al22  1  0.439350  0.878699  0.749786  1
  Al  Al23  1  0.871853  0.436430  0.252453  1
  Al  Al24  1  0.121539  0.560809  0.749684  1
  Al  Al25  1  0.564576  0.436430  0.252453  1
  Al  Al26  1  0.439271  0.560809  0.749684  1
  Al  Al27  1  0.999729  0.999457  0.251420  1
  Al  Al28  1  0.000076  0.000152  0.750007  1
  V  V29  1  0.333572  0.667145  0.975201  1
  Os  Os30  1  0.494621  0.989241  0.004819  1
  Os  Os31  1  0.010926  0.505472  0.005168  1
  Os  Os32  1  0.499466  0.998930  0.502888  1
  Os  Os33  1  0.494547  0.505472  0.005168  1
  Os  Os34  1  0.001240  0.500647  0.502465  1
  Os  Os35  1  0.499408  0.500647  0.502465  1
  Os  Os36  1  0.999813  0.999625  0.001613  1
  Os  Os37  1  0.999885  0.999769  0.500178  1
