# generated using pymatgen
data_Er2UCo4Ni5P6
_symmetry_space_group_name_H-M   'P 1'
_cell_length_a   3.74020200
_cell_length_b   10.49144300
_cell_length_c   12.16592900
_cell_angle_alpha   90.00000000
_cell_angle_beta   90.00000000
_cell_angle_gamma   90.00000000
_symmetry_Int_Tables_number   1
_chemical_formula_structural   Er2UCo4Ni5P6
_chemical_formula_sum   'Er4 U2 Co8 Ni10 P12'
_cell_volume   477.39246632
_cell_formula_units_Z   2
loop_
 _symmetry_equiv_pos_site_id
 _symmetry_equiv_pos_as_xyz
  1  'x, y, z'
loop_
 _atom_site_type_symbol
 _atom_site_label
 _atom_site_symmetry_multiplicity
 _atom_site_fract_x
 _atom_site_fract_y
 _atom_site_fract_z
 _atom_site_occupancy
  Er  Er0  1  0.250000  0.932588  0.793905  1
  Er  Er1  1  0.250000  0.567412  0.793905  1
  Er  Er2  1  0.750000  0.067412  0.206095  1
  Er  Er3  1  0.750000  0.432588  0.206095  1
  U  U4  1  0.750000  0.250000  0.476027  1
  U  U5  1  0.250000  0.750000  0.523973  1
  Co  Co6  1  0.250000  0.450160  0.566871  1
  Co  Co7  1  0.250000  0.049840  0.566871  1
  Co  Co8  1  0.750000  0.549840  0.433129  1
  Co  Co9  1  0.750000  0.950160  0.433129  1
  Co  Co10  1  0.250000  0.872944  0.292596  1
  Co  Co11  1  0.250000  0.627056  0.292596  1
  Co  Co12  1  0.750000  0.127056  0.707404  1
  Co  Co13  1  0.750000  0.372944  0.707404  1
  Ni  Ni14  1  0.250000  0.250000  0.839164  1
  Ni  Ni15  1  0.750000  0.750000  0.160836  1
  Ni  Ni16  1  0.250000  0.250000  0.304300  1
  Ni  Ni17  1  0.750000  0.750000  0.695700  1
  Ni  Ni18  1  0.750000  0.250000  0.013347  1
  Ni  Ni19  1  0.250000  0.750000  0.986653  1
  Ni  Ni20  1  0.250000  0.418292  0.004553  1
  Ni  Ni21  1  0.250000  0.081708  0.004553  1
  Ni  Ni22  1  0.750000  0.581708  0.995447  1
  Ni  Ni23  1  0.750000  0.918292  0.995447  1
  P  P24  1  0.250000  0.250000  0.124505  1
  P  P25  1  0.750000  0.750000  0.875495  1
  P  P26  1  0.250000  0.250000  0.653966  1
  P  P27  1  0.750000  0.750000  0.346034  1
  P  P28  1  0.250000  0.441444  0.384644  1
  P  P29  1  0.250000  0.058556  0.384644  1
  P  P30  1  0.750000  0.558556  0.615356  1
  P  P31  1  0.750000  0.941444  0.615356  1
  P  P32  1  0.250000  0.901574  0.111532  1
  P  P33  1  0.250000  0.598426  0.111532  1
  P  P34  1  0.750000  0.098426  0.888468  1
  P  P35  1  0.750000  0.401574  0.888468  1
