# generated using pymatgen
data_Rb3Li2HfAs3
_symmetry_space_group_name_H-M   'P 1'
_cell_length_a   10.52959860
_cell_length_b   10.52959630
_cell_length_c   15.90276700
_cell_angle_alpha   90.00000000
_cell_angle_beta   90.00000000
_cell_angle_gamma   143.18433249
_symmetry_Int_Tables_number   1
_chemical_formula_structural   Rb3Li2HfAs3
_chemical_formula_sum   'Rb12 Li8 Hf4 As12'
_cell_volume   1056.57143631
_cell_formula_units_Z   4
loop_
 _symmetry_equiv_pos_site_id
 _symmetry_equiv_pos_as_xyz
  1  'x, y, z'
loop_
 _atom_site_type_symbol
 _atom_site_label
 _atom_site_symmetry_multiplicity
 _atom_site_fract_x
 _atom_site_fract_y
 _atom_site_fract_z
 _atom_site_occupancy
  Rb  Rb0  1  0.603803  0.948775  0.827847  1
  Rb  Rb1  1  0.289050  0.289050  0.319573  1
  Rb  Rb2  1  0.210950  0.210950  0.819573  1
  Rb  Rb3  1  0.710950  0.710950  0.680427  1
  Rb  Rb4  1  0.448775  0.103803  0.672153  1
  Rb  Rb5  1  0.896197  0.551225  0.327847  1
  Rb  Rb6  1  0.051225  0.396197  0.172153  1
  Rb  Rb7  1  0.396197  0.051225  0.172153  1
  Rb  Rb8  1  0.551225  0.896197  0.327847  1
  Rb  Rb9  1  0.103803  0.448775  0.672153  1
  Rb  Rb10  1  0.948775  0.603803  0.827847  1
  Rb  Rb11  1  0.789050  0.789050  0.180427  1
  Li  Li12  1  0.083868  0.916132  0.000000  1
  Li  Li13  1  0.583868  0.416132  0.500000  1
  Li  Li14  1  0.916132  0.083868  0.000000  1
  Li  Li15  1  0.749448  0.250552  0.000000  1
  Li  Li16  1  0.750552  0.249448  0.500000  1
  Li  Li17  1  0.250552  0.749448  0.000000  1
  Li  Li18  1  0.249448  0.750552  0.500000  1
  Li  Li19  1  0.416132  0.583868  0.500000  1
  Hf  Hf20  1  0.086754  0.913246  0.500000  1
  Hf  Hf21  1  0.413246  0.586754  0.000000  1
  Hf  Hf22  1  0.913246  0.086754  0.500000  1
  Hf  Hf23  1  0.586754  0.413246  0.000000  1
  As  As24  1  0.072296  0.395844  0.411663  1
  As  As25  1  0.895844  0.572296  0.088337  1
  As  As26  1  0.427704  0.104156  0.911663  1
  As  As27  1  0.604156  0.927704  0.588337  1
  As  As28  1  0.927704  0.604156  0.588337  1
  As  As29  1  0.104156  0.427704  0.911663  1
  As  As30  1  0.572296  0.895844  0.088337  1
  As  As31  1  0.395844  0.072296  0.411663  1
  As  As32  1  0.225771  0.225771  0.585700  1
  As  As33  1  0.725771  0.725771  0.914300  1
  As  As34  1  0.274229  0.274229  0.085700  1
  As  As35  1  0.774229  0.774229  0.414300  1
