# generated using pymatgen
data_Ti2AsRu2Rh3
_symmetry_space_group_name_H-M   'P 1'
_cell_length_a   4.01600300
_cell_length_b   5.40346300
_cell_length_c   10.58770200
_cell_angle_alpha   90.00000000
_cell_angle_beta   90.00000000
_cell_angle_gamma   90.00000000
_symmetry_Int_Tables_number   1
_chemical_formula_structural   Ti2AsRu2Rh3
_chemical_formula_sum   'Ti4 As2 Ru4 Rh6'
_cell_volume   229.75655978
_cell_formula_units_Z   2
loop_
 _symmetry_equiv_pos_site_id
 _symmetry_equiv_pos_as_xyz
  1  'x, y, z'
loop_
 _atom_site_type_symbol
 _atom_site_label
 _atom_site_symmetry_multiplicity
 _atom_site_fract_x
 _atom_site_fract_y
 _atom_site_fract_z
 _atom_site_occupancy
  Ti  Ti0  1  0.500000  0.331786  0.142424  1
  Ti  Ti1  1  0.500000  0.668214  0.857576  1
  Ti  Ti2  1  0.500000  0.831786  0.357576  1
  Ti  Ti3  1  0.500000  0.168214  0.642424  1
  As  As4  1  0.000000  0.000000  0.000000  1
  As  As5  1  0.000000  0.500000  0.500000  1
  Ru  Ru6  1  0.500000  0.315613  0.392115  1
  Ru  Ru7  1  0.500000  0.684387  0.607885  1
  Ru  Ru8  1  0.500000  0.815613  0.107885  1
  Ru  Ru9  1  0.500000  0.184387  0.892115  1
  Rh  Rh10  1  0.000000  0.000000  0.500000  1
  Rh  Rh11  1  0.000000  0.500000  0.000000  1
  Rh  Rh12  1  0.000000  0.074468  0.246380  1
  Rh  Rh13  1  0.000000  0.925532  0.753620  1
  Rh  Rh14  1  0.000000  0.574468  0.253620  1
  Rh  Rh15  1  0.000000  0.425532  0.746380  1
