# generated using pymatgen
data_Cs8FeCo3Cl16
_symmetry_space_group_name_H-M   'P 1'
_cell_length_a   7.50255200
_cell_length_b   9.86039358
_cell_length_c   13.36183200
_cell_angle_alpha   89.91607023
_cell_angle_beta   90.00000000
_cell_angle_gamma   90.00000000
_symmetry_Int_Tables_number   1
_chemical_formula_structural   Cs8FeCo3Cl16
_chemical_formula_sum   'Cs8 Fe1 Co3 Cl16'
_cell_volume   988.48209136
_cell_formula_units_Z   1
loop_
 _symmetry_equiv_pos_site_id
 _symmetry_equiv_pos_as_xyz
  1  'x, y, z'
loop_
 _atom_site_type_symbol
 _atom_site_label
 _atom_site_symmetry_multiplicity
 _atom_site_fract_x
 _atom_site_fract_y
 _atom_site_fract_z
 _atom_site_occupancy
  Cs  Cs0  1  0.250000  0.984340  0.176625  1
  Cs  Cs1  1  0.750000  0.016725  0.822756  1
  Cs  Cs2  1  0.750000  0.514652  0.678064  1
  Cs  Cs3  1  0.250000  0.485522  0.324604  1
  Cs  Cs4  1  0.250000  0.638053  0.914216  1
  Cs  Cs5  1  0.750000  0.361091  0.088386  1
  Cs  Cs6  1  0.750000  0.862591  0.410138  1
  Cs  Cs7  1  0.250000  0.136927  0.588083  1
  Fe  Fe8  1  0.250000  0.730119  0.575696  1
  Co  Co9  1  0.750000  0.267561  0.422354  1
  Co  Co10  1  0.750000  0.767024  0.078413  1
  Co  Co11  1  0.250000  0.233136  0.922193  1
  Cl  Cl12  1  0.995432  0.816502  0.645920  1
  Cl  Cl13  1  0.995754  0.180417  0.349208  1
  Cl  Cl14  1  0.995568  0.679478  0.151892  1
  Cl  Cl15  1  0.504246  0.180417  0.349208  1
  Cl  Cl16  1  0.004558  0.321183  0.849333  1
  Cl  Cl17  1  0.504568  0.816502  0.645920  1
  Cl  Cl18  1  0.495442  0.321183  0.849333  1
  Cl  Cl19  1  0.504432  0.679478  0.151892  1
  Cl  Cl20  1  0.250000  0.500581  0.598198  1
  Cl  Cl21  1  0.750000  0.495816  0.409001  1
  Cl  Cl22  1  0.750000  0.994971  0.093027  1
  Cl  Cl23  1  0.250000  0.005169  0.906581  1
  Cl  Cl24  1  0.250000  0.314762  0.081157  1
  Cl  Cl25  1  0.750000  0.686551  0.919140  1
  Cl  Cl26  1  0.750000  0.184716  0.581146  1
  Cl  Cl27  1  0.250000  0.824533  0.417514  1
