# generated using pymatgen
data_Ho2TmAs4Pd7
_symmetry_space_group_name_H-M   'P 1'
_cell_length_a   8.09787357
_cell_length_b   8.09787462
_cell_length_c   9.63118500
_cell_angle_alpha   55.59070377
_cell_angle_beta   55.59069867
_cell_angle_gamma   29.48225505
_symmetry_Int_Tables_number   1
_chemical_formula_structural   Ho2TmAs4Pd7
_chemical_formula_sum   'Ho2 Tm1 As4 Pd7'
_cell_volume   252.24256175
_cell_formula_units_Z   1
loop_
 _symmetry_equiv_pos_site_id
 _symmetry_equiv_pos_as_xyz
  1  'x, y, z'
loop_
 _atom_site_type_symbol
 _atom_site_label
 _atom_site_symmetry_multiplicity
 _atom_site_fract_x
 _atom_site_fract_y
 _atom_site_fract_z
 _atom_site_occupancy
  Ho  Ho0  1  0.499931  0.499931  0.500074  1
  Ho  Ho1  1  0.822442  0.822442  0.171771  1
  Tm  Tm2  1  0.176983  0.176983  0.829182  1
  As  As3  1  0.394234  0.394234  0.322787  1
  As  As4  1  0.606062  0.606062  0.677324  1
  As  As5  1  0.841162  0.841162  0.750047  1
  As  As6  1  0.158419  0.158419  0.250733  1
  Pd  Pd7  1  0.668452  0.668452  0.068854  1
  Pd  Pd8  1  0.013005  0.013005  0.202692  1
  Pd  Pd9  1  0.987317  0.987317  0.796754  1
  Pd  Pd10  1  0.500934  0.500934  0.999155  1
  Pd  Pd11  1  0.194362  0.194362  0.475031  1
  Pd  Pd12  1  0.805533  0.805533  0.526587  1
  Pd  Pd13  1  0.331167  0.331167  0.929011  1
