# generated using pymatgen
data_Y4Ho3(TmBi2)3
_symmetry_space_group_name_H-M   'P 1'
_cell_length_a   8.23618100
_cell_length_b   9.48243501
_cell_length_c   12.05829401
_cell_angle_alpha   89.99617575
_cell_angle_beta   90.00000000
_cell_angle_gamma   90.00000000
_symmetry_Int_Tables_number   1
_chemical_formula_structural   Y4Ho3(TmBi2)3
_chemical_formula_sum   'Y8 Ho6 Tm6 Bi12'
_cell_volume   941.74131680
_cell_formula_units_Z   2
loop_
 _symmetry_equiv_pos_site_id
 _symmetry_equiv_pos_as_xyz
  1  'x, y, z'
loop_
 _atom_site_type_symbol
 _atom_site_label
 _atom_site_symmetry_multiplicity
 _atom_site_fract_x
 _atom_site_fract_y
 _atom_site_fract_z
 _atom_site_occupancy
  Y  Y0  1  0.186434  0.749977  0.718656  1
  Y  Y1  1  0.686434  0.750023  0.781344  1
  Y  Y2  1  0.813639  0.250098  0.281406  1
  Y  Y3  1  0.313639  0.249902  0.218594  1
  Y  Y4  1  0.353958  0.749916  0.215839  1
  Y  Y5  1  0.853958  0.750084  0.284161  1
  Y  Y6  1  0.646268  0.250052  0.784169  1
  Y  Y7  1  0.146268  0.249948  0.715831  1
  Ho  Ho8  1  0.306954  0.434915  0.940476  1
  Ho  Ho9  1  0.806954  0.065085  0.559524  1
  Ho  Ho10  1  0.693038  0.935278  0.059552  1
  Ho  Ho11  1  0.193038  0.564722  0.440448  1
  Ho  Ho12  1  0.692924  0.564767  0.059481  1
  Ho  Ho13  1  0.192924  0.935233  0.440519  1
  Tm  Tm14  1  0.025463  0.750116  0.988939  1
  Tm  Tm15  1  0.525463  0.749884  0.511061  1
  Tm  Tm16  1  0.975021  0.249825  0.010961  1
  Tm  Tm17  1  0.475021  0.250175  0.489039  1
  Tm  Tm18  1  0.306927  0.065501  0.940485  1
  Tm  Tm19  1  0.806927  0.434499  0.559515  1
  Bi  Bi20  1  0.433827  0.003891  0.672536  1
  Bi  Bi21  1  0.933827  0.496109  0.827464  1
  Bi  Bi22  1  0.566028  0.503868  0.327588  1
  Bi  Bi23  1  0.066028  0.996132  0.172412  1
  Bi  Bi24  1  0.566065  0.996201  0.327460  1
  Bi  Bi25  1  0.066065  0.503799  0.172540  1
  Bi  Bi26  1  0.433994  0.496134  0.672444  1
  Bi  Bi27  1  0.933994  0.003866  0.827556  1
  Bi  Bi28  1  0.406513  0.750833  0.957672  1
  Bi  Bi29  1  0.906513  0.749167  0.542328  1
  Bi  Bi30  1  0.592945  0.249710  0.042072  1
  Bi  Bi31  1  0.092945  0.250290  0.457928  1
