# generated using pymatgen
data_NbNiRhF12
_symmetry_space_group_name_H-M   'P 1'
_cell_length_a   5.52960180
_cell_length_b   11.16889486
_cell_length_c   5.53825100
_cell_angle_alpha   58.28735307
_cell_angle_beta   57.98304586
_cell_angle_gamma   58.56812756
_symmetry_Int_Tables_number   1
_chemical_formula_structural   NbNiRhF12
_chemical_formula_sum   'Nb1 Ni1 Rh1 F12'
_cell_volume   232.31522759
_cell_formula_units_Z   1
loop_
 _symmetry_equiv_pos_site_id
 _symmetry_equiv_pos_as_xyz
  1  'x, y, z'
loop_
 _atom_site_type_symbol
 _atom_site_label
 _atom_site_symmetry_multiplicity
 _atom_site_fract_x
 _atom_site_fract_y
 _atom_site_fract_z
 _atom_site_occupancy
  Nb  Nb0  1  0.004176  0.007496  0.987136  1
  Ni  Ni1  1  0.497490  0.745692  0.507152  1
  Rh  Rh2  1  0.987882  0.502461  0.007076  1
  F  F3  1  0.356428  0.058423  0.775664  1
  F  F4  1  0.337054  0.572291  0.761566  1
  F  F5  1  0.121472  0.392646  0.335195  1
  F  F6  1  0.161655  0.871010  0.334900  1
  F  F7  1  0.215415  0.342629  0.865166  1
  F  F8  1  0.245319  0.828861  0.845352  1
  F  F9  1  0.880186  0.110650  0.652288  1
  F  F10  1  0.850574  0.623735  0.659223  1
  F  F11  1  0.646379  0.443911  0.234004  1
  F  F12  1  0.680854  0.912178  0.248890  1
  F  F13  1  0.758338  0.163190  0.144077  1
  F  F14  1  0.756781  0.674827  0.142311  1
