# generated using pymatgen
data_Bi4TeI3
_symmetry_space_group_name_H-M   'P 1'
_cell_length_a   24.54138797
_cell_length_b   24.54138855
_cell_length_c   7.56658759
_cell_angle_alpha   73.53942002
_cell_angle_beta   73.53941894
_cell_angle_gamma   13.64615579
_symmetry_Int_Tables_number   1
_chemical_formula_structural   Bi4TeI3
_chemical_formula_sum   'Bi12 Te3 I9'
_cell_volume   1030.44807267
_cell_formula_units_Z   3
loop_
 _symmetry_equiv_pos_site_id
 _symmetry_equiv_pos_as_xyz
  1  'x, y, z'
loop_
 _atom_site_type_symbol
 _atom_site_label
 _atom_site_symmetry_multiplicity
 _atom_site_fract_x
 _atom_site_fract_y
 _atom_site_fract_z
 _atom_site_occupancy
  Bi  Bi0  1  0.926424  0.926424  0.177392  1
  Bi  Bi1  1  0.473305  0.473305  0.592844  1
  Bi  Bi2  1  0.594481  0.594481  0.512737  1
  Bi  Bi3  1  0.099220  0.099220  0.980161  1
  Bi  Bi4  1  0.732042  0.732042  0.966674  1
  Bi  Bi5  1  0.245898  0.245898  0.451462  1
  Bi  Bi6  1  0.230249  0.230249  0.030277  1
  Bi  Bi7  1  0.744083  0.744083  0.502557  1
  Bi  Bi8  1  0.879919  0.879919  0.937515  1
  Bi  Bi9  1  0.312497  0.312497  0.251819  1
  Bi  Bi10  1  0.167714  0.167714  0.326577  1
  Bi  Bi11  1  0.681673  0.681673  0.771970  1
  Te  Te12  1  0.817949  0.817949  0.207866  1
  Te  Te13  1  0.175092  0.175092  0.774844  1
  Te  Te14  1  0.662008  0.662008  0.335994  1
  I  I15  1  0.090959  0.090959  0.546540  1
  I  I16  1  0.599683  0.599683  0.959180  1
  I  I17  1  0.876629  0.876629  0.491842  1
  I  I18  1  0.381865  0.381865  0.903730  1
  I  I19  1  0.434489  0.434489  0.180053  1
  I  I20  1  0.968474  0.968474  0.599357  1
  I  I21  1  0.521817  0.521817  0.736196  1
  I  I22  1  0.036229  0.036229  0.122660  1
  I  I23  1  0.315386  0.315386  0.639758  1
