# generated using pymatgen
data_Yb20Si3GeSb8
_symmetry_space_group_name_H-M   'P 1'
_cell_length_a   7.94177501
_cell_length_b   9.44081600
_cell_length_c   12.62120702
_cell_angle_alpha   90.00000000
_cell_angle_beta   90.00671220
_cell_angle_gamma   90.00000000
_symmetry_Int_Tables_number   1
_chemical_formula_structural   Yb20Si3GeSb8
_chemical_formula_sum   'Yb20 Si3 Ge1 Sb8'
_cell_volume   946.29817028
_cell_formula_units_Z   1
loop_
 _symmetry_equiv_pos_site_id
 _symmetry_equiv_pos_as_xyz
  1  'x, y, z'
loop_
 _atom_site_type_symbol
 _atom_site_label
 _atom_site_symmetry_multiplicity
 _atom_site_fract_x
 _atom_site_fract_y
 _atom_site_fract_z
 _atom_site_occupancy
  Yb  Yb0  1  0.444572  0.750000  0.000470  1
  Yb  Yb1  1  0.944791  0.250000  0.499544  1
  Yb  Yb2  1  0.555154  0.250000  0.999557  1
  Yb  Yb3  1  0.055218  0.750000  0.500439  1
  Yb  Yb4  1  0.647895  0.750000  0.301270  1
  Yb  Yb5  1  0.147914  0.250000  0.198715  1
  Yb  Yb6  1  0.352059  0.250000  0.698734  1
  Yb  Yb7  1  0.852406  0.750000  0.801584  1
  Yb  Yb8  1  0.325131  0.750000  0.719282  1
  Yb  Yb9  1  0.825018  0.250000  0.780575  1
  Yb  Yb10  1  0.675012  0.250000  0.280584  1
  Yb  Yb11  1  0.174838  0.750000  0.219204  1
  Yb  Yb12  1  0.322956  0.471819  0.425362  1
  Yb  Yb13  1  0.823092  0.528361  0.074565  1
  Yb  Yb14  1  0.677056  0.971787  0.574645  1
  Yb  Yb15  1  0.176898  0.027787  0.925467  1
  Yb  Yb16  1  0.677056  0.528213  0.574645  1
  Yb  Yb17  1  0.176898  0.472213  0.925467  1
  Yb  Yb18  1  0.322956  0.028181  0.425362  1
  Yb  Yb19  1  0.823092  0.971639  0.074565  1
  Si  Si20  1  0.560849  0.250000  0.509490  1
  Si  Si21  1  0.939204  0.250000  0.009488  1
  Si  Si22  1  0.439196  0.750000  0.490495  1
  Ge  Ge23  1  0.060613  0.750000  0.990471  1
  Sb  Sb24  1  0.440987  0.007398  0.168755  1
  Sb  Sb25  1  0.940943  0.992588  0.331216  1
  Sb  Sb26  1  0.559061  0.507436  0.831258  1
  Sb  Sb27  1  0.059073  0.492597  0.668781  1
  Sb  Sb28  1  0.559061  0.992564  0.831258  1
  Sb  Sb29  1  0.059073  0.007403  0.668781  1
  Sb  Sb30  1  0.440987  0.492602  0.168755  1
  Sb  Sb31  1  0.940943  0.507412  0.331216  1
