# generated using pymatgen
data_ErSiPd3Pt2
_symmetry_space_group_name_H-M   'P 1'
_cell_length_a   4.01471500
_cell_length_b   4.07851400
_cell_length_c   7.11739100
_cell_angle_alpha   90.00000000
_cell_angle_beta   90.00000000
_cell_angle_gamma   90.00000000
_symmetry_Int_Tables_number   1
_chemical_formula_structural   ErSiPd3Pt2
_chemical_formula_sum   'Er1 Si1 Pd3 Pt2'
_cell_volume   116.54066794
_cell_formula_units_Z   1
loop_
 _symmetry_equiv_pos_site_id
 _symmetry_equiv_pos_as_xyz
  1  'x, y, z'
loop_
 _atom_site_type_symbol
 _atom_site_label
 _atom_site_symmetry_multiplicity
 _atom_site_fract_x
 _atom_site_fract_y
 _atom_site_fract_z
 _atom_site_occupancy
  Er  Er0  1  0.500000  0.500000  0.998893  1
  Si  Si1  1  0.000000  0.000000  0.501721  1
  Pd  Pd2  1  0.000000  0.500000  0.700376  1
  Pd  Pd3  1  0.500000  0.000000  0.297636  1
  Pd  Pd4  1  0.000000  0.500000  0.299781  1
  Pt  Pt5  1  0.000000  0.000000  0.000203  1
  Pt  Pt6  1  0.500000  0.000000  0.701390  1
