# generated using pymatgen
data_La4Cd2NiAu3
_symmetry_space_group_name_H-M   'P 1'
_cell_length_a   8.13639890
_cell_length_b   8.13639890
_cell_length_c   3.92103300
_cell_angle_alpha   90.00000000
_cell_angle_beta   90.00000000
_cell_angle_gamma   91.03970986
_symmetry_Int_Tables_number   1
_chemical_formula_structural   La4Cd2NiAu3
_chemical_formula_sum   'La4 Cd2 Ni1 Au3'
_cell_volume   259.53351824
_cell_formula_units_Z   1
loop_
 _symmetry_equiv_pos_site_id
 _symmetry_equiv_pos_as_xyz
  1  'x, y, z'
loop_
 _atom_site_type_symbol
 _atom_site_label
 _atom_site_symmetry_multiplicity
 _atom_site_fract_x
 _atom_site_fract_y
 _atom_site_fract_z
 _atom_site_occupancy
  La  La0  1  0.671977  0.171977  0.500000  1
  La  La1  1  0.310138  0.810138  0.500000  1
  La  La2  1  0.178883  0.343692  0.500000  1
  La  La3  1  0.843692  0.678883  0.500000  1
  Cd  Cd4  1  0.002746  0.997901  0.000000  1
  Cd  Cd5  1  0.497901  0.502746  0.000000  1
  Ni  Ni6  1  0.123587  0.623587  0.000000  1
  Au  Au7  1  0.879380  0.379380  0.000000  1
  Au  Au8  1  0.622984  0.868711  0.000000  1
  Au  Au9  1  0.368711  0.122984  0.000000  1
