# generated using pymatgen
data_Zr6ZnSN2
_symmetry_space_group_name_H-M   'P 1'
_cell_length_a   5.95246116
_cell_length_b   5.95246128
_cell_length_c   8.61305200
_cell_angle_alpha   90.00000000
_cell_angle_beta   90.00000000
_cell_angle_gamma   146.80420480
_symmetry_Int_Tables_number   1
_chemical_formula_structural   Zr6ZnSN2
_chemical_formula_sum   'Zr6 Zn1 S1 N2'
_cell_volume   167.08435297
_cell_formula_units_Z   1
loop_
 _symmetry_equiv_pos_site_id
 _symmetry_equiv_pos_as_xyz
  1  'x, y, z'
loop_
 _atom_site_type_symbol
 _atom_site_label
 _atom_site_symmetry_multiplicity
 _atom_site_fract_x
 _atom_site_fract_y
 _atom_site_fract_z
 _atom_site_occupancy
  Zr  Zr0  1  0.630933  0.369067  0.935487  1
  Zr  Zr1  1  0.373911  0.626089  0.451009  1
  Zr  Zr2  1  0.373911  0.626089  0.048991  1
  Zr  Zr3  1  0.630933  0.369067  0.564513  1
  Zr  Zr4  1  0.932402  0.067598  0.750000  1
  Zr  Zr5  1  0.052416  0.947584  0.250000  1
  Zn  Zn6  1  0.746116  0.253884  0.250000  1
  S  S7  1  0.255719  0.744281  0.750000  1
  N  N8  1  0.001829  0.998171  0.995452  1
  N  N9  1  0.001829  0.998171  0.504548  1
