# generated using pymatgen
data_NaPa(Al5Os)4
_symmetry_space_group_name_H-M   'P 1'
_cell_length_a   6.86577084
_cell_length_b   6.86577093
_cell_length_c   9.15278800
_cell_angle_alpha   90.00000000
_cell_angle_beta   90.00000000
_cell_angle_gamma   96.88297356
_symmetry_Int_Tables_number   1
_chemical_formula_structural   NaPa(Al5Os)4
_chemical_formula_sum   'Na1 Pa1 Al20 Os4'
_cell_volume   428.34206182
_cell_formula_units_Z   1
loop_
 _symmetry_equiv_pos_site_id
 _symmetry_equiv_pos_as_xyz
  1  'x, y, z'
loop_
 _atom_site_type_symbol
 _atom_site_label
 _atom_site_symmetry_multiplicity
 _atom_site_fract_x
 _atom_site_fract_y
 _atom_site_fract_z
 _atom_site_occupancy
  Na  Na0  1  0.126263  0.873737  0.250000  1
  Pa  Pa1  1  0.873707  0.126293  0.750000  1
  Al  Al2  1  0.519786  0.780248  0.750000  1
  Al  Al3  1  0.784222  0.524862  0.250000  1
  Al  Al4  1  0.475138  0.215778  0.250000  1
  Al  Al5  1  0.219752  0.480214  0.750000  1
  Al  Al6  1  0.621958  0.378042  0.945645  1
  Al  Al7  1  0.375263  0.624737  0.037542  1
  Al  Al8  1  0.621958  0.378042  0.554355  1
  Al  Al9  1  0.375263  0.624737  0.462458  1
  Al  Al10  1  0.409004  0.141639  0.750000  1
  Al  Al11  1  0.146117  0.417982  0.250000  1
  Al  Al12  1  0.582018  0.853883  0.250000  1
  Al  Al13  1  0.858361  0.590996  0.750000  1
  Al  Al14  1  0.838917  0.161083  0.395569  1
  Al  Al15  1  0.152625  0.847375  0.599805  1
  Al  Al16  1  0.838917  0.161083  0.104431  1
  Al  Al17  1  0.152625  0.847375  0.900195  1
  Al  Al18  1  0.781007  0.774407  0.002702  1
  Al  Al19  1  0.781007  0.774407  0.497298  1
  Al  Al20  1  0.225593  0.218993  0.002702  1
  Al  Al21  1  0.225593  0.218993  0.497298  1
  Os  Os22  1  0.508087  0.000635  0.996617  1
  Os  Os23  1  0.999365  0.491913  0.996617  1
  Os  Os24  1  0.508087  0.000635  0.503383  1
  Os  Os25  1  0.999365  0.491913  0.503383  1
