# generated using pymatgen
data_Mn7Nb3SiRu
_symmetry_space_group_name_H-M   'P 1'
_cell_length_a   4.77906700
_cell_length_b   4.77906601
_cell_length_c   7.86375900
_cell_angle_alpha   90.00000000
_cell_angle_beta   90.00000000
_cell_angle_gamma   120.00001375
_symmetry_Int_Tables_number   1
_chemical_formula_structural   Mn7Nb3SiRu
_chemical_formula_sum   'Mn7 Nb3 Si1 Ru1'
_cell_volume   155.54172652
_cell_formula_units_Z   1
loop_
 _symmetry_equiv_pos_site_id
 _symmetry_equiv_pos_as_xyz
  1  'x, y, z'
loop_
 _atom_site_type_symbol
 _atom_site_label
 _atom_site_symmetry_multiplicity
 _atom_site_fract_x
 _atom_site_fract_y
 _atom_site_fract_z
 _atom_site_occupancy
  Mn  Mn0  1  0.169834  0.339668  0.744440  1
  Mn  Mn1  1  0.828974  0.171026  0.254332  1
  Mn  Mn2  1  0.342051  0.171026  0.254332  1
  Mn  Mn3  1  0.660332  0.830166  0.744440  1
  Mn  Mn4  1  0.000000  0.000000  0.500043  1
  Mn  Mn5  1  0.828974  0.657949  0.254332  1
  Mn  Mn6  1  0.169834  0.830166  0.744440  1
  Nb  Nb7  1  0.666667  0.333333  0.930085  1
  Nb  Nb8  1  0.666667  0.333333  0.551589  1
  Nb  Nb9  1  0.333333  0.666667  0.075032  1
  Si  Si10  1  0.000000  0.000000  0.001737  1
  Ru  Ru11  1  0.333333  0.666667  0.445196  1
