# generated using pymatgen
data_Tb7Dy(SiI6)2
_symmetry_space_group_name_H-M   'P 1'
_cell_length_a   4.21964400
_cell_length_b   14.05382309
_cell_length_c   14.82827110
_cell_angle_alpha   90.01302541
_cell_angle_beta   90.00000000
_cell_angle_gamma   90.00000000
_symmetry_Int_Tables_number   1
_chemical_formula_structural   Tb7Dy(SiI6)2
_chemical_formula_sum   'Tb7 Dy1 Si2 I12'
_cell_volume   879.34804166
_cell_formula_units_Z   1
loop_
 _symmetry_equiv_pos_site_id
 _symmetry_equiv_pos_as_xyz
  1  'x, y, z'
loop_
 _atom_site_type_symbol
 _atom_site_label
 _atom_site_symmetry_multiplicity
 _atom_site_fract_x
 _atom_site_fract_y
 _atom_site_fract_z
 _atom_site_occupancy
  Tb  Tb0  1  0.500000  0.114137  0.347534  1
  Tb  Tb1  1  0.500000  0.885862  0.652468  1
  Tb  Tb2  1  0.500000  0.614092  0.152407  1
  Tb  Tb3  1  0.000000  0.111531  0.574604  1
  Tb  Tb4  1  0.000000  0.888463  0.425396  1
  Tb  Tb5  1  0.000000  0.611508  0.925423  1
  Tb  Tb6  1  0.000000  0.388494  0.074581  1
  Dy  Dy7  1  0.500000  0.386000  0.847724  1
  Si  Si8  1  0.500000  0.000002  0.500003  1
  Si  Si9  1  0.500000  0.499820  0.999760  1
  I  I10  1  0.500000  0.244954  0.161434  1
  I  I11  1  0.500000  0.755040  0.838551  1
  I  I12  1  0.500000  0.744936  0.338536  1
  I  I13  1  0.500000  0.255176  0.661607  1
  I  I14  1  0.000000  0.258655  0.413910  1
  I  I15  1  0.000000  0.741343  0.586092  1
  I  I16  1  0.000000  0.758624  0.086088  1
  I  I17  1  0.000000  0.241693  0.913680  1
  I  I18  1  0.000000  0.999229  0.240472  1
  I  I19  1  0.000000  0.000774  0.759532  1
  I  I20  1  0.000000  0.499234  0.259503  1
  I  I21  1  0.000000  0.500432  0.740695  1
