# generated using pymatgen
data_Er5B4P8Ir19
_symmetry_space_group_name_H-M   'P 1'
_cell_length_a   12.41192625
_cell_length_b   12.38497911
_cell_length_c   3.95396000
_cell_angle_alpha   90.00000000
_cell_angle_beta   90.00000000
_cell_angle_gamma   119.69464783
_symmetry_Int_Tables_number   1
_chemical_formula_structural   Er5B4P8Ir19
_chemical_formula_sum   'Er5 B4 P8 Ir19'
_cell_volume   527.98970626
_cell_formula_units_Z   1
loop_
 _symmetry_equiv_pos_site_id
 _symmetry_equiv_pos_as_xyz
  1  'x, y, z'
loop_
 _atom_site_type_symbol
 _atom_site_label
 _atom_site_symmetry_multiplicity
 _atom_site_fract_x
 _atom_site_fract_y
 _atom_site_fract_z
 _atom_site_occupancy
  Er  Er0  1  0.332662  0.666526  0.500000  1
  Er  Er1  1  0.674925  0.331177  0.500000  1
  Er  Er2  1  0.182104  0.187457  0.000000  1
  Er  Er3  1  0.815090  0.002749  0.000000  1
  Er  Er4  1  0.002057  0.816243  0.000000  1
  B  B5  1  0.305268  0.815732  0.000000  1
  B  B6  1  0.178231  0.487222  0.000000  1
  B  B7  1  0.510339  0.692340  0.000000  1
  B  B8  1  0.823991  0.303551  0.000000  1
  P  P9  1  0.486721  0.173563  0.000000  1
  P  P10  1  0.692511  0.513823  0.000000  1
  P  P11  1  0.358553  0.364176  0.500000  1
  P  P12  1  0.640063  0.000896  0.500000  1
  P  P13  1  0.005985  0.639799  0.500000  1
  P  P14  1  0.816644  0.820261  0.500000  1
  P  P15  1  0.180112  0.998312  0.500000  1
  P  P16  1  0.002208  0.185815  0.500000  1
  Ir  Ir17  1  0.199483  0.818127  0.500000  1
  Ir  Ir18  1  0.181758  0.382180  0.500000  1
  Ir  Ir19  1  0.619474  0.803829  0.500000  1
  Ir  Ir20  1  0.821888  0.200853  0.500000  1
  Ir  Ir21  1  0.375439  0.181171  0.500000  1
  Ir  Ir22  1  0.807208  0.624080  0.500000  1
  Ir  Ir23  1  0.135164  0.637540  0.000000  1
  Ir  Ir24  1  0.359743  0.500534  0.000000  1
  Ir  Ir25  1  0.497325  0.859099  0.000000  1
  Ir  Ir26  1  0.643002  0.129918  0.000000  1
  Ir  Ir27  1  0.490848  0.363281  0.000000  1
  Ir  Ir28  1  0.869255  0.497855  0.000000  1
  Ir  Ir29  1  0.539438  0.548839  0.500000  1
  Ir  Ir30  1  0.454002  0.995059  0.500000  1
  Ir  Ir31  1  0.003195  0.455716  0.500000  1
  Ir  Ir32  1  0.701341  0.706988  0.000000  1
  Ir  Ir33  1  0.292730  0.994254  0.000000  1
  Ir  Ir34  1  0.002008  0.300169  0.000000  1
  Ir  Ir35  1  0.999237  0.000868  0.500000  1
