# generated using pymatgen
data_YLuGa(PRh2)6
_symmetry_space_group_name_H-M   'P 1'
_cell_length_a   9.65832300
_cell_length_b   9.65832218
_cell_length_c   3.87521000
_cell_angle_alpha   90.00000000
_cell_angle_beta   90.00000000
_cell_angle_gamma   119.99999252
_symmetry_Int_Tables_number   1
_chemical_formula_structural   YLuGa(PRh2)6
_chemical_formula_sum   'Y1 Lu1 Ga1 P6 Rh12'
_cell_volume   313.06125395
_cell_formula_units_Z   1
loop_
 _symmetry_equiv_pos_site_id
 _symmetry_equiv_pos_as_xyz
  1  'x, y, z'
loop_
 _atom_site_type_symbol
 _atom_site_label
 _atom_site_symmetry_multiplicity
 _atom_site_fract_x
 _atom_site_fract_y
 _atom_site_fract_z
 _atom_site_occupancy
  Y  Y0  1  0.666667  0.333333  0.248744  1
  Lu  Lu1  1  0.333333  0.666667  0.751303  1
  Ga  Ga2  1  0.000000  0.000000  0.500298  1
  P  P3  1  0.402839  0.285258  0.749612  1
  P  P4  1  0.714742  0.117581  0.749612  1
  P  P5  1  0.882419  0.597161  0.749612  1
  P  P6  1  0.595964  0.714352  0.250385  1
  P  P7  1  0.285648  0.881612  0.250385  1
  P  P8  1  0.118388  0.404036  0.250385  1
  Rh  Rh9  1  0.451557  0.065779  0.750117  1
  Rh  Rh10  1  0.934221  0.385779  0.750117  1
  Rh  Rh11  1  0.614221  0.548443  0.750117  1
  Rh  Rh12  1  0.545607  0.930419  0.249915  1
  Rh  Rh13  1  0.069581  0.615188  0.249915  1
  Rh  Rh14  1  0.384812  0.454393  0.249915  1
  Rh  Rh15  1  0.157646  0.280701  0.751923  1
  Rh  Rh16  1  0.719299  0.876945  0.751923  1
  Rh  Rh17  1  0.123055  0.842354  0.751923  1
  Rh  Rh18  1  0.842605  0.720050  0.247933  1
  Rh  Rh19  1  0.279950  0.122555  0.247933  1
  Rh  Rh20  1  0.877445  0.157395  0.247933  1
