# generated using pymatgen
data_KHfCdF7
_symmetry_space_group_name_H-M   'P 1'
_cell_length_a   6.54668607
_cell_length_b   6.54668630
_cell_length_c   8.55113200
_cell_angle_alpha   90.00000000
_cell_angle_beta   90.00000000
_cell_angle_gamma   116.64113251
_symmetry_Int_Tables_number   1
_chemical_formula_structural   KHfCdF7
_chemical_formula_sum   'K2 Hf2 Cd2 F14'
_cell_volume   327.58411119
_cell_formula_units_Z   2
loop_
 _symmetry_equiv_pos_site_id
 _symmetry_equiv_pos_as_xyz
  1  'x, y, z'
loop_
 _atom_site_type_symbol
 _atom_site_label
 _atom_site_symmetry_multiplicity
 _atom_site_fract_x
 _atom_site_fract_y
 _atom_site_fract_z
 _atom_site_occupancy
  K  K0  1  0.500000  0.500000  0.500000  1
  K  K1  1  0.500000  0.500000  0.000000  1
  Hf  Hf2  1  0.806224  0.193776  0.250000  1
  Hf  Hf3  1  0.193776  0.806224  0.750000  1
  Cd  Cd4  1  0.808612  0.191388  0.750000  1
  Cd  Cd5  1  0.191388  0.808612  0.250000  1
  F  F6  1  0.796332  0.203668  0.015467  1
  F  F7  1  0.152454  0.434338  0.250000  1
  F  F8  1  0.565662  0.847546  0.250000  1
  F  F9  1  0.523806  0.825690  0.750000  1
  F  F10  1  0.174310  0.476194  0.750000  1
  F  F11  1  0.796332  0.203668  0.484533  1
  F  F12  1  0.434338  0.152454  0.750000  1
  F  F13  1  0.825690  0.523806  0.250000  1
  F  F14  1  0.476194  0.174310  0.250000  1
  F  F15  1  0.988469  0.011531  0.250000  1
  F  F16  1  0.203668  0.796332  0.515467  1
  F  F17  1  0.203668  0.796332  0.984533  1
  F  F18  1  0.011531  0.988469  0.750000  1
  F  F19  1  0.847546  0.565662  0.750000  1
