# generated using pymatgen
data_Cs2Pr10Re2Br17
_symmetry_space_group_name_H-M   'P 1'
_cell_length_a   9.85037556
_cell_length_b   11.17405154
_cell_length_c   11.17398345
_cell_angle_alpha   106.23073653
_cell_angle_beta   93.80689545
_cell_angle_gamma   93.80815071
_symmetry_Int_Tables_number   1
_chemical_formula_structural   Cs2Pr10Re2Br17
_chemical_formula_sum   'Cs2 Pr10 Re2 Br17'
_cell_volume   1173.63594640
_cell_formula_units_Z   1
loop_
 _symmetry_equiv_pos_site_id
 _symmetry_equiv_pos_as_xyz
  1  'x, y, z'
loop_
 _atom_site_type_symbol
 _atom_site_label
 _atom_site_symmetry_multiplicity
 _atom_site_fract_x
 _atom_site_fract_y
 _atom_site_fract_z
 _atom_site_occupancy
  Cs  Cs0  1  0.999163  0.819286  0.179571  1
  Cs  Cs1  1  0.999165  0.179554  0.819332  1
  Pr  Pr2  1  0.438871  0.161769  0.161742  1
  Pr  Pr3  1  0.573388  0.505960  0.204970  1
  Pr  Pr4  1  0.829413  0.288601  0.288576  1
  Pr  Pr5  1  0.289203  0.425765  0.425756  1
  Pr  Pr6  1  0.426752  0.795292  0.494146  1
  Pr  Pr7  1  0.573374  0.205012  0.505930  1
  Pr  Pr8  1  0.711016  0.574562  0.574546  1
  Pr  Pr9  1  0.170709  0.711342  0.711369  1
  Pr  Pr10  1  0.426758  0.494148  0.795311  1
  Pr  Pr11  1  0.561020  0.838356  0.838357  1
  Re  Re12  1  0.567978  0.363836  0.363780  1
  Re  Re13  1  0.432164  0.636403  0.636412  1
  Br  Br14  1  0.578815  0.686456  0.020194  1
  Br  Br15  1  0.712602  0.068866  0.068852  1
  Br  Br16  1  0.854009  0.452423  0.119959  1
  Br  Br17  1  0.132706  0.202683  0.202657  1
  Br  Br18  1  0.288246  0.603249  0.257933  1
  Br  Br19  1  0.421514  0.979915  0.313599  1
  Br  Br20  1  0.712013  0.742283  0.396979  1
  Br  Br21  1  0.853974  0.119952  0.452417  1
  Br  Br22  1  0.000044  0.499939  0.500009  1
  Br  Br23  1  0.145805  0.879571  0.547125  1
  Br  Br24  1  0.288242  0.257928  0.603277  1
  Br  Br25  1  0.578783  0.020213  0.686472  1
  Br  Br26  1  0.712006  0.397000  0.742288  1
  Br  Br27  1  0.867686  0.797784  0.797771  1
  Br  Br28  1  0.145823  0.547132  0.879621  1
  Br  Br29  1  0.287263  0.931077  0.931098  1
  Br  Br30  1  0.421497  0.313644  0.979950  1
