# generated using pymatgen
data_Tm12Ni4HgBi
_symmetry_space_group_name_H-M   'P 1'
_cell_length_a   8.30510511
_cell_length_b   8.30669002
_cell_length_c   8.30481417
_cell_angle_alpha   106.78771728
_cell_angle_beta   109.05583872
_cell_angle_gamma   112.66358744
_symmetry_Int_Tables_number   1
_chemical_formula_structural   Tm12Ni4HgBi
_chemical_formula_sum   'Tm12 Ni4 Hg1 Bi1'
_cell_volume   439.64538464
_cell_formula_units_Z   1
loop_
 _symmetry_equiv_pos_site_id
 _symmetry_equiv_pos_as_xyz
  1  'x, y, z'
loop_
 _atom_site_type_symbol
 _atom_site_label
 _atom_site_symmetry_multiplicity
 _atom_site_fract_x
 _atom_site_fract_y
 _atom_site_fract_z
 _atom_site_occupancy
  Tm  Tm0  1  0.708558  0.274952  0.983692  1
  Tm  Tm1  1  0.291860  0.723987  0.015680  1
  Tm  Tm2  1  0.708329  0.724894  0.433401  1
  Tm  Tm3  1  0.291578  0.275371  0.566919  1
  Tm  Tm4  1  0.807704  0.131235  0.323806  1
  Tm  Tm5  1  0.808043  0.484455  0.676629  1
  Tm  Tm6  1  0.192152  0.868780  0.676583  1
  Tm  Tm7  1  0.192571  0.516043  0.323661  1
  Tm  Tm8  1  0.614236  0.793010  0.820960  1
  Tm  Tm9  1  0.972512  0.793161  0.179108  1
  Tm  Tm10  1  0.027652  0.206419  0.821149  1
  Tm  Tm11  1  0.386019  0.206636  0.179247  1
  Ni  Ni12  1  0.857584  0.499621  0.358182  1
  Ni  Ni13  1  0.140853  0.501195  0.639646  1
  Ni  Ni14  1  0.001547  0.126989  0.128784  1
  Ni  Ni15  1  0.998314  0.873978  0.872292  1
  Hg  Hg16  1  0.500421  0.499320  0.000246  1
  Bi  Bi17  1  0.500069  0.999954  0.500012  1
