# generated using pymatgen
data_Tm5Sc2ZnC4
_symmetry_space_group_name_H-M   'P 1'
_cell_length_a   11.13408900
_cell_length_b   11.13408900
_cell_length_c   3.54497500
_cell_angle_alpha   90.00000000
_cell_angle_beta   90.00000000
_cell_angle_gamma   90.00000000
_symmetry_Int_Tables_number   1
_chemical_formula_structural   Tm5Sc2ZnC4
_chemical_formula_sum   'Tm10 Sc4 Zn2 C8'
_cell_volume   439.46324051
_cell_formula_units_Z   2
loop_
 _symmetry_equiv_pos_site_id
 _symmetry_equiv_pos_as_xyz
  1  'x, y, z'
loop_
 _atom_site_type_symbol
 _atom_site_label
 _atom_site_symmetry_multiplicity
 _atom_site_fract_x
 _atom_site_fract_y
 _atom_site_fract_z
 _atom_site_occupancy
  Tm  Tm0  1  0.547129  0.740568  0.500000  1
  Tm  Tm1  1  0.452871  0.259432  0.500000  1
  Tm  Tm2  1  0.047129  0.759432  0.500000  1
  Tm  Tm3  1  0.952871  0.240568  0.500000  1
  Tm  Tm4  1  0.259432  0.547129  0.500000  1
  Tm  Tm5  1  0.740568  0.452871  0.500000  1
  Tm  Tm6  1  0.240568  0.047129  0.500000  1
  Tm  Tm7  1  0.759432  0.952871  0.500000  1
  Tm  Tm8  1  0.500000  0.000000  0.000000  1
  Tm  Tm9  1  0.000000  0.500000  0.000000  1
  Sc  Sc10  1  0.703502  0.203502  0.000000  1
  Sc  Sc11  1  0.296498  0.796498  0.000000  1
  Sc  Sc12  1  0.203502  0.296498  0.000000  1
  Sc  Sc13  1  0.796498  0.703502  0.000000  1
  Zn  Zn14  1  0.500000  0.500000  0.000000  1
  Zn  Zn15  1  0.000000  0.000000  0.000000  1
  C  C16  1  0.620085  0.120085  0.500000  1
  C  C17  1  0.379915  0.879915  0.500000  1
  C  C18  1  0.120085  0.379915  0.500000  1
  C  C19  1  0.879915  0.620085  0.500000  1
  C  C20  1  0.156704  0.656704  0.000000  1
  C  C21  1  0.843296  0.343296  0.000000  1
  C  C22  1  0.656704  0.843296  0.000000  1
  C  C23  1  0.343296  0.156704  0.000000  1
