# generated using pymatgen
data_Eu14Au51
_symmetry_space_group_name_H-M   'P 1'
_cell_length_a   12.99840300
_cell_length_b   12.99840344
_cell_length_c   9.44644100
_cell_angle_alpha   90.00000000
_cell_angle_beta   90.00000000
_cell_angle_gamma   119.99999634
_symmetry_Int_Tables_number   1
_chemical_formula_structural   Eu14Au51
_chemical_formula_sum   'Eu14 Au51'
_cell_volume   1382.22541465
_cell_formula_units_Z   1
loop_
 _symmetry_equiv_pos_site_id
 _symmetry_equiv_pos_as_xyz
  1  'x, y, z'
loop_
 _atom_site_type_symbol
 _atom_site_label
 _atom_site_symmetry_multiplicity
 _atom_site_fract_x
 _atom_site_fract_y
 _atom_site_fract_z
 _atom_site_occupancy
  Eu  Eu0  1  0.194400  0.993105  0.500000  1
  Eu  Eu1  1  0.006895  0.201295  0.500000  1
  Eu  Eu2  1  0.798705  0.805600  0.500000  1
  Eu  Eu3  1  0.473384  0.337679  0.500000  1
  Eu  Eu4  1  0.662321  0.135706  0.500000  1
  Eu  Eu5  1  0.864294  0.526616  0.500000  1
  Eu  Eu6  1  0.954600  0.399775  0.000000  1
  Eu  Eu7  1  0.600225  0.554826  0.000000  1
  Eu  Eu8  1  0.445174  0.045400  0.000000  1
  Eu  Eu9  1  0.734536  0.950928  0.000000  1
  Eu  Eu10  1  0.049072  0.783609  0.000000  1
  Eu  Eu11  1  0.216391  0.265464  0.000000  1
  Eu  Eu12  1  0.333333  0.666667  0.302554  1
  Eu  Eu13  1  0.333333  0.666667  0.697446  1
  Au  Au14  1  0.000000  0.000000  0.000000  1
  Au  Au15  1  0.666667  0.333333  0.000000  1
  Au  Au16  1  0.893371  0.332856  0.332363  1
  Au  Au17  1  0.667144  0.560515  0.332363  1
  Au  Au18  1  0.439485  0.106629  0.332363  1
  Au  Au19  1  0.777729  0.005317  0.335290  1
  Au  Au20  1  0.994683  0.772411  0.335290  1
  Au  Au21  1  0.227589  0.222271  0.335290  1
  Au  Au22  1  0.777729  0.005317  0.664710  1
  Au  Au23  1  0.994683  0.772411  0.664710  1
  Au  Au24  1  0.227589  0.222271  0.664710  1
  Au  Au25  1  0.893371  0.332856  0.667637  1
  Au  Au26  1  0.667144  0.560515  0.667637  1
  Au  Au27  1  0.439485  0.106629  0.667637  1
  Au  Au28  1  0.219434  0.044948  0.152673  1
  Au  Au29  1  0.955052  0.174487  0.152673  1
  Au  Au30  1  0.825513  0.780566  0.152673  1
  Au  Au31  1  0.447831  0.283488  0.150851  1
  Au  Au32  1  0.716512  0.164344  0.150851  1
  Au  Au33  1  0.835656  0.552169  0.150851  1
  Au  Au34  1  0.447831  0.283488  0.849149  1
  Au  Au35  1  0.716512  0.164344  0.849149  1
  Au  Au36  1  0.835656  0.552169  0.849149  1
  Au  Au37  1  0.219434  0.044948  0.847327  1
  Au  Au38  1  0.955052  0.174487  0.847327  1
  Au  Au39  1  0.825513  0.780566  0.847327  1
  Au  Au40  1  0.063431  0.594333  0.237900  1
  Au  Au41  1  0.405667  0.469098  0.237900  1
  Au  Au42  1  0.530902  0.936569  0.237900  1
  Au  Au43  1  0.598912  0.740374  0.233120  1
  Au  Au44  1  0.259626  0.858540  0.233120  1
  Au  Au45  1  0.141460  0.401088  0.233120  1
  Au  Au46  1  0.598912  0.740374  0.766880  1
  Au  Au47  1  0.259626  0.858540  0.766880  1
  Au  Au48  1  0.141460  0.401088  0.766880  1
  Au  Au49  1  0.063431  0.594333  0.762100  1
  Au  Au50  1  0.405667  0.469098  0.762100  1
  Au  Au51  1  0.530902  0.936569  0.762100  1
  Au  Au52  1  0.000000  0.000000  0.299297  1
  Au  Au53  1  0.666667  0.333333  0.299378  1
  Au  Au54  1  0.666667  0.333333  0.700622  1
  Au  Au55  1  0.000000  0.000000  0.700703  1
  Au  Au56  1  0.095124  0.488372  0.500000  1
  Au  Au57  1  0.511628  0.606751  0.500000  1
  Au  Au58  1  0.393249  0.904876  0.500000  1
  Au  Au59  1  0.574042  0.846496  0.500000  1
  Au  Au60  1  0.153504  0.727546  0.500000  1
  Au  Au61  1  0.272454  0.425958  0.500000  1
  Au  Au62  1  0.223928  0.695586  0.000000  1
  Au  Au63  1  0.304414  0.528342  0.000000  1
  Au  Au64  1  0.471658  0.776072  0.000000  1
