# generated using pymatgen
data_Te12PRhBr6
_symmetry_space_group_name_H-M   'P 1'
_cell_length_a   9.47286732
_cell_length_b   9.47286808
_cell_length_c   9.47286685
_cell_angle_alpha   108.69554987
_cell_angle_beta   108.69555150
_cell_angle_gamma   108.69553984
_symmetry_Int_Tables_number   1
_chemical_formula_structural   Te12PRhBr6
_chemical_formula_sum   'Te12 P1 Rh1 Br6'
_cell_volume   672.50469164
_cell_formula_units_Z   1
loop_
 _symmetry_equiv_pos_site_id
 _symmetry_equiv_pos_as_xyz
  1  'x, y, z'
loop_
 _atom_site_type_symbol
 _atom_site_label
 _atom_site_symmetry_multiplicity
 _atom_site_fract_x
 _atom_site_fract_y
 _atom_site_fract_z
 _atom_site_occupancy
  Te  Te0  1  0.912901  0.167047  0.191033  1
  Te  Te1  1  0.191033  0.912901  0.167047  1
  Te  Te2  1  0.167047  0.191033  0.912901  1
  Te  Te3  1  0.680067  0.666323  0.425738  1
  Te  Te4  1  0.425738  0.680067  0.666323  1
  Te  Te5  1  0.666323  0.425738  0.680067  1
  Te  Te6  1  0.074262  0.833677  0.819933  1
  Te  Te7  1  0.819933  0.074262  0.833677  1
  Te  Te8  1  0.833677  0.819933  0.074262  1
  Te  Te9  1  0.308967  0.332953  0.587099  1
  Te  Te10  1  0.587099  0.308967  0.332953  1
  Te  Te11  1  0.332953  0.587099  0.308967  1
  P  P12  1  0.250000  0.250000  0.250000  1
  Rh  Rh13  1  0.750000  0.750000  0.750000  1
  Br  Br14  1  0.983668  0.516332  0.250000  1
  Br  Br15  1  0.250000  0.983668  0.516332  1
  Br  Br16  1  0.516332  0.250000  0.983668  1
  Br  Br17  1  0.750000  0.014295  0.485705  1
  Br  Br18  1  0.485705  0.750000  0.014295  1
  Br  Br19  1  0.014295  0.485705  0.750000  1
