# generated using pymatgen
data_Lu12CdCo4Tc
_symmetry_space_group_name_H-M   'P 1'
_cell_length_a   8.07808170
_cell_length_b   8.07808195
_cell_length_c   8.07808282
_cell_angle_alpha   111.73431033
_cell_angle_beta   110.80739250
_cell_angle_gamma   105.93039787
_symmetry_Int_Tables_number   1
_chemical_formula_structural   Lu12CdCo4Tc
_chemical_formula_sum   'Lu12 Cd1 Co4 Tc1'
_cell_volume   404.61005060
_cell_formula_units_Z   1
loop_
 _symmetry_equiv_pos_site_id
 _symmetry_equiv_pos_as_xyz
  1  'x, y, z'
loop_
 _atom_site_type_symbol
 _atom_site_label
 _atom_site_symmetry_multiplicity
 _atom_site_fract_x
 _atom_site_fract_y
 _atom_site_fract_z
 _atom_site_occupancy
  Lu  Lu0  1  0.422208  0.225491  0.196717  1
  Lu  Lu1  1  0.577792  0.774509  0.803283  1
  Lu  Lu2  1  0.028774  0.225491  0.803283  1
  Lu  Lu3  1  0.971226  0.774509  0.196717  1
  Lu  Lu4  1  0.182038  0.276685  0.458723  1
  Lu  Lu5  1  0.817962  0.723315  0.541277  1
  Lu  Lu6  1  0.182038  0.723315  0.905354  1
  Lu  Lu7  1  0.817962  0.276685  0.094646  1
  Lu  Lu8  1  0.313461  0.618897  0.305435  1
  Lu  Lu9  1  0.686539  0.381103  0.694565  1
  Lu  Lu10  1  0.313461  0.008026  0.694565  1
  Lu  Lu11  1  0.686539  0.991974  0.305435  1
  Cd  Cd12  1  0.500000  0.500000  0.000000  1
  Co  Co13  1  0.373119  0.000000  0.373119  1
  Co  Co14  1  0.626881  0.000000  0.626881  1
  Co  Co15  1  0.112974  0.612974  0.500000  1
  Co  Co16  1  0.887026  0.387026  0.500000  1
  Tc  Tc17  1  0.000000  0.000000  0.000000  1
