# generated using pymatgen
data_Mn(S8Br)3
_symmetry_space_group_name_H-M   'P 1'
_cell_length_a   15.19209127
_cell_length_b   15.19209083
_cell_length_c   15.19209158
_cell_angle_alpha   118.78987561
_cell_angle_beta   118.78987198
_cell_angle_gamma   118.78986844
_symmetry_Int_Tables_number   1
_chemical_formula_structural   Mn(S8Br)3
_chemical_formula_sum   'Mn1 S24 Br3'
_cell_volume   996.60204395
_cell_formula_units_Z   1
loop_
 _symmetry_equiv_pos_site_id
 _symmetry_equiv_pos_as_xyz
  1  'x, y, z'
loop_
 _atom_site_type_symbol
 _atom_site_label
 _atom_site_symmetry_multiplicity
 _atom_site_fract_x
 _atom_site_fract_y
 _atom_site_fract_z
 _atom_site_occupancy
  Mn  Mn0  1  0.072487  0.072487  0.072487  1
  S  S1  1  0.017387  0.612868  0.612868  1
  S  S2  1  0.612868  0.612868  0.017387  1
  S  S3  1  0.612868  0.017387  0.612868  1
  S  S4  1  0.236696  0.847248  0.718765  1
  S  S5  1  0.847248  0.718765  0.236696  1
  S  S6  1  0.718765  0.236696  0.847248  1
  S  S7  1  0.847248  0.236696  0.718765  1
  S  S8  1  0.236696  0.718765  0.847248  1
  S  S9  1  0.718765  0.847248  0.236696  1
  S  S10  1  0.100653  0.629474  0.448014  1
  S  S11  1  0.629474  0.448014  0.100653  1
  S  S12  1  0.448014  0.100653  0.629474  1
  S  S13  1  0.629474  0.100653  0.448014  1
  S  S14  1  0.100653  0.448014  0.629474  1
  S  S15  1  0.448014  0.629474  0.100653  1
  S  S16  1  0.356581  0.745354  0.616566  1
  S  S17  1  0.745354  0.616566  0.356581  1
  S  S18  1  0.616566  0.356581  0.745354  1
  S  S19  1  0.745354  0.356581  0.616566  1
  S  S20  1  0.356581  0.616566  0.745354  1
  S  S21  1  0.616566  0.745354  0.356581  1
  S  S22  1  0.189570  0.469891  0.469891  1
  S  S23  1  0.469891  0.469891  0.189570  1
  S  S24  1  0.469891  0.189570  0.469891  1
  Br  Br25  1  0.169421  0.017008  0.017008  1
  Br  Br26  1  0.017008  0.017008  0.169421  1
  Br  Br27  1  0.017008  0.169421  0.017008  1
