# generated using pymatgen
data_Nd5SnPb2Cl
_symmetry_space_group_name_H-M   'P 1'
_cell_length_a   9.51103775
_cell_length_b   9.51103741
_cell_length_c   6.81722600
_cell_angle_alpha   90.00000000
_cell_angle_beta   90.00000000
_cell_angle_gamma   119.93046943
_symmetry_Int_Tables_number   1
_chemical_formula_structural   Nd5SnPb2Cl
_chemical_formula_sum   'Nd10 Sn2 Pb4 Cl2'
_cell_volume   534.43879378
_cell_formula_units_Z   2
loop_
 _symmetry_equiv_pos_site_id
 _symmetry_equiv_pos_as_xyz
  1  'x, y, z'
loop_
 _atom_site_type_symbol
 _atom_site_label
 _atom_site_symmetry_multiplicity
 _atom_site_fract_x
 _atom_site_fract_y
 _atom_site_fract_z
 _atom_site_occupancy
  Nd  Nd0  1  0.260063  0.001859  0.250000  1
  Nd  Nd1  1  0.739937  0.998141  0.750000  1
  Nd  Nd2  1  0.001859  0.260063  0.250000  1
  Nd  Nd3  1  0.998141  0.739937  0.750000  1
  Nd  Nd4  1  0.738221  0.738221  0.250000  1
  Nd  Nd5  1  0.261779  0.261779  0.750000  1
  Nd  Nd6  1  0.334720  0.665280  0.000000  1
  Nd  Nd7  1  0.665280  0.334720  0.000000  1
  Nd  Nd8  1  0.665280  0.334720  0.500000  1
  Nd  Nd9  1  0.334720  0.665280  0.500000  1
  Sn  Sn10  1  0.388283  0.388283  0.250000  1
  Sn  Sn11  1  0.611717  0.611717  0.750000  1
  Pb  Pb12  1  0.611894  0.000141  0.250000  1
  Pb  Pb13  1  0.388106  0.999859  0.750000  1
  Pb  Pb14  1  0.000141  0.611894  0.250000  1
  Pb  Pb15  1  0.999859  0.388106  0.750000  1
  Cl  Cl16  1  0.000000  0.000000  0.000000  1
  Cl  Cl17  1  0.000000  0.000000  0.500000  1
