# generated using pymatgen
data_YbPr5ErCoI12
_symmetry_space_group_name_H-M   'P 1'
_cell_length_a   9.93851337
_cell_length_b   10.07978045
_cell_length_c   10.04342195
_cell_angle_alpha   106.82682787
_cell_angle_beta   107.08279271
_cell_angle_gamma   107.12642082
_symmetry_Int_Tables_number   1
_chemical_formula_structural   YbPr5ErCoI12
_chemical_formula_sum   'Yb1 Pr5 Er1 Co1 I12'
_cell_volume   837.63498181
_cell_formula_units_Z   1
loop_
 _symmetry_equiv_pos_site_id
 _symmetry_equiv_pos_as_xyz
  1  'x, y, z'
loop_
 _atom_site_type_symbol
 _atom_site_label
 _atom_site_symmetry_multiplicity
 _atom_site_fract_x
 _atom_site_fract_y
 _atom_site_fract_z
 _atom_site_occupancy
  Yb  Yb0  1  0.501484  0.500430  0.499357  1
  Pr  Pr1  1  0.025101  0.100332  0.305964  1
  Pr  Pr2  1  0.100849  0.303862  0.024796  1
  Pr  Pr3  1  0.288779  0.024745  0.092979  1
  Pr  Pr4  1  0.898919  0.695940  0.976289  1
  Pr  Pr5  1  0.709791  0.973941  0.902192  1
  Er  Er6  1  0.974756  0.903077  0.709671  1
  Co  Co7  1  0.998998  0.999547  0.999746  1
  I  I8  1  0.533568  0.616026  0.836879  1
  I  I9  1  0.465984  0.383898  0.161050  1
  I  I10  1  0.306677  0.924745  0.766677  1
  I  I11  1  0.386883  0.161263  0.461350  1
  I  I12  1  0.928929  0.775774  0.325980  1
  I  I13  1  0.676454  0.070942  0.221598  1
  I  I14  1  0.067840  0.211233  0.677441  1
  I  I15  1  0.770562  0.317721  0.925441  1
  I  I16  1  0.229080  0.682133  0.073481  1
  I  I17  1  0.849184  0.551268  0.618078  1
  I  I18  1  0.158817  0.462243  0.382567  1
  I  I19  1  0.627344  0.840880  0.538465  1
