# generated using pymatgen
data_Ta3Nb7Ga4(GeB)2
_symmetry_space_group_name_H-M   'P 1'
_cell_length_a   7.81386331
_cell_length_b   7.81386367
_cell_length_c   5.35759600
_cell_angle_alpha   90.00000000
_cell_angle_beta   90.00000000
_cell_angle_gamma   120.01467203
_symmetry_Int_Tables_number   1
_chemical_formula_structural   Ta3Nb7Ga4(GeB)2
_chemical_formula_sum   'Ta3 Nb7 Ga4 Ge2 B2'
_cell_volume   283.24875224
_cell_formula_units_Z   1
loop_
 _symmetry_equiv_pos_site_id
 _symmetry_equiv_pos_as_xyz
  1  'x, y, z'
loop_
 _atom_site_type_symbol
 _atom_site_label
 _atom_site_symmetry_multiplicity
 _atom_site_fract_x
 _atom_site_fract_y
 _atom_site_fract_z
 _atom_site_occupancy
  Ta  Ta0  1  0.757102  0.757102  0.250000  1
  Ta  Ta1  1  0.242554  0.999523  0.250000  1
  Ta  Ta2  1  0.999523  0.242554  0.250000  1
  Nb  Nb3  1  0.666720  0.332565  0.497661  1
  Nb  Nb4  1  0.332565  0.666720  0.497661  1
  Nb  Nb5  1  0.332565  0.666720  0.002339  1
  Nb  Nb6  1  0.666720  0.332565  0.002339  1
  Nb  Nb7  1  0.241769  0.241769  0.750000  1
  Nb  Nb8  1  0.758679  0.001240  0.750000  1
  Nb  Nb9  1  0.001240  0.758679  0.750000  1
  Ga  Ga10  1  0.401089  0.401089  0.250000  1
  Ga  Ga11  1  0.599849  0.999224  0.250000  1
  Ga  Ga12  1  0.999224  0.599849  0.250000  1
  Ga  Ga13  1  0.598869  0.598869  0.750000  1
  Ge  Ge14  1  0.402569  0.000077  0.750000  1
  Ge  Ge15  1  0.000077  0.402569  0.750000  1
  B  B16  1  0.999444  0.999444  0.499394  1
  B  B17  1  0.999444  0.999444  0.000606  1
