# generated using pymatgen
data_Y4Ho6BiPb5
_symmetry_space_group_name_H-M   'P 1'
_cell_length_a   9.07705234
_cell_length_b   9.07522825
_cell_length_c   6.55899500
_cell_angle_alpha   90.00000000
_cell_angle_beta   90.00000000
_cell_angle_gamma   120.03783474
_symmetry_Int_Tables_number   1
_chemical_formula_structural   Y4Ho6BiPb5
_chemical_formula_sum   'Y4 Ho6 Bi1 Pb5'
_cell_volume   467.74012538
_cell_formula_units_Z   1
loop_
 _symmetry_equiv_pos_site_id
 _symmetry_equiv_pos_as_xyz
  1  'x, y, z'
loop_
 _atom_site_type_symbol
 _atom_site_label
 _atom_site_symmetry_multiplicity
 _atom_site_fract_x
 _atom_site_fract_y
 _atom_site_fract_z
 _atom_site_occupancy
  Y  Y0  1  0.236529  0.999880  0.250000  1
  Y  Y1  1  0.237432  0.238074  0.750000  1
  Y  Y2  1  0.003162  0.239913  0.250000  1
  Y  Y3  1  0.763433  0.760169  0.250000  1
  Ho  Ho4  1  0.331662  0.664666  0.999986  1
  Ho  Ho5  1  0.667071  0.335399  0.500014  1
  Ho  Ho6  1  0.667071  0.335399  0.999986  1
  Ho  Ho7  1  0.331662  0.664666  0.500014  1
  Ho  Ho8  1  0.999270  0.761781  0.750000  1
  Ho  Ho9  1  0.762276  0.999903  0.750000  1
  Bi  Bi10  1  0.606365  0.000009  0.250000  1
  Pb  Pb11  1  0.605663  0.606687  0.750000  1
  Pb  Pb12  1  0.998793  0.393617  0.750000  1
  Pb  Pb13  1  0.000210  0.604976  0.250000  1
  Pb  Pb14  1  0.395274  0.395066  0.250000  1
  Pb  Pb15  1  0.394124  0.999795  0.750000  1
