# generated using pymatgen
data_Sr(AcSn)4
_symmetry_space_group_name_H-M   'P 1'
_cell_length_a   8.74034000
_cell_length_b   8.88067600
_cell_length_c   17.16535900
_cell_angle_alpha   90.00000000
_cell_angle_beta   90.00000000
_cell_angle_gamma   90.00000000
_symmetry_Int_Tables_number   1
_chemical_formula_structural   Sr(AcSn)4
_chemical_formula_sum   'Sr4 Ac16 Sn16'
_cell_volume   1332.37735708
_cell_formula_units_Z   4
loop_
 _symmetry_equiv_pos_site_id
 _symmetry_equiv_pos_as_xyz
  1  'x, y, z'
loop_
 _atom_site_type_symbol
 _atom_site_label
 _atom_site_symmetry_multiplicity
 _atom_site_fract_x
 _atom_site_fract_y
 _atom_site_fract_z
 _atom_site_occupancy
  Sr  Sr0  1  0.200327  0.501929  0.250000  1
  Sr  Sr1  1  0.700327  0.998071  0.250000  1
  Sr  Sr2  1  0.299673  0.001929  0.750000  1
  Sr  Sr3  1  0.799673  0.498071  0.750000  1
  Ac  Ac4  1  0.017866  0.183181  0.403039  1
  Ac  Ac5  1  0.370511  0.838530  0.117813  1
  Ac  Ac6  1  0.129489  0.338530  0.617813  1
  Ac  Ac7  1  0.482134  0.683181  0.903039  1
  Ac  Ac8  1  0.870511  0.661470  0.117813  1
  Ac  Ac9  1  0.129489  0.338530  0.882187  1
  Ac  Ac10  1  0.482134  0.683181  0.596961  1
  Ac  Ac11  1  0.629489  0.161470  0.617813  1
  Ac  Ac12  1  0.870511  0.661470  0.382187  1
  Ac  Ac13  1  0.017866  0.183181  0.096961  1
  Ac  Ac14  1  0.982134  0.816819  0.903039  1
  Ac  Ac15  1  0.629489  0.161470  0.882187  1
  Ac  Ac16  1  0.517866  0.316819  0.096961  1
  Ac  Ac17  1  0.370511  0.838530  0.382187  1
  Ac  Ac18  1  0.982134  0.816819  0.596961  1
  Ac  Ac19  1  0.517866  0.316819  0.403039  1
  Sn  Sn20  1  0.788831  0.464640  0.541906  1
  Sn  Sn21  1  0.711169  0.964640  0.458094  1
  Sn  Sn22  1  0.684471  0.862625  0.750000  1
  Sn  Sn23  1  0.211169  0.535360  0.458094  1
  Sn  Sn24  1  0.288831  0.035360  0.958094  1
  Sn  Sn25  1  0.815529  0.362625  0.250000  1
  Sn  Sn26  1  0.788831  0.464640  0.958094  1
  Sn  Sn27  1  0.574206  0.604960  0.250000  1
  Sn  Sn28  1  0.211169  0.535360  0.041906  1
  Sn  Sn29  1  0.425794  0.395040  0.750000  1
  Sn  Sn30  1  0.184471  0.637375  0.750000  1
  Sn  Sn31  1  0.925794  0.104960  0.750000  1
  Sn  Sn32  1  0.288831  0.035360  0.541906  1
  Sn  Sn33  1  0.711169  0.964640  0.041906  1
  Sn  Sn34  1  0.315529  0.137375  0.250000  1
  Sn  Sn35  1  0.074206  0.895040  0.250000  1
