# generated using pymatgen
data_La3Yb(Si5Pt3)2
_symmetry_space_group_name_H-M   'P 1'
_cell_length_a   8.30667900
_cell_length_b   8.32300944
_cell_length_c   8.32300889
_cell_angle_alpha   137.00260687
_cell_angle_beta   105.21354487
_cell_angle_gamma   90.38536998
_symmetry_Int_Tables_number   1
_chemical_formula_structural   La3Yb(Si5Pt3)2
_chemical_formula_sum   'La3 Yb1 Si10 Pt6'
_cell_volume   361.00089310
_cell_formula_units_Z   1
loop_
 _symmetry_equiv_pos_site_id
 _symmetry_equiv_pos_as_xyz
  1  'x, y, z'
loop_
 _atom_site_type_symbol
 _atom_site_label
 _atom_site_symmetry_multiplicity
 _atom_site_fract_x
 _atom_site_fract_y
 _atom_site_fract_z
 _atom_site_occupancy
  La  La0  1  0.137525  0.370534  0.766991  1
  La  La1  1  0.395154  0.128539  0.266614  1
  La  La2  1  0.605640  0.871948  0.733693  1
  Yb  Yb3  1  0.862229  0.628453  0.233776  1
  Si  Si4  1  0.501694  0.749584  0.250201  1
  Si  Si5  1  0.501694  0.251492  0.752109  1
  Si  Si6  1  0.228457  0.978956  0.748296  1
  Si  Si7  1  0.770632  0.520120  0.752067  1
  Si  Si8  1  0.770632  0.018564  0.250512  1
  Si  Si9  1  0.228457  0.480161  0.249501  1
  Si  Si10  1  0.032996  0.885497  0.147498  1
  Si  Si11  1  0.964503  0.113295  0.851207  1
  Si  Si12  1  0.740896  0.389519  0.351378  1
  Si  Si13  1  0.260729  0.612959  0.647771  1
  Pt  Pt14  1  0.000089  0.750701  0.749401  1
  Pt  Pt15  1  0.000089  0.250688  0.249387  1
  Pt  Pt16  1  0.249111  0.861931  0.387181  1
  Pt  Pt17  1  0.747819  0.135626  0.612191  1
  Pt  Pt18  1  0.477311  0.365651  0.111659  1
  Pt  Pt19  1  0.524346  0.635781  0.888565  1
