# generated using pymatgen
data_Er3Mn5(Co2P3)2
_symmetry_space_group_name_H-M   'P 1'
_cell_length_a   3.63986600
_cell_length_b   10.78428400
_cell_length_c   12.33949600
_cell_angle_alpha   90.00000000
_cell_angle_beta   90.00000000
_cell_angle_gamma   90.00000000
_symmetry_Int_Tables_number   1
_chemical_formula_structural   Er3Mn5(Co2P3)2
_chemical_formula_sum   'Er6 Mn10 Co8 P12'
_cell_volume   484.36653885
_cell_formula_units_Z   2
loop_
 _symmetry_equiv_pos_site_id
 _symmetry_equiv_pos_as_xyz
  1  'x, y, z'
loop_
 _atom_site_type_symbol
 _atom_site_label
 _atom_site_symmetry_multiplicity
 _atom_site_fract_x
 _atom_site_fract_y
 _atom_site_fract_z
 _atom_site_occupancy
  Er  Er0  1  0.000000  0.500000  0.532094  1
  Er  Er1  1  0.500000  0.000000  0.467906  1
  Er  Er2  1  0.500000  0.822423  0.200782  1
  Er  Er3  1  0.500000  0.177577  0.200782  1
  Er  Er4  1  0.000000  0.677577  0.799218  1
  Er  Er5  1  0.000000  0.322423  0.799218  1
  Mn  Mn6  1  0.500000  0.297799  0.431072  1
  Mn  Mn7  1  0.500000  0.702201  0.431072  1
  Mn  Mn8  1  0.000000  0.202201  0.568928  1
  Mn  Mn9  1  0.000000  0.797799  0.568928  1
  Mn  Mn10  1  0.500000  0.882026  0.707274  1
  Mn  Mn11  1  0.500000  0.117974  0.707274  1
  Mn  Mn12  1  0.000000  0.617974  0.292726  1
  Mn  Mn13  1  0.000000  0.382026  0.292726  1
  Mn  Mn14  1  0.500000  0.500000  0.159361  1
  Mn  Mn15  1  0.000000  0.000000  0.840639  1
  Co  Co16  1  0.000000  0.500000  0.989828  1
  Co  Co17  1  0.500000  0.000000  0.010172  1
  Co  Co18  1  0.500000  0.333304  0.995628  1
  Co  Co19  1  0.500000  0.666696  0.995628  1
  Co  Co20  1  0.000000  0.166696  0.004372  1
  Co  Co21  1  0.000000  0.833304  0.004372  1
  Co  Co22  1  0.500000  0.500000  0.710077  1
  Co  Co23  1  0.000000  0.000000  0.289923  1
  P  P24  1  0.500000  0.317962  0.621376  1
  P  P25  1  0.500000  0.682038  0.621376  1
  P  P26  1  0.000000  0.182038  0.378624  1
  P  P27  1  0.000000  0.817962  0.378624  1
  P  P28  1  0.500000  0.500000  0.886955  1
  P  P29  1  0.000000  0.000000  0.113045  1
  P  P30  1  0.500000  0.844596  0.892813  1
  P  P31  1  0.500000  0.155404  0.892813  1
  P  P32  1  0.000000  0.655404  0.107187  1
  P  P33  1  0.000000  0.344596  0.107187  1
  P  P34  1  0.500000  0.500000  0.356675  1
  P  P35  1  0.000000  0.000000  0.643325  1
