# generated using pymatgen
data_Nd4AlGa3(IrPt)2
_symmetry_space_group_name_H-M   'P 1'
_cell_length_a   4.47079800
_cell_length_b   7.07096637
_cell_length_c   7.90317006
_cell_angle_alpha   90.15351563
_cell_angle_beta   90.00000000
_cell_angle_gamma   90.00000000
_symmetry_Int_Tables_number   1
_chemical_formula_structural   Nd4AlGa3(IrPt)2
_chemical_formula_sum   'Nd4 Al1 Ga3 Ir2 Pt2'
_cell_volume   249.84093022
_cell_formula_units_Z   1
loop_
 _symmetry_equiv_pos_site_id
 _symmetry_equiv_pos_as_xyz
  1  'x, y, z'
loop_
 _atom_site_type_symbol
 _atom_site_label
 _atom_site_symmetry_multiplicity
 _atom_site_fract_x
 _atom_site_fract_y
 _atom_site_fract_z
 _atom_site_occupancy
  Nd  Nd0  1  0.750000  0.470374  0.185355  1
  Nd  Nd1  1  0.250000  0.023709  0.686795  1
  Nd  Nd2  1  0.750000  0.967617  0.318510  1
  Nd  Nd3  1  0.250000  0.527252  0.809922  1
  Al  Al4  1  0.250000  0.150202  0.064039  1
  Ga  Ga5  1  0.750000  0.852646  0.930053  1
  Ga  Ga6  1  0.250000  0.655444  0.435261  1
  Ga  Ga7  1  0.750000  0.348050  0.570963  1
  Ir  Ir8  1  0.750000  0.722702  0.612725  1
  Ir  Ir9  1  0.750000  0.224478  0.891863  1
  Pt  Pt10  1  0.250000  0.276076  0.381461  1
  Pt  Pt11  1  0.250000  0.781451  0.113052  1
