# generated using pymatgen
data_Dy4Fe4P12Ir13W3
_symmetry_space_group_name_H-M   'P 1'
_cell_length_a   3.93028600
_cell_length_b   10.68779590
_cell_length_c   12.41935153
_cell_angle_alpha   90.54412458
_cell_angle_beta   90.00000000
_cell_angle_gamma   90.00000000
_symmetry_Int_Tables_number   1
_chemical_formula_structural   Dy4Fe4P12Ir13W3
_chemical_formula_sum   'Dy4 Fe4 P12 Ir13 W3'
_cell_volume   521.66493037
_cell_formula_units_Z   1
loop_
 _symmetry_equiv_pos_site_id
 _symmetry_equiv_pos_as_xyz
  1  'x, y, z'
loop_
 _atom_site_type_symbol
 _atom_site_label
 _atom_site_symmetry_multiplicity
 _atom_site_fract_x
 _atom_site_fract_y
 _atom_site_fract_z
 _atom_site_occupancy
  Dy  Dy0  1  0.250000  0.583273  0.711396  1
  Dy  Dy1  1  0.250000  0.916390  0.208279  1
  Dy  Dy2  1  0.750000  0.419350  0.287539  1
  Dy  Dy3  1  0.750000  0.080045  0.793947  1
  Fe  Fe4  1  0.250000  0.458158  0.935066  1
  Fe  Fe5  1  0.250000  0.044792  0.439329  1
  Fe  Fe6  1  0.750000  0.538287  0.061948  1
  Fe  Fe7  1  0.750000  0.963599  0.563724  1
  P  P8  1  0.250000  0.425924  0.104757  1
  P  P9  1  0.250000  0.069039  0.610934  1
  P  P10  1  0.750000  0.572248  0.893223  1
  P  P11  1  0.750000  0.927936  0.394267  1
  P  P12  1  0.250000  0.267477  0.871509  1
  P  P13  1  0.250000  0.232038  0.365854  1
  P  P14  1  0.750000  0.729126  0.128672  1
  P  P15  1  0.750000  0.771763  0.629623  1
  P  P16  1  0.250000  0.597786  0.388327  1
  P  P17  1  0.250000  0.899346  0.891010  1
  P  P18  1  0.750000  0.407525  0.610786  1
  P  P19  1  0.750000  0.099321  0.110602  1
  Ir  Ir20  1  0.750000  0.213689  0.519434  1
  Ir  Ir21  1  0.250000  0.404488  0.483127  1
  Ir  Ir22  1  0.250000  0.094202  0.981929  1
  Ir  Ir23  1  0.750000  0.596877  0.516820  1
  Ir  Ir24  1  0.750000  0.904167  0.019914  1
  Ir  Ir25  1  0.250000  0.232347  0.177931  1
  Ir  Ir26  1  0.250000  0.264763  0.680515  1
  Ir  Ir27  1  0.750000  0.765291  0.820582  1
  Ir  Ir28  1  0.750000  0.735245  0.319352  1
  Ir  Ir29  1  0.250000  0.883375  0.699716  1
  Ir  Ir30  1  0.250000  0.611687  0.199798  1
  Ir  Ir31  1  0.750000  0.113646  0.302005  1
  Ir  Ir32  1  0.750000  0.386273  0.797243  1
  W  W33  1  0.250000  0.705681  0.984354  1
  W  W34  1  0.250000  0.793007  0.481798  1
  W  W35  1  0.750000  0.291839  0.014690  1
