# generated using pymatgen
data_YEr4Ga6P6Ir19
_symmetry_space_group_name_H-M   'P 1'
_cell_length_a   12.94979700
_cell_length_b   12.94979710
_cell_length_c   3.97585900
_cell_angle_alpha   90.00000000
_cell_angle_beta   90.00000000
_cell_angle_gamma   120.00000230
_symmetry_Int_Tables_number   1
_chemical_formula_structural   YEr4Ga6P6Ir19
_chemical_formula_sum   'Y1 Er4 Ga6 P6 Ir19'
_cell_volume   577.41427983
_cell_formula_units_Z   1
loop_
 _symmetry_equiv_pos_site_id
 _symmetry_equiv_pos_as_xyz
  1  'x, y, z'
loop_
 _atom_site_type_symbol
 _atom_site_label
 _atom_site_symmetry_multiplicity
 _atom_site_fract_x
 _atom_site_fract_y
 _atom_site_fract_z
 _atom_site_occupancy
  Y  Y0  1  0.666667  0.333333  0.000000  1
  Er  Er1  1  0.333333  0.666667  0.000000  1
  Er  Er2  1  0.816689  0.812183  0.500000  1
  Er  Er3  1  0.187817  0.004507  0.500000  1
  Er  Er4  1  0.995493  0.183311  0.500000  1
  Ga  Ga5  1  0.677100  0.158403  0.500000  1
  Ga  Ga6  1  0.841597  0.518697  0.500000  1
  Ga  Ga7  1  0.481303  0.322900  0.500000  1
  Ga  Ga8  1  0.635533  0.637234  0.000000  1
  Ga  Ga9  1  0.362766  0.998300  0.000000  1
  Ga  Ga10  1  0.001700  0.364467  0.000000  1
  P  P11  1  0.180291  0.697373  0.500000  1
  P  P12  1  0.517081  0.819709  0.500000  1
  P  P13  1  0.302627  0.482919  0.500000  1
  P  P14  1  0.175429  0.181146  0.000000  1
  P  P15  1  0.818854  0.994282  0.000000  1
  P  P16  1  0.005718  0.824571  0.000000  1
  Ir  Ir17  1  0.809357  0.169101  0.000000  1
  Ir  Ir18  1  0.830899  0.640256  0.000000  1
  Ir  Ir19  1  0.359744  0.190643  0.000000  1
  Ir  Ir20  1  0.182277  0.793811  0.000000  1
  Ir  Ir21  1  0.611534  0.817723  0.000000  1
  Ir  Ir22  1  0.206189  0.388466  0.000000  1
  Ir  Ir23  1  0.446443  0.440541  0.000000  1
  Ir  Ir24  1  0.559459  0.005902  0.000000  1
  Ir  Ir25  1  0.994098  0.553557  0.000000  1
  Ir  Ir26  1  0.267701  0.280572  0.500000  1
  Ir  Ir27  1  0.719428  0.987129  0.500000  1
  Ir  Ir28  1  0.012871  0.732299  0.500000  1
  Ir  Ir29  1  0.873305  0.348653  0.500000  1
  Ir  Ir30  1  0.651347  0.524653  0.500000  1
  Ir  Ir31  1  0.475347  0.126695  0.500000  1
  Ir  Ir32  1  0.371417  0.868624  0.500000  1
  Ir  Ir33  1  0.497209  0.628583  0.500000  1
  Ir  Ir34  1  0.131376  0.502791  0.500000  1
  Ir  Ir35  1  0.000000  0.000000  0.000000  1
