# generated using pymatgen
data_MgTi2BeP2Ru3
_symmetry_space_group_name_H-M   'P 1'
_cell_length_a   6.56752566
_cell_length_b   6.56752718
_cell_length_c   3.28373000
_cell_angle_alpha   90.00000000
_cell_angle_beta   90.00000000
_cell_angle_gamma   121.61429205
_symmetry_Int_Tables_number   1
_chemical_formula_structural   MgTi2BeP2Ru3
_chemical_formula_sum   'Mg1 Ti2 Be1 P2 Ru3'
_cell_volume   120.61597015
_cell_formula_units_Z   1
loop_
 _symmetry_equiv_pos_site_id
 _symmetry_equiv_pos_as_xyz
  1  'x, y, z'
loop_
 _atom_site_type_symbol
 _atom_site_label
 _atom_site_symmetry_multiplicity
 _atom_site_fract_x
 _atom_site_fract_y
 _atom_site_fract_z
 _atom_site_occupancy
  Mg  Mg0  1  0.397069  0.397069  0.500000  1
  Ti  Ti1  1  0.603149  0.006382  0.500000  1
  Ti  Ti2  1  0.006382  0.603149  0.500000  1
  Be  Be3  1  0.996072  0.996072  0.500000  1
  P  P4  1  0.670068  0.333627  0.000000  1
  P  P5  1  0.333627  0.670068  0.000000  1
  Ru  Ru6  1  0.997171  0.251253  0.000000  1
  Ru  Ru7  1  0.251253  0.997171  0.000000  1
  Ru  Ru8  1  0.745208  0.745208  0.000000  1
