# generated using pymatgen
data_Li4Nd3HoPd4
_symmetry_space_group_name_H-M   'P 1'
_cell_length_a   4.08557600
_cell_length_b   7.20947377
_cell_length_c   8.55546100
_cell_angle_alpha   90.58030515
_cell_angle_beta   90.00000000
_cell_angle_gamma   90.00000000
_symmetry_Int_Tables_number   1
_chemical_formula_structural   Li4Nd3HoPd4
_chemical_formula_sum   'Li4 Nd3 Ho1 Pd4'
_cell_volume   251.98692123
_cell_formula_units_Z   1
loop_
 _symmetry_equiv_pos_site_id
 _symmetry_equiv_pos_as_xyz
  1  'x, y, z'
loop_
 _atom_site_type_symbol
 _atom_site_label
 _atom_site_symmetry_multiplicity
 _atom_site_fract_x
 _atom_site_fract_y
 _atom_site_fract_z
 _atom_site_occupancy
  Li  Li0  1  0.250000  0.131880  0.440111  1
  Li  Li1  1  0.250000  0.625925  0.059785  1
  Li  Li2  1  0.750000  0.866577  0.554932  1
  Li  Li3  1  0.750000  0.376071  0.946280  1
  Nd  Nd4  1  0.250000  0.047950  0.815144  1
  Nd  Nd5  1  0.250000  0.543772  0.683099  1
  Nd  Nd6  1  0.750000  0.956364  0.188072  1
  Ho  Ho7  1  0.750000  0.452985  0.316695  1
  Pd  Pd8  1  0.250000  0.737008  0.376193  1
  Pd  Pd9  1  0.250000  0.256797  0.126642  1
  Pd  Pd10  1  0.750000  0.251513  0.612360  1
  Pd  Pd11  1  0.750000  0.753157  0.880688  1
