# generated using pymatgen
data_Li4YbN2
_symmetry_space_group_name_H-M   'P 1'
_cell_length_a   3.74013964
_cell_length_b   3.74013994
_cell_length_c   12.95958670
_cell_angle_alpha   98.29676586
_cell_angle_beta   98.29676499
_cell_angle_gamma   90.00000085
_symmetry_Int_Tables_number   1
_chemical_formula_structural   Li4YbN2
_chemical_formula_sum   'Li8 Yb2 N4'
_cell_volume   177.47205870
_cell_formula_units_Z   2
loop_
 _symmetry_equiv_pos_site_id
 _symmetry_equiv_pos_as_xyz
  1  'x, y, z'
loop_
 _atom_site_type_symbol
 _atom_site_label
 _atom_site_symmetry_multiplicity
 _atom_site_fract_x
 _atom_site_fract_y
 _atom_site_fract_z
 _atom_site_occupancy
  Li  Li0  1  0.021701  0.771703  0.043403  1
  Li  Li1  1  0.559767  0.309768  0.119538  1
  Li  Li2  1  0.690231  0.440231  0.380463  1
  Li  Li3  1  0.228299  0.978300  0.456598  1
  Li  Li4  1  0.771700  0.021702  0.543403  1
  Li  Li5  1  0.309768  0.559768  0.619538  1
  Li  Li6  1  0.440232  0.690231  0.880463  1
  Li  Li7  1  0.978298  0.228299  0.956597  1
  Yb  Yb8  1  0.125000  0.875001  0.250000  1
  Yb  Yb9  1  0.874999  0.125000  0.750000  1
  N  N10  1  0.061737  0.311736  0.123475  1
  N  N11  1  0.688262  0.938265  0.376526  1
  N  N12  1  0.311737  0.061737  0.623474  1
  N  N13  1  0.938262  0.688263  0.876526  1
