# generated using pymatgen
data_Ba4SmSbO8
_symmetry_space_group_name_H-M   'P 1'
_cell_length_a   7.50964777
_cell_length_b   7.50964741
_cell_length_c   6.10017000
_cell_angle_alpha   90.00000000
_cell_angle_beta   90.00000000
_cell_angle_gamma   132.33258120
_symmetry_Int_Tables_number   1
_chemical_formula_structural   Ba4SmSbO8
_chemical_formula_sum   'Ba4 Sm1 Sb1 O8'
_cell_volume   254.31464358
_cell_formula_units_Z   1
loop_
 _symmetry_equiv_pos_site_id
 _symmetry_equiv_pos_as_xyz
  1  'x, y, z'
loop_
 _atom_site_type_symbol
 _atom_site_label
 _atom_site_symmetry_multiplicity
 _atom_site_fract_x
 _atom_site_fract_y
 _atom_site_fract_z
 _atom_site_occupancy
  Ba  Ba0  1  0.353092  0.646908  0.000000  1
  Ba  Ba1  1  0.852080  0.147920  0.500000  1
  Ba  Ba2  1  0.147920  0.852080  0.500000  1
  Ba  Ba3  1  0.646908  0.353092  0.000000  1
  Sm  Sm4  1  0.000000  0.000000  0.000000  1
  Sb  Sb5  1  0.500000  0.500000  0.500000  1
  O  O6  1  0.263723  0.263723  0.730751  1
  O  O7  1  0.736277  0.736277  0.269249  1
  O  O8  1  0.736277  0.736277  0.730751  1
  O  O9  1  0.263723  0.263723  0.269249  1
  O  O10  1  0.168601  0.831399  0.000000  1
  O  O11  1  0.650735  0.349265  0.500000  1
  O  O12  1  0.349265  0.650735  0.500000  1
  O  O13  1  0.831399  0.168601  0.000000  1
