# generated using pymatgen
data_Ce4MnAl2Rh
_symmetry_space_group_name_H-M   'P 1'
_cell_length_a   7.81005200
_cell_length_b   7.81005112
_cell_length_c   9.69959500
_cell_angle_alpha   90.00000000
_cell_angle_beta   90.00000000
_cell_angle_gamma   119.99999525
_symmetry_Int_Tables_number   1
_chemical_formula_structural   Ce4MnAl2Rh
_chemical_formula_sum   'Ce12 Mn3 Al6 Rh3'
_cell_volume   512.37986571
_cell_formula_units_Z   3
loop_
 _symmetry_equiv_pos_site_id
 _symmetry_equiv_pos_as_xyz
  1  'x, y, z'
loop_
 _atom_site_type_symbol
 _atom_site_label
 _atom_site_symmetry_multiplicity
 _atom_site_fract_x
 _atom_site_fract_y
 _atom_site_fract_z
 _atom_site_occupancy
  Ce  Ce0  1  0.000000  0.558698  0.490040  1
  Ce  Ce1  1  0.558698  0.000000  0.490040  1
  Ce  Ce2  1  0.441302  0.441302  0.490040  1
  Ce  Ce3  1  0.000000  0.405480  0.012843  1
  Ce  Ce4  1  0.405480  0.000000  0.012843  1
  Ce  Ce5  1  0.594520  0.594520  0.012843  1
  Ce  Ce6  1  0.000000  0.745696  0.181314  1
  Ce  Ce7  1  0.745696  0.000000  0.181314  1
  Ce  Ce8  1  0.254304  0.254304  0.181314  1
  Ce  Ce9  1  0.000000  0.263524  0.669691  1
  Ce  Ce10  1  0.263524  0.000000  0.669691  1
  Ce  Ce11  1  0.736476  0.736476  0.669691  1
  Mn  Mn12  1  0.000000  0.352538  0.341825  1
  Mn  Mn13  1  0.352538  0.000000  0.341825  1
  Mn  Mn14  1  0.647462  0.647462  0.341825  1
  Al  Al15  1  0.666667  0.333333  0.264022  1
  Al  Al16  1  0.333333  0.666667  0.264022  1
  Al  Al17  1  0.333333  0.666667  0.773462  1
  Al  Al18  1  0.666667  0.333333  0.773462  1
  Al  Al19  1  0.000000  0.000000  0.424556  1
  Al  Al20  1  0.000000  0.000000  0.920584  1
  Rh  Rh21  1  0.000000  0.662525  0.840667  1
  Rh  Rh22  1  0.662525  0.000000  0.840667  1
  Rh  Rh23  1  0.337475  0.337475  0.840667  1
