# generated using pymatgen
data_Ta5NbGa4(NiC)2
_symmetry_space_group_name_H-M   'P 1'
_cell_length_a   8.24176083
_cell_length_b   8.24176033
_cell_length_c   8.23087168
_cell_angle_alpha   59.87957655
_cell_angle_beta   59.87958027
_cell_angle_gamma   59.91266900
_symmetry_Int_Tables_number   1
_chemical_formula_structural   Ta5NbGa4(NiC)2
_chemical_formula_sum   'Ta10 Nb2 Ga8 Ni4 C4'
_cell_volume   394.35878430
_cell_formula_units_Z   2
loop_
 _symmetry_equiv_pos_site_id
 _symmetry_equiv_pos_as_xyz
  1  'x, y, z'
loop_
 _atom_site_type_symbol
 _atom_site_label
 _atom_site_symmetry_multiplicity
 _atom_site_fract_x
 _atom_site_fract_y
 _atom_site_fract_z
 _atom_site_occupancy
  Ta  Ta0  1  0.685994  0.313533  0.314121  1
  Ta  Ta1  1  0.313441  0.686018  0.313755  1
  Ta  Ta2  1  0.686816  0.686300  0.313789  1
  Ta  Ta3  1  0.313589  0.313272  0.686074  1
  Ta  Ta4  1  0.563700  0.563184  0.936211  1
  Ta  Ta5  1  0.937212  0.562253  0.563052  1
  Ta  Ta6  1  0.563982  0.936559  0.936245  1
  Ta  Ta7  1  0.936728  0.936411  0.563926  1
  Ta  Ta8  1  0.687747  0.312788  0.686948  1
  Ta  Ta9  1  0.936467  0.564006  0.935879  1
  Nb  Nb10  1  0.562222  0.937273  0.562656  1
  Nb  Nb11  1  0.312727  0.687778  0.687344  1
  Ga  Ga12  1  0.916855  0.915738  0.916347  1
  Ga  Ga13  1  0.998749  0.333723  0.333215  1
  Ga  Ga14  1  0.333861  0.998519  0.334245  1
  Ga  Ga15  1  0.333425  0.334291  0.998318  1
  Ga  Ga16  1  0.916277  0.251251  0.916785  1
  Ga  Ga17  1  0.915709  0.916575  0.251682  1
  Ga  Ga18  1  0.251481  0.916139  0.915755  1
  Ga  Ga19  1  0.334262  0.333145  0.333653  1
  Ni  Ni20  1  0.125034  0.124966  0.125000  1
  Ni  Ni21  1  0.625454  0.125931  0.122677  1
  Ni  Ni22  1  0.124069  0.624546  0.127323  1
  Ni  Ni23  1  0.121754  0.128246  0.625000  1
  C  C24  1  0.627061  0.622939  0.625000  1
  C  C25  1  0.124444  0.624382  0.624666  1
  C  C26  1  0.625618  0.125556  0.625334  1
  C  C27  1  0.625323  0.624677  0.125000  1
