# generated using pymatgen
data_Tb4Er2Si3Au
_symmetry_space_group_name_H-M   'P 1'
_cell_length_a   7.52940427
_cell_length_b   7.52940427
_cell_length_c   4.25971900
_cell_angle_alpha   90.00000000
_cell_angle_beta   90.00000000
_cell_angle_gamma   91.71402052
_symmetry_Int_Tables_number   1
_chemical_formula_structural   Tb4Er2Si3Au
_chemical_formula_sum   'Tb4 Er2 Si3 Au1'
_cell_volume   241.38363496
_cell_formula_units_Z   1
loop_
 _symmetry_equiv_pos_site_id
 _symmetry_equiv_pos_as_xyz
  1  'x, y, z'
loop_
 _atom_site_type_symbol
 _atom_site_label
 _atom_site_symmetry_multiplicity
 _atom_site_fract_x
 _atom_site_fract_y
 _atom_site_fract_z
 _atom_site_occupancy
  Tb  Tb0  1  0.315234  0.827057  0.500000  1
  Tb  Tb1  1  0.672943  0.184766  0.500000  1
  Tb  Tb2  1  0.174873  0.325127  0.500000  1
  Tb  Tb3  1  0.836500  0.663500  0.500000  1
  Er  Er4  1  0.997274  0.991949  0.000000  1
  Er  Er5  1  0.508051  0.502726  0.000000  1
  Si  Si6  1  0.371148  0.128852  0.000000  1
  Si  Si7  1  0.885384  0.378491  0.000000  1
  Si  Si8  1  0.121509  0.614616  0.000000  1
  Au  Au9  1  0.617084  0.882916  0.000000  1
