# generated using pymatgen
data_Ho16Cd4Ni3Os
_symmetry_space_group_name_H-M   'P 1'
_cell_length_a   9.56674658
_cell_length_b   9.56674647
_cell_length_c   9.56674700
_cell_angle_alpha   59.44348207
_cell_angle_beta   59.44348097
_cell_angle_gamma   59.44348493
_symmetry_Int_Tables_number   1
_chemical_formula_structural   Ho16Cd4Ni3Os
_chemical_formula_sum   'Ho16 Cd4 Ni3 Os1'
_cell_volume   611.28551530
_cell_formula_units_Z   1
loop_
 _symmetry_equiv_pos_site_id
 _symmetry_equiv_pos_as_xyz
  1  'x, y, z'
loop_
 _atom_site_type_symbol
 _atom_site_label
 _atom_site_symmetry_multiplicity
 _atom_site_fract_x
 _atom_site_fract_y
 _atom_site_fract_z
 _atom_site_occupancy
  Ho  Ho0  1  0.347537  0.347537  0.347537  1
  Ho  Ho1  1  0.351132  0.351132  0.952647  1
  Ho  Ho2  1  0.351132  0.952647  0.351132  1
  Ho  Ho3  1  0.952647  0.351132  0.351132  1
  Ho  Ho4  1  0.809432  0.188473  0.188473  1
  Ho  Ho5  1  0.186426  0.811918  0.811918  1
  Ho  Ho6  1  0.188473  0.809432  0.188473  1
  Ho  Ho7  1  0.811918  0.186426  0.811918  1
  Ho  Ho8  1  0.188473  0.188473  0.809432  1
  Ho  Ho9  1  0.811918  0.811918  0.186426  1
  Ho  Ho10  1  0.936136  0.565458  0.565458  1
  Ho  Ho11  1  0.558102  0.938396  0.938396  1
  Ho  Ho12  1  0.565458  0.936136  0.565458  1
  Ho  Ho13  1  0.938396  0.558102  0.938396  1
  Ho  Ho14  1  0.565458  0.565458  0.936136  1
  Ho  Ho15  1  0.938396  0.938396  0.558102  1
  Cd  Cd16  1  0.580378  0.580378  0.580378  1
  Cd  Cd17  1  0.580636  0.580636  0.255514  1
  Cd  Cd18  1  0.580636  0.255514  0.580636  1
  Cd  Cd19  1  0.255514  0.580636  0.580636  1
  Ni  Ni20  1  0.142181  0.142181  0.574326  1
  Ni  Ni21  1  0.142181  0.574326  0.142181  1
  Ni  Ni22  1  0.574326  0.142181  0.142181  1
  Os  Os23  1  0.143113  0.143113  0.143113  1
