# generated using pymatgen
data_Ti24BeS7
_symmetry_space_group_name_H-M   'P 1'
_cell_length_a   9.84208836
_cell_length_b   9.86497890
_cell_length_c   4.95392249
_cell_angle_alpha   89.74876870
_cell_angle_beta   89.81201705
_cell_angle_gamma   90.04403354
_symmetry_Int_Tables_number   1
_chemical_formula_structural   Ti24BeS7
_chemical_formula_sum   'Ti24 Be1 S7'
_cell_volume   480.97885296
_cell_formula_units_Z   1
loop_
 _symmetry_equiv_pos_site_id
 _symmetry_equiv_pos_as_xyz
  1  'x, y, z'
loop_
 _atom_site_type_symbol
 _atom_site_label
 _atom_site_symmetry_multiplicity
 _atom_site_fract_x
 _atom_site_fract_y
 _atom_site_fract_z
 _atom_site_occupancy
  Ti  Ti0  1  0.969942  0.858484  0.279512  1
  Ti  Ti1  1  0.361528  0.526371  0.780787  1
  Ti  Ti2  1  0.638644  0.470664  0.780378  1
  Ti  Ti3  1  0.028082  0.137220  0.281532  1
  Ti  Ti4  1  0.529929  0.637860  0.218508  1
  Ti  Ti5  1  0.139216  0.973752  0.721136  1
  Ti  Ti6  1  0.860857  0.030914  0.717129  1
  Ti  Ti7  1  0.471918  0.361019  0.218511  1
  Ti  Ti8  1  0.819170  0.283692  0.018371  1
  Ti  Ti9  1  0.785574  0.679075  0.517697  1
  Ti  Ti10  1  0.215253  0.319271  0.516253  1
  Ti  Ti11  1  0.182920  0.716002  0.011258  1
  Ti  Ti12  1  0.679922  0.214776  0.484410  1
  Ti  Ti13  1  0.715338  0.821141  0.979972  1
  Ti  Ti14  1  0.284544  0.181062  0.984953  1
  Ti  Ti15  1  0.317681  0.783922  0.486805  1
  Ti  Ti16  1  0.914323  0.392171  0.541866  1
  Ti  Ti17  1  0.894062  0.587274  0.033894  1
  Ti  Ti18  1  0.106578  0.415126  0.042520  1
  Ti  Ti19  1  0.084381  0.606187  0.550042  1
  Ti  Ti20  1  0.585313  0.107028  0.958912  1
  Ti  Ti21  1  0.607342  0.915125  0.461700  1
  Ti  Ti22  1  0.393733  0.084610  0.458427  1
  Ti  Ti23  1  0.415455  0.894203  0.957975  1
  Be  Be24  1  0.959490  0.798508  0.788869  1
  S  S25  1  0.460240  0.292117  0.711738  1
  S  S26  1  0.792314  0.038598  0.210117  1
  S  S27  1  0.206961  0.958071  0.209831  1
  S  S28  1  0.538871  0.707543  0.712211  1
  S  S29  1  0.039534  0.208248  0.790319  1
  S  S30  1  0.708470  0.460416  0.286348  1
  S  S31  1  0.292417  0.539552  0.288017  1
