# generated using pymatgen
data_Tb9YbTl7InPt4
_symmetry_space_group_name_H-M   'P 1'
_cell_length_a   3.63412400
_cell_length_b   8.29130131
_cell_length_c   18.54874401
_cell_angle_alpha   89.96648100
_cell_angle_beta   90.00000000
_cell_angle_gamma   90.00000000
_symmetry_Int_Tables_number   1
_chemical_formula_structural   Tb9YbTl7InPt4
_chemical_formula_sum   'Tb9 Yb1 Tl7 In1 Pt4'
_cell_volume   558.90355593
_cell_formula_units_Z   1
loop_
 _symmetry_equiv_pos_site_id
 _symmetry_equiv_pos_as_xyz
  1  'x, y, z'
loop_
 _atom_site_type_symbol
 _atom_site_label
 _atom_site_symmetry_multiplicity
 _atom_site_fract_x
 _atom_site_fract_y
 _atom_site_fract_z
 _atom_site_occupancy
  Tb  Tb0  1  0.000000  0.115692  0.413240  1
  Tb  Tb1  1  0.000000  0.883566  0.586184  1
  Tb  Tb2  1  0.000000  0.383275  0.912577  1
  Tb  Tb3  1  0.000000  0.616644  0.087496  1
  Tb  Tb4  1  0.000000  0.243893  0.220742  1
  Tb  Tb5  1  0.000000  0.756516  0.779454  1
  Tb  Tb6  1  0.000000  0.256381  0.720274  1
  Tb  Tb7  1  0.000000  0.743155  0.279837  1
  Tb  Tb8  1  0.000000  0.501910  0.499707  1
  Yb  Yb9  1  0.000000  0.999972  0.000038  1
  Tl  Tl10  1  0.500000  0.424398  0.353028  1
  Tl  Tl11  1  0.500000  0.577981  0.647420  1
  Tl  Tl12  1  0.500000  0.076610  0.853183  1
  Tl  Tl13  1  0.500000  0.923685  0.147091  1
  Tl  Tl14  1  0.500000  0.292448  0.065440  1
  Tl  Tl15  1  0.500000  0.707388  0.934586  1
  Tl  Tl16  1  0.500000  0.207414  0.565030  1
  In  In17  1  0.500000  0.793548  0.433543  1
  Pt  Pt18  1  0.500000  0.022603  0.304240  1
  Pt  Pt19  1  0.500000  0.973641  0.696948  1
  Pt  Pt20  1  0.500000  0.475043  0.802868  1
  Pt  Pt21  1  0.500000  0.524239  0.197073  1
