# generated using pymatgen
data_Ti3Fe3CoP4W
_symmetry_space_group_name_H-M   'P 1'
_cell_length_a   3.56540400
_cell_length_b   6.02331257
_cell_length_c   6.82175949
_cell_angle_alpha   89.57826784
_cell_angle_beta   90.00000000
_cell_angle_gamma   90.00000000
_symmetry_Int_Tables_number   1
_chemical_formula_structural   Ti3Fe3CoP4W
_chemical_formula_sum   'Ti3 Fe3 Co1 P4 W1'
_cell_volume   146.49701899
_cell_formula_units_Z   1
loop_
 _symmetry_equiv_pos_site_id
 _symmetry_equiv_pos_as_xyz
  1  'x, y, z'
loop_
 _atom_site_type_symbol
 _atom_site_label
 _atom_site_symmetry_multiplicity
 _atom_site_fract_x
 _atom_site_fract_y
 _atom_site_fract_z
 _atom_site_occupancy
  Ti  Ti0  1  0.250000  0.523838  0.680102  1
  Ti  Ti1  1  0.750000  0.975320  0.176998  1
  Ti  Ti2  1  0.750000  0.479158  0.319716  1
  Fe  Fe3  1  0.250000  0.645668  0.062722  1
  Fe  Fe4  1  0.750000  0.858589  0.560301  1
  Fe  Fe5  1  0.750000  0.357171  0.936698  1
  Co  Co6  1  0.250000  0.143334  0.437637  1
  P  P7  1  0.250000  0.770515  0.379053  1
  P  P8  1  0.250000  0.273430  0.119423  1
  P  P9  1  0.750000  0.227033  0.621502  1
  P  P10  1  0.750000  0.723759  0.877844  1
  W  W11  1  0.250000  0.022185  0.828007  1
