# generated using pymatgen
data_Sm3Si2BRh6
_symmetry_space_group_name_H-M   'P 1'
_cell_length_a   5.58387600
_cell_length_b   5.58387560
_cell_length_c   14.73131800
_cell_angle_alpha   90.00000000
_cell_angle_beta   90.00000000
_cell_angle_gamma   120.00000240
_symmetry_Int_Tables_number   1
_chemical_formula_structural   Sm3Si2BRh6
_chemical_formula_sum   'Sm6 Si4 B2 Rh12'
_cell_volume   397.78071600
_cell_formula_units_Z   2
loop_
 _symmetry_equiv_pos_site_id
 _symmetry_equiv_pos_as_xyz
  1  'x, y, z'
loop_
 _atom_site_type_symbol
 _atom_site_label
 _atom_site_symmetry_multiplicity
 _atom_site_fract_x
 _atom_site_fract_y
 _atom_site_fract_z
 _atom_site_occupancy
  Sm  Sm0  1  0.666667  0.333333  0.969700  1
  Sm  Sm1  1  0.666667  0.333333  0.530300  1
  Sm  Sm2  1  0.333333  0.666667  0.041852  1
  Sm  Sm3  1  0.666667  0.333333  0.750000  1
  Sm  Sm4  1  0.333333  0.666667  0.458148  1
  Sm  Sm5  1  0.333333  0.666667  0.250000  1
  Si  Si6  1  0.000000  0.000000  0.489654  1
  Si  Si7  1  0.000000  0.000000  0.750000  1
  Si  Si8  1  0.333333  0.666667  0.750000  1
  Si  Si9  1  0.000000  0.000000  0.010346  1
  B  B10  1  0.666667  0.333333  0.250000  1
  B  B11  1  0.000000  0.000000  0.250000  1
  Rh  Rh12  1  0.165648  0.331296  0.871698  1
  Rh  Rh13  1  0.165648  0.331296  0.628302  1
  Rh  Rh14  1  0.668704  0.834352  0.871698  1
  Rh  Rh15  1  0.331164  0.165582  0.350320  1
  Rh  Rh16  1  0.834418  0.668836  0.350320  1
  Rh  Rh17  1  0.834418  0.165582  0.350320  1
  Rh  Rh18  1  0.834418  0.165582  0.149680  1
  Rh  Rh19  1  0.331164  0.165582  0.149680  1
  Rh  Rh20  1  0.668704  0.834352  0.628302  1
  Rh  Rh21  1  0.165648  0.834352  0.628302  1
  Rh  Rh22  1  0.834418  0.668836  0.149680  1
  Rh  Rh23  1  0.165648  0.834352  0.871698  1
