# generated using pymatgen
data_Tb2HoGa5
_symmetry_space_group_name_H-M   'P 1'
_cell_length_a   6.10984200
_cell_length_b   9.62041000
_cell_length_c   11.55758700
_cell_angle_alpha   90.00000000
_cell_angle_beta   90.00000000
_cell_angle_gamma   90.00000000
_symmetry_Int_Tables_number   1
_chemical_formula_structural   Tb2HoGa5
_chemical_formula_sum   'Tb8 Ho4 Ga20'
_cell_volume   679.34554530
_cell_formula_units_Z   4
loop_
 _symmetry_equiv_pos_site_id
 _symmetry_equiv_pos_as_xyz
  1  'x, y, z'
loop_
 _atom_site_type_symbol
 _atom_site_label
 _atom_site_symmetry_multiplicity
 _atom_site_fract_x
 _atom_site_fract_y
 _atom_site_fract_z
 _atom_site_occupancy
  Tb  Tb0  1  0.890243  0.509899  0.351753  1
  Tb  Tb1  1  0.609757  0.990101  0.851753  1
  Tb  Tb2  1  0.109757  0.009899  0.648247  1
  Tb  Tb3  1  0.390243  0.490101  0.148247  1
  Tb  Tb4  1  0.109757  0.490101  0.648247  1
  Tb  Tb5  1  0.390243  0.009899  0.148247  1
  Tb  Tb6  1  0.890243  0.990101  0.351753  1
  Tb  Tb7  1  0.609757  0.509899  0.851753  1
  Ho  Ho8  1  0.849151  0.750000  0.074271  1
  Ho  Ho9  1  0.650849  0.750000  0.574271  1
  Ho  Ho10  1  0.150849  0.250000  0.925729  1
  Ho  Ho11  1  0.349151  0.250000  0.425729  1
  Ga  Ga12  1  0.875013  0.053122  0.090403  1
  Ga  Ga13  1  0.624987  0.446878  0.590403  1
  Ga  Ga14  1  0.124987  0.553122  0.909597  1
  Ga  Ga15  1  0.375013  0.946878  0.409597  1
  Ga  Ga16  1  0.124987  0.946878  0.909597  1
  Ga  Ga17  1  0.375013  0.553122  0.409597  1
  Ga  Ga18  1  0.875013  0.446878  0.090403  1
  Ga  Ga19  1  0.624987  0.053122  0.590403  1
  Ga  Ga20  1  0.174017  0.750000  0.251872  1
  Ga  Ga21  1  0.325983  0.750000  0.751872  1
  Ga  Ga22  1  0.825983  0.250000  0.748128  1
  Ga  Ga23  1  0.674017  0.250000  0.248128  1
  Ga  Ga24  1  0.371186  0.750000  0.004652  1
  Ga  Ga25  1  0.128814  0.750000  0.504652  1
  Ga  Ga26  1  0.628814  0.250000  0.995348  1
  Ga  Ga27  1  0.871186  0.250000  0.495348  1
  Ga  Ga28  1  0.601943  0.750000  0.299170  1
  Ga  Ga29  1  0.898057  0.750000  0.799170  1
  Ga  Ga30  1  0.398057  0.250000  0.700830  1
  Ga  Ga31  1  0.101943  0.250000  0.200830  1
