# generated using pymatgen
data_PuNb8VSe16
_symmetry_space_group_name_H-M   'P 1'
_cell_length_a   6.99266700
_cell_length_b   6.99266752
_cell_length_c   13.83959200
_cell_angle_alpha   90.00000000
_cell_angle_beta   90.00000000
_cell_angle_gamma   120.00001172
_symmetry_Int_Tables_number   1
_chemical_formula_structural   PuNb8VSe16
_chemical_formula_sum   'Pu1 Nb8 V1 Se16'
_cell_volume   586.05664431
_cell_formula_units_Z   1
loop_
 _symmetry_equiv_pos_site_id
 _symmetry_equiv_pos_as_xyz
  1  'x, y, z'
loop_
 _atom_site_type_symbol
 _atom_site_label
 _atom_site_symmetry_multiplicity
 _atom_site_fract_x
 _atom_site_fract_y
 _atom_site_fract_z
 _atom_site_occupancy
  Pu  Pu0  1  0.000000  0.000000  0.000000  1
  Nb  Nb1  1  0.000000  0.000000  0.267431  1
  Nb  Nb2  1  0.000000  0.000000  0.732569  1
  Nb  Nb3  1  0.506961  0.013922  0.268302  1
  Nb  Nb4  1  0.493039  0.986078  0.731698  1
  Nb  Nb5  1  0.986078  0.493039  0.268302  1
  Nb  Nb6  1  0.013922  0.506961  0.731698  1
  Nb  Nb7  1  0.506961  0.493039  0.268302  1
  Nb  Nb8  1  0.493039  0.506961  0.731698  1
  V  V9  1  0.000000  0.000000  0.500000  1
  Se  Se10  1  0.333333  0.666667  0.607388  1
  Se  Se11  1  0.666667  0.333333  0.392612  1
  Se  Se12  1  0.666667  0.333333  0.142241  1
  Se  Se13  1  0.333333  0.666667  0.857759  1
  Se  Se14  1  0.169376  0.338752  0.147468  1
  Se  Se15  1  0.830624  0.661248  0.852532  1
  Se  Se16  1  0.661248  0.830624  0.147468  1
  Se  Se17  1  0.832572  0.665145  0.611800  1
  Se  Se18  1  0.338752  0.169376  0.852532  1
  Se  Se19  1  0.167428  0.334855  0.388200  1
  Se  Se20  1  0.169376  0.830624  0.147468  1
  Se  Se21  1  0.334855  0.167428  0.611800  1
  Se  Se22  1  0.830624  0.169376  0.852532  1
  Se  Se23  1  0.665145  0.832572  0.388200  1
  Se  Se24  1  0.832572  0.167428  0.611800  1
  Se  Se25  1  0.167428  0.832572  0.388200  1
