# generated using pymatgen
data_Zr5Ti5Sn6Se
_symmetry_space_group_name_H-M   'P 1'
_cell_length_a   5.67851697
_cell_length_b   8.41551868
_cell_length_c   8.41401720
_cell_angle_alpha   120.00860972
_cell_angle_beta   89.74951467
_cell_angle_gamma   90.49948221
_symmetry_Int_Tables_number   1
_chemical_formula_structural   Zr5Ti5Sn6Se
_chemical_formula_sum   'Zr5 Ti5 Sn6 Se1'
_cell_volume   348.17345414
_cell_formula_units_Z   1
loop_
 _symmetry_equiv_pos_site_id
 _symmetry_equiv_pos_as_xyz
  1  'x, y, z'
loop_
 _atom_site_type_symbol
 _atom_site_label
 _atom_site_symmetry_multiplicity
 _atom_site_fract_x
 _atom_site_fract_y
 _atom_site_fract_z
 _atom_site_occupancy
  Zr  Zr0  1  0.767487  0.742320  0.745711  1
  Zr  Zr1  1  0.767493  0.996615  0.254289  1
  Zr  Zr2  1  0.238091  0.747234  0.000003  1
  Zr  Zr3  1  0.230593  0.252449  0.252391  1
  Zr  Zr4  1  0.230602  0.000064  0.747615  1
  Ti  Ti5  1  0.499248  0.333536  0.665854  1
  Ti  Ti6  1  0.499265  0.667687  0.334146  1
  Ti  Ti7  1  0.999151  0.668224  0.334857  1
  Ti  Ti8  1  0.999136  0.333366  0.665144  1
  Ti  Ti9  1  0.764732  0.256778  0.999995  1
  Sn  Sn10  1  0.747215  0.594500  0.999962  1
  Sn  Sn11  1  0.744206  0.395442  0.390790  1
  Sn  Sn12  1  0.744205  0.004709  0.609242  1
  Sn  Sn13  1  0.247875  0.398105  0.999964  1
  Sn  Sn14  1  0.254745  0.601018  0.601027  1
  Sn  Sn15  1  0.254746  0.000047  0.398999  1
  Se  Se16  1  0.511207  0.007910  0.000010  1
