# generated using pymatgen
data_Pr(Zn2Pt)2
_symmetry_space_group_name_H-M   'P 1'
_cell_length_a   7.71540600
_cell_length_b   7.71540600
_cell_length_c   4.21871900
_cell_angle_alpha   90.00000000
_cell_angle_beta   90.00000000
_cell_angle_gamma   90.00000000
_symmetry_Int_Tables_number   1
_chemical_formula_structural   Pr(Zn2Pt)2
_chemical_formula_sum   'Pr2 Zn8 Pt4'
_cell_volume   251.12975201
_cell_formula_units_Z   2
loop_
 _symmetry_equiv_pos_site_id
 _symmetry_equiv_pos_as_xyz
  1  'x, y, z'
loop_
 _atom_site_type_symbol
 _atom_site_label
 _atom_site_symmetry_multiplicity
 _atom_site_fract_x
 _atom_site_fract_y
 _atom_site_fract_z
 _atom_site_occupancy
  Pr  Pr0  1  0.500000  0.500000  0.500000  1
  Pr  Pr1  1  0.000000  0.000000  0.000000  1
  Zn  Zn2  1  0.348196  0.092391  0.500000  1
  Zn  Zn3  1  0.651804  0.907609  0.500000  1
  Zn  Zn4  1  0.848196  0.407609  0.000000  1
  Zn  Zn5  1  0.151804  0.592391  0.000000  1
  Zn  Zn6  1  0.092391  0.348196  0.500000  1
  Zn  Zn7  1  0.907609  0.651804  0.500000  1
  Zn  Zn8  1  0.407609  0.848196  0.000000  1
  Zn  Zn9  1  0.592391  0.151804  0.000000  1
  Pt  Pt10  1  0.782319  0.217681  0.500000  1
  Pt  Pt11  1  0.217681  0.782319  0.500000  1
  Pt  Pt12  1  0.282319  0.282319  0.000000  1
  Pt  Pt13  1  0.717681  0.717681  0.000000  1
