# generated using pymatgen
data_LaMnTeO6
_symmetry_space_group_name_H-M   'P 1'
_cell_length_a   5.21604323
_cell_length_b   5.39476077
_cell_length_c   5.22005448
_cell_angle_alpha   88.47090992
_cell_angle_beta   90.84437270
_cell_angle_gamma   121.05389095
_symmetry_Int_Tables_number   1
_chemical_formula_structural   LaMnTeO6
_chemical_formula_sum   'La1 Mn1 Te1 O6'
_cell_volume   125.79209240
_cell_formula_units_Z   1
loop_
 _symmetry_equiv_pos_site_id
 _symmetry_equiv_pos_as_xyz
  1  'x, y, z'
loop_
 _atom_site_type_symbol
 _atom_site_label
 _atom_site_symmetry_multiplicity
 _atom_site_fract_x
 _atom_site_fract_y
 _atom_site_fract_z
 _atom_site_occupancy
  La  La0  1  0.510535  0.479873  0.499507  1
  Mn  Mn1  1  0.848701  0.148633  0.999787  1
  Te  Te2  1  0.175895  0.811372  0.000068  1
  O  O3  1  0.154837  0.107977  0.197218  1
  O  O4  1  0.514329  0.853111  0.208152  1
  O  O5  1  0.897316  0.509062  0.228585  1
  O  O6  1  0.511782  0.106513  0.789705  1
  O  O7  1  0.153429  0.492853  0.802608  1
  O  O8  1  0.892507  0.831291  0.774405  1
