# generated using pymatgen
data_HoSc(AlZn)2
_symmetry_space_group_name_H-M   'P 1'
_cell_length_a   4.43711900
_cell_length_b   4.43711895
_cell_length_c   6.80481500
_cell_angle_alpha   90.00000000
_cell_angle_beta   90.00000000
_cell_angle_gamma   119.99999295
_symmetry_Int_Tables_number   1
_chemical_formula_structural   HoSc(AlZn)2
_chemical_formula_sum   'Ho1 Sc1 Al2 Zn2'
_cell_volume   116.02434693
_cell_formula_units_Z   1
loop_
 _symmetry_equiv_pos_site_id
 _symmetry_equiv_pos_as_xyz
  1  'x, y, z'
loop_
 _atom_site_type_symbol
 _atom_site_label
 _atom_site_symmetry_multiplicity
 _atom_site_fract_x
 _atom_site_fract_y
 _atom_site_fract_z
 _atom_site_occupancy
  Ho  Ho0  1  0.000000  0.000000  0.000000  1
  Sc  Sc1  1  0.000000  0.000000  0.500000  1
  Al  Al2  1  0.333333  0.666667  0.270409  1
  Al  Al3  1  0.666667  0.333333  0.729591  1
  Zn  Zn4  1  0.333333  0.666667  0.730875  1
  Zn  Zn5  1  0.666667  0.333333  0.269125  1
