# generated using pymatgen
data_Y4ErTm(Sb4Au3)2
_symmetry_space_group_name_H-M   'P 1'
_cell_length_a   8.61018465
_cell_length_b   8.60905194
_cell_length_c   8.60904075
_cell_angle_alpha   109.56610890
_cell_angle_beta   109.45282603
_cell_angle_gamma   109.40364600
_symmetry_Int_Tables_number   1
_chemical_formula_structural   Y4ErTm(Sb4Au3)2
_chemical_formula_sum   'Y4 Er1 Tm1 Sb8 Au6'
_cell_volume   491.19299440
_cell_formula_units_Z   1
loop_
 _symmetry_equiv_pos_site_id
 _symmetry_equiv_pos_as_xyz
  1  'x, y, z'
loop_
 _atom_site_type_symbol
 _atom_site_label
 _atom_site_symmetry_multiplicity
 _atom_site_fract_x
 _atom_site_fract_y
 _atom_site_fract_z
 _atom_site_occupancy
  Y  Y0  1  0.624662  0.750007  0.374816  1
  Y  Y1  1  0.250069  0.125029  0.874859  1
  Y  Y2  1  0.750110  0.375107  0.625208  1
  Y  Y3  1  0.124804  0.874897  0.250030  1
  Er  Er4  1  0.875202  0.249889  0.125119  1
  Tm  Tm5  1  0.375110  0.625108  0.749927  1
  Sb  Sb6  1  0.678886  0.501336  0.000869  1
  Sb  Sb7  1  0.498954  0.999917  0.678124  1
  Sb  Sb8  1  0.999533  0.677534  0.499597  1
  Sb  Sb9  1  0.822713  0.821209  0.821355  1
  Sb  Sb10  1  0.499450  0.999844  0.177595  1
  Sb  Sb11  1  0.178978  0.500765  0.001558  1
  Sb  Sb12  1  0.998782  0.177877  0.499303  1
  Sb  Sb13  1  0.322615  0.321342  0.321438  1
  Au  Au14  1  0.375890  0.254468  0.627555  1
  Au  Au15  1  0.126898  0.748362  0.872518  1
  Au  Au16  1  0.248539  0.621769  0.377197  1
  Au  Au17  1  0.746796  0.875492  0.120863  1
  Au  Au18  1  0.626282  0.373143  0.248859  1
  Au  Au19  1  0.875727  0.126904  0.753210  1
