# generated using pymatgen
data_TaP5O14
_symmetry_space_group_name_H-M   'P 1'
_cell_length_a   5.07257951
_cell_length_b   8.50229898
_cell_length_c   7.31221255
_cell_angle_alpha   93.14485757
_cell_angle_beta   106.87410358
_cell_angle_gamma   89.36777441
_symmetry_Int_Tables_number   1
_chemical_formula_structural   TaP5O14
_chemical_formula_sum   'Ta1 P5 O14'
_cell_volume   301.32887326
_cell_formula_units_Z   1
loop_
 _symmetry_equiv_pos_site_id
 _symmetry_equiv_pos_as_xyz
  1  'x, y, z'
loop_
 _atom_site_type_symbol
 _atom_site_label
 _atom_site_symmetry_multiplicity
 _atom_site_fract_x
 _atom_site_fract_y
 _atom_site_fract_z
 _atom_site_occupancy
  Ta  Ta0  1  0.230497  0.513757  0.712210  1
  P  P1  1  0.666645  0.993280  0.286040  1
  P  P2  1  0.377594  0.168782  0.540039  1
  P  P3  1  0.220713  0.748167  0.111378  1
  P  P4  1  0.788735  0.299451  0.893200  1
  P  P5  1  0.621802  0.690740  0.468255  1
  O  O6  1  0.997639  0.374498  0.799377  1
  O  O7  1  0.223559  0.676831  0.911490  1
  O  O8  1  0.166688  0.050316  0.535636  1
  O  O9  1  0.283094  0.345097  0.527656  1
  O  O10  1  0.448555  0.662711  0.603291  1
  O  O11  1  0.566636  0.431959  0.885063  1
  O  O12  1  0.628607  0.165749  0.735879  1
  O  O13  1  0.451060  0.638202  0.256178  1
  O  O14  1  0.368516  0.913664  0.137169  1
  O  O15  1  0.532953  0.144890  0.378900  1
  O  O16  1  0.681868  0.869775  0.471385  1
  O  O17  1  0.886872  0.595765  0.521528  1
  O  O18  1  0.911344  0.234436  0.080217  1
  O  O19  1  0.951927  0.745492  0.149710  1
