# generated using pymatgen
data_GdNpF7
_symmetry_space_group_name_H-M   'P 1'
_cell_length_a   5.99786100
_cell_length_b   6.34900745
_cell_length_c   8.62749569
_cell_angle_alpha   102.77249378
_cell_angle_beta   90.00000000
_cell_angle_gamma   90.00000000
_symmetry_Int_Tables_number   1
_chemical_formula_structural   GdNpF7
_chemical_formula_sum   'Gd2 Np2 F14'
_cell_volume   320.40953942
_cell_formula_units_Z   2
loop_
 _symmetry_equiv_pos_site_id
 _symmetry_equiv_pos_as_xyz
  1  'x, y, z'
loop_
 _atom_site_type_symbol
 _atom_site_label
 _atom_site_symmetry_multiplicity
 _atom_site_fract_x
 _atom_site_fract_y
 _atom_site_fract_z
 _atom_site_occupancy
  Gd  Gd0  1  0.698739  0.652257  0.683512  1
  Gd  Gd1  1  0.198739  0.347743  0.316488  1
  Np  Np2  1  0.706912  0.811314  0.226176  1
  Np  Np3  1  0.206912  0.188686  0.773824  1
  F  F4  1  0.905043  0.470093  0.480983  1
  F  F5  1  0.405043  0.529907  0.519017  1
  F  F6  1  0.432874  0.916921  0.765864  1
  F  F7  1  0.932874  0.083079  0.234136  1
  F  F8  1  0.944462  0.944125  0.757018  1
  F  F9  1  0.444462  0.055875  0.242982  1
  F  F10  1  0.984526  0.464532  0.787249  1
  F  F11  1  0.484526  0.535468  0.212751  1
  F  F12  1  0.695040  0.755420  0.970216  1
  F  F13  1  0.195040  0.244580  0.029784  1
  F  F14  1  0.700014  0.864655  0.483294  1
  F  F15  1  0.200014  0.135345  0.516706  1
  F  F16  1  0.508750  0.385793  0.779907  1
  F  F17  1  0.008750  0.614207  0.220093  1
