# generated using pymatgen
data_Hf4Co19NiP12
_symmetry_space_group_name_H-M   'P 1'
_cell_length_a   3.59192800
_cell_length_b   10.12058218
_cell_length_c   11.62967935
_cell_angle_alpha   89.94479813
_cell_angle_beta   90.00000000
_cell_angle_gamma   90.00000000
_symmetry_Int_Tables_number   1
_chemical_formula_structural   Hf4Co19NiP12
_chemical_formula_sum   'Hf4 Co19 Ni1 P12'
_cell_volume   422.76658830
_cell_formula_units_Z   1
loop_
 _symmetry_equiv_pos_site_id
 _symmetry_equiv_pos_as_xyz
  1  'x, y, z'
loop_
 _atom_site_type_symbol
 _atom_site_label
 _atom_site_symmetry_multiplicity
 _atom_site_fract_x
 _atom_site_fract_y
 _atom_site_fract_z
 _atom_site_occupancy
  Hf  Hf0  1  0.250000  0.580154  0.702320  1
  Hf  Hf1  1  0.250000  0.919459  0.203682  1
  Hf  Hf2  1  0.750000  0.419197  0.297162  1
  Hf  Hf3  1  0.750000  0.079097  0.798021  1
  Co  Co4  1  0.250000  0.779638  0.494689  1
  Co  Co5  1  0.750000  0.281478  0.006654  1
  Co  Co6  1  0.750000  0.220377  0.505463  1
  Co  Co7  1  0.250000  0.409561  0.484874  1
  Co  Co8  1  0.250000  0.090896  0.984481  1
  Co  Co9  1  0.750000  0.590155  0.515628  1
  Co  Co10  1  0.750000  0.909857  0.017470  1
  Co  Co11  1  0.250000  0.224451  0.178740  1
  Co  Co12  1  0.250000  0.276277  0.678497  1
  Co  Co13  1  0.750000  0.775732  0.819143  1
  Co  Co14  1  0.750000  0.723237  0.323303  1
  Co  Co15  1  0.250000  0.884502  0.700587  1
  Co  Co16  1  0.250000  0.617820  0.201664  1
  Co  Co17  1  0.750000  0.116783  0.298691  1
  Co  Co18  1  0.750000  0.382404  0.798851  1
  Co  Co19  1  0.250000  0.466003  0.929835  1
  Co  Co20  1  0.250000  0.033297  0.429924  1
  Co  Co21  1  0.750000  0.534233  0.068934  1
  Co  Co22  1  0.750000  0.967519  0.569504  1
  Ni  Ni23  1  0.250000  0.716904  0.991532  1
  P  P24  1  0.250000  0.420552  0.114814  1
  P  P25  1  0.250000  0.080883  0.614452  1
  P  P26  1  0.750000  0.579865  0.883731  1
  P  P27  1  0.750000  0.919564  0.385401  1
  P  P28  1  0.250000  0.264990  0.869484  1
  P  P29  1  0.250000  0.234629  0.369517  1
  P  P30  1  0.750000  0.734896  0.132753  1
  P  P31  1  0.750000  0.766051  0.629862  1
  P  P32  1  0.250000  0.599692  0.389579  1
  P  P33  1  0.250000  0.899646  0.889331  1
  P  P34  1  0.750000  0.399898  0.610844  1
  P  P35  1  0.750000  0.100304  0.110583  1
