# generated using pymatgen
data_Hf8BeFe2(Si3Ru2)5
_symmetry_space_group_name_H-M   'P 1'
_cell_length_a   9.80990755
_cell_length_b   9.80990799
_cell_length_c   13.23087463
_cell_angle_alpha   54.09673097
_cell_angle_beta   54.09673026
_cell_angle_gamma   31.16529118
_symmetry_Int_Tables_number   1
_chemical_formula_structural   Hf8BeFe2(Si3Ru2)5
_chemical_formula_sum   'Hf8 Be1 Fe2 Si15 Ru10'
_cell_volume   522.74327000
_cell_formula_units_Z   1
loop_
 _symmetry_equiv_pos_site_id
 _symmetry_equiv_pos_as_xyz
  1  'x, y, z'
loop_
 _atom_site_type_symbol
 _atom_site_label
 _atom_site_symmetry_multiplicity
 _atom_site_fract_x
 _atom_site_fract_y
 _atom_site_fract_z
 _atom_site_occupancy
  Hf  Hf0  1  0.293323  0.559415  0.646875  1
  Hf  Hf1  1  0.440585  0.706677  0.853125  1
  Hf  Hf2  1  0.710340  0.435840  0.350229  1
  Hf  Hf3  1  0.564160  0.289660  0.149771  1
  Hf  Hf4  1  0.036845  0.296169  0.634615  1
  Hf  Hf5  1  0.703831  0.963155  0.865385  1
  Hf  Hf6  1  0.957262  0.713517  0.359480  1
  Hf  Hf7  1  0.286483  0.042738  0.140520  1
  Be  Be8  1  0.875951  0.124049  0.250000  1
  Fe  Fe9  1  0.652778  0.826960  0.277372  1
  Fe  Fe10  1  0.173040  0.347222  0.222628  1
  Si  Si11  1  0.124195  0.875805  0.750000  1
  Si  Si12  1  0.385996  0.614004  0.250000  1
  Si  Si13  1  0.616619  0.383381  0.750000  1
  Si  Si14  1  0.969195  0.254932  0.897310  1
  Si  Si15  1  0.745068  0.030805  0.602690  1
  Si  Si16  1  0.028341  0.733351  0.112871  1
  Si  Si17  1  0.266649  0.971659  0.387129  1
  Si  Si18  1  0.563471  0.085858  0.074503  1
  Si  Si19  1  0.914142  0.436529  0.425497  1
  Si  Si20  1  0.426116  0.914857  0.937657  1
  Si  Si21  1  0.085143  0.573884  0.562343  1
  Si  Si22  1  0.387576  0.142819  0.390006  1
  Si  Si23  1  0.857181  0.612424  0.109994  1
  Si  Si24  1  0.611998  0.858463  0.602216  1
  Si  Si25  1  0.141537  0.388002  0.897784  1
  Ru  Ru26  1  0.762117  0.482095  0.069330  1
  Ru  Ru27  1  0.826057  0.650502  0.780081  1
  Ru  Ru28  1  0.902243  0.145311  0.580635  1
  Ru  Ru29  1  0.854689  0.097757  0.919365  1
  Ru  Ru30  1  0.105622  0.857800  0.413620  1
  Ru  Ru31  1  0.142200  0.894378  0.086380  1
  Ru  Ru32  1  0.237773  0.515930  0.937133  1
  Ru  Ru33  1  0.484070  0.762227  0.562867  1
  Ru  Ru34  1  0.517905  0.237883  0.430670  1
  Ru  Ru35  1  0.349498  0.173943  0.719919  1
