# generated using pymatgen
data_NaSrPrI6
_symmetry_space_group_name_H-M   'P 1'
_cell_length_a   8.94943338
_cell_length_b   8.94943358
_cell_length_c   8.94943500
_cell_angle_alpha   54.17709640
_cell_angle_beta   54.17710338
_cell_angle_gamma   54.17709193
_symmetry_Int_Tables_number   1
_chemical_formula_structural   NaSrPrI6
_chemical_formula_sum   'Na1 Sr1 Pr1 I6'
_cell_volume   437.95151271
_cell_formula_units_Z   1
loop_
 _symmetry_equiv_pos_site_id
 _symmetry_equiv_pos_as_xyz
  1  'x, y, z'
loop_
 _atom_site_type_symbol
 _atom_site_label
 _atom_site_symmetry_multiplicity
 _atom_site_fract_x
 _atom_site_fract_y
 _atom_site_fract_z
 _atom_site_occupancy
  Na  Na0  1  0.670282  0.670282  0.670282  1
  Sr  Sr1  1  0.330206  0.330206  0.330206  1
  Pr  Pr2  1  0.000009  0.000009  0.000009  1
  I  I3  1  0.246004  0.604795  0.914240  1
  I  I4  1  0.604795  0.914240  0.246004  1
  I  I5  1  0.914240  0.246004  0.604795  1
  I  I6  1  0.754261  0.395672  0.084529  1
  I  I7  1  0.395672  0.084529  0.754261  1
  I  I8  1  0.084529  0.754261  0.395672  1
