# generated using pymatgen
data_DyHf5(ScPt2)2
_symmetry_space_group_name_H-M   'P 1'
_cell_length_a   4.59382700
_cell_length_b   6.79754837
_cell_length_c   8.11743815
_cell_angle_alpha   90.18116209
_cell_angle_beta   90.00000000
_cell_angle_gamma   90.00000000
_symmetry_Int_Tables_number   1
_chemical_formula_structural   DyHf5(ScPt2)2
_chemical_formula_sum   'Dy1 Hf5 Sc2 Pt4'
_cell_volume   253.48003584
_cell_formula_units_Z   1
loop_
 _symmetry_equiv_pos_site_id
 _symmetry_equiv_pos_as_xyz
  1  'x, y, z'
loop_
 _atom_site_type_symbol
 _atom_site_label
 _atom_site_symmetry_multiplicity
 _atom_site_fract_x
 _atom_site_fract_y
 _atom_site_fract_z
 _atom_site_occupancy
  Dy  Dy0  1  0.750000  0.486170  0.818191  1
  Hf  Hf1  1  0.250000  0.149335  0.922204  1
  Hf  Hf2  1  0.250000  0.657071  0.577329  1
  Hf  Hf3  1  0.750000  0.851061  0.081559  1
  Hf  Hf4  1  0.750000  0.345880  0.417435  1
  Hf  Hf5  1  0.250000  0.012047  0.326313  1
  Sc  Sc6  1  0.250000  0.517139  0.181991  1
  Sc  Sc7  1  0.750000  0.986150  0.674661  1
  Pt  Pt8  1  0.250000  0.256374  0.589753  1
  Pt  Pt9  1  0.250000  0.762423  0.909827  1
  Pt  Pt10  1  0.750000  0.740400  0.403583  1
  Pt  Pt11  1  0.750000  0.235950  0.097152  1
