# generated using pymatgen
data_Ca4AlSnPt4
_symmetry_space_group_name_H-M   'P 1'
_cell_length_a   5.73417594
_cell_length_b   5.73417519
_cell_length_c   8.06123352
_cell_angle_alpha   78.95370328
_cell_angle_beta   78.95370263
_cell_angle_gamma   60.26038674
_symmetry_Int_Tables_number   1
_chemical_formula_structural   Ca4AlSnPt4
_chemical_formula_sum   'Ca4 Al1 Sn1 Pt4'
_cell_volume   224.42964699
_cell_formula_units_Z   1
loop_
 _symmetry_equiv_pos_site_id
 _symmetry_equiv_pos_as_xyz
  1  'x, y, z'
loop_
 _atom_site_type_symbol
 _atom_site_label
 _atom_site_symmetry_multiplicity
 _atom_site_fract_x
 _atom_site_fract_y
 _atom_site_fract_z
 _atom_site_occupancy
  Ca  Ca0  1  0.786395  0.511764  0.850017  1
  Ca  Ca1  1  0.488236  0.213605  0.649983  1
  Ca  Ca2  1  0.209026  0.490302  0.149885  1
  Ca  Ca3  1  0.509698  0.790974  0.350115  1
  Al  Al4  1  0.883700  0.116300  0.250000  1
  Sn  Sn5  1  0.147669  0.852331  0.750000  1
  Pt  Pt6  1  0.991953  0.734534  0.489420  1
  Pt  Pt7  1  0.265466  0.008047  0.010580  1
  Pt  Pt8  1  0.985198  0.267340  0.487343  1
  Pt  Pt9  1  0.732660  0.014802  0.012657  1
