# generated using pymatgen
data_Tb7Y(TmSi3)2
_symmetry_space_group_name_H-M   'P 1'
_cell_length_a   8.45976426
_cell_length_b   8.46336704
_cell_length_c   6.36191900
_cell_angle_alpha   89.99759632
_cell_angle_beta   90.00120643
_cell_angle_gamma   120.01409889
_symmetry_Int_Tables_number   1
_chemical_formula_structural   Tb7Y(TmSi3)2
_chemical_formula_sum   'Tb7 Y1 Tm2 Si6'
_cell_volume   394.41959774
_cell_formula_units_Z   1
loop_
 _symmetry_equiv_pos_site_id
 _symmetry_equiv_pos_as_xyz
  1  'x, y, z'
loop_
 _atom_site_type_symbol
 _atom_site_label
 _atom_site_symmetry_multiplicity
 _atom_site_fract_x
 _atom_site_fract_y
 _atom_site_fract_z
 _atom_site_occupancy
  Tb  Tb0  1  0.666725  0.333384  0.500004  1
  Tb  Tb1  1  0.333275  0.666660  0.500004  1
  Tb  Tb2  1  0.755840  0.755837  0.248106  1
  Tb  Tb3  1  0.244160  0.999997  0.248106  1
  Tb  Tb4  1  0.000000  0.244285  0.248107  1
  Tb  Tb5  1  0.244253  0.244275  0.751893  1
  Tb  Tb6  1  0.755747  0.000022  0.751893  1
  Y  Y7  1  0.000000  0.755672  0.751981  1
  Tm  Tm8  1  0.333320  0.666671  0.999980  1
  Tm  Tm9  1  0.666680  0.333350  0.999980  1
  Si  Si10  1  0.394765  0.394676  0.244480  1
  Si  Si11  1  0.605235  0.999911  0.244480  1
  Si  Si12  1  0.000000  0.605199  0.244467  1
  Si  Si13  1  0.605556  0.605371  0.755501  1
  Si  Si14  1  0.394444  0.999816  0.755501  1
  Si  Si15  1  0.000000  0.394874  0.755518  1
