# generated using pymatgen
data_Sc3Co7(NiP3)2
_symmetry_space_group_name_H-M   'P 1'
_cell_length_a   3.61368500
_cell_length_b   10.34657800
_cell_length_c   11.94928200
_cell_angle_alpha   90.00000000
_cell_angle_beta   90.00000000
_cell_angle_gamma   90.00000000
_symmetry_Int_Tables_number   1
_chemical_formula_structural   Sc3Co7(NiP3)2
_chemical_formula_sum   'Sc6 Co14 Ni4 P12'
_cell_volume   446.77497545
_cell_formula_units_Z   2
loop_
 _symmetry_equiv_pos_site_id
 _symmetry_equiv_pos_as_xyz
  1  'x, y, z'
loop_
 _atom_site_type_symbol
 _atom_site_label
 _atom_site_symmetry_multiplicity
 _atom_site_fract_x
 _atom_site_fract_y
 _atom_site_fract_z
 _atom_site_occupancy
  Sc  Sc0  1  0.000000  0.500000  0.522806  1
  Sc  Sc1  1  0.500000  0.000000  0.477194  1
  Sc  Sc2  1  0.500000  0.817419  0.206657  1
  Sc  Sc3  1  0.500000  0.182581  0.206657  1
  Sc  Sc4  1  0.000000  0.682581  0.793343  1
  Sc  Sc5  1  0.000000  0.317419  0.793343  1
  Co  Co6  1  0.000000  0.500000  0.985555  1
  Co  Co7  1  0.500000  0.000000  0.014445  1
  Co  Co8  1  0.500000  0.333675  0.995590  1
  Co  Co9  1  0.500000  0.666325  0.995590  1
  Co  Co10  1  0.000000  0.166325  0.004410  1
  Co  Co11  1  0.000000  0.833675  0.004410  1
  Co  Co12  1  0.500000  0.299246  0.431632  1
  Co  Co13  1  0.500000  0.700754  0.431632  1
  Co  Co14  1  0.000000  0.200754  0.568368  1
  Co  Co15  1  0.000000  0.799246  0.568368  1
  Co  Co16  1  0.500000  0.876728  0.708758  1
  Co  Co17  1  0.500000  0.123272  0.708758  1
  Co  Co18  1  0.000000  0.623272  0.291242  1
  Co  Co19  1  0.000000  0.376728  0.291242  1
  Ni  Ni20  1  0.500000  0.500000  0.164151  1
  Ni  Ni21  1  0.000000  0.000000  0.835849  1
  Ni  Ni22  1  0.500000  0.500000  0.702582  1
  Ni  Ni23  1  0.000000  0.000000  0.297418  1
  P  P24  1  0.500000  0.500000  0.880360  1
  P  P25  1  0.000000  0.000000  0.119640  1
  P  P26  1  0.500000  0.500000  0.352780  1
  P  P27  1  0.000000  0.000000  0.647220  1
  P  P28  1  0.500000  0.314140  0.617260  1
  P  P29  1  0.500000  0.685860  0.617260  1
  P  P30  1  0.000000  0.185860  0.382740  1
  P  P31  1  0.000000  0.814140  0.382740  1
  P  P32  1  0.500000  0.843291  0.890926  1
  P  P33  1  0.500000  0.156709  0.890926  1
  P  P34  1  0.000000  0.656709  0.109074  1
  P  P35  1  0.000000  0.343291  0.109074  1
