# generated using pymatgen
data_LiYb3As2H
_symmetry_space_group_name_H-M   'P 1'
_cell_length_a   4.27064900
_cell_length_b   11.40334100
_cell_length_c   11.78491400
_cell_angle_alpha   90.00000000
_cell_angle_beta   90.00000000
_cell_angle_gamma   90.00000000
_symmetry_Int_Tables_number   1
_chemical_formula_structural   LiYb3As2H
_chemical_formula_sum   'Li4 Yb12 As8 H4'
_cell_volume   573.92138552
_cell_formula_units_Z   4
loop_
 _symmetry_equiv_pos_site_id
 _symmetry_equiv_pos_as_xyz
  1  'x, y, z'
loop_
 _atom_site_type_symbol
 _atom_site_label
 _atom_site_symmetry_multiplicity
 _atom_site_fract_x
 _atom_site_fract_y
 _atom_site_fract_z
 _atom_site_occupancy
  Li  Li0  1  0.250000  0.132389  0.860878  1
  Li  Li1  1  0.250000  0.632389  0.639122  1
  Li  Li2  1  0.750000  0.867611  0.139122  1
  Li  Li3  1  0.750000  0.367611  0.360878  1
  Yb  Yb4  1  0.250000  0.059896  0.621715  1
  Yb  Yb5  1  0.250000  0.559896  0.878285  1
  Yb  Yb6  1  0.750000  0.940104  0.378285  1
  Yb  Yb7  1  0.750000  0.440104  0.121715  1
  Yb  Yb8  1  0.250000  0.364554  0.561703  1
  Yb  Yb9  1  0.250000  0.864554  0.938297  1
  Yb  Yb10  1  0.750000  0.635446  0.438297  1
  Yb  Yb11  1  0.750000  0.135446  0.061703  1
  Yb  Yb12  1  0.250000  0.210138  0.295015  1
  Yb  Yb13  1  0.250000  0.710138  0.204985  1
  Yb  Yb14  1  0.750000  0.789862  0.704985  1
  Yb  Yb15  1  0.750000  0.289862  0.795015  1
  As  As16  1  0.250000  0.480883  0.323908  1
  As  As17  1  0.250000  0.980883  0.176092  1
  As  As18  1  0.750000  0.519117  0.676092  1
  As  As19  1  0.750000  0.019117  0.823908  1
  As  As20  1  0.250000  0.315141  0.987607  1
  As  As21  1  0.250000  0.815141  0.512393  1
  As  As22  1  0.750000  0.684859  0.012393  1
  As  As23  1  0.750000  0.184859  0.487607  1
  H  H24  1  0.250000  0.236451  0.721529  1
  H  H25  1  0.250000  0.736451  0.778471  1
  H  H26  1  0.750000  0.763549  0.278471  1
  H  H27  1  0.750000  0.263549  0.221529  1
