# generated using pymatgen
data_ZrSc(Nb5As4)2
_symmetry_space_group_name_H-M   'P 1'
_cell_length_a   10.11628570
_cell_length_b   10.09096548
_cell_length_c   3.52544300
_cell_angle_alpha   90.00000000
_cell_angle_beta   90.00000000
_cell_angle_gamma   89.47858949
_symmetry_Int_Tables_number   1
_chemical_formula_structural   ZrSc(Nb5As4)2
_chemical_formula_sum   'Zr1 Sc1 Nb10 As8'
_cell_volume   359.87321233
_cell_formula_units_Z   1
loop_
 _symmetry_equiv_pos_site_id
 _symmetry_equiv_pos_as_xyz
  1  'x, y, z'
loop_
 _atom_site_type_symbol
 _atom_site_label
 _atom_site_symmetry_multiplicity
 _atom_site_fract_x
 _atom_site_fract_y
 _atom_site_fract_z
 _atom_site_occupancy
  Zr  Zr0  1  0.000000  0.500000  0.500000  1
  Sc  Sc1  1  0.500000  0.000000  0.500000  1
  Nb  Nb2  1  0.142161  0.821036  0.500000  1
  Nb  Nb3  1  0.857839  0.178964  0.500000  1
  Nb  Nb4  1  0.179692  0.143456  0.500000  1
  Nb  Nb5  1  0.820308  0.856544  0.500000  1
  Nb  Nb6  1  0.394971  0.715971  0.000000  1
  Nb  Nb7  1  0.605029  0.284029  0.000000  1
  Nb  Nb8  1  0.281928  0.395409  0.000000  1
  Nb  Nb9  1  0.718072  0.604591  0.000000  1
  Nb  Nb10  1  0.500000  0.500000  0.500000  1
  Nb  Nb11  1  0.000000  0.000000  0.000000  1
  As  As12  1  0.248061  0.587880  0.500000  1
  As  As13  1  0.751939  0.412120  0.500000  1
  As  As14  1  0.413137  0.246887  0.500000  1
  As  As15  1  0.586863  0.753113  0.500000  1
  As  As16  1  0.283149  0.964301  0.000000  1
  As  As17  1  0.716851  0.035699  0.000000  1
  As  As18  1  0.033520  0.283090  0.000000  1
  As  As19  1  0.966480  0.716910  0.000000  1
