# generated using pymatgen
data_Al3Zn3(NiPt4)2
_symmetry_space_group_name_H-M   'P 1'
_cell_length_a   3.98873900
_cell_length_b   5.36942226
_cell_length_c   10.73536886
_cell_angle_alpha   96.88835412
_cell_angle_beta   90.00000000
_cell_angle_gamma   90.00000000
_symmetry_Int_Tables_number   1
_chemical_formula_structural   Al3Zn3(NiPt4)2
_chemical_formula_sum   'Al3 Zn3 Ni2 Pt8'
_cell_volume   228.26216417
_cell_formula_units_Z   1
loop_
 _symmetry_equiv_pos_site_id
 _symmetry_equiv_pos_as_xyz
  1  'x, y, z'
loop_
 _atom_site_type_symbol
 _atom_site_label
 _atom_site_symmetry_multiplicity
 _atom_site_fract_x
 _atom_site_fract_y
 _atom_site_fract_z
 _atom_site_occupancy
  Al  Al0  1  0.500000  0.273744  0.364690  1
  Al  Al1  1  0.500000  0.274928  0.860565  1
  Al  Al2  1  0.500000  0.727098  0.135624  1
  Zn  Zn3  1  0.500000  0.731357  0.635139  1
  Zn  Zn4  1  0.000000  0.999238  0.002399  1
  Zn  Zn5  1  0.000000  0.987961  0.504293  1
  Ni  Ni6  1  0.000000  0.502820  0.247609  1
  Ni  Ni7  1  0.000000  0.505279  0.748122  1
  Pt  Pt8  1  0.500000  0.762083  0.377814  1
  Pt  Pt9  1  0.500000  0.762564  0.884970  1
  Pt  Pt10  1  0.500000  0.238903  0.119490  1
  Pt  Pt11  1  0.500000  0.237675  0.618157  1
  Pt  Pt12  1  0.000000  0.003855  0.251500  1
  Pt  Pt13  1  0.000000  0.010638  0.757176  1
  Pt  Pt14  1  0.000000  0.495901  0.998565  1
  Pt  Pt15  1  0.000000  0.485954  0.493886  1
