# generated using pymatgen
data_LaNdCo3P7Ru9
_symmetry_space_group_name_H-M   'P 1'
_cell_length_a   9.39295000
_cell_length_b   9.39295009
_cell_length_c   3.86485900
_cell_angle_alpha   90.00000000
_cell_angle_beta   90.00000000
_cell_angle_gamma   119.99999263
_symmetry_Int_Tables_number   1
_chemical_formula_structural   LaNdCo3P7Ru9
_chemical_formula_sum   'La1 Nd1 Co3 P7 Ru9'
_cell_volume   295.30332951
_cell_formula_units_Z   1
loop_
 _symmetry_equiv_pos_site_id
 _symmetry_equiv_pos_as_xyz
  1  'x, y, z'
loop_
 _atom_site_type_symbol
 _atom_site_label
 _atom_site_symmetry_multiplicity
 _atom_site_fract_x
 _atom_site_fract_y
 _atom_site_fract_z
 _atom_site_occupancy
  La  La0  1  0.333333  0.666667  0.500000  1
  Nd  Nd1  1  0.000000  0.000000  0.000000  1
  Co  Co2  1  0.822818  0.599814  0.000000  1
  Co  Co3  1  0.400186  0.223004  0.000000  1
  Co  Co4  1  0.776996  0.177182  0.000000  1
  P  P5  1  0.777917  0.731437  0.500000  1
  P  P6  1  0.268563  0.046481  0.500000  1
  P  P7  1  0.953519  0.222083  0.500000  1
  P  P8  1  0.666667  0.333333  0.000000  1
  P  P9  1  0.072916  0.634514  0.000000  1
  P  P10  1  0.365486  0.438402  0.000000  1
  P  P11  1  0.561598  0.927084  0.000000  1
  Ru  Ru12  1  0.089508  0.391659  0.000000  1
  Ru  Ru13  1  0.608341  0.697849  0.000000  1
  Ru  Ru14  1  0.302151  0.910492  0.000000  1
  Ru  Ru15  1  0.046764  0.765470  0.500000  1
  Ru  Ru16  1  0.234530  0.281292  0.500000  1
  Ru  Ru17  1  0.718708  0.953236  0.500000  1
  Ru  Ru18  1  0.871960  0.418339  0.500000  1
  Ru  Ru19  1  0.581661  0.453621  0.500000  1
  Ru  Ru20  1  0.546379  0.128040  0.500000  1
