# generated using pymatgen
data_Li6TmPu2N6
_symmetry_space_group_name_H-M   'P 1'
_cell_length_a   5.96904300
_cell_length_b   5.96904472
_cell_length_c   5.45584500
_cell_angle_alpha   90.00000000
_cell_angle_beta   90.00000000
_cell_angle_gamma   120.00000707
_symmetry_Int_Tables_number   1
_chemical_formula_structural   Li6TmPu2N6
_chemical_formula_sum   'Li6 Tm1 Pu2 N6'
_cell_volume   168.34575310
_cell_formula_units_Z   1
loop_
 _symmetry_equiv_pos_site_id
 _symmetry_equiv_pos_as_xyz
  1  'x, y, z'
loop_
 _atom_site_type_symbol
 _atom_site_label
 _atom_site_symmetry_multiplicity
 _atom_site_fract_x
 _atom_site_fract_y
 _atom_site_fract_z
 _atom_site_occupancy
  Li  Li0  1  0.989867  0.661677  0.609167  1
  Li  Li1  1  0.338323  0.328190  0.609167  1
  Li  Li2  1  0.671810  0.010133  0.609167  1
  Li  Li3  1  0.010133  0.338323  0.390833  1
  Li  Li4  1  0.661677  0.671810  0.390833  1
  Li  Li5  1  0.328190  0.989867  0.390833  1
  Tm  Tm6  1  0.000000  0.000000  0.000000  1
  Pu  Pu7  1  0.333333  0.666667  0.996140  1
  Pu  Pu8  1  0.666667  0.333333  0.003860  1
  N  N9  1  0.000434  0.656169  0.223592  1
  N  N10  1  0.343831  0.344265  0.223592  1
  N  N11  1  0.655735  0.999566  0.223592  1
  N  N12  1  0.999566  0.343831  0.776408  1
  N  N13  1  0.656169  0.655735  0.776408  1
  N  N14  1  0.344265  0.000434  0.776408  1
