# generated using pymatgen
data_Tb2Dy2Cd2CuNi3
_symmetry_space_group_name_H-M   'P 1'
_cell_length_a   7.43365765
_cell_length_b   7.43365808
_cell_length_c   3.66649800
_cell_angle_alpha   90.00000000
_cell_angle_beta   90.00000000
_cell_angle_gamma   89.70025806
_symmetry_Int_Tables_number   1
_chemical_formula_structural   Tb2Dy2Cd2CuNi3
_chemical_formula_sum   'Tb2 Dy2 Cd2 Cu1 Ni3'
_cell_volume   202.60522781
_cell_formula_units_Z   1
loop_
 _symmetry_equiv_pos_site_id
 _symmetry_equiv_pos_as_xyz
  1  'x, y, z'
loop_
 _atom_site_type_symbol
 _atom_site_label
 _atom_site_symmetry_multiplicity
 _atom_site_fract_x
 _atom_site_fract_y
 _atom_site_fract_z
 _atom_site_occupancy
  Tb  Tb0  1  0.171702  0.314376  0.500000  1
  Tb  Tb1  1  0.814376  0.671702  0.500000  1
  Dy  Dy2  1  0.675631  0.175631  0.500000  1
  Dy  Dy3  1  0.336390  0.836390  0.500000  1
  Cd  Cd4  1  0.998677  0.995645  0.000000  1
  Cd  Cd5  1  0.495645  0.498677  0.000000  1
  Cu  Cu6  1  0.120299  0.620299  0.000000  1
  Ni  Ni7  1  0.881433  0.381433  0.000000  1
  Ni  Ni8  1  0.622522  0.883325  0.000000  1
  Ni  Ni9  1  0.383325  0.122522  0.000000  1
