# generated using pymatgen
data_Nb12Ga9Cu3C4
_symmetry_space_group_name_H-M   'P 1'
_cell_length_a   8.33316584
_cell_length_b   8.33382146
_cell_length_c   8.33380506
_cell_angle_alpha   59.93051236
_cell_angle_beta   59.93496185
_cell_angle_gamma   59.93334552
_symmetry_Int_Tables_number   1
_chemical_formula_structural   Nb12Ga9Cu3C4
_chemical_formula_sum   'Nb12 Ga9 Cu3 C4'
_cell_volume   408.62173579
_cell_formula_units_Z   1
loop_
 _symmetry_equiv_pos_site_id
 _symmetry_equiv_pos_as_xyz
  1  'x, y, z'
loop_
 _atom_site_type_symbol
 _atom_site_label
 _atom_site_symmetry_multiplicity
 _atom_site_fract_x
 _atom_site_fract_y
 _atom_site_fract_z
 _atom_site_occupancy
  Nb  Nb0  1  0.683363  0.316314  0.683365  1
  Nb  Nb1  1  0.933685  0.566638  0.566637  1
  Nb  Nb2  1  0.559930  0.935693  0.935692  1
  Nb  Nb3  1  0.935695  0.559929  0.935692  1
  Nb  Nb4  1  0.566637  0.566636  0.933685  1
  Nb  Nb5  1  0.935694  0.935691  0.559930  1
  Nb  Nb6  1  0.683363  0.683364  0.316315  1
  Nb  Nb7  1  0.316315  0.683362  0.683363  1
  Nb  Nb8  1  0.690070  0.314307  0.314308  1
  Nb  Nb9  1  0.314306  0.314309  0.690070  1
  Nb  Nb10  1  0.566637  0.933686  0.566635  1
  Nb  Nb11  1  0.314305  0.690071  0.314308  1
  Ga  Ga12  1  0.125000  0.125000  0.125000  1
  Ga  Ga13  1  0.337101  0.337102  0.337098  1
  Ga  Ga14  1  0.256308  0.908443  0.908442  1
  Ga  Ga15  1  0.908441  0.256312  0.908440  1
  Ga  Ga16  1  0.908440  0.908439  0.256314  1
  Ga  Ga17  1  0.341559  0.993688  0.341560  1
  Ga  Ga18  1  0.341560  0.341561  0.993686  1
  Ga  Ga19  1  0.993692  0.341557  0.341558  1
  Ga  Ga20  1  0.912899  0.912898  0.912902  1
  Cu  Cu21  1  0.625000  0.125000  0.125000  1
  Cu  Cu22  1  0.125000  0.625000  0.125000  1
  Cu  Cu23  1  0.125000  0.125000  0.625000  1
  C  C24  1  0.625000  0.625000  0.625000  1
  C  C25  1  0.125000  0.625000  0.625000  1
  C  C26  1  0.625000  0.125000  0.625000  1
  C  C27  1  0.625000  0.625000  0.125000  1
