# generated using pymatgen
data_Er7CoTc4NiSn23
_symmetry_space_group_name_H-M   'P 1'
_cell_length_a   9.84905491
_cell_length_b   9.87166226
_cell_length_c   9.98915502
_cell_angle_alpha   89.99999871
_cell_angle_beta   90.93322591
_cell_angle_gamma   120.07595962
_symmetry_Int_Tables_number   1
_chemical_formula_structural   Er7CoTc4NiSn23
_chemical_formula_sum   'Er7 Co1 Tc4 Ni1 Sn23'
_cell_volume   840.30001206
_cell_formula_units_Z   1
loop_
 _symmetry_equiv_pos_site_id
 _symmetry_equiv_pos_as_xyz
  1  'x, y, z'
loop_
 _atom_site_type_symbol
 _atom_site_label
 _atom_site_symmetry_multiplicity
 _atom_site_fract_x
 _atom_site_fract_y
 _atom_site_fract_z
 _atom_site_occupancy
  Er  Er0  1  0.487706  0.518582  0.303630  1
  Er  Er1  1  0.512239  0.483264  0.697334  1
  Er  Er2  1  0.487706  0.969123  0.303630  1
  Er  Er3  1  0.512239  0.028975  0.697334  1
  Er  Er4  1  0.036071  0.518036  0.304081  1
  Er  Er5  1  0.964822  0.482411  0.696348  1
  Er  Er6  1  0.997561  0.998780  0.999281  1
  Co  Co7  1  0.651740  0.825869  0.799785  1
  Tc  Tc8  1  0.836527  0.167476  0.209379  1
  Tc  Tc9  1  0.162154  0.831680  0.790129  1
  Tc  Tc10  1  0.836527  0.669052  0.209379  1
  Tc  Tc11  1  0.162154  0.330472  0.790129  1
  Ni  Ni12  1  0.349534  0.174767  0.199128  1
  Sn  Sn13  1  0.132142  0.892172  0.273806  1
  Sn  Sn14  1  0.867101  0.105319  0.727126  1
  Sn  Sn15  1  0.132142  0.239970  0.273806  1
  Sn  Sn16  1  0.867101  0.761783  0.727126  1
  Sn  Sn17  1  0.747726  0.873863  0.267870  1
  Sn  Sn18  1  0.251834  0.125917  0.733114  1
  Sn  Sn19  1  0.779445  0.226277  0.465719  1
  Sn  Sn20  1  0.220510  0.773684  0.534591  1
  Sn  Sn21  1  0.779445  0.553167  0.465719  1
  Sn  Sn22  1  0.220510  0.446827  0.534591  1
  Sn  Sn23  1  0.450293  0.225146  0.458805  1
  Sn  Sn24  1  0.551445  0.775723  0.542473  1
  Sn  Sn25  1  0.347428  0.996493  0.002628  1
  Sn  Sn26  1  0.652845  0.000561  0.995966  1
  Sn  Sn27  1  0.999628  0.345892  0.999913  1
  Sn  Sn28  1  0.999628  0.653736  0.999913  1
  Sn  Sn29  1  0.652845  0.652284  0.995966  1
  Sn  Sn30  1  0.347428  0.350935  0.002628  1
  Sn  Sn31  1  0.334879  0.667440  0.125987  1
  Sn  Sn32  1  0.663880  0.331940  0.873786  1
  Sn  Sn33  1  0.329898  0.664949  0.823613  1
  Sn  Sn34  1  0.673642  0.336821  0.176106  1
  Sn  Sn35  1  0.001228  0.000614  0.499181  1
