# generated using pymatgen
data_Yb7Cd(PbN)2
_symmetry_space_group_name_H-M   'P 1'
_cell_length_a   12.18885619
_cell_length_b   12.18885513
_cell_length_c   4.88277500
_cell_angle_alpha   90.00000000
_cell_angle_beta   90.00000000
_cell_angle_gamma   156.64540634
_symmetry_Int_Tables_number   1
_chemical_formula_structural   Yb7Cd(PbN)2
_chemical_formula_sum   'Yb7 Cd1 Pb2 N2'
_cell_volume   287.57334940
_cell_formula_units_Z   1
loop_
 _symmetry_equiv_pos_site_id
 _symmetry_equiv_pos_as_xyz
  1  'x, y, z'
loop_
 _atom_site_type_symbol
 _atom_site_label
 _atom_site_symmetry_multiplicity
 _atom_site_fract_x
 _atom_site_fract_y
 _atom_site_fract_z
 _atom_site_occupancy
  Yb  Yb0  1  0.999387  0.000613  0.000000  1
  Yb  Yb1  1  0.803245  0.196755  0.000000  1
  Yb  Yb2  1  0.595953  0.404047  0.000000  1
  Yb  Yb3  1  0.401164  0.598836  0.000000  1
  Yb  Yb4  1  0.198744  0.801256  0.000000  1
  Yb  Yb5  1  0.900249  0.099751  0.500001  1
  Yb  Yb6  1  0.098205  0.901795  0.500001  1
  Cd  Cd7  1  0.703270  0.296730  0.500001  1
  Pb  Pb8  1  0.499531  0.500469  0.500001  1
  Pb  Pb9  1  0.298435  0.701565  0.500001  1
  N  N10  1  0.897627  0.102373  0.000000  1
  N  N11  1  0.104189  0.895811  0.000000  1
