# generated using pymatgen
data_Tm8Sc12Si15Au
_symmetry_space_group_name_H-M   'P 1'
_cell_length_a   7.07025000
_cell_length_b   7.33333546
_cell_length_c   13.97145301
_cell_angle_alpha   89.92982232
_cell_angle_beta   89.67126444
_cell_angle_gamma   90.14725891
_symmetry_Int_Tables_number   1
_chemical_formula_structural   Tm8Sc12Si15Au
_chemical_formula_sum   'Tm8 Sc12 Si15 Au1'
_cell_volume   724.38421934
_cell_formula_units_Z   1
loop_
 _symmetry_equiv_pos_site_id
 _symmetry_equiv_pos_as_xyz
  1  'x, y, z'
loop_
 _atom_site_type_symbol
 _atom_site_label
 _atom_site_symmetry_multiplicity
 _atom_site_fract_x
 _atom_site_fract_y
 _atom_site_fract_z
 _atom_site_occupancy
  Tm  Tm0  1  0.012580  0.176232  0.097280  1
  Tm  Tm1  1  0.987233  0.824195  0.903676  1
  Tm  Tm2  1  0.487157  0.677541  0.903504  1
  Tm  Tm3  1  0.987979  0.826788  0.597541  1
  Tm  Tm4  1  0.512205  0.322953  0.096561  1
  Tm  Tm5  1  0.011032  0.174941  0.400223  1
  Tm  Tm6  1  0.509700  0.324036  0.401303  1
  Tm  Tm7  1  0.490698  0.676370  0.598615  1
  Sc  Sc8  1  0.162674  0.502318  0.751082  1
  Sc  Sc9  1  0.837563  0.497592  0.250744  1
  Sc  Sc10  1  0.338230  0.001796  0.249436  1
  Sc  Sc11  1  0.663382  0.995331  0.750655  1
  Sc  Sc12  1  0.337476  0.175873  0.625744  1
  Sc  Sc13  1  0.666990  0.823423  0.373738  1
  Sc  Sc14  1  0.169193  0.673985  0.373368  1
  Sc  Sc15  1  0.670026  0.824040  0.125318  1
  Sc  Sc16  1  0.828402  0.325339  0.625458  1
  Sc  Sc17  1  0.328912  0.175489  0.875766  1
  Sc  Sc18  1  0.830284  0.322693  0.875675  1
  Sc  Sc19  1  0.169374  0.676822  0.125179  1
  Si  Si20  1  0.034220  0.116670  0.750681  1
  Si  Si21  1  0.967186  0.886316  0.249269  1
  Si  Si22  1  0.467174  0.613548  0.248509  1
  Si  Si23  1  0.534128  0.386662  0.752113  1
  Si  Si24  1  0.284507  0.871694  0.750755  1
  Si  Si25  1  0.713836  0.130089  0.249117  1
  Si  Si26  1  0.214776  0.368986  0.248049  1
  Si  Si27  1  0.786707  0.629386  0.752512  1
  Si  Si28  1  0.834229  0.536127  0.459595  1
  Si  Si29  1  0.339817  0.964085  0.459966  1
  Si  Si30  1  0.842380  0.535010  0.038951  1
  Si  Si31  1  0.659107  0.035307  0.538045  1
  Si  Si32  1  0.157294  0.464858  0.961624  1
  Si  Si33  1  0.658179  0.034401  0.961107  1
  Si  Si34  1  0.342110  0.964954  0.039281  1
  Au  Au35  1  0.163260  0.464152  0.539560  1
