# generated using pymatgen
data_Ce2Nd2DyRu2
_symmetry_space_group_name_H-M   'P 1'
_cell_length_a   6.45159806
_cell_length_b   7.07425222
_cell_length_c   9.15323900
_cell_angle_alpha   95.01344977
_cell_angle_beta   110.63550734
_cell_angle_gamma   90.00001161
_symmetry_Int_Tables_number   1
_chemical_formula_structural   Ce2Nd2DyRu2
_chemical_formula_sum   'Ce4 Nd4 Dy2 Ru4'
_cell_volume   389.24499181
_cell_formula_units_Z   2
loop_
 _symmetry_equiv_pos_site_id
 _symmetry_equiv_pos_as_xyz
  1  'x, y, z'
loop_
 _atom_site_type_symbol
 _atom_site_label
 _atom_site_symmetry_multiplicity
 _atom_site_fract_x
 _atom_site_fract_y
 _atom_site_fract_z
 _atom_site_occupancy
  Ce  Ce0  1  0.805328  0.598289  0.818599  1
  Ce  Ce1  1  0.986729  0.901711  0.181401  1
  Ce  Ce2  1  0.194672  0.401711  0.181401  1
  Ce  Ce3  1  0.013271  0.098289  0.818599  1
  Nd  Nd4  1  0.211685  0.682779  0.571504  1
  Nd  Nd5  1  0.640181  0.817221  0.428496  1
  Nd  Nd6  1  0.788315  0.317221  0.428496  1
  Nd  Nd7  1  0.359819  0.182779  0.571504  1
  Dy  Dy8  1  0.425175  0.750000  0.000000  1
  Dy  Dy9  1  0.574825  0.250000  0.000000  1
  Ru  Ru10  1  0.639601  0.905805  0.790845  1
  Ru  Ru11  1  0.848755  0.594195  0.209155  1
  Ru  Ru12  1  0.360399  0.094195  0.209155  1
  Ru  Ru13  1  0.151245  0.405805  0.790845  1
