# generated using pymatgen
data_La13PrIrPd5
_symmetry_space_group_name_H-M   'P 1'
_cell_length_a   10.34416600
_cell_length_b   10.34464379
_cell_length_c   6.58409605
_cell_angle_alpha   89.97468416
_cell_angle_beta   90.00000000
_cell_angle_gamma   119.99847855
_symmetry_Int_Tables_number   1
_chemical_formula_structural   La13PrIrPd5
_chemical_formula_sum   'La13 Pr1 Ir1 Pd5'
_cell_volume   610.16095515
_cell_formula_units_Z   1
loop_
 _symmetry_equiv_pos_site_id
 _symmetry_equiv_pos_as_xyz
  1  'x, y, z'
loop_
 _atom_site_type_symbol
 _atom_site_label
 _atom_site_symmetry_multiplicity
 _atom_site_fract_x
 _atom_site_fract_y
 _atom_site_fract_z
 _atom_site_occupancy
  La  La0  1  0.331280  0.662562  0.462531  1
  La  La1  1  0.666478  0.332957  0.952219  1
  La  La2  1  0.126173  0.872920  0.242263  1
  La  La3  1  0.746748  0.872920  0.242263  1
  La  La4  1  0.128033  0.256065  0.251113  1
  La  La5  1  0.881172  0.131570  0.740431  1
  La  La6  1  0.250396  0.131570  0.740431  1
  La  La7  1  0.872649  0.745297  0.739117  1
  La  La8  1  0.535941  0.459917  0.444795  1
  La  La9  1  0.923976  0.459917  0.444795  1
  La  La10  1  0.537540  0.075079  0.448081  1
  La  La11  1  0.455840  0.535866  0.942468  1
  La  La12  1  0.080026  0.535866  0.942468  1
  Pr  Pr13  1  0.462497  0.924994  0.949793  1
  Ir  Ir14  1  0.188948  0.377896  0.690885  1
  Pd  Pd15  1  0.810166  0.187436  0.193363  1
  Pd  Pd16  1  0.377270  0.187436  0.193363  1
  Pd  Pd17  1  0.811495  0.622990  0.193439  1
  Pd  Pd18  1  0.188431  0.813372  0.694137  1
  Pd  Pd19  1  0.624942  0.813372  0.694137  1
