# generated using pymatgen
data_Ca3Nd(Ru2O7)2
_symmetry_space_group_name_H-M   'P 1'
_cell_length_a   7.31465598
_cell_length_b   7.31465473
_cell_length_c   7.31465490
_cell_angle_alpha   59.89814099
_cell_angle_beta   59.89814546
_cell_angle_gamma   59.89814631
_symmetry_Int_Tables_number   1
_chemical_formula_structural   Ca3Nd(Ru2O7)2
_chemical_formula_sum   'Ca3 Nd1 Ru4 O14'
_cell_volume   276.09710353
_cell_formula_units_Z   1
loop_
 _symmetry_equiv_pos_site_id
 _symmetry_equiv_pos_as_xyz
  1  'x, y, z'
loop_
 _atom_site_type_symbol
 _atom_site_label
 _atom_site_symmetry_multiplicity
 _atom_site_fract_x
 _atom_site_fract_y
 _atom_site_fract_z
 _atom_site_occupancy
  Ca  Ca0  1  0.625000  0.125000  0.625000  1
  Ca  Ca1  1  0.625000  0.625000  0.125000  1
  Ca  Ca2  1  0.125000  0.625000  0.625000  1
  Nd  Nd3  1  0.625000  0.625000  0.625000  1
  Ru  Ru4  1  0.625000  0.125000  0.125000  1
  Ru  Ru5  1  0.125000  0.625000  0.125000  1
  Ru  Ru6  1  0.125000  0.125000  0.625000  1
  Ru  Ru7  1  0.125000  0.125000  0.125000  1
  O  O8  1  0.191668  0.191668  0.806856  1
  O  O9  1  0.191668  0.806856  0.191668  1
  O  O10  1  0.443144  0.058332  0.058332  1
  O  O11  1  0.198326  0.800017  0.800017  1
  O  O12  1  0.051674  0.449983  0.449983  1
  O  O13  1  0.800017  0.800017  0.198326  1
  O  O14  1  0.449983  0.449983  0.051674  1
  O  O15  1  0.498424  0.498424  0.498424  1
  O  O16  1  0.058332  0.058332  0.443144  1
  O  O17  1  0.449983  0.051674  0.449983  1
  O  O18  1  0.058332  0.443144  0.058332  1
  O  O19  1  0.751576  0.751576  0.751576  1
  O  O20  1  0.800017  0.198326  0.800017  1
  O  O21  1  0.806856  0.191668  0.191668  1
