# generated using pymatgen
data_Tb6EuRhI12
_symmetry_space_group_name_H-M   'P 1'
_cell_length_a   9.88821279
_cell_length_b   9.88821135
_cell_length_c   9.88821171
_cell_angle_alpha   106.83474821
_cell_angle_beta   106.83473522
_cell_angle_gamma   106.83475117
_symmetry_Int_Tables_number   1
_chemical_formula_structural   Tb6EuRhI12
_chemical_formula_sum   'Tb6 Eu1 Rh1 I12'
_cell_volume   808.79350709
_cell_formula_units_Z   1
loop_
 _symmetry_equiv_pos_site_id
 _symmetry_equiv_pos_as_xyz
  1  'x, y, z'
loop_
 _atom_site_type_symbol
 _atom_site_label
 _atom_site_symmetry_multiplicity
 _atom_site_fract_x
 _atom_site_fract_y
 _atom_site_fract_z
 _atom_site_occupancy
  Tb  Tb0  1  0.906639  0.979567  0.703615  1
  Tb  Tb1  1  0.703615  0.906639  0.979567  1
  Tb  Tb2  1  0.979567  0.703615  0.906639  1
  Tb  Tb3  1  0.093361  0.020433  0.296385  1
  Tb  Tb4  1  0.296385  0.093361  0.020433  1
  Tb  Tb5  1  0.020433  0.296385  0.093361  1
  Eu  Eu6  1  0.500000  0.500000  0.500000  1
  Rh  Rh7  1  0.000000  0.000000  0.000000  1
  I  I8  1  0.925710  0.322529  0.776191  1
  I  I9  1  0.776191  0.925710  0.322529  1
  I  I10  1  0.322529  0.776191  0.925710  1
  I  I11  1  0.074290  0.677471  0.223809  1
  I  I12  1  0.223809  0.074290  0.677471  1
  I  I13  1  0.677471  0.223809  0.074290  1
  I  I14  1  0.548211  0.858569  0.627348  1
  I  I15  1  0.627348  0.548211  0.858569  1
  I  I16  1  0.858569  0.627348  0.548211  1
  I  I17  1  0.451789  0.141431  0.372652  1
  I  I18  1  0.372652  0.451789  0.141431  1
  I  I19  1  0.141431  0.372652  0.451789  1
