# generated using pymatgen
data_Ho2ZnGa8Ru5
_symmetry_space_group_name_H-M   'P 1'
_cell_length_a   8.06074793
_cell_length_b   8.06074833
_cell_length_c   8.06074779
_cell_angle_alpha   135.14445568
_cell_angle_beta   135.14445888
_cell_angle_gamma   65.30583204
_symmetry_Int_Tables_number   1
_chemical_formula_structural   Ho2ZnGa8Ru5
_chemical_formula_sum   'Ho2 Zn1 Ga8 Ru5'
_cell_volume   256.74721307
_cell_formula_units_Z   1
loop_
 _symmetry_equiv_pos_site_id
 _symmetry_equiv_pos_as_xyz
  1  'x, y, z'
loop_
 _atom_site_type_symbol
 _atom_site_label
 _atom_site_symmetry_multiplicity
 _atom_site_fract_x
 _atom_site_fract_y
 _atom_site_fract_z
 _atom_site_occupancy
  Ho  Ho0  1  0.000000  0.500000  0.500000  1
  Ho  Ho1  1  0.500000  0.000000  0.500000  1
  Zn  Zn2  1  0.000000  0.000000  0.000000  1
  Ga  Ga3  1  0.435437  0.859695  0.000000  1
  Ga  Ga4  1  0.140305  0.140305  0.575742  1
  Ga  Ga5  1  0.859695  0.435437  0.000000  1
  Ga  Ga6  1  0.859695  0.859695  0.424258  1
  Ga  Ga7  1  0.564563  0.140305  0.000000  1
  Ga  Ga8  1  0.140305  0.564563  0.000000  1
  Ga  Ga9  1  0.564563  0.564563  0.424258  1
  Ga  Ga10  1  0.435437  0.435437  0.575742  1
  Ru  Ru11  1  0.186349  0.186349  0.000000  1
  Ru  Ru12  1  0.813651  0.813651  0.000000  1
  Ru  Ru13  1  0.250000  0.750000  0.500000  1
  Ru  Ru14  1  0.750000  0.250000  0.500000  1
  Ru  Ru15  1  0.500000  0.500000  0.000000  1
