# generated using pymatgen
data_Dy2Tm2HfIr3
_symmetry_space_group_name_H-M   'P 1'
_cell_length_a   10.78715700
_cell_length_b   10.78715700
_cell_length_c   6.22945400
_cell_angle_alpha   90.00000000
_cell_angle_beta   90.00000000
_cell_angle_gamma   90.00000000
_symmetry_Int_Tables_number   1
_chemical_formula_structural   Dy2Tm2HfIr3
_chemical_formula_sum   'Dy8 Tm8 Hf4 Ir12'
_cell_volume   724.87643670
_cell_formula_units_Z   4
loop_
 _symmetry_equiv_pos_site_id
 _symmetry_equiv_pos_as_xyz
  1  'x, y, z'
loop_
 _atom_site_type_symbol
 _atom_site_label
 _atom_site_symmetry_multiplicity
 _atom_site_fract_x
 _atom_site_fract_y
 _atom_site_fract_z
 _atom_site_occupancy
  Dy  Dy0  1  0.288604  0.086947  0.372689  1
  Dy  Dy1  1  0.288604  0.913053  0.872689  1
  Dy  Dy2  1  0.711396  0.086947  0.872689  1
  Dy  Dy3  1  0.711396  0.913053  0.372689  1
  Dy  Dy4  1  0.586947  0.788604  0.872689  1
  Dy  Dy5  1  0.586947  0.211396  0.372689  1
  Dy  Dy6  1  0.413053  0.788604  0.372689  1
  Dy  Dy7  1  0.413053  0.211396  0.872689  1
  Tm  Tm8  1  0.209068  0.415781  0.625208  1
  Tm  Tm9  1  0.209068  0.584219  0.125208  1
  Tm  Tm10  1  0.790932  0.415781  0.125208  1
  Tm  Tm11  1  0.790932  0.584219  0.625208  1
  Tm  Tm12  1  0.915781  0.709068  0.125208  1
  Tm  Tm13  1  0.915781  0.290932  0.625208  1
  Tm  Tm14  1  0.084219  0.709068  0.625208  1
  Tm  Tm15  1  0.084219  0.290932  0.125208  1
  Hf  Hf16  1  0.000000  0.000000  0.503095  1
  Hf  Hf17  1  0.000000  0.000000  0.003095  1
  Hf  Hf18  1  0.500000  0.500000  0.003095  1
  Hf  Hf19  1  0.500000  0.500000  0.503095  1
  Ir  Ir20  1  0.858501  0.145737  0.250700  1
  Ir  Ir21  1  0.858501  0.854263  0.750700  1
  Ir  Ir22  1  0.141499  0.145737  0.750700  1
  Ir  Ir23  1  0.141499  0.854263  0.250700  1
  Ir  Ir24  1  0.645737  0.358501  0.750700  1
  Ir  Ir25  1  0.645737  0.641499  0.250700  1
  Ir  Ir26  1  0.354263  0.358501  0.250700  1
  Ir  Ir27  1  0.354263  0.641499  0.750700  1
  Ir  Ir28  1  0.500000  0.000000  0.119576  1
  Ir  Ir29  1  0.500000  0.000000  0.619576  1
  Ir  Ir30  1  0.000000  0.500000  0.879849  1
  Ir  Ir31  1  0.000000  0.500000  0.379849  1
