# generated using pymatgen
data_Np2TcB8Ir
_symmetry_space_group_name_H-M   'P 1'
_cell_length_a   3.53949600
_cell_length_b   5.99910390
_cell_length_c   11.63811765
_cell_angle_alpha   89.96513845
_cell_angle_beta   90.00000000
_cell_angle_gamma   90.00000000
_symmetry_Int_Tables_number   1
_chemical_formula_structural   Np2TcB8Ir
_chemical_formula_sum   'Np4 Tc2 B16 Ir2'
_cell_volume   247.12146651
_cell_formula_units_Z   2
loop_
 _symmetry_equiv_pos_site_id
 _symmetry_equiv_pos_as_xyz
  1  'x, y, z'
loop_
 _atom_site_type_symbol
 _atom_site_label
 _atom_site_symmetry_multiplicity
 _atom_site_fract_x
 _atom_site_fract_y
 _atom_site_fract_z
 _atom_site_occupancy
  Np  Np0  1  0.000000  0.626308  0.351820  1
  Np  Np1  1  0.000000  0.373692  0.648180  1
  Np  Np2  1  0.000000  0.128393  0.151485  1
  Np  Np3  1  0.000000  0.871607  0.848515  1
  Tc  Tc4  1  0.000000  0.136972  0.407852  1
  Tc  Tc5  1  0.000000  0.863028  0.592148  1
  B  B6  1  0.500000  0.788008  0.188762  1
  B  B7  1  0.500000  0.211992  0.811238  1
  B  B8  1  0.500000  0.288229  0.312899  1
  B  B9  1  0.500000  0.711771  0.687101  1
  B  B10  1  0.500000  0.865930  0.030929  1
  B  B11  1  0.500000  0.134070  0.969071  1
  B  B12  1  0.500000  0.365792  0.468204  1
  B  B13  1  0.500000  0.634208  0.531796  1
  B  B14  1  0.500000  0.885820  0.453684  1
  B  B15  1  0.500000  0.114180  0.546316  1
  B  B16  1  0.500000  0.384935  0.047993  1
  B  B17  1  0.500000  0.615065  0.952007  1
  B  B18  1  0.500000  0.972296  0.308164  1
  B  B19  1  0.500000  0.027704  0.691836  1
  B  B20  1  0.500000  0.474097  0.193375  1
  B  B21  1  0.500000  0.525903  0.806625  1
  Ir  Ir22  1  0.000000  0.640428  0.093842  1
  Ir  Ir23  1  0.000000  0.359572  0.906158  1
