# generated using pymatgen
data_ZnCd(Se2O7)2
_symmetry_space_group_name_H-M   'P 1'
_cell_length_a   5.29729445
_cell_length_b   7.40570993
_cell_length_c   9.10117007
_cell_angle_alpha   92.70409072
_cell_angle_beta   94.20974169
_cell_angle_gamma   106.02247869
_symmetry_Int_Tables_number   1
_chemical_formula_structural   ZnCd(Se2O7)2
_chemical_formula_sum   'Zn1 Cd1 Se4 O14'
_cell_volume   341.39721504
_cell_formula_units_Z   1
loop_
 _symmetry_equiv_pos_site_id
 _symmetry_equiv_pos_as_xyz
  1  'x, y, z'
loop_
 _atom_site_type_symbol
 _atom_site_label
 _atom_site_symmetry_multiplicity
 _atom_site_fract_x
 _atom_site_fract_y
 _atom_site_fract_z
 _atom_site_occupancy
  Zn  Zn0  1  0.500000  0.000000  0.500000  1
  Cd  Cd1  1  0.000000  0.500000  0.000000  1
  Se  Se2  1  0.511519  0.653208  0.761606  1
  Se  Se3  1  0.488481  0.346792  0.238394  1
  Se  Se4  1  0.124299  0.239255  0.680562  1
  Se  Se5  1  0.875701  0.760745  0.319438  1
  O  O6  1  0.741927  0.548637  0.802785  1
  O  O7  1  0.258073  0.451363  0.197215  1
  O  O8  1  0.355744  0.702344  0.902028  1
  O  O9  1  0.644256  0.297656  0.097972  1
  O  O10  1  0.616383  0.828735  0.656318  1
  O  O11  1  0.383617  0.171265  0.343682  1
  O  O12  1  0.270067  0.483275  0.633447  1
  O  O13  1  0.729933  0.516725  0.366553  1
  O  O14  1  0.883830  0.184181  0.546504  1
  O  O15  1  0.116170  0.815819  0.453496  1
  O  O16  1  0.355268  0.129088  0.671348  1
  O  O17  1  0.644732  0.870912  0.328652  1
  O  O18  1  0.045526  0.249128  0.852344  1
  O  O19  1  0.954474  0.750872  0.147656  1
