# generated using pymatgen
data_TbGdThH9
_symmetry_space_group_name_H-M   'P 1'
_cell_length_a   6.55243507
_cell_length_b   6.54455312
_cell_length_c   6.69960665
_cell_angle_alpha   89.99250603
_cell_angle_beta   90.15126906
_cell_angle_gamma   119.95390795
_symmetry_Int_Tables_number   1
_chemical_formula_structural   TbGdThH9
_chemical_formula_sum   'Tb2 Gd2 Th2 H18'
_cell_volume   248.92141515
_cell_formula_units_Z   2
loop_
 _symmetry_equiv_pos_site_id
 _symmetry_equiv_pos_as_xyz
  1  'x, y, z'
loop_
 _atom_site_type_symbol
 _atom_site_label
 _atom_site_symmetry_multiplicity
 _atom_site_fract_x
 _atom_site_fract_y
 _atom_site_fract_z
 _atom_site_occupancy
  Tb  Tb0  1  0.330158  0.999664  0.250078  1
  Tb  Tb1  1  0.003524  0.336643  0.249686  1
  Gd  Gd2  1  0.004015  0.667219  0.749664  1
  Gd  Gd3  1  0.329809  0.330400  0.750081  1
  Th  Th4  1  0.666544  0.663753  0.250257  1
  Th  Th5  1  0.666733  0.003064  0.750308  1
  H  H6  1  0.005121  0.007155  0.251520  1
  H  H7  1  0.003314  0.997861  0.751572  1
  H  H8  1  0.328277  0.668542  0.231979  1
  H  H9  1  0.666698  0.323156  0.266404  1
  H  H10  1  0.666876  0.342225  0.767603  1
  H  H11  1  0.330362  0.661486  0.730523  1
  H  H12  1  0.338832  0.332546  0.094519  1
  H  H13  1  0.671040  0.001446  0.098770  1
  H  H14  1  0.992886  0.663467  0.093211  1
  H  H15  1  0.001636  0.669810  0.404805  1
  H  H16  1  0.661143  0.990617  0.402830  1
  H  H17  1  0.333413  0.339743  0.406032  1
  H  H18  1  0.661544  0.671274  0.903523  1
  H  H19  1  0.334009  0.993756  0.908732  1
  H  H20  1  0.001203  0.331343  0.907541  1
  H  H21  1  0.992502  0.328722  0.590556  1
  H  H22  1  0.339209  0.006113  0.591856  1
  H  H23  1  0.671152  0.669996  0.597951  1
