# generated using pymatgen
data_DyLu5TcTe2
_symmetry_space_group_name_H-M   'P 1'
_cell_length_a   8.12754259
_cell_length_b   8.21696797
_cell_length_c   4.06861100
_cell_angle_alpha   90.00000000
_cell_angle_beta   90.00000000
_cell_angle_gamma   120.36464221
_symmetry_Int_Tables_number   1
_chemical_formula_structural   DyLu5TcTe2
_chemical_formula_sum   'Dy1 Lu5 Tc1 Te2'
_cell_volume   234.44454487
_cell_formula_units_Z   1
loop_
 _symmetry_equiv_pos_site_id
 _symmetry_equiv_pos_as_xyz
  1  'x, y, z'
loop_
 _atom_site_type_symbol
 _atom_site_label
 _atom_site_symmetry_multiplicity
 _atom_site_fract_x
 _atom_site_fract_y
 _atom_site_fract_z
 _atom_site_occupancy
  Dy  Dy0  1  0.000000  0.611609  0.500000  1
  Lu  Lu1  1  0.615933  0.999516  0.500000  1
  Lu  Lu2  1  0.384067  0.383583  0.500000  1
  Lu  Lu3  1  0.000000  0.235937  0.000000  1
  Lu  Lu4  1  0.763802  0.764708  0.000000  1
  Lu  Lu5  1  0.236198  0.000905  0.000000  1
  Tc  Tc6  1  0.000000  0.005663  0.500000  1
  Te  Te7  1  0.333547  0.665814  0.000000  1
  Te  Te8  1  0.666453  0.332265  0.000000  1
