# generated using pymatgen
data_EuMnSbO6
_symmetry_space_group_name_H-M   'P 1'
_cell_length_a   5.17026329
_cell_length_b   5.17077542
_cell_length_c   5.11620515
_cell_angle_alpha   90.18227979
_cell_angle_beta   90.34110387
_cell_angle_gamma   119.86441767
_symmetry_Int_Tables_number   1
_chemical_formula_structural   EuMnSbO6
_chemical_formula_sum   'Eu1 Mn1 Sb1 O6'
_cell_volume   118.60965312
_cell_formula_units_Z   1
loop_
 _symmetry_equiv_pos_site_id
 _symmetry_equiv_pos_as_xyz
  1  'x, y, z'
loop_
 _atom_site_type_symbol
 _atom_site_label
 _atom_site_symmetry_multiplicity
 _atom_site_fract_x
 _atom_site_fract_y
 _atom_site_fract_z
 _atom_site_occupancy
  Eu  Eu0  1  0.482451  0.517396  0.499990  1
  Mn  Mn1  1  0.815413  0.184591  0.000004  1
  Sb  Sb2  1  0.149570  0.850517  0.999984  1
  O  O3  1  0.112116  0.157278  0.212957  1
  O  O4  1  0.495643  0.893308  0.214768  1
  O  O5  1  0.847958  0.509560  0.214255  1
  O  O6  1  0.490117  0.152316  0.785725  1
  O  O7  1  0.106489  0.504668  0.785426  1
  O  O8  1  0.842398  0.888227  0.786861  1
