# generated using pymatgen
data_Hf4Fe2SiAs3Pd2
_symmetry_space_group_name_H-M   'P 1'
_cell_length_a   3.89487300
_cell_length_b   6.55553624
_cell_length_c   7.49117253
_cell_angle_alpha   92.84081125
_cell_angle_beta   90.00000000
_cell_angle_gamma   90.00000000
_symmetry_Int_Tables_number   1
_chemical_formula_structural   Hf4Fe2SiAs3Pd2
_chemical_formula_sum   'Hf4 Fe2 Si1 As3 Pd2'
_cell_volume   191.03691038
_cell_formula_units_Z   1
loop_
 _symmetry_equiv_pos_site_id
 _symmetry_equiv_pos_as_xyz
  1  'x, y, z'
loop_
 _atom_site_type_symbol
 _atom_site_label
 _atom_site_symmetry_multiplicity
 _atom_site_fract_x
 _atom_site_fract_y
 _atom_site_fract_z
 _atom_site_occupancy
  Hf  Hf0  1  0.250000  0.474797  0.201302  1
  Hf  Hf1  1  0.750000  0.529857  0.799809  1
  Hf  Hf2  1  0.750000  0.016168  0.672068  1
  Hf  Hf3  1  0.250000  0.974499  0.327691  1
  Fe  Fe4  1  0.750000  0.642754  0.447356  1
  Fe  Fe5  1  0.250000  0.365090  0.558437  1
  Si  Si6  1  0.250000  0.721747  0.599732  1
  As  As7  1  0.750000  0.273890  0.400784  1
  As  As8  1  0.750000  0.747084  0.139398  1
  As  As9  1  0.250000  0.255669  0.862055  1
  Pd  Pd10  1  0.250000  0.850240  0.924673  1
  Pd  Pd11  1  0.750000  0.148206  0.066696  1
