# generated using pymatgen
data_Nd16Cd4TcNi3
_symmetry_space_group_name_H-M   'P 1'
_cell_length_a   9.93224710
_cell_length_b   9.93224696
_cell_length_c   9.93224703
_cell_angle_alpha   59.45375488
_cell_angle_beta   59.45375347
_cell_angle_gamma   59.45375836
_symmetry_Int_Tables_number   1
_chemical_formula_structural   Nd16Cd4TcNi3
_chemical_formula_sum   'Nd16 Cd4 Tc1 Ni3'
_cell_volume   684.22186557
_cell_formula_units_Z   1
loop_
 _symmetry_equiv_pos_site_id
 _symmetry_equiv_pos_as_xyz
  1  'x, y, z'
loop_
 _atom_site_type_symbol
 _atom_site_label
 _atom_site_symmetry_multiplicity
 _atom_site_fract_x
 _atom_site_fract_y
 _atom_site_fract_z
 _atom_site_occupancy
  Nd  Nd0  1  0.598010  0.598010  0.598010  1
  Nd  Nd1  1  0.599181  0.599181  0.207121  1
  Nd  Nd2  1  0.599181  0.207121  0.599181  1
  Nd  Nd3  1  0.207121  0.599181  0.599181  1
  Nd  Nd4  1  0.060476  0.438617  0.438617  1
  Nd  Nd5  1  0.438823  0.058784  0.058784  1
  Nd  Nd6  1  0.438617  0.060476  0.438617  1
  Nd  Nd7  1  0.058784  0.438823  0.058784  1
  Nd  Nd8  1  0.438617  0.438617  0.060476  1
  Nd  Nd9  1  0.058784  0.058784  0.438823  1
  Nd  Nd10  1  0.186090  0.814589  0.814589  1
  Nd  Nd11  1  0.804100  0.190127  0.190127  1
  Nd  Nd12  1  0.814589  0.186090  0.814589  1
  Nd  Nd13  1  0.190127  0.804100  0.190127  1
  Nd  Nd14  1  0.814589  0.814589  0.186090  1
  Nd  Nd15  1  0.190127  0.190127  0.804100  1
  Cd  Cd16  1  0.829584  0.829584  0.829584  1
  Cd  Cd17  1  0.829566  0.829566  0.508975  1
  Cd  Cd18  1  0.829566  0.508975  0.829566  1
  Cd  Cd19  1  0.508975  0.829566  0.829566  1
  Tc  Tc20  1  0.391698  0.391698  0.391698  1
  Ni  Ni21  1  0.393791  0.393791  0.825812  1
  Ni  Ni22  1  0.393791  0.825812  0.393791  1
  Ni  Ni23  1  0.825812  0.393791  0.393791  1
