# generated using pymatgen
data_DyY2AlSi2Ag3
_symmetry_space_group_name_H-M   'P 1'
_cell_length_a   7.14523703
_cell_length_b   7.14213014
_cell_length_c   4.20623800
_cell_angle_alpha   90.00000000
_cell_angle_beta   90.00000000
_cell_angle_gamma   119.98563535
_symmetry_Int_Tables_number   1
_chemical_formula_structural   DyY2AlSi2Ag3
_chemical_formula_sum   'Dy1 Y2 Al1 Si2 Ag3'
_cell_volume   185.92240085
_cell_formula_units_Z   1
loop_
 _symmetry_equiv_pos_site_id
 _symmetry_equiv_pos_as_xyz
  1  'x, y, z'
loop_
 _atom_site_type_symbol
 _atom_site_label
 _atom_site_symmetry_multiplicity
 _atom_site_fract_x
 _atom_site_fract_y
 _atom_site_fract_z
 _atom_site_occupancy
  Dy  Dy0  1  0.000000  0.571421  0.500000  1
  Y  Y1  1  0.428117  0.428159  0.500000  1
  Y  Y2  1  0.571883  0.000041  0.500000  1
  Al  Al3  1  0.000000  0.999709  0.500000  1
  Si  Si4  1  0.667142  0.333786  0.000000  1
  Si  Si5  1  0.332858  0.666645  0.000000  1
  Ag  Ag6  1  0.751529  0.751364  0.000000  1
  Ag  Ag7  1  0.248471  0.999835  0.000000  1
  Ag  Ag8  1  0.000000  0.249038  0.000000  1
