# generated using pymatgen
data_Lu2Mg(Co3B2)3
_symmetry_space_group_name_H-M   'P 1'
_cell_length_a   5.73551633
_cell_length_b   5.73551688
_cell_length_c   5.73551626
_cell_angle_alpha   95.68888169
_cell_angle_beta   95.68888010
_cell_angle_gamma   95.68888986
_symmetry_Int_Tables_number   1
_chemical_formula_structural   Lu2Mg(Co3B2)3
_chemical_formula_sum   'Lu2 Mg1 Co9 B6'
_cell_volume   185.68803510
_cell_formula_units_Z   1
loop_
 _symmetry_equiv_pos_site_id
 _symmetry_equiv_pos_as_xyz
  1  'x, y, z'
loop_
 _atom_site_type_symbol
 _atom_site_label
 _atom_site_symmetry_multiplicity
 _atom_site_fract_x
 _atom_site_fract_y
 _atom_site_fract_z
 _atom_site_occupancy
  Lu  Lu0  1  0.675194  0.675194  0.675194  1
  Lu  Lu1  1  0.324806  0.324806  0.324806  1
  Mg  Mg2  1  0.000000  0.000000  0.000000  1
  Co  Co3  1  0.000000  0.000000  0.500000  1
  Co  Co4  1  0.500000  0.000000  0.000000  1
  Co  Co5  1  0.000000  0.500000  0.000000  1
  Co  Co6  1  0.701598  0.197831  0.701598  1
  Co  Co7  1  0.701598  0.701598  0.197831  1
  Co  Co8  1  0.197831  0.701598  0.701598  1
  Co  Co9  1  0.298402  0.802169  0.298402  1
  Co  Co10  1  0.298402  0.298402  0.802169  1
  Co  Co11  1  0.802169  0.298402  0.298402  1
  B  B12  1  0.618586  0.381414  0.000000  1
  B  B13  1  0.000000  0.618586  0.381414  1
  B  B14  1  0.381414  0.000000  0.618586  1
  B  B15  1  0.000000  0.381414  0.618586  1
  B  B16  1  0.618586  0.000000  0.381414  1
  B  B17  1  0.381414  0.618586  0.000000  1
