# generated using pymatgen
data_Sc3B2IrRuRh3
_symmetry_space_group_name_H-M   'P 1'
_cell_length_a   9.58193007
_cell_length_b   9.57942507
_cell_length_c   3.07271400
_cell_angle_alpha   90.00000000
_cell_angle_beta   90.00000000
_cell_angle_gamma   89.98641265
_symmetry_Int_Tables_number   1
_chemical_formula_structural   Sc3B2IrRuRh3
_chemical_formula_sum   'Sc6 B4 Ir2 Ru2 Rh6'
_cell_volume   282.04250837
_cell_formula_units_Z   2
loop_
 _symmetry_equiv_pos_site_id
 _symmetry_equiv_pos_as_xyz
  1  'x, y, z'
loop_
 _atom_site_type_symbol
 _atom_site_label
 _atom_site_symmetry_multiplicity
 _atom_site_fract_x
 _atom_site_fract_y
 _atom_site_fract_z
 _atom_site_occupancy
  Sc  Sc0  1  0.827911  0.325770  0.000000  1
  Sc  Sc1  1  0.324468  0.171502  0.000000  1
  Sc  Sc2  1  0.672422  0.825711  0.000000  1
  Sc  Sc3  1  0.173354  0.674362  0.000000  1
  Sc  Sc4  1  0.996482  0.998377  0.000000  1
  Sc  Sc5  1  0.499983  0.499486  0.000000  1
  B  B6  1  0.619878  0.120883  0.000000  1
  B  B7  1  0.120105  0.378580  0.000000  1
  B  B8  1  0.879671  0.619513  0.000000  1
  B  B9  1  0.378873  0.880440  0.000000  1
  Ir  Ir10  1  0.074314  0.220875  0.500000  1
  Ir  Ir11  1  0.221728  0.927549  0.500000  1
  Ru  Ru12  1  0.501967  0.000299  0.500000  1
  Ru  Ru13  1  0.999929  0.500377  0.500000  1
  Rh  Rh14  1  0.778941  0.074657  0.500000  1
  Rh  Rh15  1  0.926910  0.778145  0.500000  1
  Rh  Rh16  1  0.428401  0.721445  0.500000  1
  Rh  Rh17  1  0.574101  0.279219  0.500000  1
  Rh  Rh18  1  0.721416  0.574111  0.500000  1
  Rh  Rh19  1  0.279147  0.428700  0.500000  1
