# generated using pymatgen
data_Sm2Ta3(SbO6)3
_symmetry_space_group_name_H-M   'P 1'
_cell_length_a   7.58719552
_cell_length_b   5.43871593
_cell_length_c   8.26897002
_cell_angle_alpha   86.79771654
_cell_angle_beta   89.97507151
_cell_angle_gamma   90.03280964
_symmetry_Int_Tables_number   1
_chemical_formula_structural   Sm2Ta3(SbO6)3
_chemical_formula_sum   'Sm2 Ta3 Sb3 O18'
_cell_volume   340.68286168
_cell_formula_units_Z   1
loop_
 _symmetry_equiv_pos_site_id
 _symmetry_equiv_pos_as_xyz
  1  'x, y, z'
loop_
 _atom_site_type_symbol
 _atom_site_label
 _atom_site_symmetry_multiplicity
 _atom_site_fract_x
 _atom_site_fract_y
 _atom_site_fract_z
 _atom_site_occupancy
  Sm  Sm0  1  0.252846  0.966932  0.431408  1
  Sm  Sm1  1  0.747860  0.035395  0.567163  1
  Ta  Ta2  1  0.999174  0.999256  0.000786  1
  Ta  Ta3  1  0.498070  0.007408  0.992929  1
  Ta  Ta4  1  0.507072  0.468156  0.295806  1
  Sb  Sb5  1  0.004924  0.532605  0.695751  1
  Sb  Sb6  1  0.493913  0.531138  0.690530  1
  Sb  Sb7  1  0.996432  0.468105  0.305705  1
  O  O8  1  0.251152  0.911247  0.987496  1
  O  O9  1  0.939560  0.849877  0.783868  1
  O  O10  1  0.559862  0.845672  0.785801  1
  O  O11  1  0.962435  0.735735  0.472507  1
  O  O12  1  0.537263  0.732367  0.472399  1
  O  O13  1  0.249456  0.662809  0.659210  1
  O  O14  1  0.946811  0.685246  0.121738  1
  O  O15  1  0.549584  0.685086  0.123041  1
  O  O16  1  0.251182  0.572614  0.313690  1
  O  O17  1  0.749935  0.419101  0.687510  1
  O  O18  1  0.052658  0.312915  0.878980  1
  O  O19  1  0.447018  0.320566  0.879523  1
  O  O20  1  0.750171  0.346821  0.340542  1
  O  O21  1  0.038176  0.264637  0.528987  1
  O  O22  1  0.462079  0.258642  0.533967  1
  O  O23  1  0.060923  0.150148  0.217174  1
  O  O24  1  0.442347  0.153165  0.215941  1
  O  O25  1  0.749100  0.084356  0.017546  1
