# generated using pymatgen
data_Zr3Ta2Ir3N
_symmetry_space_group_name_H-M   'P 1'
_cell_length_a   8.00784700
_cell_length_b   8.00784904
_cell_length_c   5.40466500
_cell_angle_alpha   90.00000000
_cell_angle_beta   90.00000000
_cell_angle_gamma   119.99999570
_symmetry_Int_Tables_number   1
_chemical_formula_structural   Zr3Ta2Ir3N
_chemical_formula_sum   'Zr6 Ta4 Ir6 N2'
_cell_volume   300.14497365
_cell_formula_units_Z   2
loop_
 _symmetry_equiv_pos_site_id
 _symmetry_equiv_pos_as_xyz
  1  'x, y, z'
loop_
 _atom_site_type_symbol
 _atom_site_label
 _atom_site_symmetry_multiplicity
 _atom_site_fract_x
 _atom_site_fract_y
 _atom_site_fract_z
 _atom_site_occupancy
  Zr  Zr0  1  0.233467  0.000000  0.250000  1
  Zr  Zr1  1  0.766533  0.000000  0.750000  1
  Zr  Zr2  1  0.000000  0.233467  0.250000  1
  Zr  Zr3  1  0.000000  0.766533  0.750000  1
  Zr  Zr4  1  0.766533  0.766533  0.250000  1
  Zr  Zr5  1  0.233467  0.233467  0.750000  1
  Ta  Ta6  1  0.333333  0.666667  0.000000  1
  Ta  Ta7  1  0.666667  0.333333  0.000000  1
  Ta  Ta8  1  0.666667  0.333333  0.500000  1
  Ta  Ta9  1  0.333333  0.666667  0.500000  1
  Ir  Ir10  1  0.582584  0.000000  0.250000  1
  Ir  Ir11  1  0.417416  0.000000  0.750000  1
  Ir  Ir12  1  0.000000  0.582584  0.250000  1
  Ir  Ir13  1  0.000000  0.417416  0.750000  1
  Ir  Ir14  1  0.417416  0.417416  0.250000  1
  Ir  Ir15  1  0.582584  0.582584  0.750000  1
  N  N16  1  0.000000  0.000000  0.000000  1
  N  N17  1  0.000000  0.000000  0.500000  1
