# generated using pymatgen
data_PrDy3(Zn5Sn)2
_symmetry_space_group_name_H-M   'P 1'
_cell_length_a   8.43667285
_cell_length_b   8.43667397
_cell_length_c   9.03218140
_cell_angle_alpha   90.45715541
_cell_angle_beta   89.54284362
_cell_angle_gamma   149.76513346
_symmetry_Int_Tables_number   1
_chemical_formula_structural   PrDy3(Zn5Sn)2
_chemical_formula_sum   'Pr1 Dy3 Zn10 Sn2'
_cell_volume   323.71234902
_cell_formula_units_Z   1
loop_
 _symmetry_equiv_pos_site_id
 _symmetry_equiv_pos_as_xyz
  1  'x, y, z'
loop_
 _atom_site_type_symbol
 _atom_site_label
 _atom_site_symmetry_multiplicity
 _atom_site_fract_x
 _atom_site_fract_y
 _atom_site_fract_z
 _atom_site_occupancy
  Pr  Pr0  1  0.000000  0.000000  0.000000  1
  Dy  Dy1  1  0.202881  0.797119  0.253435  1
  Dy  Dy2  1  0.797119  0.202881  0.746565  1
  Dy  Dy3  1  0.000000  0.000000  0.500000  1
  Zn  Zn4  1  0.814483  0.185517  0.387842  1
  Zn  Zn5  1  0.185517  0.814483  0.612158  1
  Zn  Zn6  1  0.810668  0.189332  0.105956  1
  Zn  Zn7  1  0.189332  0.810668  0.894044  1
  Zn  Zn8  1  0.657585  0.342415  0.484832  1
  Zn  Zn9  1  0.342415  0.657585  0.515168  1
  Zn  Zn10  1  0.656518  0.343482  0.021097  1
  Zn  Zn11  1  0.343482  0.656518  0.978903  1
  Zn  Zn12  1  0.392245  0.607755  0.246802  1
  Zn  Zn13  1  0.607755  0.392245  0.753198  1
  Sn  Sn14  1  0.554562  0.445438  0.256547  1
  Sn  Sn15  1  0.445438  0.554562  0.743453  1
