# generated using pymatgen
data_Ho5Er7Th4(CdIr)4
_symmetry_space_group_name_H-M   'P 1'
_cell_length_a   9.71196849
_cell_length_b   9.71148577
_cell_length_c   9.71148501
_cell_angle_alpha   60.00096877
_cell_angle_beta   59.99834883
_cell_angle_gamma   59.99834862
_symmetry_Int_Tables_number   1
_chemical_formula_structural   Ho5Er7Th4(CdIr)4
_chemical_formula_sum   'Ho5 Er7 Th4 Cd4 Ir4'
_cell_volume   647.67320243
_cell_formula_units_Z   1
loop_
 _symmetry_equiv_pos_site_id
 _symmetry_equiv_pos_as_xyz
  1  'x, y, z'
loop_
 _atom_site_type_symbol
 _atom_site_label
 _atom_site_symmetry_multiplicity
 _atom_site_fract_x
 _atom_site_fract_y
 _atom_site_fract_z
 _atom_site_occupancy
  Ho  Ho0  1  0.814733  0.185267  0.185267  1
  Ho  Ho1  1  0.814820  0.185170  0.814730  1
  Ho  Ho2  1  0.185279  0.814730  0.185170  1
  Ho  Ho3  1  0.814820  0.814730  0.185170  1
  Ho  Ho4  1  0.185279  0.185170  0.814730  1
  Er  Er5  1  0.062265  0.437735  0.437735  1
  Er  Er6  1  0.437723  0.062277  0.062277  1
  Er  Er7  1  0.437672  0.062222  0.437818  1
  Er  Er8  1  0.062288  0.437818  0.062222  1
  Er  Er9  1  0.437672  0.437818  0.062222  1
  Er  Er10  1  0.062288  0.062222  0.437818  1
  Er  Er11  1  0.185270  0.814730  0.814730  1
  Th  Th12  1  0.600056  0.600156  0.600156  1
  Th  Th13  1  0.600110  0.600138  0.199643  1
  Th  Th14  1  0.600110  0.199643  0.600138  1
  Th  Th15  1  0.199633  0.600156  0.600156  1
  Cd  Cd16  1  0.832813  0.832691  0.832691  1
  Cd  Cd17  1  0.832689  0.832692  0.501931  1
  Cd  Cd18  1  0.832689  0.501931  0.832692  1
  Cd  Cd19  1  0.501805  0.832691  0.832691  1
  Ir  Ir20  1  0.392871  0.392851  0.392851  1
  Ir  Ir21  1  0.392844  0.392917  0.821395  1
  Ir  Ir22  1  0.392844  0.821395  0.392917  1
  Ir  Ir23  1  0.821427  0.392851  0.392851  1
