# generated using pymatgen
data_Zr2PaAl7Cu2
_symmetry_space_group_name_H-M   'P 1'
_cell_length_a   8.88779853
_cell_length_b   8.88779918
_cell_length_c   8.88779901
_cell_angle_alpha   35.00793456
_cell_angle_beta   35.00792729
_cell_angle_gamma   35.00792520
_symmetry_Int_Tables_number   1
_chemical_formula_structural   Zr2PaAl7Cu2
_chemical_formula_sum   'Zr2 Pa1 Al7 Cu2'
_cell_volume   206.31756986
_cell_formula_units_Z   1
loop_
 _symmetry_equiv_pos_site_id
 _symmetry_equiv_pos_as_xyz
  1  'x, y, z'
loop_
 _atom_site_type_symbol
 _atom_site_label
 _atom_site_symmetry_multiplicity
 _atom_site_fract_x
 _atom_site_fract_y
 _atom_site_fract_z
 _atom_site_occupancy
  Zr  Zr0  1  0.860442  0.860442  0.860442  1
  Zr  Zr1  1  0.139558  0.139558  0.139558  1
  Pa  Pa2  1  0.000000  0.000000  0.000000  1
  Al  Al3  1  0.414801  0.414801  0.923887  1
  Al  Al4  1  0.923887  0.414801  0.414801  1
  Al  Al5  1  0.414801  0.923887  0.414801  1
  Al  Al6  1  0.500000  0.500000  0.500000  1
  Al  Al7  1  0.585199  0.076113  0.585199  1
  Al  Al8  1  0.076113  0.585199  0.585199  1
  Al  Al9  1  0.585199  0.585199  0.076113  1
  Cu  Cu10  1  0.665706  0.665706  0.665706  1
  Cu  Cu11  1  0.334294  0.334294  0.334294  1
