# generated using pymatgen
data_Sm4Al18(IrPt)3
_symmetry_space_group_name_H-M   'P 1'
_cell_length_a   7.59745607
_cell_length_b   7.59745647
_cell_length_c   9.45833100
_cell_angle_alpha   89.99196082
_cell_angle_beta   89.99196082
_cell_angle_gamma   119.63303341
_symmetry_Int_Tables_number   1
_chemical_formula_structural   Sm4Al18(IrPt)3
_chemical_formula_sum   'Sm4 Al18 Ir3 Pt3'
_cell_volume   474.54306107
_cell_formula_units_Z   1
loop_
 _symmetry_equiv_pos_site_id
 _symmetry_equiv_pos_as_xyz
  1  'x, y, z'
loop_
 _atom_site_type_symbol
 _atom_site_label
 _atom_site_symmetry_multiplicity
 _atom_site_fract_x
 _atom_site_fract_y
 _atom_site_fract_z
 _atom_site_occupancy
  Sm  Sm0  1  0.995559  0.669878  0.250343  1
  Sm  Sm1  1  0.005486  0.330792  0.749713  1
  Sm  Sm2  1  0.669208  0.994514  0.250287  1
  Sm  Sm3  1  0.330122  0.004441  0.749657  1
  Al  Al4  1  0.127529  0.128306  0.250515  1
  Al  Al5  1  0.871694  0.872471  0.749485  1
  Al  Al6  1  0.000962  0.331511  0.075829  1
  Al  Al7  1  0.998628  0.668951  0.923656  1
  Al  Al8  1  0.996231  0.665162  0.574345  1
  Al  Al9  1  0.334838  0.003769  0.425655  1
  Al  Al10  1  0.997053  0.330893  0.425738  1
  Al  Al11  1  0.669107  0.002947  0.574262  1
  Al  Al12  1  0.668489  0.999038  0.924171  1
  Al  Al13  1  0.331049  0.001372  0.076344  1
  Al  Al14  1  0.333340  0.330081  0.551424  1
  Al  Al15  1  0.669919  0.666660  0.448576  1
  Al  Al16  1  0.668893  0.668980  0.054600  1
  Al  Al17  1  0.331020  0.331107  0.945400  1
  Al  Al18  1  0.340216  0.544435  0.250470  1
  Al  Al19  1  0.659155  0.453317  0.747301  1
  Al  Al20  1  0.546683  0.340845  0.252699  1
  Al  Al21  1  0.455565  0.659784  0.749530  1
  Ir  Ir22  1  0.671739  0.328261  0.500000  1
  Ir  Ir23  1  0.999808  0.000192  0.000000  1
  Ir  Ir24  1  0.000263  0.999737  0.500000  1
  Pt  Pt25  1  0.671917  0.328083  0.000000  1
  Pt  Pt26  1  0.327680  0.672320  0.000000  1
  Pt  Pt27  1  0.327848  0.672152  0.500000  1
