# generated using pymatgen
data_Tb3DySn5SbRh7
_symmetry_space_group_name_H-M   'P 1'
_cell_length_a   7.62297003
_cell_length_b   7.61916167
_cell_length_c   7.62160243
_cell_angle_alpha   109.38752508
_cell_angle_beta   109.40781041
_cell_angle_gamma   109.61557563
_symmetry_Int_Tables_number   1
_chemical_formula_structural   Tb3DySn5SbRh7
_chemical_formula_sum   'Tb3 Dy1 Sn5 Sb1 Rh7'
_cell_volume   340.77596986
_cell_formula_units_Z   1
loop_
 _symmetry_equiv_pos_site_id
 _symmetry_equiv_pos_as_xyz
  1  'x, y, z'
loop_
 _atom_site_type_symbol
 _atom_site_label
 _atom_site_symmetry_multiplicity
 _atom_site_fract_x
 _atom_site_fract_y
 _atom_site_fract_z
 _atom_site_occupancy
  Tb  Tb0  1  0.998623  0.496060  0.000000  1
  Tb  Tb1  1  0.998673  0.998682  0.502584  1
  Tb  Tb2  1  0.496088  0.496097  0.497416  1
  Dy  Dy3  1  0.496046  0.998574  0.000000  1
  Sn  Sn4  1  0.996900  0.313867  0.316715  1
  Sn  Sn5  1  0.680185  0.997152  0.683285  1
  Sn  Sn6  1  0.690602  0.690946  0.000000  1
  Sn  Sn7  1  0.997504  0.680520  0.683280  1
  Sn  Sn8  1  0.314223  0.997240  0.316720  1
  Sb  Sb9  1  0.321397  0.321060  0.000000  1
  Rh  Rh10  1  0.008034  0.007999  0.000000  1
  Rh  Rh11  1  0.501449  0.750551  0.248788  1
  Rh  Rh12  1  0.750241  0.501152  0.248790  1
  Rh  Rh13  1  0.248118  0.748144  0.500311  1
  Rh  Rh14  1  0.252661  0.501762  0.751212  1
  Rh  Rh15  1  0.501451  0.252363  0.751210  1
  Rh  Rh16  1  0.747808  0.247833  0.499689  1
