# generated using pymatgen
data_Sr5Y(RhO6)2
_symmetry_space_group_name_H-M   'P 1'
_cell_length_a   5.87317423
_cell_length_b   6.00130253
_cell_length_c   8.36227293
_cell_angle_alpha   89.84281139
_cell_angle_beta   90.60730208
_cell_angle_gamma   90.05758962
_symmetry_Int_Tables_number   1
_chemical_formula_structural   Sr5Y(RhO6)2
_chemical_formula_sum   'Sr5 Y1 Rh2 O12'
_cell_volume   294.72468007
_cell_formula_units_Z   1
loop_
 _symmetry_equiv_pos_site_id
 _symmetry_equiv_pos_as_xyz
  1  'x, y, z'
loop_
 _atom_site_type_symbol
 _atom_site_label
 _atom_site_symmetry_multiplicity
 _atom_site_fract_x
 _atom_site_fract_y
 _atom_site_fract_z
 _atom_site_occupancy
  Sr  Sr0  1  0.489073  0.546273  0.253978  1
  Sr  Sr1  1  0.986484  0.952286  0.746678  1
  Sr  Sr2  1  0.510927  0.453727  0.746022  1
  Sr  Sr3  1  0.013516  0.047714  0.253322  1
  Sr  Sr4  1  0.500000  0.000000  0.000000  1
  Y  Y5  1  0.000000  0.500000  0.500000  1
  Rh  Rh6  1  0.000000  0.500000  0.000000  1
  Rh  Rh7  1  0.500000  0.000000  0.500000  1
  O  O8  1  0.229669  0.797439  0.456968  1
  O  O9  1  0.726434  0.673678  0.954091  1
  O  O10  1  0.770331  0.202561  0.543032  1
  O  O11  1  0.273566  0.326322  0.045909  1
  O  O12  1  0.698184  0.728413  0.549720  1
  O  O13  1  0.167367  0.773275  0.050321  1
  O  O14  1  0.301816  0.271587  0.450280  1
  O  O15  1  0.832633  0.226725  0.949679  1
  O  O16  1  0.588933  0.971461  0.279498  1
  O  O17  1  0.086513  0.529545  0.765074  1
  O  O18  1  0.411067  0.028539  0.720502  1
  O  O19  1  0.913487  0.470455  0.234926  1
