# generated using pymatgen
data_Ho10Co4OsRh
_symmetry_space_group_name_H-M   'P 1'
_cell_length_a   8.67561391
_cell_length_b   8.67561343
_cell_length_c   8.67561318
_cell_angle_alpha   131.83203705
_cell_angle_beta   131.83203653
_cell_angle_gamma   70.49443855
_symmetry_Int_Tables_number   1
_chemical_formula_structural   Ho10Co4OsRh
_chemical_formula_sum   'Ho10 Co4 Os1 Rh1'
_cell_volume   355.21184557
_cell_formula_units_Z   1
loop_
 _symmetry_equiv_pos_site_id
 _symmetry_equiv_pos_as_xyz
  1  'x, y, z'
loop_
 _atom_site_type_symbol
 _atom_site_label
 _atom_site_symmetry_multiplicity
 _atom_site_fract_x
 _atom_site_fract_y
 _atom_site_fract_z
 _atom_site_occupancy
  Ho  Ho0  1  0.681650  0.538063  0.503833  1
  Ho  Ho1  1  0.465770  0.961937  0.143587  1
  Ho  Ho2  1  0.818350  0.322183  0.856413  1
  Ho  Ho3  1  0.538063  0.034230  0.856413  1
  Ho  Ho4  1  0.999537  0.999537  0.000000  1
  Ho  Ho5  1  0.034230  0.177817  0.496167  1
  Ho  Ho6  1  0.322183  0.465770  0.503833  1
  Ho  Ho7  1  0.177817  0.681650  0.143587  1
  Ho  Ho8  1  0.961937  0.818350  0.496167  1
  Ho  Ho9  1  0.500463  0.500463  0.000000  1
  Co  Co10  1  0.111697  0.611697  0.723392  1
  Co  Co11  1  0.888303  0.388303  0.276608  1
  Co  Co12  1  0.611697  0.888303  0.500000  1
  Co  Co13  1  0.388303  0.111697  0.500000  1
  Os  Os14  1  0.750000  0.750000  0.000000  1
  Rh  Rh15  1  0.250000  0.250000  0.000000  1
