# generated using pymatgen
data_Sm(S8Cl)3
_symmetry_space_group_name_H-M   'P 1'
_cell_length_a   15.46099647
_cell_length_b   15.46099572
_cell_length_c   15.46099661
_cell_angle_alpha   119.23979974
_cell_angle_beta   119.23980461
_cell_angle_gamma   119.23979720
_symmetry_Int_Tables_number   1
_chemical_formula_structural   Sm(S8Cl)3
_chemical_formula_sum   'Sm1 S24 Cl3'
_cell_volume   835.52194162
_cell_formula_units_Z   1
loop_
 _symmetry_equiv_pos_site_id
 _symmetry_equiv_pos_as_xyz
  1  'x, y, z'
loop_
 _atom_site_type_symbol
 _atom_site_label
 _atom_site_symmetry_multiplicity
 _atom_site_fract_x
 _atom_site_fract_y
 _atom_site_fract_z
 _atom_site_occupancy
  Sm  Sm0  1  0.433457  0.433457  0.433457  1
  S  S1  1  0.009424  0.597159  0.597159  1
  S  S2  1  0.597159  0.597159  0.009424  1
  S  S3  1  0.597159  0.009424  0.597159  1
  S  S4  1  0.267113  0.867774  0.741825  1
  S  S5  1  0.867774  0.741825  0.267113  1
  S  S6  1  0.741825  0.267113  0.867774  1
  S  S7  1  0.867774  0.267113  0.741825  1
  S  S8  1  0.267113  0.741825  0.867774  1
  S  S9  1  0.741825  0.867774  0.267113  1
  S  S10  1  0.084058  0.602782  0.425717  1
  S  S11  1  0.602782  0.425717  0.084058  1
  S  S12  1  0.425717  0.084058  0.602782  1
  S  S13  1  0.602782  0.084058  0.425717  1
  S  S14  1  0.084058  0.425717  0.602782  1
  S  S15  1  0.425717  0.602782  0.084058  1
  S  S16  1  0.381820  0.763398  0.635857  1
  S  S17  1  0.763398  0.635857  0.381820  1
  S  S18  1  0.635857  0.381820  0.763398  1
  S  S19  1  0.763398  0.381820  0.635857  1
  S  S20  1  0.381820  0.635857  0.763398  1
  S  S21  1  0.635857  0.763398  0.381820  1
  S  S22  1  0.174168  0.447691  0.447691  1
  S  S23  1  0.447691  0.447691  0.174168  1
  S  S24  1  0.447691  0.174168  0.447691  1
  Cl  Cl25  1  0.017571  0.891047  0.891047  1
  Cl  Cl26  1  0.891047  0.891047  0.017571  1
  Cl  Cl27  1  0.891047  0.017571  0.891047  1
