# generated using pymatgen
data_Hf3Sc4URu8
_symmetry_space_group_name_H-M   'P 1'
_cell_length_a   6.47705000
_cell_length_b   6.47500901
_cell_length_c   6.50907500
_cell_angle_alpha   89.99745809
_cell_angle_beta   90.00013234
_cell_angle_gamma   89.99511619
_symmetry_Int_Tables_number   1
_chemical_formula_structural   Hf3Sc4URu8
_chemical_formula_sum   'Hf3 Sc4 U1 Ru8'
_cell_volume   272.98381619
_cell_formula_units_Z   1
loop_
 _symmetry_equiv_pos_site_id
 _symmetry_equiv_pos_as_xyz
  1  'x, y, z'
loop_
 _atom_site_type_symbol
 _atom_site_label
 _atom_site_symmetry_multiplicity
 _atom_site_fract_x
 _atom_site_fract_y
 _atom_site_fract_z
 _atom_site_occupancy
  Hf  Hf0  1  0.250044  0.750004  0.999988  1
  Hf  Hf1  1  0.249940  0.750000  0.499988  1
  Hf  Hf2  1  0.750058  0.249997  0.500020  1
  Sc  Sc3  1  0.750107  0.749992  0.000520  1
  Sc  Sc4  1  0.250048  0.250004  0.499493  1
  Sc  Sc5  1  0.749943  0.749992  0.500489  1
  Sc  Sc6  1  0.249889  0.250001  0.999482  1
  U  U7  1  0.749975  0.250001  0.000011  1
  Ru  Ru8  1  0.502656  0.497306  0.247677  1
  Ru  Ru9  1  0.502657  0.002671  0.247685  1
  Ru  Ru10  1  0.997365  0.497334  0.247715  1
  Ru  Ru11  1  0.997347  0.002682  0.247717  1
  Ru  Ru12  1  0.997341  0.497323  0.752286  1
  Ru  Ru13  1  0.997345  0.002673  0.752284  1
  Ru  Ru14  1  0.502639  0.497343  0.752317  1
  Ru  Ru15  1  0.502651  0.002671  0.752328  1
