# generated using pymatgen
data_K6ErMoF12
_symmetry_space_group_name_H-M   'P 1'
_cell_length_a   6.44829802
_cell_length_b   6.22556213
_cell_length_c   10.82487200
_cell_angle_alpha   55.40486927
_cell_angle_beta   90.00420280
_cell_angle_gamma   89.99811590
_symmetry_Int_Tables_number   1
_chemical_formula_structural   K6ErMoF12
_chemical_formula_sum   'K6 Er1 Mo1 F12'
_cell_volume   357.72038457
_cell_formula_units_Z   1
loop_
 _symmetry_equiv_pos_site_id
 _symmetry_equiv_pos_as_xyz
  1  'x, y, z'
loop_
 _atom_site_type_symbol
 _atom_site_label
 _atom_site_symmetry_multiplicity
 _atom_site_fract_x
 _atom_site_fract_y
 _atom_site_fract_z
 _atom_site_occupancy
  K  K0  1  0.500000  0.500000  0.000000  1
  K  K1  1  0.000000  0.500000  0.500000  1
  K  K2  1  0.052364  0.732932  0.753046  1
  K  K3  1  0.947636  0.267068  0.246954  1
  K  K4  1  0.551636  0.269556  0.745005  1
  K  K5  1  0.448364  0.730444  0.254995  1
  Er  Er6  1  0.000000  0.000000  0.000000  1
  Mo  Mo7  1  0.500000  0.000000  0.500000  1
  F  F8  1  0.769383  0.767616  0.567756  1
  F  F9  1  0.230617  0.232384  0.432244  1
  F  F10  1  0.275600  0.237187  0.930772  1
  F  F11  1  0.724400  0.762813  0.069228  1
  F  F12  1  0.444950  0.889599  0.720500  1
  F  F13  1  0.555050  0.110401  0.279500  1
  F  F14  1  0.943922  0.113050  0.774397  1
  F  F15  1  0.056078  0.886950  0.225603  1
  F  F16  1  0.326801  0.674114  0.549496  1
  F  F17  1  0.673199  0.325886  0.450504  1
  F  F18  1  0.823586  0.332829  0.949761  1
  F  F19  1  0.176414  0.667171  0.050239  1
