# generated using pymatgen
data_Lu5Ru2C7
_symmetry_space_group_name_H-M   'P 1'
_cell_length_a   8.00188146
_cell_length_b   8.00188182
_cell_length_c   3.43281400
_cell_angle_alpha   90.00000000
_cell_angle_beta   90.00000000
_cell_angle_gamma   121.09507381
_symmetry_Int_Tables_number   1
_chemical_formula_structural   Lu5Ru2C7
_chemical_formula_sum   'Lu5 Ru2 C7'
_cell_volume   188.22022646
_cell_formula_units_Z   1
loop_
 _symmetry_equiv_pos_site_id
 _symmetry_equiv_pos_as_xyz
  1  'x, y, z'
loop_
 _atom_site_type_symbol
 _atom_site_label
 _atom_site_symmetry_multiplicity
 _atom_site_fract_x
 _atom_site_fract_y
 _atom_site_fract_z
 _atom_site_occupancy
  Lu  Lu0  1  0.340418  0.079829  0.500000  1
  Lu  Lu1  1  0.659582  0.920171  0.500000  1
  Lu  Lu2  1  0.079829  0.340418  0.500000  1
  Lu  Lu3  1  0.920171  0.659582  0.500000  1
  Lu  Lu4  1  0.500000  0.500000  0.000000  1
  Ru  Ru5  1  0.286426  0.713574  0.000000  1
  Ru  Ru6  1  0.713574  0.286426  0.000000  1
  C  C7  1  0.173030  0.173030  0.000000  1
  C  C8  1  0.826970  0.826970  0.000000  1
  C  C9  1  0.000000  0.000000  0.000000  1
  C  C10  1  0.373979  0.626021  0.500000  1
  C  C11  1  0.626021  0.373979  0.500000  1
  C  C12  1  0.500000  0.000000  0.000000  1
  C  C13  1  0.000000  0.500000  0.000000  1
