# generated using pymatgen
data_Tm9Sc(In2Bi)2
_symmetry_space_group_name_H-M   'P 1'
_cell_length_a   6.50008753
_cell_length_b   8.88379540
_cell_length_c   8.84166997
_cell_angle_alpha   119.63583790
_cell_angle_beta   90.04576166
_cell_angle_gamma   89.96807809
_symmetry_Int_Tables_number   1
_chemical_formula_structural   Tm9Sc(In2Bi)2
_chemical_formula_sum   'Tm9 Sc1 In4 Bi2'
_cell_volume   443.77673581
_cell_formula_units_Z   1
loop_
 _symmetry_equiv_pos_site_id
 _symmetry_equiv_pos_as_xyz
  1  'x, y, z'
loop_
 _atom_site_type_symbol
 _atom_site_label
 _atom_site_symmetry_multiplicity
 _atom_site_fract_x
 _atom_site_fract_y
 _atom_site_fract_z
 _atom_site_occupancy
  Tm  Tm0  1  0.493530  0.671196  0.338410  1
  Tm  Tm1  1  0.007152  0.671819  0.339061  1
  Tm  Tm2  1  0.008337  0.328863  0.667309  1
  Tm  Tm3  1  0.748856  0.228218  0.990611  1
  Tm  Tm4  1  0.749419  0.771858  0.761869  1
  Tm  Tm5  1  0.749110  0.999765  0.237790  1
  Tm  Tm6  1  0.250624  0.765277  0.000552  1
  Tm  Tm7  1  0.250664  0.234212  0.235069  1
  Tm  Tm8  1  0.250900  0.000290  0.763705  1
  Sc  Sc9  1  0.491556  0.328116  0.666937  1
  In  In10  1  0.746477  0.003112  0.596487  1
  In  In11  1  0.253326  0.397200  0.000937  1
  In  In12  1  0.253041  0.599487  0.605521  1
  In  In13  1  0.253483  0.003010  0.400220  1
  Bi  Bi14  1  0.746551  0.601762  0.996703  1
  Bi  Bi15  1  0.746973  0.395814  0.398821  1
