# generated using pymatgen
data_Ho4Mn2OsRu5
_symmetry_space_group_name_H-M   'P 1'
_cell_length_a   5.31243400
_cell_length_b   5.18901415
_cell_length_c   8.89781800
_cell_angle_alpha   90.00000000
_cell_angle_beta   90.00000000
_cell_angle_gamma   120.29486901
_symmetry_Int_Tables_number   1
_chemical_formula_structural   Ho4Mn2OsRu5
_chemical_formula_sum   'Ho4 Mn2 Os1 Ru5'
_cell_volume   211.78463623
_cell_formula_units_Z   1
loop_
 _symmetry_equiv_pos_site_id
 _symmetry_equiv_pos_as_xyz
  1  'x, y, z'
loop_
 _atom_site_type_symbol
 _atom_site_label
 _atom_site_symmetry_multiplicity
 _atom_site_fract_x
 _atom_site_fract_y
 _atom_site_fract_z
 _atom_site_occupancy
  Ho  Ho0  1  0.668919  0.338156  0.564584  1
  Ho  Ho1  1  0.332518  0.667116  0.434651  1
  Ho  Ho2  1  0.332518  0.667116  0.065349  1
  Ho  Ho3  1  0.668919  0.338156  0.935416  1
  Mn  Mn4  1  0.166114  0.825861  0.750000  1
  Mn  Mn5  1  0.830563  0.661589  0.250000  1
  Os  Os6  1  0.165356  0.331489  0.750000  1
  Ru  Ru7  1  0.005527  0.005302  0.499789  1
  Ru  Ru8  1  0.005527  0.005302  0.000211  1
  Ru  Ru9  1  0.649566  0.820119  0.750000  1
  Ru  Ru10  1  0.828917  0.167979  0.250000  1
  Ru  Ru11  1  0.345555  0.171815  0.250000  1
