# generated using pymatgen
data_La(NbSe2)5
_symmetry_space_group_name_H-M   'P 1'
_cell_length_a   6.09541107
_cell_length_b   8.48997448
_cell_length_c   9.24349084
_cell_angle_alpha   116.85846766
_cell_angle_beta   96.56751759
_cell_angle_gamma   103.58001876
_symmetry_Int_Tables_number   1
_chemical_formula_structural   La(NbSe2)5
_chemical_formula_sum   'La1 Nb5 Se10'
_cell_volume   401.18894051
_cell_formula_units_Z   1
loop_
 _symmetry_equiv_pos_site_id
 _symmetry_equiv_pos_as_xyz
  1  'x, y, z'
loop_
 _atom_site_type_symbol
 _atom_site_label
 _atom_site_symmetry_multiplicity
 _atom_site_fract_x
 _atom_site_fract_y
 _atom_site_fract_z
 _atom_site_occupancy
  La  La0  1  0.667245  0.508489  0.994477  1
  Nb  Nb1  1  0.002891  0.995895  0.000863  1
  Nb  Nb2  1  0.598731  0.206806  0.202481  1
  Nb  Nb3  1  0.196272  0.398715  0.397739  1
  Nb  Nb4  1  0.798149  0.599125  0.603007  1
  Nb  Nb5  1  0.403580  0.795554  0.798123  1
  Se  Se6  1  0.238199  0.067002  0.289689  1
  Se  Se7  1  0.052331  0.662341  0.889578  1
  Se  Se8  1  0.834867  0.264838  0.486795  1
  Se  Se9  1  0.637181  0.877729  0.099566  1
  Se  Se10  1  0.425195  0.451812  0.677709  1
  Se  Se11  1  0.899318  0.543261  0.318195  1
  Se  Se12  1  0.698531  0.128783  0.908671  1
  Se  Se13  1  0.496253  0.732980  0.512367  1
  Se  Se14  1  0.285931  0.333599  0.108674  1
  Se  Se15  1  0.098127  0.930669  0.713668  1
