# generated using pymatgen
data_Tm5Ni(P2Ru3)6
_symmetry_space_group_name_H-M   'P 1'
_cell_length_a   12.44743700
_cell_length_b   12.44743668
_cell_length_c   3.95860000
_cell_angle_alpha   90.00000000
_cell_angle_beta   90.00000000
_cell_angle_gamma   120.00000350
_symmetry_Int_Tables_number   1
_chemical_formula_structural   Tm5Ni(P2Ru3)6
_chemical_formula_sum   'Tm5 Ni1 P12 Ru18'
_cell_volume   531.16823990
_cell_formula_units_Z   1
loop_
 _symmetry_equiv_pos_site_id
 _symmetry_equiv_pos_as_xyz
  1  'x, y, z'
loop_
 _atom_site_type_symbol
 _atom_site_label
 _atom_site_symmetry_multiplicity
 _atom_site_fract_x
 _atom_site_fract_y
 _atom_site_fract_z
 _atom_site_occupancy
  Tm  Tm0  1  0.666667  0.333333  0.000000  1
  Tm  Tm1  1  0.333333  0.666667  0.000000  1
  Tm  Tm2  1  0.185814  0.185814  0.500000  1
  Tm  Tm3  1  0.814186  0.000000  0.500000  1
  Tm  Tm4  1  0.000000  0.814186  0.500000  1
  Ni  Ni5  1  0.000000  0.000000  0.000000  1
  P  P6  1  0.372737  0.372737  0.000000  1
  P  P7  1  0.627263  0.000000  0.000000  1
  P  P8  1  0.000000  0.627263  0.000000  1
  P  P9  1  0.830356  0.306552  0.500000  1
  P  P10  1  0.693448  0.523805  0.500000  1
  P  P11  1  0.476195  0.169644  0.500000  1
  P  P12  1  0.306552  0.830356  0.500000  1
  P  P13  1  0.523805  0.693448  0.500000  1
  P  P14  1  0.169644  0.476195  0.500000  1
  P  P15  1  0.822646  0.822646  0.000000  1
  P  P16  1  0.177354  0.000000  0.000000  1
  P  P17  1  0.000000  0.177354  0.000000  1
  Ru  Ru18  1  0.815610  0.189463  0.000000  1
  Ru  Ru19  1  0.810537  0.626147  0.000000  1
  Ru  Ru20  1  0.373853  0.184390  0.000000  1
  Ru  Ru21  1  0.189463  0.815610  0.000000  1
  Ru  Ru22  1  0.626147  0.810537  0.000000  1
  Ru  Ru23  1  0.184390  0.373853  0.000000  1
  Ru  Ru24  1  0.556210  0.556210  0.000000  1
  Ru  Ru25  1  0.443790  0.000000  0.000000  1
  Ru  Ru26  1  0.000000  0.443790  0.000000  1
  Ru  Ru27  1  0.634741  0.127132  0.500000  1
  Ru  Ru28  1  0.872868  0.507609  0.500000  1
  Ru  Ru29  1  0.492391  0.365259  0.500000  1
  Ru  Ru30  1  0.127132  0.634741  0.500000  1
  Ru  Ru31  1  0.507609  0.872868  0.500000  1
  Ru  Ru32  1  0.365259  0.492391  0.500000  1
  Ru  Ru33  1  0.721734  0.721734  0.500000  1
  Ru  Ru34  1  0.278266  0.000000  0.500000  1
  Ru  Ru35  1  0.000000  0.278266  0.500000  1
