# generated using pymatgen
data_Ho12Co4RuPb
_symmetry_space_group_name_H-M   'P 1'
_cell_length_a   8.27178875
_cell_length_b   8.27183129
_cell_length_c   8.27178991
_cell_angle_alpha   111.27246995
_cell_angle_beta   110.67705373
_cell_angle_gamma   106.50464159
_symmetry_Int_Tables_number   1
_chemical_formula_structural   Ho12Co4RuPb
_chemical_formula_sum   'Ho12 Co4 Ru1 Pb1'
_cell_volume   434.80956930
_cell_formula_units_Z   1
loop_
 _symmetry_equiv_pos_site_id
 _symmetry_equiv_pos_as_xyz
  1  'x, y, z'
loop_
 _atom_site_type_symbol
 _atom_site_label
 _atom_site_symmetry_multiplicity
 _atom_site_fract_x
 _atom_site_fract_y
 _atom_site_fract_z
 _atom_site_occupancy
  Ho  Ho0  1  0.815758  0.713492  0.529253  1
  Ho  Ho1  1  0.184242  0.286508  0.470747  1
  Ho  Ho2  1  0.184240  0.713492  0.897734  1
  Ho  Ho3  1  0.815760  0.286508  0.102266  1
  Ho  Ho4  1  0.688349  0.381198  0.692848  1
  Ho  Ho5  1  0.311651  0.618802  0.307152  1
  Ho  Ho6  1  0.688354  0.995502  0.307148  1
  Ho  Ho7  1  0.311646  0.004498  0.692852  1
  Ho  Ho8  1  0.591917  0.786420  0.805492  1
  Ho  Ho9  1  0.408083  0.213580  0.194508  1
  Ho  Ho10  1  0.980928  0.786420  0.194503  1
  Ho  Ho11  1  0.019072  0.213580  0.805497  1
  Co  Co12  1  0.622072  0.000000  0.622072  1
  Co  Co13  1  0.377928  0.000000  0.377928  1
  Co  Co14  1  0.111409  0.611414  0.500005  1
  Co  Co15  1  0.888591  0.388586  0.499995  1
  Ru  Ru16  1  0.000000  0.000000  0.000000  1
  Pb  Pb17  1  0.500000  0.500000  0.000000  1
