# generated using pymatgen
data_Cs6InFeSe6
_symmetry_space_group_name_H-M   'P 1'
_cell_length_a   11.23179434
_cell_length_b   11.23179462
_cell_length_c   14.38636200
_cell_angle_alpha   90.00000000
_cell_angle_beta   90.00000000
_cell_angle_gamma   139.88109903
_symmetry_Int_Tables_number   1
_chemical_formula_structural   Cs6InFeSe6
_chemical_formula_sum   'Cs12 In2 Fe2 Se12'
_cell_volume   1169.46866449
_cell_formula_units_Z   2
loop_
 _symmetry_equiv_pos_site_id
 _symmetry_equiv_pos_as_xyz
  1  'x, y, z'
loop_
 _atom_site_type_symbol
 _atom_site_label
 _atom_site_symmetry_multiplicity
 _atom_site_fract_x
 _atom_site_fract_y
 _atom_site_fract_z
 _atom_site_occupancy
  Cs  Cs0  1  0.855179  0.853416  0.672118  1
  Cs  Cs1  1  0.146584  0.144821  0.327882  1
  Cs  Cs2  1  0.646584  0.644821  0.172118  1
  Cs  Cs3  1  0.355179  0.353416  0.827882  1
  Cs  Cs4  1  0.159134  0.518415  0.126292  1
  Cs  Cs5  1  0.481585  0.840866  0.873708  1
  Cs  Cs6  1  0.981585  0.340866  0.626292  1
  Cs  Cs7  1  0.659134  0.018415  0.373708  1
  Cs  Cs8  1  0.837743  0.486808  0.872299  1
  Cs  Cs9  1  0.513192  0.162257  0.127701  1
  Cs  Cs10  1  0.013192  0.662257  0.372299  1
  Cs  Cs11  1  0.337743  0.986808  0.627701  1
  In  In12  1  0.919211  0.080789  0.000000  1
  In  In13  1  0.419211  0.580789  0.500000  1
  Fe  Fe14  1  0.082087  0.917913  0.000000  1
  Fe  Fe15  1  0.582087  0.417913  0.500000  1
  Se  Se16  1  0.299273  0.285718  0.574361  1
  Se  Se17  1  0.714282  0.700727  0.425639  1
  Se  Se18  1  0.214282  0.200727  0.074361  1
  Se  Se19  1  0.799273  0.785718  0.925639  1
  Se  Se20  1  0.690171  0.991676  0.121783  1
  Se  Se21  1  0.008324  0.309829  0.878217  1
  Se  Se22  1  0.508324  0.809829  0.621783  1
  Se  Se23  1  0.190171  0.491676  0.378217  1
  Se  Se24  1  0.287833  0.994596  0.886134  1
  Se  Se25  1  0.005404  0.712167  0.113866  1
  Se  Se26  1  0.505404  0.212167  0.386134  1
  Se  Se27  1  0.787833  0.494596  0.613866  1
