# generated using pymatgen
data_Y3Er2Bi2Ir
_symmetry_space_group_name_H-M   'P 1'
_cell_length_a   7.96780400
_cell_length_b   8.98737900
_cell_length_c   12.55456800
_cell_angle_alpha   90.00000000
_cell_angle_beta   90.00000000
_cell_angle_gamma   90.00000000
_symmetry_Int_Tables_number   1
_chemical_formula_structural   Y3Er2Bi2Ir
_chemical_formula_sum   'Y12 Er8 Bi8 Ir4'
_cell_volume   899.02852603
_cell_formula_units_Z   4
loop_
 _symmetry_equiv_pos_site_id
 _symmetry_equiv_pos_as_xyz
  1  'x, y, z'
loop_
 _atom_site_type_symbol
 _atom_site_label
 _atom_site_symmetry_multiplicity
 _atom_site_fract_x
 _atom_site_fract_y
 _atom_site_fract_z
 _atom_site_occupancy
  Y  Y0  1  0.659859  0.750000  0.709524  1
  Y  Y1  1  0.340141  0.250000  0.290476  1
  Y  Y2  1  0.159859  0.250000  0.790476  1
  Y  Y3  1  0.840141  0.750000  0.209524  1
  Y  Y4  1  0.129825  0.750000  0.807599  1
  Y  Y5  1  0.870175  0.250000  0.192401  1
  Y  Y6  1  0.629825  0.250000  0.692401  1
  Y  Y7  1  0.370175  0.750000  0.307599  1
  Y  Y8  1  0.554758  0.750000  0.998805  1
  Y  Y9  1  0.445242  0.250000  0.001195  1
  Y  Y10  1  0.054758  0.250000  0.501195  1
  Y  Y11  1  0.945242  0.750000  0.498805  1
  Er  Er12  1  0.827958  0.458121  0.932794  1
  Er  Er13  1  0.172042  0.541879  0.067206  1
  Er  Er14  1  0.327958  0.541879  0.567206  1
  Er  Er15  1  0.172042  0.958121  0.067206  1
  Er  Er16  1  0.672042  0.458121  0.432794  1
  Er  Er17  1  0.827958  0.041879  0.932794  1
  Er  Er18  1  0.672042  0.041879  0.432794  1
  Er  Er19  1  0.327958  0.958121  0.567206  1
  Bi  Bi20  1  0.934247  0.007161  0.672199  1
  Bi  Bi21  1  0.065753  0.992839  0.327801  1
  Bi  Bi22  1  0.434247  0.992839  0.827801  1
  Bi  Bi23  1  0.065753  0.507161  0.327801  1
  Bi  Bi24  1  0.565753  0.007161  0.172199  1
  Bi  Bi25  1  0.934247  0.492839  0.672199  1
  Bi  Bi26  1  0.565753  0.492839  0.172199  1
  Bi  Bi27  1  0.434247  0.507161  0.827801  1
  Ir  Ir28  1  0.929601  0.750000  0.990926  1
  Ir  Ir29  1  0.070399  0.250000  0.009074  1
  Ir  Ir30  1  0.429601  0.250000  0.509074  1
  Ir  Ir31  1  0.570399  0.750000  0.490926  1
