# generated using pymatgen
data_Sc8Nb8Re3Si16Ru
_symmetry_space_group_name_H-M   'P 1'
_cell_length_a   6.60223343
_cell_length_b   6.85976305
_cell_length_c   12.94661455
_cell_angle_alpha   90.00527878
_cell_angle_beta   90.09440758
_cell_angle_gamma   89.95841760
_symmetry_Int_Tables_number   1
_chemical_formula_structural   Sc8Nb8Re3Si16Ru
_chemical_formula_sum   'Sc8 Nb8 Re3 Si16 Ru1'
_cell_volume   586.34807305
_cell_formula_units_Z   1
loop_
 _symmetry_equiv_pos_site_id
 _symmetry_equiv_pos_as_xyz
  1  'x, y, z'
loop_
 _atom_site_type_symbol
 _atom_site_label
 _atom_site_symmetry_multiplicity
 _atom_site_fract_x
 _atom_site_fract_y
 _atom_site_fract_z
 _atom_site_occupancy
  Sc  Sc0  1  0.495403  0.669984  0.590875  1
  Sc  Sc1  1  0.994234  0.828769  0.905667  1
  Sc  Sc2  1  0.500326  0.326363  0.091258  1
  Sc  Sc3  1  0.001141  0.173677  0.408508  1
  Sc  Sc4  1  0.499160  0.323740  0.407013  1
  Sc  Sc5  1  0.998068  0.174214  0.090777  1
  Sc  Sc6  1  0.494101  0.668604  0.909209  1
  Sc  Sc7  1  0.001501  0.822357  0.592385  1
  Nb  Nb8  1  0.177746  0.335274  0.873173  1
  Nb  Nb9  1  0.328814  0.833678  0.124428  1
  Nb  Nb10  1  0.825859  0.665313  0.379974  1
  Nb  Nb11  1  0.331379  0.837321  0.379387  1
  Nb  Nb12  1  0.828438  0.669104  0.125102  1
  Nb  Nb13  1  0.669105  0.170233  0.868972  1
  Nb  Nb14  1  0.175703  0.338411  0.625687  1
  Nb  Nb15  1  0.659331  0.996922  0.251266  1
  Re  Re16  1  0.839988  0.510622  0.746795  1
  Re  Re17  1  0.333664  0.987884  0.748565  1
  Re  Re18  1  0.157717  0.505862  0.251857  1
  Si  Si19  1  0.668846  0.967437  0.463973  1
  Si  Si20  1  0.167878  0.537960  0.040730  1
  Si  Si21  1  0.330658  0.033192  0.953271  1
  Si  Si22  1  0.828913  0.452988  0.548870  1
  Si  Si23  1  0.340148  0.035389  0.549798  1
  Si  Si24  1  0.835222  0.465668  0.954707  1
  Si  Si25  1  0.667447  0.966205  0.038487  1
  Si  Si26  1  0.170051  0.537266  0.458284  1
  Si  Si27  1  0.481383  0.384709  0.743427  1
  Si  Si28  1  0.970639  0.116057  0.747349  1
  Si  Si29  1  0.525011  0.611399  0.251617  1
  Si  Si30  1  0.034295  0.885607  0.251779  1
  Si  Si31  1  0.696918  0.855088  0.750182  1
  Si  Si32  1  0.203049  0.645831  0.751590  1
  Si  Si33  1  0.289817  0.149365  0.249666  1
  Si  Si34  1  0.798069  0.361159  0.250063  1
  Ru  Ru35  1  0.679979  0.156351  0.625309  1
