# generated using pymatgen
data_TcAsOF10
_symmetry_space_group_name_H-M   'P 1'
_cell_length_a   6.53132300
_cell_length_b   7.77829933
_cell_length_c   7.77719100
_cell_angle_alpha   87.63411519
_cell_angle_beta   90.00000000
_cell_angle_gamma   90.00000000
_symmetry_Int_Tables_number   1
_chemical_formula_structural   TcAsOF10
_chemical_formula_sum   'Tc2 As2 O2 F20'
_cell_volume   394.76461938
_cell_formula_units_Z   2
loop_
 _symmetry_equiv_pos_site_id
 _symmetry_equiv_pos_as_xyz
  1  'x, y, z'
loop_
 _atom_site_type_symbol
 _atom_site_label
 _atom_site_symmetry_multiplicity
 _atom_site_fract_x
 _atom_site_fract_y
 _atom_site_fract_z
 _atom_site_occupancy
  Tc  Tc0  1  0.010123  0.804720  0.194981  1
  Tc  Tc1  1  0.010123  0.195280  0.805019  1
  As  As2  1  0.514433  0.325276  0.322661  1
  As  As3  1  0.514433  0.674724  0.677339  1
  O  O4  1  0.019957  0.350182  0.650411  1
  O  O5  1  0.019957  0.649818  0.349589  1
  F  F6  1  0.302093  0.767252  0.571002  1
  F  F7  1  0.997476  0.006963  0.670268  1
  F  F8  1  0.996130  0.000000  0.000000  1
  F  F9  1  0.351181  0.464570  0.204732  1
  F  F10  1  0.021303  0.329028  0.994211  1
  F  F11  1  0.287012  0.157432  0.828665  1
  F  F12  1  0.502913  0.500000  0.500000  1
  F  F13  1  0.730577  0.815770  0.170252  1
  F  F14  1  0.997476  0.993037  0.329732  1
  F  F15  1  0.521739  0.172099  0.166770  1
  F  F16  1  0.726158  0.560523  0.760930  1
  F  F17  1  0.287012  0.842568  0.171335  1
  F  F18  1  0.677224  0.210837  0.465092  1
  F  F19  1  0.021303  0.670972  0.005789  1
  F  F20  1  0.730577  0.184230  0.829748  1
  F  F21  1  0.521739  0.827901  0.833230  1
  F  F22  1  0.677224  0.789163  0.534908  1
  F  F23  1  0.351181  0.535430  0.795268  1
  F  F24  1  0.726158  0.439477  0.239070  1
  F  F25  1  0.302093  0.232748  0.428998  1
