# generated using pymatgen
data_CeNd(SiRh2)2
_symmetry_space_group_name_H-M   'P 1'
_cell_length_a   9.25865612
_cell_length_b   9.25865596
_cell_length_c   4.12383500
_cell_angle_alpha   90.00000000
_cell_angle_beta   90.00000000
_cell_angle_gamma   154.85215337
_symmetry_Int_Tables_number   1
_chemical_formula_structural   CeNd(SiRh2)2
_chemical_formula_sum   'Ce1 Nd1 Si2 Rh4'
_cell_volume   150.22445385
_cell_formula_units_Z   1
loop_
 _symmetry_equiv_pos_site_id
 _symmetry_equiv_pos_as_xyz
  1  'x, y, z'
loop_
 _atom_site_type_symbol
 _atom_site_label
 _atom_site_symmetry_multiplicity
 _atom_site_fract_x
 _atom_site_fract_y
 _atom_site_fract_z
 _atom_site_occupancy
  Ce  Ce0  1  0.902202  0.097798  0.250000  1
  Nd  Nd1  1  0.100467  0.899533  0.750000  1
  Si  Si2  1  0.320571  0.679429  0.750000  1
  Si  Si3  1  0.678701  0.321299  0.250000  1
  Rh  Rh4  1  0.546506  0.453494  0.250000  1
  Rh  Rh5  1  0.451205  0.548795  0.750000  1
  Rh  Rh6  1  0.250258  0.749742  0.250000  1
  Rh  Rh7  1  0.750091  0.249909  0.750000  1
