# generated using pymatgen
data_Dy4Zn2Ru5W
_symmetry_space_group_name_H-M   'P 1'
_cell_length_a   5.54928850
_cell_length_b   5.18807815
_cell_length_c   8.94425900
_cell_angle_alpha   90.00000000
_cell_angle_beta   90.00000000
_cell_angle_gamma   121.09880019
_symmetry_Int_Tables_number   1
_chemical_formula_structural   Dy4Zn2Ru5W
_chemical_formula_sum   'Dy4 Zn2 Ru5 W1'
_cell_volume   220.49711708
_cell_formula_units_Z   1
loop_
 _symmetry_equiv_pos_site_id
 _symmetry_equiv_pos_as_xyz
  1  'x, y, z'
loop_
 _atom_site_type_symbol
 _atom_site_label
 _atom_site_symmetry_multiplicity
 _atom_site_fract_x
 _atom_site_fract_y
 _atom_site_fract_z
 _atom_site_occupancy
  Dy  Dy0  1  0.675757  0.346490  0.565404  1
  Dy  Dy1  1  0.338114  0.670194  0.440033  1
  Dy  Dy2  1  0.338114  0.670194  0.059967  1
  Dy  Dy3  1  0.675757  0.346490  0.934596  1
  Zn  Zn4  1  0.815984  0.654683  0.250000  1
  Zn  Zn5  1  0.820885  0.162736  0.250000  1
  Ru  Ru6  1  0.023815  0.025649  0.497131  1
  Ru  Ru7  1  0.023815  0.025649  0.002869  1
  Ru  Ru8  1  0.169184  0.817194  0.750000  1
  Ru  Ru9  1  0.644981  0.814522  0.750000  1
  Ru  Ru10  1  0.320176  0.154160  0.250000  1
  W  W11  1  0.153419  0.312039  0.750000  1
