# generated using pymatgen
data_Sr2ReNi3P4
_symmetry_space_group_name_H-M   'P 1'
_cell_length_a   5.44504200
_cell_length_b   6.69273230
_cell_length_c   5.45140700
_cell_angle_alpha   65.84099141
_cell_angle_beta   89.99774817
_cell_angle_gamma   89.99900135
_symmetry_Int_Tables_number   1
_chemical_formula_structural   Sr2ReNi3P4
_chemical_formula_sum   'Sr2 Re1 Ni3 P4'
_cell_volume   181.26119314
_cell_formula_units_Z   1
loop_
 _symmetry_equiv_pos_site_id
 _symmetry_equiv_pos_as_xyz
  1  'x, y, z'
loop_
 _atom_site_type_symbol
 _atom_site_label
 _atom_site_symmetry_multiplicity
 _atom_site_fract_x
 _atom_site_fract_y
 _atom_site_fract_z
 _atom_site_occupancy
  Sr  Sr0  1  0.996430  0.000016  0.999997  1
  Sr  Sr1  1  0.503051  0.000007  0.500013  1
  Re  Re2  1  0.250431  0.500080  0.499956  1
  Ni  Ni3  1  0.249884  0.499414  0.000239  1
  Ni  Ni4  1  0.750056  0.499514  0.000294  1
  Ni  Ni5  1  0.749926  0.500887  0.499575  1
  P  P6  1  0.501277  0.705538  0.143375  1
  P  P7  1  0.998856  0.704931  0.650023  1
  P  P8  1  0.998600  0.295125  0.350519  1
  P  P9  1  0.501491  0.294485  0.856014  1
