# generated using pymatgen
data_TbDyNi2Ag
_symmetry_space_group_name_H-M   'P 1'
_cell_length_a   7.27670690
_cell_length_b   7.27670832
_cell_length_c   3.66748900
_cell_angle_alpha   90.00000000
_cell_angle_beta   90.00000000
_cell_angle_gamma   149.46925901
_symmetry_Int_Tables_number   1
_chemical_formula_structural   TbDyNi2Ag
_chemical_formula_sum   'Tb1 Dy1 Ni2 Ag1'
_cell_volume   98.65131490
_cell_formula_units_Z   1
loop_
 _symmetry_equiv_pos_site_id
 _symmetry_equiv_pos_as_xyz
  1  'x, y, z'
loop_
 _atom_site_type_symbol
 _atom_site_label
 _atom_site_symmetry_multiplicity
 _atom_site_fract_x
 _atom_site_fract_y
 _atom_site_fract_z
 _atom_site_occupancy
  Tb  Tb0  1  0.366065  0.633935  0.500000  1
  Dy  Dy1  1  0.634437  0.365563  0.500000  1
  Ni  Ni2  1  0.800925  0.199075  0.000000  1
  Ni  Ni3  1  0.198164  0.801836  0.000000  1
  Ag  Ag4  1  0.000408  0.999592  0.000000  1
