# generated using pymatgen
data_DyAl6ZnCu5
_symmetry_space_group_name_H-M   'P 1'
_cell_length_a   5.18550059
_cell_length_b   6.65765612
_cell_length_c   6.65765620
_cell_angle_alpha   99.26990571
_cell_angle_beta   112.91959126
_cell_angle_gamma   67.08040731
_symmetry_Int_Tables_number   1
_chemical_formula_structural   DyAl6ZnCu5
_chemical_formula_sum   'Dy1 Al6 Zn1 Cu5'
_cell_volume   194.97332419
_cell_formula_units_Z   1
loop_
 _symmetry_equiv_pos_site_id
 _symmetry_equiv_pos_as_xyz
  1  'x, y, z'
loop_
 _atom_site_type_symbol
 _atom_site_label
 _atom_site_symmetry_multiplicity
 _atom_site_fract_x
 _atom_site_fract_y
 _atom_site_fract_z
 _atom_site_occupancy
  Dy  Dy0  1  0.000000  0.000912  0.000912  1
  Al  Al1  1  0.652341  0.342439  0.647121  1
  Al  Al2  1  0.347659  0.647121  0.342439  1
  Al  Al3  1  0.000000  0.345766  0.345766  1
  Al  Al4  1  0.000000  0.651796  0.651796  1
  Al  Al5  1  0.708647  0.795587  0.212881  1
  Al  Al6  1  0.291353  0.212881  0.795587  1
  Zn  Zn7  1  0.500000  0.774093  0.774093  1
  Cu  Cu8  1  0.499190  0.000185  0.501035  1
  Cu  Cu9  1  0.001660  0.000185  0.501035  1
  Cu  Cu10  1  0.500810  0.501035  0.000185  1
  Cu  Cu11  1  0.998340  0.501035  0.000185  1
  Cu  Cu12  1  0.500000  0.226965  0.226965  1
