# generated using pymatgen
data_YbLu3Mn3CrB16
_symmetry_space_group_name_H-M   'P 1'
_cell_length_a   3.36310500
_cell_length_b   5.86888567
_cell_length_c   11.34507100
_cell_angle_alpha   90.04459622
_cell_angle_beta   90.00000000
_cell_angle_gamma   90.00000000
_symmetry_Int_Tables_number   1
_chemical_formula_structural   YbLu3Mn3CrB16
_chemical_formula_sum   'Yb1 Lu3 Mn3 Cr1 B16'
_cell_volume   223.92529906
_cell_formula_units_Z   1
loop_
 _symmetry_equiv_pos_site_id
 _symmetry_equiv_pos_as_xyz
  1  'x, y, z'
loop_
 _atom_site_type_symbol
 _atom_site_label
 _atom_site_symmetry_multiplicity
 _atom_site_fract_x
 _atom_site_fract_y
 _atom_site_fract_z
 _atom_site_occupancy
  Yb  Yb0  1  0.500000  0.874243  0.349025  1
  Lu  Lu1  1  0.500000  0.372787  0.150392  1
  Lu  Lu2  1  0.500000  0.626733  0.849775  1
  Lu  Lu3  1  0.500000  0.124972  0.650776  1
  Mn  Mn4  1  0.500000  0.622926  0.582591  1
  Mn  Mn5  1  0.500000  0.128212  0.915408  1
  Mn  Mn6  1  0.500000  0.871244  0.081846  1
  Cr  Cr7  1  0.500000  0.375441  0.419844  1
  B  B8  1  0.000000  0.113545  0.046314  1
  B  B9  1  0.000000  0.887223  0.952142  1
  B  B10  1  0.000000  0.387430  0.548840  1
  B  B11  1  0.000000  0.615065  0.454622  1
  B  B12  1  0.000000  0.136211  0.468551  1
  B  B13  1  0.000000  0.863122  0.534044  1
  B  B14  1  0.000000  0.363264  0.967537  1
  B  B15  1  0.000000  0.636482  0.031318  1
  B  B16  1  0.000000  0.025257  0.190899  1
  B  B17  1  0.000000  0.975085  0.807605  1
  B  B18  1  0.000000  0.476535  0.692720  1
  B  B19  1  0.000000  0.523459  0.307897  1
  B  B20  1  0.000000  0.217721  0.315134  1
  B  B21  1  0.000000  0.782240  0.683976  1
  B  B22  1  0.000000  0.282508  0.815416  1
  B  B23  1  0.000000  0.718294  0.183332  1
