# generated using pymatgen
data_Er4ThAl2Ru3
_symmetry_space_group_name_H-M   'P 1'
_cell_length_a   8.36570847
_cell_length_b   8.35187248
_cell_length_c   8.33991103
_cell_angle_alpha   109.74946628
_cell_angle_beta   109.66755438
_cell_angle_gamma   109.41717895
_symmetry_Int_Tables_number   1
_chemical_formula_structural   Er4ThAl2Ru3
_chemical_formula_sum   'Er8 Th2 Al4 Ru6'
_cell_volume   446.21946350
_cell_formula_units_Z   2
loop_
 _symmetry_equiv_pos_site_id
 _symmetry_equiv_pos_as_xyz
  1  'x, y, z'
loop_
 _atom_site_type_symbol
 _atom_site_label
 _atom_site_symmetry_multiplicity
 _atom_site_fract_x
 _atom_site_fract_y
 _atom_site_fract_z
 _atom_site_occupancy
  Er  Er0  1  0.780978  0.784017  0.778862  1
  Er  Er1  1  0.318701  0.568421  0.752447  1
  Er  Er2  1  0.749757  0.318254  0.569614  1
  Er  Er3  1  0.569216  0.747763  0.315645  1
  Er  Er4  1  0.714258  0.500993  0.997171  1
  Er  Er5  1  0.998884  0.718174  0.505316  1
  Er  Er6  1  0.499553  0.993604  0.714508  1
  Er  Er7  1  0.253094  0.185072  0.930794  1
  Th  Th8  1  0.940002  0.252329  0.192117  1
  Th  Th9  1  0.190997  0.937530  0.250815  1
  Al  Al10  1  0.418434  0.414494  0.412034  1
  Al  Al11  1  0.092915  0.493114  0.993693  1
  Al  Al12  1  0.997330  0.092171  0.506122  1
  Al  Al13  1  0.499364  0.004550  0.091308  1
  Ru  Ru14  1  0.869469  0.119293  0.747196  1
  Ru  Ru15  1  0.752226  0.887736  0.122491  1
  Ru  Ru16  1  0.124561  0.754305  0.889701  1
  Ru  Ru17  1  0.237318  0.611486  0.368573  1
  Ru  Ru18  1  0.364847  0.236015  0.611003  1
  Ru  Ru19  1  0.628097  0.380679  0.250590  1
