# generated using pymatgen
data_Tb3LuPt4F28
_symmetry_space_group_name_H-M   'P 1'
_cell_length_a   5.54486865
_cell_length_b   8.87343367
_cell_length_c   11.98198238
_cell_angle_alpha   62.51856444
_cell_angle_beta   90.08762072
_cell_angle_gamma   89.99810630
_symmetry_Int_Tables_number   1
_chemical_formula_structural   Tb3LuPt4F28
_chemical_formula_sum   'Tb3 Lu1 Pt4 F28'
_cell_volume   523.01378459
_cell_formula_units_Z   1
loop_
 _symmetry_equiv_pos_site_id
 _symmetry_equiv_pos_as_xyz
  1  'x, y, z'
loop_
 _atom_site_type_symbol
 _atom_site_label
 _atom_site_symmetry_multiplicity
 _atom_site_fract_x
 _atom_site_fract_y
 _atom_site_fract_z
 _atom_site_occupancy
  Tb  Tb0  1  0.739172  0.187092  0.735264  1
  Tb  Tb1  1  0.760254  0.184170  0.235409  1
  Tb  Tb2  1  0.238794  0.812587  0.764408  1
  Lu  Lu3  1  0.262419  0.813412  0.264185  1
  Pt  Pt4  1  0.760701  0.728468  0.046003  1
  Pt  Pt5  1  0.242502  0.270755  0.957978  1
  Pt  Pt6  1  0.258152  0.275355  0.455444  1
  Pt  Pt7  1  0.740467  0.727660  0.540524  1
  F  F8  1  0.938398  0.701739  0.414287  1
  F  F9  1  0.064855  0.299054  0.583893  1
  F  F10  1  0.435175  0.297280  0.085538  1
  F  F11  1  0.562500  0.702662  0.919639  1
  F  F12  1  0.469603  0.726611  0.141061  1
  F  F13  1  0.537518  0.275379  0.865804  1
  F  F14  1  0.963938  0.275489  0.363858  1
  F  F15  1  0.033291  0.723925  0.634374  1
  F  F16  1  0.956335  0.748318  0.176658  1
  F  F17  1  0.056517  0.253320  0.824368  1
  F  F18  1  0.445105  0.256491  0.322890  1
  F  F19  1  0.551309  0.745354  0.673351  1
  F  F20  1  0.775976  0.479255  0.143713  1
  F  F21  1  0.226205  0.519884  0.858768  1
  F  F22  1  0.271643  0.525393  0.356490  1
  F  F23  1  0.723209  0.479188  0.640353  1
  F  F24  1  0.939739  0.277185  0.041877  1
  F  F25  1  0.058636  0.721140  0.959108  1
  F  F26  1  0.438294  0.722560  0.453850  1
  F  F27  1  0.560393  0.281032  0.540272  1
  F  F28  1  0.746320  0.976715  0.448798  1
  F  F29  1  0.254887  0.026054  0.548619  1
  F  F30  1  0.247207  0.021317  0.051735  1
  F  F31  1  0.756165  0.977527  0.951604  1
  F  F32  1  0.576330  0.966205  0.233122  1
  F  F33  1  0.411608  0.031427  0.768207  1
  F  F34  1  0.085692  0.022279  0.267209  1
  F  F35  1  0.910691  0.967717  0.731337  1
