# generated using pymatgen
data_Sr2NiRh3O8
_symmetry_space_group_name_H-M   'P 1'
_cell_length_a   5.37148100
_cell_length_b   6.21010100
_cell_length_c   11.44846300
_cell_angle_alpha   90.00000000
_cell_angle_beta   90.00000000
_cell_angle_gamma   90.00000000
_symmetry_Int_Tables_number   1
_chemical_formula_structural   Sr2NiRh3O8
_chemical_formula_sum   'Sr4 Ni2 Rh6 O16'
_cell_volume   381.89141223
_cell_formula_units_Z   2
loop_
 _symmetry_equiv_pos_site_id
 _symmetry_equiv_pos_as_xyz
  1  'x, y, z'
loop_
 _atom_site_type_symbol
 _atom_site_label
 _atom_site_symmetry_multiplicity
 _atom_site_fract_x
 _atom_site_fract_y
 _atom_site_fract_z
 _atom_site_occupancy
  Sr  Sr0  1  0.148467  0.000000  0.500000  1
  Sr  Sr1  1  0.468228  0.000000  0.000000  1
  Sr  Sr2  1  0.527681  0.500000  0.500000  1
  Sr  Sr3  1  0.854885  0.500000  0.000000  1
  Ni  Ni4  1  0.504368  0.000000  0.739087  1
  Ni  Ni5  1  0.504368  0.000000  0.260913  1
  Rh  Rh6  1  0.999941  0.753137  0.751037  1
  Rh  Rh7  1  0.999941  0.753137  0.248963  1
  Rh  Rh8  1  0.498376  0.500000  0.756888  1
  Rh  Rh9  1  0.498376  0.500000  0.243112  1
  Rh  Rh10  1  0.999941  0.246863  0.248963  1
  Rh  Rh11  1  0.999941  0.246863  0.751037  1
  O  O12  1  0.165752  0.000000  0.161905  1
  O  O13  1  0.839014  0.000000  0.656447  1
  O  O14  1  0.839014  0.000000  0.343553  1
  O  O15  1  0.165752  0.000000  0.838095  1
  O  O16  1  0.668958  0.750251  0.152798  1
  O  O17  1  0.329983  0.742261  0.345549  1
  O  O18  1  0.329983  0.742261  0.654451  1
  O  O19  1  0.668958  0.750251  0.847202  1
  O  O20  1  0.162983  0.500000  0.159025  1
  O  O21  1  0.162983  0.500000  0.840975  1
  O  O22  1  0.832115  0.500000  0.332910  1
  O  O23  1  0.832115  0.500000  0.667090  1
  O  O24  1  0.668958  0.249749  0.152798  1
  O  O25  1  0.329983  0.257739  0.345549  1
  O  O26  1  0.329983  0.257739  0.654451  1
  O  O27  1  0.668958  0.249749  0.847202  1
