# generated using pymatgen
data_Lu7C3I6N
_symmetry_space_group_name_H-M   'P 1'
_cell_length_a   3.77978100
_cell_length_b   11.24322900
_cell_length_c   22.10928700
_cell_angle_alpha   90.00000000
_cell_angle_beta   90.00000000
_cell_angle_gamma   90.00000000
_symmetry_Int_Tables_number   1
_chemical_formula_structural   Lu7C3I6N
_chemical_formula_sum   'Lu14 C6 I12 N2'
_cell_volume   939.57711721
_cell_formula_units_Z   2
loop_
 _symmetry_equiv_pos_site_id
 _symmetry_equiv_pos_as_xyz
  1  'x, y, z'
loop_
 _atom_site_type_symbol
 _atom_site_label
 _atom_site_symmetry_multiplicity
 _atom_site_fract_x
 _atom_site_fract_y
 _atom_site_fract_z
 _atom_site_occupancy
  Lu  Lu0  1  0.500000  0.636058  0.968819  1
  Lu  Lu1  1  0.000000  0.700165  0.668845  1
  Lu  Lu2  1  0.500000  0.510416  0.750000  1
  Lu  Lu3  1  0.000000  0.443466  0.606636  1
  Lu  Lu4  1  0.000000  0.299835  0.168845  1
  Lu  Lu5  1  0.500000  0.489584  0.250000  1
  Lu  Lu6  1  0.500000  0.363942  0.468819  1
  Lu  Lu7  1  0.000000  0.443466  0.893364  1
  Lu  Lu8  1  0.000000  0.556534  0.106636  1
  Lu  Lu9  1  0.000000  0.700165  0.831155  1
  Lu  Lu10  1  0.500000  0.636058  0.531181  1
  Lu  Lu11  1  0.500000  0.363942  0.031181  1
  Lu  Lu12  1  0.000000  0.299835  0.331155  1
  Lu  Lu13  1  0.000000  0.556534  0.393364  1
  C  C14  1  0.500000  0.424922  0.133032  1
  C  C15  1  0.500000  0.575078  0.633032  1
  C  C16  1  0.000000  0.500000  0.000000  1
  C  C17  1  0.500000  0.575078  0.866968  1
  C  C18  1  0.000000  0.500000  0.500000  1
  C  C19  1  0.500000  0.424922  0.366968  1
  I  I20  1  0.500000  0.120213  0.250000  1
  I  I21  1  0.000000  0.702696  0.250000  1
  I  I22  1  0.000000  0.144774  0.057624  1
  I  I23  1  0.500000  0.230883  0.906562  1
  I  I24  1  0.500000  0.769117  0.406562  1
  I  I25  1  0.000000  0.855226  0.942376  1
  I  I26  1  0.000000  0.144774  0.442376  1
  I  I27  1  0.500000  0.769117  0.093438  1
  I  I28  1  0.000000  0.855226  0.557624  1
  I  I29  1  0.000000  0.297304  0.750000  1
  I  I30  1  0.500000  0.230883  0.593438  1
  I  I31  1  0.500000  0.879787  0.750000  1
  N  N32  1  0.000000  0.604622  0.750000  1
  N  N33  1  0.000000  0.395378  0.250000  1
