# generated using pymatgen
data_Sc11TlOs3
_symmetry_space_group_name_H-M   'P 1'
_cell_length_a   9.51629736
_cell_length_b   9.71102164
_cell_length_c   9.71102030
_cell_angle_alpha   58.67776217
_cell_angle_beta   60.66112344
_cell_angle_gamma   60.66112602
_symmetry_Int_Tables_number   1
_chemical_formula_structural   Sc11TlOs3
_chemical_formula_sum   'Sc22 Tl2 Os6'
_cell_volume   634.07450006
_cell_formula_units_Z   2
loop_
 _symmetry_equiv_pos_site_id
 _symmetry_equiv_pos_as_xyz
  1  'x, y, z'
loop_
 _atom_site_type_symbol
 _atom_site_label
 _atom_site_symmetry_multiplicity
 _atom_site_fract_x
 _atom_site_fract_y
 _atom_site_fract_z
 _atom_site_occupancy
  Sc  Sc0  1  0.862411  0.833144  0.833144  1
  Sc  Sc1  1  0.528698  0.166856  0.166856  1
  Sc  Sc2  1  0.166856  0.137589  0.528698  1
  Sc  Sc3  1  0.166856  0.528698  0.137589  1
  Sc  Sc4  1  0.833144  0.862411  0.471302  1
  Sc  Sc5  1  0.833144  0.471302  0.862411  1
  Sc  Sc6  1  0.471302  0.833144  0.833144  1
  Sc  Sc7  1  0.137589  0.166856  0.166856  1
  Sc  Sc8  1  0.196320  0.803680  0.196320  1
  Sc  Sc9  1  0.196445  0.803555  0.803555  1
  Sc  Sc10  1  0.803555  0.196445  0.196445  1
  Sc  Sc11  1  0.803680  0.803680  0.196320  1
  Sc  Sc12  1  0.196320  0.196320  0.803680  1
  Sc  Sc13  1  0.803680  0.196320  0.803680  1
  Sc  Sc14  1  0.395283  0.378732  0.378732  1
  Sc  Sc15  1  0.152749  0.621268  0.621268  1
  Sc  Sc16  1  0.621268  0.152749  0.604717  1
  Sc  Sc17  1  0.621268  0.604717  0.152749  1
  Sc  Sc18  1  0.378732  0.847251  0.395283  1
  Sc  Sc19  1  0.378732  0.395283  0.847251  1
  Sc  Sc20  1  0.847251  0.378732  0.378732  1
  Sc  Sc21  1  0.604717  0.621268  0.621268  1
  Tl  Tl22  1  0.000000  0.500000  0.500000  1
  Tl  Tl23  1  0.500000  0.000000  0.000000  1
  Os  Os24  1  0.500000  0.500000  0.000000  1
  Os  Os25  1  0.000000  0.000000  0.500000  1
  Os  Os26  1  0.500000  0.000000  0.500000  1
  Os  Os27  1  0.000000  0.500000  0.000000  1
  Os  Os28  1  0.500000  0.500000  0.500000  1
  Os  Os29  1  0.000000  0.000000  0.000000  1
