# generated using pymatgen
data_YbYTiIr3
_symmetry_space_group_name_H-M   'P 1'
_cell_length_a   5.17855653
_cell_length_b   5.17855620
_cell_length_c   5.17855692
_cell_angle_alpha   65.64982732
_cell_angle_beta   65.64983536
_cell_angle_gamma   65.64982339
_symmetry_Int_Tables_number   1
_chemical_formula_structural   YbYTiIr3
_chemical_formula_sum   'Yb1 Y1 Ti1 Ir3'
_cell_volume   110.24516360
_cell_formula_units_Z   1
loop_
 _symmetry_equiv_pos_site_id
 _symmetry_equiv_pos_as_xyz
  1  'x, y, z'
loop_
 _atom_site_type_symbol
 _atom_site_label
 _atom_site_symmetry_multiplicity
 _atom_site_fract_x
 _atom_site_fract_y
 _atom_site_fract_z
 _atom_site_occupancy
  Yb  Yb0  1  0.999592  0.999592  0.999592  1
  Y  Y1  1  0.249902  0.249902  0.249902  1
  Ti  Ti2  1  0.623775  0.623775  0.623775  1
  Ir  Ir3  1  0.626695  0.626695  0.123341  1
  Ir  Ir4  1  0.626695  0.123341  0.626695  1
  Ir  Ir5  1  0.123341  0.626695  0.626695  1
