# generated using pymatgen
data_Hf18Ta6ReNi2Ru
_symmetry_space_group_name_H-M   'P 1'
_cell_length_a   8.78660500
_cell_length_b   8.78660599
_cell_length_c   8.46679100
_cell_angle_alpha   90.00000000
_cell_angle_beta   90.00000000
_cell_angle_gamma   120.00000003
_symmetry_Int_Tables_number   1
_chemical_formula_structural   Hf18Ta6ReNi2Ru
_chemical_formula_sum   'Hf18 Ta6 Re1 Ni2 Ru1'
_cell_volume   566.09813816
_cell_formula_units_Z   1
loop_
 _symmetry_equiv_pos_site_id
 _symmetry_equiv_pos_as_xyz
  1  'x, y, z'
loop_
 _atom_site_type_symbol
 _atom_site_label
 _atom_site_symmetry_multiplicity
 _atom_site_fract_x
 _atom_site_fract_y
 _atom_site_fract_z
 _atom_site_occupancy
  Hf  Hf0  1  0.200344  0.799656  0.440824  1
  Hf  Hf1  1  0.200344  0.400686  0.440824  1
  Hf  Hf2  1  0.599314  0.799656  0.440824  1
  Hf  Hf3  1  0.799656  0.200344  0.559176  1
  Hf  Hf4  1  0.799656  0.599314  0.559176  1
  Hf  Hf5  1  0.400686  0.200344  0.559176  1
  Hf  Hf6  1  0.799924  0.200076  0.941349  1
  Hf  Hf7  1  0.799924  0.599849  0.941349  1
  Hf  Hf8  1  0.400151  0.200076  0.941349  1
  Hf  Hf9  1  0.200076  0.799924  0.058651  1
  Hf  Hf10  1  0.200076  0.400151  0.058651  1
  Hf  Hf11  1  0.599849  0.799924  0.058651  1
  Hf  Hf12  1  0.541194  0.458806  0.250350  1
  Hf  Hf13  1  0.541194  0.082388  0.250350  1
  Hf  Hf14  1  0.917612  0.458806  0.250350  1
  Hf  Hf15  1  0.458806  0.541194  0.749650  1
  Hf  Hf16  1  0.458806  0.917612  0.749650  1
  Hf  Hf17  1  0.082388  0.541194  0.749650  1
  Ta  Ta18  1  0.888254  0.111746  0.249849  1
  Ta  Ta19  1  0.888254  0.776506  0.249849  1
  Ta  Ta20  1  0.223494  0.111746  0.249849  1
  Ta  Ta21  1  0.111746  0.888254  0.750151  1
  Ta  Ta22  1  0.111746  0.223494  0.750151  1
  Ta  Ta23  1  0.776506  0.888254  0.750151  1
  Re  Re24  1  0.000000  0.000000  0.000000  1
  Ni  Ni25  1  0.333333  0.666667  0.251341  1
  Ni  Ni26  1  0.666667  0.333333  0.748659  1
  Ru  Ru27  1  0.000000  0.000000  0.500000  1
