# generated using pymatgen
data_Pr16Nd4Si15P
_symmetry_space_group_name_H-M   'P 1'
_cell_length_a   7.89513819
_cell_length_b   7.89865031
_cell_length_c   15.35671604
_cell_angle_alpha   89.87648696
_cell_angle_beta   89.86612764
_cell_angle_gamma   90.12531290
_symmetry_Int_Tables_number   1
_chemical_formula_structural   Pr16Nd4Si15P
_chemical_formula_sum   'Pr16 Nd4 Si15 P1'
_cell_volume   957.65204127
_cell_formula_units_Z   1
loop_
 _symmetry_equiv_pos_site_id
 _symmetry_equiv_pos_as_xyz
  1  'x, y, z'
loop_
 _atom_site_type_symbol
 _atom_site_label
 _atom_site_symmetry_multiplicity
 _atom_site_fract_x
 _atom_site_fract_y
 _atom_site_fract_z
 _atom_site_occupancy
  Pr  Pr0  1  0.380960  0.008725  0.444209  1
  Pr  Pr1  1  0.488024  0.879004  0.697246  1
  Pr  Pr2  1  0.511576  0.121842  0.196455  1
  Pr  Pr3  1  0.877709  0.488008  0.303003  1
  Pr  Pr4  1  0.123211  0.508710  0.802702  1
  Pr  Pr5  1  0.622763  0.988594  0.946267  1
  Pr  Pr6  1  0.010113  0.376809  0.554189  1
  Pr  Pr7  1  0.989144  0.620947  0.052946  1
  Pr  Pr8  1  0.128879  0.984089  0.875168  1
  Pr  Pr9  1  0.519452  0.627236  0.126008  1
  Pr  Pr10  1  0.476125  0.368375  0.627843  1
  Pr  Pr11  1  0.627291  0.518928  0.872572  1
  Pr  Pr12  1  0.371769  0.479607  0.374434  1
  Pr  Pr13  1  0.874085  0.019351  0.377294  1
  Pr  Pr14  1  0.981232  0.127245  0.123194  1
  Pr  Pr15  1  0.023071  0.878885  0.624182  1
  Nd  Nd16  1  0.311254  0.309899  0.999845  1
  Nd  Nd17  1  0.189187  0.808965  0.249952  1
  Nd  Nd18  1  0.807403  0.190843  0.750109  1
  Nd  Nd19  1  0.689700  0.689119  0.499623  1
  Si  Si20  1  0.330533  0.695307  0.952281  1
  Si  Si21  1  0.669063  0.305588  0.454536  1
  Si  Si22  1  0.695854  0.331750  0.046538  1
  Si  Si23  1  0.304518  0.668468  0.547968  1
  Si  Si24  1  0.805300  0.831593  0.203354  1
  Si  Si25  1  0.169277  0.194626  0.296041  1
  Si  Si26  1  0.833396  0.805150  0.796034  1
  Si  Si27  1  0.287349  0.920947  0.059511  1
  Si  Si28  1  0.578410  0.787049  0.309746  1
  Si  Si29  1  0.424669  0.211498  0.812109  1
  Si  Si30  1  0.788468  0.579682  0.688606  1
  Si  Si31  1  0.212095  0.422625  0.190000  1
  Si  Si32  1  0.709817  0.076542  0.560611  1
  Si  Si33  1  0.922923  0.288072  0.939612  1
  Si  Si34  1  0.077904  0.711386  0.440933  1
  P  P35  1  0.187475  0.174536  0.704879  1
