# generated using pymatgen
data_Dy3Mg2Si12Ir19
_symmetry_space_group_name_H-M   'P 1'
_cell_length_a   12.79884700
_cell_length_b   12.79123632
_cell_length_c   3.97818600
_cell_angle_alpha   90.00000000
_cell_angle_beta   90.00000000
_cell_angle_gamma   120.01968154
_symmetry_Int_Tables_number   1
_chemical_formula_structural   Dy3Mg2Si12Ir19
_chemical_formula_sum   'Dy3 Mg2 Si12 Ir19'
_cell_volume   563.91405769
_cell_formula_units_Z   1
loop_
 _symmetry_equiv_pos_site_id
 _symmetry_equiv_pos_as_xyz
  1  'x, y, z'
loop_
 _atom_site_type_symbol
 _atom_site_label
 _atom_site_symmetry_multiplicity
 _atom_site_fract_x
 _atom_site_fract_y
 _atom_site_fract_z
 _atom_site_occupancy
  Dy  Dy0  1  0.333506  0.667543  0.500000  1
  Dy  Dy1  1  0.665964  0.332457  0.500000  1
  Dy  Dy2  1  0.817860  0.000000  0.000000  1
  Mg  Mg3  1  0.999939  0.817840  0.000000  1
  Mg  Mg4  1  0.182099  0.182160  0.000000  1
  Si  Si5  1  0.999763  0.633241  0.500000  1
  Si  Si6  1  0.366523  0.366759  0.500000  1
  Si  Si7  1  0.632501  0.000000  0.500000  1
  Si  Si8  1  0.520998  0.687268  0.000000  1
  Si  Si9  1  0.311621  0.833785  0.000000  1
  Si  Si10  1  0.167749  0.479409  0.000000  1
  Si  Si11  1  0.477836  0.166215  0.000000  1
  Si  Si12  1  0.688339  0.520591  0.000000  1
  Si  Si13  1  0.833730  0.312732  0.000000  1
  Si  Si14  1  0.002195  0.180811  0.500000  1
  Si  Si15  1  0.821383  0.819189  0.500000  1
  Si  Si16  1  0.180812  0.000000  0.500000  1
  Ir  Ir17  1  0.511294  0.872507  0.000000  1
  Ir  Ir18  1  0.126388  0.638256  0.000000  1
  Ir  Ir19  1  0.360859  0.487787  0.000000  1
  Ir  Ir20  1  0.488132  0.361744  0.000000  1
  Ir  Ir21  1  0.873072  0.512213  0.000000  1
  Ir  Ir22  1  0.638787  0.127493  0.000000  1
  Ir  Ir23  1  0.997810  0.447097  0.500000  1
  Ir  Ir24  1  0.550713  0.552903  0.500000  1
  Ir  Ir25  1  0.448038  0.000000  0.500000  1
  Ir  Ir26  1  0.000523  0.280969  0.000000  1
  Ir  Ir27  1  0.719554  0.719031  0.000000  1
  Ir  Ir28  1  0.278153  0.000000  0.000000  1
  Ir  Ir29  1  0.624891  0.806851  0.500000  1
  Ir  Ir30  1  0.191292  0.815568  0.500000  1
  Ir  Ir31  1  0.183863  0.375344  0.500000  1
  Ir  Ir32  1  0.375723  0.184432  0.500000  1
  Ir  Ir33  1  0.808518  0.624656  0.500000  1
  Ir  Ir34  1  0.818039  0.193149  0.500000  1
  Ir  Ir35  1  0.001533  0.000000  0.500000  1
