# generated using pymatgen
data_Nd3ZnRh8
_symmetry_space_group_name_H-M   'P 1'
_cell_length_a   5.40161400
_cell_length_b   5.40161405
_cell_length_c   17.37024800
_cell_angle_alpha   90.00000000
_cell_angle_beta   90.00000000
_cell_angle_gamma   119.99999971
_symmetry_Int_Tables_number   1
_chemical_formula_structural   Nd3ZnRh8
_chemical_formula_sum   'Nd6 Zn2 Rh16'
_cell_volume   438.91836044
_cell_formula_units_Z   2
loop_
 _symmetry_equiv_pos_site_id
 _symmetry_equiv_pos_as_xyz
  1  'x, y, z'
loop_
 _atom_site_type_symbol
 _atom_site_label
 _atom_site_symmetry_multiplicity
 _atom_site_fract_x
 _atom_site_fract_y
 _atom_site_fract_z
 _atom_site_occupancy
  Nd  Nd0  1  0.333333  0.666667  0.541050  1
  Nd  Nd1  1  0.666667  0.333333  0.041050  1
  Nd  Nd2  1  0.666667  0.333333  0.458950  1
  Nd  Nd3  1  0.333333  0.666667  0.958950  1
  Nd  Nd4  1  0.333333  0.666667  0.750000  1
  Nd  Nd5  1  0.666667  0.333333  0.250000  1
  Zn  Zn6  1  0.000000  0.000000  0.250000  1
  Zn  Zn7  1  0.000000  0.000000  0.750000  1
  Rh  Rh8  1  0.167642  0.335283  0.126989  1
  Rh  Rh9  1  0.832358  0.664717  0.626989  1
  Rh  Rh10  1  0.664717  0.832358  0.126989  1
  Rh  Rh11  1  0.167642  0.832358  0.126989  1
  Rh  Rh12  1  0.832358  0.167642  0.626989  1
  Rh  Rh13  1  0.335283  0.167642  0.626989  1
  Rh  Rh14  1  0.832358  0.664717  0.873011  1
  Rh  Rh15  1  0.832358  0.167642  0.873011  1
  Rh  Rh16  1  0.335283  0.167642  0.873011  1
  Rh  Rh17  1  0.664717  0.832358  0.373011  1
  Rh  Rh18  1  0.167642  0.832358  0.373011  1
  Rh  Rh19  1  0.167642  0.335283  0.373011  1
  Rh  Rh20  1  0.333333  0.666667  0.250000  1
  Rh  Rh21  1  0.666667  0.333333  0.750000  1
  Rh  Rh22  1  0.000000  0.000000  0.000000  1
  Rh  Rh23  1  0.000000  0.000000  0.500000  1
