# generated using pymatgen
data_TiCr4Pd15
_symmetry_space_group_name_H-M   'P 1'
_cell_length_a   3.92736900
_cell_length_b   3.92736900
_cell_length_c   19.63771800
_cell_angle_alpha   90.00000000
_cell_angle_beta   90.00000000
_cell_angle_gamma   90.00000000
_symmetry_Int_Tables_number   1
_chemical_formula_structural   TiCr4Pd15
_chemical_formula_sum   'Ti1 Cr4 Pd15'
_cell_volume   302.89662534
_cell_formula_units_Z   1
loop_
 _symmetry_equiv_pos_site_id
 _symmetry_equiv_pos_as_xyz
  1  'x, y, z'
loop_
 _atom_site_type_symbol
 _atom_site_label
 _atom_site_symmetry_multiplicity
 _atom_site_fract_x
 _atom_site_fract_y
 _atom_site_fract_z
 _atom_site_occupancy
  Ti  Ti0  1  0.000000  0.000000  0.000000  1
  Cr  Cr1  1  0.000000  0.000000  0.201543  1
  Cr  Cr2  1  0.000000  0.000000  0.398732  1
  Cr  Cr3  1  0.000000  0.000000  0.601268  1
  Cr  Cr4  1  0.000000  0.000000  0.798457  1
  Pd  Pd5  1  0.500000  0.500000  0.000000  1
  Pd  Pd6  1  0.500000  0.500000  0.198637  1
  Pd  Pd7  1  0.500000  0.500000  0.399662  1
  Pd  Pd8  1  0.500000  0.500000  0.600338  1
  Pd  Pd9  1  0.500000  0.500000  0.801363  1
  Pd  Pd10  1  0.500000  0.000000  0.098414  1
  Pd  Pd11  1  0.500000  0.000000  0.299172  1
  Pd  Pd12  1  0.500000  0.000000  0.500000  1
  Pd  Pd13  1  0.500000  0.000000  0.700828  1
  Pd  Pd14  1  0.500000  0.000000  0.901586  1
  Pd  Pd15  1  0.000000  0.500000  0.098414  1
  Pd  Pd16  1  0.000000  0.500000  0.299172  1
  Pd  Pd17  1  0.000000  0.500000  0.500000  1
  Pd  Pd18  1  0.000000  0.500000  0.700828  1
  Pd  Pd19  1  0.000000  0.500000  0.901586  1
