# generated using pymatgen
data_YbY6RhBr12
_symmetry_space_group_name_H-M   'P 1'
_cell_length_a   9.18998665
_cell_length_b   9.18998550
_cell_length_c   9.18998600
_cell_angle_alpha   106.68926668
_cell_angle_beta   106.68927755
_cell_angle_gamma   106.68927211
_symmetry_Int_Tables_number   1
_chemical_formula_structural   YbY6RhBr12
_chemical_formula_sum   'Yb1 Y6 Rh1 Br12'
_cell_volume   651.78483941
_cell_formula_units_Z   1
loop_
 _symmetry_equiv_pos_site_id
 _symmetry_equiv_pos_as_xyz
  1  'x, y, z'
loop_
 _atom_site_type_symbol
 _atom_site_label
 _atom_site_symmetry_multiplicity
 _atom_site_fract_x
 _atom_site_fract_y
 _atom_site_fract_z
 _atom_site_occupancy
  Yb  Yb0  1  0.500000  0.500000  0.500000  1
  Y  Y1  1  0.102014  0.022000  0.313924  1
  Y  Y2  1  0.022000  0.313924  0.102014  1
  Y  Y3  1  0.313924  0.102014  0.022000  1
  Y  Y4  1  0.897985  0.978000  0.686076  1
  Y  Y5  1  0.978000  0.686076  0.897985  1
  Y  Y6  1  0.686076  0.897985  0.978000  1
  Rh  Rh7  1  0.000000  0.000000  0.000000  1
  Br  Br8  1  0.073943  0.676713  0.222349  1
  Br  Br9  1  0.676713  0.222349  0.073943  1
  Br  Br10  1  0.222349  0.073943  0.676713  1
  Br  Br11  1  0.926057  0.323287  0.777651  1
  Br  Br12  1  0.323287  0.777651  0.926057  1
  Br  Br13  1  0.777651  0.926057  0.323287  1
  Br  Br14  1  0.456687  0.157467  0.377831  1
  Br  Br15  1  0.157467  0.377831  0.456687  1
  Br  Br16  1  0.377831  0.456687  0.157467  1
  Br  Br17  1  0.543313  0.842533  0.622169  1
  Br  Br18  1  0.842533  0.622169  0.543313  1
  Br  Br19  1  0.622169  0.543313  0.842533  1
