# generated using pymatgen
data_Tm6Lu4Si5Pb
_symmetry_space_group_name_H-M   'P 1'
_cell_length_a   8.40337603
_cell_length_b   8.40337556
_cell_length_c   6.24831400
_cell_angle_alpha   90.00000000
_cell_angle_beta   90.00000000
_cell_angle_gamma   120.18939566
_symmetry_Int_Tables_number   1
_chemical_formula_structural   Tm6Lu4Si5Pb
_chemical_formula_sum   'Tm6 Lu4 Si5 Pb1'
_cell_volume   381.38977026
_cell_formula_units_Z   1
loop_
 _symmetry_equiv_pos_site_id
 _symmetry_equiv_pos_as_xyz
  1  'x, y, z'
loop_
 _atom_site_type_symbol
 _atom_site_label
 _atom_site_symmetry_multiplicity
 _atom_site_fract_x
 _atom_site_fract_y
 _atom_site_fract_z
 _atom_site_occupancy
  Tm  Tm0  1  0.767445  0.767445  0.250000  1
  Tm  Tm1  1  0.239848  0.987623  0.250000  1
  Tm  Tm2  1  0.987623  0.239848  0.250000  1
  Tm  Tm3  1  0.239806  0.239806  0.750000  1
  Tm  Tm4  1  0.756063  0.998198  0.750000  1
  Tm  Tm5  1  0.998198  0.756063  0.750000  1
  Lu  Lu6  1  0.675263  0.331123  0.503836  1
  Lu  Lu7  1  0.331123  0.675263  0.503836  1
  Lu  Lu8  1  0.331123  0.675263  0.996164  1
  Lu  Lu9  1  0.675263  0.331123  0.996164  1
  Si  Si10  1  0.603319  0.998287  0.250000  1
  Si  Si11  1  0.998287  0.603319  0.250000  1
  Si  Si12  1  0.605382  0.605382  0.750000  1
  Si  Si13  1  0.394115  0.001537  0.750000  1
  Si  Si14  1  0.001537  0.394115  0.750000  1
  Pb  Pb15  1  0.395604  0.395604  0.250000  1
