# generated using pymatgen
data_ScTa6TlSe12
_symmetry_space_group_name_H-M   'P 1'
_cell_length_a   6.06177500
_cell_length_b   6.06177426
_cell_length_c   14.90600500
_cell_angle_alpha   90.00000000
_cell_angle_beta   90.00000000
_cell_angle_gamma   120.00000949
_symmetry_Int_Tables_number   1
_chemical_formula_structural   ScTa6TlSe12
_chemical_formula_sum   'Sc1 Ta6 Tl1 Se12'
_cell_volume   474.34182951
_cell_formula_units_Z   1
loop_
 _symmetry_equiv_pos_site_id
 _symmetry_equiv_pos_as_xyz
  1  'x, y, z'
loop_
 _atom_site_type_symbol
 _atom_site_label
 _atom_site_symmetry_multiplicity
 _atom_site_fract_x
 _atom_site_fract_y
 _atom_site_fract_z
 _atom_site_occupancy
  Sc  Sc0  1  0.000000  0.000000  0.000000  1
  Ta  Ta1  1  0.333333  0.666667  0.225433  1
  Ta  Ta2  1  0.666667  0.333333  0.774567  1
  Ta  Ta3  1  0.666667  0.333333  0.225433  1
  Ta  Ta4  1  0.333333  0.666667  0.774567  1
  Ta  Ta5  1  0.000000  0.000000  0.224702  1
  Ta  Ta6  1  0.000000  0.000000  0.775298  1
  Tl  Tl7  1  0.000000  0.000000  0.500000  1
  Se  Se8  1  0.339258  0.000000  0.113369  1
  Se  Se9  1  0.000000  0.339258  0.113369  1
  Se  Se10  1  0.660742  0.660742  0.113369  1
  Se  Se11  1  0.335619  0.335619  0.664081  1
  Se  Se12  1  0.664381  0.664381  0.335919  1
  Se  Se13  1  0.664381  0.000000  0.664081  1
  Se  Se14  1  0.000000  0.664381  0.664081  1
  Se  Se15  1  0.000000  0.660742  0.886631  1
  Se  Se16  1  0.339258  0.339258  0.886631  1
  Se  Se17  1  0.000000  0.335619  0.335919  1
  Se  Se18  1  0.335619  0.000000  0.335919  1
  Se  Se19  1  0.660742  0.000000  0.886631  1
