# generated using pymatgen
data_La13Nd(Pd2Ru)2
_symmetry_space_group_name_H-M   'P 1'
_cell_length_a   10.35526200
_cell_length_b   10.25297374
_cell_length_c   6.58275913
_cell_angle_alpha   90.18433834
_cell_angle_beta   90.00000000
_cell_angle_gamma   120.33056417
_symmetry_Int_Tables_number   1
_chemical_formula_structural   La13Nd(Pd2Ru)2
_chemical_formula_sum   'La13 Nd1 Pd4 Ru2'
_cell_volume   603.24013536
_cell_formula_units_Z   1
loop_
 _symmetry_equiv_pos_site_id
 _symmetry_equiv_pos_as_xyz
  1  'x, y, z'
loop_
 _atom_site_type_symbol
 _atom_site_label
 _atom_site_symmetry_multiplicity
 _atom_site_fract_x
 _atom_site_fract_y
 _atom_site_fract_z
 _atom_site_occupancy
  La  La0  1  0.664266  0.328532  0.970716  1
  La  La1  1  0.136246  0.888128  0.240348  1
  La  La2  1  0.751883  0.888128  0.240348  1
  La  La3  1  0.122719  0.245438  0.240943  1
  La  La4  1  0.872405  0.127101  0.754704  1
  La  La5  1  0.254696  0.127101  0.754704  1
  La  La6  1  0.873006  0.746012  0.741107  1
  La  La7  1  0.530145  0.451394  0.435188  1
  La  La8  1  0.921249  0.451394  0.435188  1
  La  La9  1  0.541657  0.083315  0.432832  1
  La  La10  1  0.461494  0.533963  0.946048  1
  La  La11  1  0.072468  0.533963  0.946048  1
  La  La12  1  0.463815  0.927630  0.939986  1
  Nd  Nd13  1  0.333582  0.667164  0.451357  1
  Pd  Pd14  1  0.814124  0.628247  0.191200  1
  Pd  Pd15  1  0.186862  0.808832  0.692381  1
  Pd  Pd16  1  0.621971  0.808832  0.692381  1
  Pd  Pd17  1  0.189486  0.378970  0.691261  1
  Ru  Ru18  1  0.814707  0.187930  0.194526  1
  Ru  Ru19  1  0.373221  0.187930  0.194526  1
