# generated using pymatgen
data_ErLu5TcBi2
_symmetry_space_group_name_H-M   'P 1'
_cell_length_a   8.15360735
_cell_length_b   8.15360841
_cell_length_c   4.27437800
_cell_angle_alpha   90.00000000
_cell_angle_beta   90.00000000
_cell_angle_gamma   119.92865168
_symmetry_Int_Tables_number   1
_chemical_formula_structural   ErLu5TcBi2
_chemical_formula_sum   'Er1 Lu5 Tc1 Bi2'
_cell_volume   246.27197277
_cell_formula_units_Z   1
loop_
 _symmetry_equiv_pos_site_id
 _symmetry_equiv_pos_as_xyz
  1  'x, y, z'
loop_
 _atom_site_type_symbol
 _atom_site_label
 _atom_site_symmetry_multiplicity
 _atom_site_fract_x
 _atom_site_fract_y
 _atom_site_fract_z
 _atom_site_occupancy
  Er  Er0  1  0.385799  0.385799  0.000000  1
  Lu  Lu1  1  0.230780  0.999703  0.500000  1
  Lu  Lu2  1  0.999703  0.230780  0.500000  1
  Lu  Lu3  1  0.767333  0.767333  0.500000  1
  Lu  Lu4  1  0.618331  0.000375  0.000000  1
  Lu  Lu5  1  0.000375  0.618331  0.000000  1
  Tc  Tc6  1  0.997215  0.997215  0.000000  1
  Bi  Bi7  1  0.332861  0.667601  0.500000  1
  Bi  Bi8  1  0.667601  0.332861  0.500000  1
