# generated using pymatgen
data_Nd4ErLu3(Si3Ir)4
_symmetry_space_group_name_H-M   'P 1'
_cell_length_a   8.21497000
_cell_length_b   8.21539232
_cell_length_c   8.03970800
_cell_angle_alpha   90.00000000
_cell_angle_beta   90.00000000
_cell_angle_gamma   119.99777450
_symmetry_Int_Tables_number   1
_chemical_formula_structural   Nd4ErLu3(Si3Ir)4
_chemical_formula_sum   'Nd4 Er1 Lu3 Si12 Ir4'
_cell_volume   469.91026905
_cell_formula_units_Z   1
loop_
 _symmetry_equiv_pos_site_id
 _symmetry_equiv_pos_as_xyz
  1  'x, y, z'
loop_
 _atom_site_type_symbol
 _atom_site_label
 _atom_site_symmetry_multiplicity
 _atom_site_fract_x
 _atom_site_fract_y
 _atom_site_fract_z
 _atom_site_occupancy
  Nd  Nd0  1  0.498992  0.997968  0.750000  1
  Nd  Nd1  1  0.002055  0.500981  0.750000  1
  Nd  Nd2  1  0.498990  0.500858  0.750000  1
  Nd  Nd3  1  0.999883  0.000146  0.750000  1
  Er  Er4  1  0.000007  0.000025  0.250000  1
  Lu  Lu5  1  0.997845  0.498891  0.250000  1
  Lu  Lu6  1  0.501097  0.498898  0.250000  1
  Lu  Lu7  1  0.501139  0.002233  0.250000  1
  Si  Si8  1  0.166759  0.833254  0.489674  1
  Si  Si9  1  0.166714  0.333430  0.489626  1
  Si  Si10  1  0.666498  0.833253  0.489564  1
  Si  Si11  1  0.332813  0.166396  0.009684  1
  Si  Si12  1  0.833626  0.667252  0.490389  1
  Si  Si13  1  0.833581  0.166406  0.009547  1
  Si  Si14  1  0.833626  0.667252  0.009611  1
  Si  Si15  1  0.166714  0.333430  0.010374  1
  Si  Si16  1  0.666498  0.833253  0.010436  1
  Si  Si17  1  0.332813  0.166396  0.490316  1
  Si  Si18  1  0.833581  0.166406  0.490453  1
  Si  Si19  1  0.166759  0.833254  0.010326  1
  Ir  Ir20  1  0.333110  0.666313  0.037882  1
  Ir  Ir21  1  0.666896  0.333695  0.031846  1
  Ir  Ir22  1  0.666896  0.333695  0.468154  1
  Ir  Ir23  1  0.333110  0.666313  0.462118  1
