# generated using pymatgen
data_Tb4Nd3Th(CdIr)2
_symmetry_space_group_name_H-M   'P 1'
_cell_length_a   9.82346100
_cell_length_b   9.82346114
_cell_length_c   9.82325800
_cell_angle_alpha   60.00067733
_cell_angle_beta   60.00067686
_cell_angle_gamma   60.17106499
_symmetry_Int_Tables_number   1
_chemical_formula_structural   Tb4Nd3Th(CdIr)2
_chemical_formula_sum   'Tb8 Nd6 Th2 Cd4 Ir4'
_cell_volume   671.16977128
_cell_formula_units_Z   2
loop_
 _symmetry_equiv_pos_site_id
 _symmetry_equiv_pos_as_xyz
  1  'x, y, z'
loop_
 _atom_site_type_symbol
 _atom_site_label
 _atom_site_symmetry_multiplicity
 _atom_site_fract_x
 _atom_site_fract_y
 _atom_site_fract_z
 _atom_site_occupancy
  Tb  Tb0  1  0.350050  0.950909  0.349520  1
  Tb  Tb1  1  0.950909  0.350050  0.349520  1
  Tb  Tb2  1  0.813190  0.187375  0.187601  1
  Tb  Tb3  1  0.187375  0.813190  0.811834  1
  Tb  Tb4  1  0.187375  0.813190  0.187601  1
  Tb  Tb5  1  0.813190  0.187375  0.811834  1
  Tb  Tb6  1  0.185771  0.185771  0.814229  1
  Tb  Tb7  1  0.812087  0.812087  0.187913  1
  Nd  Nd8  1  0.941628  0.560385  0.560832  1
  Nd  Nd9  1  0.560385  0.941628  0.937154  1
  Nd  Nd10  1  0.560385  0.941628  0.560832  1
  Nd  Nd11  1  0.941628  0.560385  0.937154  1
  Nd  Nd12  1  0.561805  0.561805  0.938195  1
  Nd  Nd13  1  0.942367  0.942367  0.557633  1
  Th  Th14  1  0.345739  0.345739  0.349174  1
  Th  Th15  1  0.345739  0.345739  0.959347  1
  Cd  Cd16  1  0.580077  0.580077  0.578564  1
  Cd  Cd17  1  0.580077  0.580077  0.261282  1
  Cd  Cd18  1  0.581032  0.258526  0.580221  1
  Cd  Cd19  1  0.258526  0.581032  0.580221  1
  Ir  Ir20  1  0.142341  0.142341  0.142864  1
  Ir  Ir21  1  0.142341  0.142341  0.572453  1
  Ir  Ir22  1  0.144835  0.571145  0.142010  1
  Ir  Ir23  1  0.571145  0.144835  0.142010  1
