# generated using pymatgen
data_Ho4MnCo4
_symmetry_space_group_name_H-M   'P 1'
_cell_length_a   5.46950947
_cell_length_b   5.46950815
_cell_length_c   8.83356094
_cell_angle_alpha   71.62131879
_cell_angle_beta   71.62132152
_cell_angle_gamma   42.58076770
_symmetry_Int_Tables_number   1
_chemical_formula_structural   Ho4MnCo4
_chemical_formula_sum   'Ho4 Mn1 Co4'
_cell_volume   168.25783169
_cell_formula_units_Z   1
loop_
 _symmetry_equiv_pos_site_id
 _symmetry_equiv_pos_as_xyz
  1  'x, y, z'
loop_
 _atom_site_type_symbol
 _atom_site_label
 _atom_site_symmetry_multiplicity
 _atom_site_fract_x
 _atom_site_fract_y
 _atom_site_fract_z
 _atom_site_occupancy
  Ho  Ho0  1  0.743783  0.743783  0.661540  1
  Ho  Ho1  1  0.256217  0.256217  0.338460  1
  Ho  Ho2  1  0.390949  0.390949  0.885279  1
  Ho  Ho3  1  0.609051  0.609051  0.114721  1
  Mn  Mn4  1  0.500000  0.500000  0.500000  1
  Co  Co5  1  0.035900  0.035900  0.641259  1
  Co  Co6  1  0.964100  0.964100  0.358741  1
  Co  Co7  1  0.092403  0.092403  0.880121  1
  Co  Co8  1  0.907597  0.907597  0.119879  1
