# generated using pymatgen
data_Ta3Ti(CoSi)4
_symmetry_space_group_name_H-M   'P 1'
_cell_length_a   6.20414827
_cell_length_b   3.66131100
_cell_length_c   7.01989931
_cell_angle_alpha   90.00000000
_cell_angle_beta   89.96594370
_cell_angle_gamma   90.00000000
_symmetry_Int_Tables_number   1
_chemical_formula_structural   Ta3Ti(CoSi)4
_chemical_formula_sum   'Ta3 Ti1 Co4 Si4'
_cell_volume   159.45920520
_cell_formula_units_Z   1
loop_
 _symmetry_equiv_pos_site_id
 _symmetry_equiv_pos_as_xyz
  1  'x, y, z'
loop_
 _atom_site_type_symbol
 _atom_site_label
 _atom_site_symmetry_multiplicity
 _atom_site_fract_x
 _atom_site_fract_y
 _atom_site_fract_z
 _atom_site_occupancy
  Ta  Ta0  1  0.518571  0.250000  0.680958  1
  Ta  Ta1  1  0.980085  0.750000  0.181128  1
  Ta  Ta2  1  0.477597  0.750000  0.320780  1
  Ti  Ti3  1  0.019235  0.250000  0.817821  1
  Co  Co4  1  0.143458  0.250000  0.436991  1
  Co  Co5  1  0.643233  0.250000  0.062547  1
  Co  Co6  1  0.856925  0.750000  0.564258  1
  Co  Co7  1  0.359811  0.750000  0.936353  1
  Si  Si8  1  0.775236  0.250000  0.383092  1
  Si  Si9  1  0.274041  0.250000  0.113143  1
  Si  Si10  1  0.221528  0.750000  0.621709  1
  Si  Si11  1  0.730280  0.750000  0.881219  1
