# generated using pymatgen
data_LiScNb(SbPt)3
_symmetry_space_group_name_H-M   'P 1'
_cell_length_a   7.74294482
_cell_length_b   7.72009924
_cell_length_c   7.73091017
_cell_angle_alpha   119.96361425
_cell_angle_beta   99.60300131
_cell_angle_gamma   99.60122330
_symmetry_Int_Tables_number   1
_chemical_formula_structural   LiScNb(SbPt)3
_chemical_formula_sum   'Li2 Sc2 Nb2 Sb6 Pt6'
_cell_volume   377.44869680
_cell_formula_units_Z   2
loop_
 _symmetry_equiv_pos_site_id
 _symmetry_equiv_pos_as_xyz
  1  'x, y, z'
loop_
 _atom_site_type_symbol
 _atom_site_label
 _atom_site_symmetry_multiplicity
 _atom_site_fract_x
 _atom_site_fract_y
 _atom_site_fract_z
 _atom_site_occupancy
  Li  Li0  1  0.998281  0.502493  0.997168  1
  Li  Li1  1  0.497812  0.328702  0.165293  1
  Sc  Sc2  1  0.999661  0.163306  0.332063  1
  Sc  Sc3  1  0.499978  0.000347  0.502002  1
  Nb  Nb4  1  0.000243  0.833662  0.666831  1
  Nb  Nb5  1  0.500213  0.669353  0.833847  1
  Sb  Sb6  1  0.249604  0.915646  0.089485  1
  Sb  Sb7  1  0.750488  0.735186  0.249018  1
  Sb  Sb8  1  0.254411  0.570865  0.395399  1
  Sb  Sb9  1  0.754441  0.411731  0.578040  1
  Sb  Sb10  1  0.246824  0.261647  0.763141  1
  Sb  Sb11  1  0.746142  0.106119  0.926943  1
  Pt  Pt12  1  0.114500  0.188331  0.029704  1
  Pt  Pt13  1  0.626128  0.025315  0.200912  1
  Pt  Pt14  1  0.126529  0.881716  0.392516  1
  Pt  Pt15  1  0.634565  0.719114  0.563042  1
  Pt  Pt16  1  0.134887  0.554351  0.701417  1
  Pt  Pt17  1  0.615377  0.382092  0.863155  1
