# generated using pymatgen
data_Hf6Ti6Ga10Ir5Rh2
_symmetry_space_group_name_H-M   'P 1'
_cell_length_a   8.85372875
_cell_length_b   8.80557408
_cell_length_c   8.79943277
_cell_angle_alpha   59.64975556
_cell_angle_beta   59.81419553
_cell_angle_gamma   59.78122714
_symmetry_Int_Tables_number   1
_chemical_formula_structural   Hf6Ti6Ga10Ir5Rh2
_chemical_formula_sum   'Hf6 Ti6 Ga10 Ir5 Rh2'
_cell_volume   482.31756954
_cell_formula_units_Z   1
loop_
 _symmetry_equiv_pos_site_id
 _symmetry_equiv_pos_as_xyz
  1  'x, y, z'
loop_
 _atom_site_type_symbol
 _atom_site_label
 _atom_site_symmetry_multiplicity
 _atom_site_fract_x
 _atom_site_fract_y
 _atom_site_fract_z
 _atom_site_occupancy
  Hf  Hf0  1  0.685953  0.692031  0.312351  1
  Hf  Hf1  1  0.309596  0.691992  0.312029  1
  Hf  Hf2  1  0.691470  0.308166  0.308550  1
  Hf  Hf3  1  0.309924  0.312029  0.691635  1
  Hf  Hf4  1  0.686358  0.311906  0.692052  1
  Hf  Hf5  1  0.311284  0.689239  0.688665  1
  Ti  Ti6  1  0.876785  0.881665  0.364721  1
  Ti  Ti7  1  0.876693  0.364591  0.881501  1
  Ti  Ti8  1  0.369997  0.878764  0.878750  1
  Ti  Ti9  1  0.872314  0.879435  0.878553  1
  Ti  Ti10  1  0.123775  0.125096  0.627313  1
  Ti  Ti11  1  0.124015  0.627893  0.125245  1
  Ga  Ga12  1  0.647370  0.117926  0.117844  1
  Ga  Ga13  1  0.116765  0.118231  0.117825  1
  Ga  Ga14  1  0.659695  0.656884  0.025564  1
  Ga  Ga15  1  0.658422  0.025774  0.657365  1
  Ga  Ga16  1  0.023722  0.657477  0.659454  1
  Ga  Ga17  1  0.659971  0.658026  0.658112  1
  Ga  Ga18  1  0.339228  0.339750  0.980102  1
  Ga  Ga19  1  0.340336  0.979949  0.339281  1
  Ga  Ga20  1  0.972044  0.342916  0.341230  1
  Ga  Ga21  1  0.343220  0.342393  0.342415  1
  Ir  Ir22  1  0.012181  0.987392  0.987813  1
  Ir  Ir23  1  0.998827  0.999177  0.506623  1
  Ir  Ir24  1  0.495425  0.999276  0.506391  1
  Ir  Ir25  1  0.999309  0.500721  0.500688  1
  Ir  Ir26  1  0.495462  0.506436  0.999266  1
  Rh  Rh27  1  0.998932  0.505694  0.999416  1
  Rh  Rh28  1  0.500930  0.999173  0.999244  1
