# generated using pymatgen
data_Hf2Tl(PO4)3
_symmetry_space_group_name_H-M   'P 1'
_cell_length_a   8.94498689
_cell_length_b   8.94498743
_cell_length_c   9.27530300
_cell_angle_alpha   61.25707554
_cell_angle_beta   61.25708096
_cell_angle_gamma   60.06334210
_symmetry_Int_Tables_number   1
_chemical_formula_structural   Hf2Tl(PO4)3
_chemical_formula_sum   'Hf4 Tl2 P6 O24'
_cell_volume   534.78998699
_cell_formula_units_Z   2
loop_
 _symmetry_equiv_pos_site_id
 _symmetry_equiv_pos_as_xyz
  1  'x, y, z'
loop_
 _atom_site_type_symbol
 _atom_site_label
 _atom_site_symmetry_multiplicity
 _atom_site_fract_x
 _atom_site_fract_y
 _atom_site_fract_z
 _atom_site_occupancy
  Hf  Hf0  1  0.652930  0.143966  0.804124  1
  Hf  Hf1  1  0.856034  0.347070  0.195876  1
  Hf  Hf2  1  0.153263  0.644201  0.304138  1
  Hf  Hf3  1  0.355799  0.846737  0.695862  1
  Tl  Tl4  1  0.013454  0.487891  0.750085  1
  Tl  Tl5  1  0.512109  0.986546  0.249915  1
  P  P6  1  0.255085  0.458768  0.000231  1
  P  P7  1  0.468469  0.244987  0.499836  1
  P  P8  1  0.040307  0.959693  0.500000  1
  P  P9  1  0.968563  0.031437  0.000000  1
  P  P10  1  0.541232  0.744915  0.999769  1
  P  P11  1  0.755013  0.531531  0.500164  1
  O  O12  1  0.015125  0.131941  0.342186  1
  O  O13  1  0.766683  0.507805  0.340834  1
  O  O14  1  0.426439  0.293443  0.960757  1
  O  O15  1  0.266241  0.630834  0.842109  1
  O  O16  1  0.205647  0.925831  0.540001  1
  O  O17  1  0.640745  0.256711  0.342571  1
  O  O18  1  0.492195  0.233317  0.659166  1
  O  O19  1  0.083780  0.425082  0.039392  1
  O  O20  1  0.434669  0.074053  0.538525  1
  O  O21  1  0.303626  0.416783  0.459840  1
  O  O22  1  0.868059  0.984875  0.657814  1
  O  O23  1  0.074169  0.794353  0.459999  1
  O  O24  1  0.934768  0.196766  0.039915  1
  O  O25  1  0.140486  0.006558  0.841958  1
  O  O26  1  0.574918  0.916220  0.960608  1
  O  O27  1  0.706557  0.573561  0.039243  1
  O  O28  1  0.925947  0.565331  0.461475  1
  O  O29  1  0.515620  0.757006  0.841494  1
  O  O30  1  0.369166  0.733759  0.157891  1
  O  O31  1  0.803234  0.065232  0.960085  1
  O  O32  1  0.743289  0.359255  0.657429  1
  O  O33  1  0.583217  0.696374  0.540160  1
  O  O34  1  0.242994  0.484380  0.158506  1
  O  O35  1  0.993442  0.859514  0.158042  1
