# generated using pymatgen
data_Yb2NpN3
_symmetry_space_group_name_H-M   'P 1'
_cell_length_a   5.98876534
_cell_length_b   5.98876236
_cell_length_c   5.95366735
_cell_angle_alpha   99.65259107
_cell_angle_beta   99.65257618
_cell_angle_gamma   119.91258988
_symmetry_Int_Tables_number   1
_chemical_formula_structural   Yb2NpN3
_chemical_formula_sum   'Yb4 Np2 N6'
_cell_volume   174.39678916
_cell_formula_units_Z   2
loop_
 _symmetry_equiv_pos_site_id
 _symmetry_equiv_pos_as_xyz
  1  'x, y, z'
loop_
 _atom_site_type_symbol
 _atom_site_label
 _atom_site_symmetry_multiplicity
 _atom_site_fract_x
 _atom_site_fract_y
 _atom_site_fract_z
 _atom_site_occupancy
  Yb  Yb0  1  0.836356  0.163644  0.500000  1
  Yb  Yb1  1  0.163644  0.836356  0.500000  1
  Yb  Yb2  1  0.500000  0.500000  0.500000  1
  Yb  Yb3  1  0.000000  0.000000  0.000000  1
  Np  Np4  1  0.333321  0.666679  0.000000  1
  Np  Np5  1  0.666679  0.333321  0.000000  1
  N  N6  1  0.434209  0.072658  0.218933  1
  N  N7  1  0.927342  0.565791  0.781067  1
  N  N8  1  0.565791  0.927342  0.781067  1
  N  N9  1  0.072658  0.434209  0.218933  1
  N  N10  1  0.713996  0.713996  0.221322  1
  N  N11  1  0.286004  0.286004  0.778678  1
