# generated using pymatgen
data_Dy5ErCo16(P6Os)2
_symmetry_space_group_name_H-M   'P 1'
_cell_length_a   3.71517900
_cell_length_b   10.49117313
_cell_length_c   12.22984934
_cell_angle_alpha   90.05336786
_cell_angle_beta   90.00000000
_cell_angle_gamma   90.00000000
_symmetry_Int_Tables_number   1
_chemical_formula_structural   Dy5ErCo16(P6Os)2
_chemical_formula_sum   'Dy5 Er1 Co16 P12 Os2'
_cell_volume   476.67756881
_cell_formula_units_Z   1
loop_
 _symmetry_equiv_pos_site_id
 _symmetry_equiv_pos_as_xyz
  1  'x, y, z'
loop_
 _atom_site_type_symbol
 _atom_site_label
 _atom_site_symmetry_multiplicity
 _atom_site_fract_x
 _atom_site_fract_y
 _atom_site_fract_z
 _atom_site_occupancy
  Dy  Dy0  1  0.000000  0.499884  0.524304  1
  Dy  Dy1  1  0.500000  0.000022  0.475345  1
  Dy  Dy2  1  0.500000  0.182611  0.207021  1
  Dy  Dy3  1  0.000000  0.682908  0.792848  1
  Dy  Dy4  1  0.000000  0.317224  0.793101  1
  Er  Er5  1  0.500000  0.817256  0.207280  1
  Co  Co6  1  0.500000  0.500128  0.703800  1
  Co  Co7  1  0.000000  0.999361  0.296056  1
  Co  Co8  1  0.000000  0.500417  0.987259  1
  Co  Co9  1  0.500000  0.999629  0.013437  1
  Co  Co10  1  0.500000  0.332721  0.990384  1
  Co  Co11  1  0.500000  0.667836  0.990608  1
  Co  Co12  1  0.000000  0.167017  0.009895  1
  Co  Co13  1  0.000000  0.832472  0.010370  1
  Co  Co14  1  0.500000  0.297618  0.430761  1
  Co  Co15  1  0.500000  0.702314  0.430308  1
  Co  Co16  1  0.000000  0.202258  0.569102  1
  Co  Co17  1  0.000000  0.797667  0.568762  1
  Co  Co18  1  0.500000  0.879440  0.708518  1
  Co  Co19  1  0.500000  0.120506  0.708745  1
  Co  Co20  1  0.000000  0.621161  0.290868  1
  Co  Co21  1  0.000000  0.379612  0.291275  1
  P  P22  1  0.500000  0.500246  0.881186  1
  P  P23  1  0.000000  0.999397  0.119384  1
  P  P24  1  0.500000  0.499922  0.350614  1
  P  P25  1  0.000000  0.999953  0.649211  1
  P  P26  1  0.500000  0.311639  0.615906  1
  P  P27  1  0.500000  0.688404  0.615622  1
  P  P28  1  0.000000  0.188220  0.383987  1
  P  P29  1  0.000000  0.811634  0.383306  1
  P  P30  1  0.500000  0.846470  0.892912  1
  P  P31  1  0.500000  0.153376  0.893229  1
  P  P32  1  0.000000  0.654287  0.107610  1
  P  P33  1  0.000000  0.346394  0.106983  1
  Os  Os34  1  0.500000  0.500345  0.158968  1
  Os  Os35  1  0.000000  0.999651  0.841035  1
