# generated using pymatgen
data_Sm2Cu(PN2)7
_symmetry_space_group_name_H-M   'P 1'
_cell_length_a   7.84589849
_cell_length_b   7.50068139
_cell_length_c   5.22323700
_cell_angle_alpha   79.80967224
_cell_angle_beta   80.27531058
_cell_angle_gamma   69.71176593
_symmetry_Int_Tables_number   1
_chemical_formula_structural   Sm2Cu(PN2)7
_chemical_formula_sum   'Sm2 Cu1 P7 N14'
_cell_volume   281.83417472
_cell_formula_units_Z   1
loop_
 _symmetry_equiv_pos_site_id
 _symmetry_equiv_pos_as_xyz
  1  'x, y, z'
loop_
 _atom_site_type_symbol
 _atom_site_label
 _atom_site_symmetry_multiplicity
 _atom_site_fract_x
 _atom_site_fract_y
 _atom_site_fract_z
 _atom_site_occupancy
  Sm  Sm0  1  0.812458  0.210467  0.258785  1
  Sm  Sm1  1  0.201630  0.755618  0.751217  1
  Cu  Cu2  1  0.298020  0.488326  0.275335  1
  P  P3  1  0.558144  0.683132  0.214368  1
  P  P4  1  0.104276  0.255041  0.709210  1
  P  P5  1  0.732755  0.924086  0.795305  1
  P  P6  1  0.892141  0.764570  0.290216  1
  P  P7  1  0.271400  0.082091  0.198549  1
  P  P8  1  0.443060  0.297627  0.799345  1
  P  P9  1  0.696487  0.542984  0.717699  1
  N  N10  1  0.246512  0.381015  0.667073  1
  N  N11  1  0.642289  0.738743  0.889636  1
  N  N12  1  0.731169  0.651869  0.403861  1
  N  N13  1  0.398075  0.216833  0.103979  1
  N  N14  1  0.882629  0.374345  0.794461  1
  N  N15  1  0.608319  0.126674  0.656004  1
  N  N16  1  0.075385  0.644713  0.149259  1
  N  N17  1  0.383934  0.860717  0.310090  1
  N  N18  1  0.904496  0.851839  0.560071  1
  N  N19  1  0.154831  0.078224  0.957272  1
  N  N20  1  0.553642  0.476275  0.234984  1
  N  N21  1  0.511005  0.488818  0.746125  1
  N  N22  1  0.788589  0.946853  0.071906  1
  N  N23  1  0.108754  0.159141  0.445248  1
