# generated using pymatgen
data_Lu4InHgPd10
_symmetry_space_group_name_H-M   'P 1'
_cell_length_a   4.25953700
_cell_length_b   5.79182058
_cell_length_c   11.49565900
_cell_angle_alpha   90.91996601
_cell_angle_beta   90.00000000
_cell_angle_gamma   90.00000000
_symmetry_Int_Tables_number   1
_chemical_formula_structural   Lu4InHgPd10
_chemical_formula_sum   'Lu4 In1 Hg1 Pd10'
_cell_volume   283.56679996
_cell_formula_units_Z   1
loop_
 _symmetry_equiv_pos_site_id
 _symmetry_equiv_pos_as_xyz
  1  'x, y, z'
loop_
 _atom_site_type_symbol
 _atom_site_label
 _atom_site_symmetry_multiplicity
 _atom_site_fract_x
 _atom_site_fract_y
 _atom_site_fract_z
 _atom_site_occupancy
  Lu  Lu0  1  0.500000  0.307034  0.861188  1
  Lu  Lu1  1  0.500000  0.795879  0.636057  1
  Lu  Lu2  1  0.500000  0.692966  0.138812  1
  Lu  Lu3  1  0.500000  0.204121  0.363943  1
  In  In4  1  0.000000  0.000000  0.000000  1
  Hg  Hg5  1  0.000000  0.500000  0.500000  1
  Pd  Pd6  1  0.500000  0.718689  0.380717  1
  Pd  Pd7  1  0.500000  0.281311  0.619283  1
  Pd  Pd8  1  0.000000  0.048933  0.749829  1
  Pd  Pd9  1  0.500000  0.794247  0.883279  1
  Pd  Pd10  1  0.000000  0.450830  0.248489  1
  Pd  Pd11  1  0.000000  0.951067  0.250171  1
  Pd  Pd12  1  0.000000  0.549170  0.751511  1
  Pd  Pd13  1  0.000000  0.500000  0.000000  1
  Pd  Pd14  1  0.000000  0.000000  0.500000  1
  Pd  Pd15  1  0.500000  0.205753  0.116721  1
