# generated using pymatgen
data_TbEr7Sc11Si16Tc
_symmetry_space_group_name_H-M   'P 1'
_cell_length_a   6.99683129
_cell_length_b   7.32970608
_cell_length_c   13.84459186
_cell_angle_alpha   90.03766264
_cell_angle_beta   90.01443932
_cell_angle_gamma   90.16653197
_symmetry_Int_Tables_number   1
_chemical_formula_structural   TbEr7Sc11Si16Tc
_chemical_formula_sum   'Tb1 Er7 Sc11 Si16 Tc1'
_cell_volume   710.01279809
_cell_formula_units_Z   1
loop_
 _symmetry_equiv_pos_site_id
 _symmetry_equiv_pos_as_xyz
  1  'x, y, z'
loop_
 _atom_site_type_symbol
 _atom_site_label
 _atom_site_symmetry_multiplicity
 _atom_site_fract_x
 _atom_site_fract_y
 _atom_site_fract_z
 _atom_site_occupancy
  Tb  Tb0  1  0.012922  0.177838  0.092821  1
  Er  Er1  1  0.991921  0.817680  0.900545  1
  Er  Er2  1  0.487082  0.672928  0.902537  1
  Er  Er3  1  0.991913  0.817699  0.599356  1
  Er  Er4  1  0.512488  0.323196  0.095218  1
  Er  Er5  1  0.013048  0.178582  0.406626  1
  Er  Er6  1  0.512578  0.322967  0.404849  1
  Er  Er7  1  0.487091  0.672805  0.597380  1
  Sc  Sc8  1  0.843076  0.496358  0.250158  1
  Sc  Sc9  1  0.343853  0.003989  0.250141  1
  Sc  Sc10  1  0.655214  0.994699  0.750010  1
  Sc  Sc11  1  0.324499  0.177978  0.627622  1
  Sc  Sc12  1  0.673275  0.824432  0.374472  1
  Sc  Sc13  1  0.173580  0.674038  0.376853  1
  Sc  Sc14  1  0.673296  0.824188  0.125649  1
  Sc  Sc15  1  0.826266  0.331153  0.628731  1
  Sc  Sc16  1  0.324744  0.177880  0.872276  1
  Sc  Sc17  1  0.826015  0.331418  0.871244  1
  Sc  Sc18  1  0.173610  0.673857  0.123249  1
  Si  Si19  1  0.026987  0.117312  0.749971  1
  Si  Si20  1  0.974501  0.886620  0.250226  1
  Si  Si21  1  0.470482  0.614675  0.250025  1
  Si  Si22  1  0.516493  0.395903  0.749979  1
  Si  Si23  1  0.283856  0.859669  0.750009  1
  Si  Si24  1  0.718236  0.130885  0.250416  1
  Si  Si25  1  0.216752  0.370510  0.250388  1
  Si  Si26  1  0.792507  0.630614  0.749969  1
  Si  Si27  1  0.155603  0.466615  0.548078  1
  Si  Si28  1  0.842514  0.535525  0.463276  1
  Si  Si29  1  0.345699  0.965335  0.462848  1
  Si  Si30  1  0.842275  0.536238  0.036542  1
  Si  Si31  1  0.658004  0.034259  0.540030  1
  Si  Si32  1  0.155698  0.467249  0.951705  1
  Si  Si33  1  0.657722  0.034163  0.959895  1
  Si  Si34  1  0.346739  0.964792  0.036939  1
  Tc  Tc35  1  0.149460  0.495953  0.749969  1
