# generated using pymatgen
data_Li4La3PrRh4
_symmetry_space_group_name_H-M   'P 1'
_cell_length_a   4.03557100
_cell_length_b   7.17145119
_cell_length_c   8.73418365
_cell_angle_alpha   90.46501208
_cell_angle_beta   90.00000000
_cell_angle_gamma   90.00000000
_symmetry_Int_Tables_number   1
_chemical_formula_structural   Li4La3PrRh4
_chemical_formula_sum   'Li4 La3 Pr1 Rh4'
_cell_volume   252.76681460
_cell_formula_units_Z   1
loop_
 _symmetry_equiv_pos_site_id
 _symmetry_equiv_pos_as_xyz
  1  'x, y, z'
loop_
 _atom_site_type_symbol
 _atom_site_label
 _atom_site_symmetry_multiplicity
 _atom_site_fract_x
 _atom_site_fract_y
 _atom_site_fract_z
 _atom_site_occupancy
  Li  Li0  1  0.750000  0.374774  0.048338  1
  Li  Li1  1  0.250000  0.621983  0.948278  1
  Li  Li2  1  0.750000  0.876556  0.450082  1
  Li  Li3  1  0.250000  0.128790  0.550047  1
  La  La4  1  0.250000  0.041307  0.179880  1
  La  La5  1  0.750000  0.955244  0.818131  1
  La  La6  1  0.250000  0.543283  0.321775  1
  Pr  Pr7  1  0.750000  0.455275  0.680529  1
  Rh  Rh8  1  0.250000  0.745831  0.632029  1
  Rh  Rh9  1  0.750000  0.262430  0.367240  1
  Rh  Rh10  1  0.250000  0.233613  0.869989  1
  Rh  Rh11  1  0.750000  0.760914  0.133682  1
