# generated using pymatgen
data_Ca3Be2Pt7
_symmetry_space_group_name_H-M   'P 1'
_cell_length_a   8.58451075
_cell_length_b   8.58451150
_cell_length_c   8.58451141
_cell_angle_alpha   37.28607609
_cell_angle_beta   37.28606878
_cell_angle_gamma   37.28607214
_symmetry_Int_Tables_number   1
_chemical_formula_structural   Ca3Be2Pt7
_chemical_formula_sum   'Ca3 Be2 Pt7'
_cell_volume   208.13131968
_cell_formula_units_Z   1
loop_
 _symmetry_equiv_pos_site_id
 _symmetry_equiv_pos_as_xyz
  1  'x, y, z'
loop_
 _atom_site_type_symbol
 _atom_site_label
 _atom_site_symmetry_multiplicity
 _atom_site_fract_x
 _atom_site_fract_y
 _atom_site_fract_z
 _atom_site_occupancy
  Ca  Ca0  1  0.357798  0.357798  0.357798  1
  Ca  Ca1  1  0.500000  0.500000  0.500000  1
  Ca  Ca2  1  0.642201  0.642201  0.642201  1
  Be  Be3  1  0.166543  0.166543  0.166543  1
  Be  Be4  1  0.833457  0.833457  0.833457  1
  Pt  Pt5  1  0.000000  0.000000  0.000000  1
  Pt  Pt6  1  0.571693  0.071905  0.071906  1
  Pt  Pt7  1  0.071905  0.571693  0.071906  1
  Pt  Pt8  1  0.928095  0.928095  0.428306  1
  Pt  Pt9  1  0.071905  0.071905  0.571694  1
  Pt  Pt10  1  0.928095  0.428307  0.928094  1
  Pt  Pt11  1  0.428307  0.928095  0.928094  1
