# generated using pymatgen
data_Zr10Be2Bi5Pb
_symmetry_space_group_name_H-M   'P 1'
_cell_length_a   8.76186124
_cell_length_b   8.75760205
_cell_length_c   5.90515200
_cell_angle_alpha   90.00000000
_cell_angle_beta   90.00000000
_cell_angle_gamma   119.98392330
_symmetry_Int_Tables_number   1
_chemical_formula_structural   Zr10Be2Bi5Pb
_chemical_formula_sum   'Zr10 Be2 Bi5 Pb1'
_cell_volume   392.47646868
_cell_formula_units_Z   1
loop_
 _symmetry_equiv_pos_site_id
 _symmetry_equiv_pos_as_xyz
  1  'x, y, z'
loop_
 _atom_site_type_symbol
 _atom_site_label
 _atom_site_symmetry_multiplicity
 _atom_site_fract_x
 _atom_site_fract_y
 _atom_site_fract_z
 _atom_site_occupancy
  Zr  Zr0  1  0.666583  0.333509  0.500821  1
  Zr  Zr1  1  0.333417  0.666927  0.500821  1
  Zr  Zr2  1  0.333417  0.666927  0.999179  1
  Zr  Zr3  1  0.666583  0.333509  0.999179  1
  Zr  Zr4  1  0.752272  0.752476  0.250000  1
  Zr  Zr5  1  0.247728  0.000204  0.250000  1
  Zr  Zr6  1  0.000000  0.246526  0.250000  1
  Zr  Zr7  1  0.247587  0.248548  0.750000  1
  Zr  Zr8  1  0.752413  0.000961  0.750000  1
  Zr  Zr9  1  0.000000  0.751406  0.750000  1
  Be  Be10  1  0.000000  0.999832  0.501409  1
  Be  Be11  1  0.000000  0.999832  0.998591  1
  Bi  Bi12  1  0.389986  0.390572  0.250000  1
  Bi  Bi13  1  0.610014  0.000586  0.250000  1
  Bi  Bi14  1  0.000000  0.608221  0.250000  1
  Bi  Bi15  1  0.609823  0.610134  0.750000  1
  Bi  Bi16  1  0.390177  0.000310  0.750000  1
  Pb  Pb17  1  0.000000  0.389518  0.750000  1
