# generated using pymatgen
data_MnAg2PtF12
_symmetry_space_group_name_H-M   'P 1'
_cell_length_a   5.21093201
_cell_length_b   5.20960083
_cell_length_c   10.14319384
_cell_angle_alpha   76.27567812
_cell_angle_beta   76.16228663
_cell_angle_gamma   60.97812401
_symmetry_Int_Tables_number   1
_chemical_formula_structural   MnAg2PtF12
_chemical_formula_sum   'Mn1 Ag2 Pt1 F12'
_cell_volume   231.39774093
_cell_formula_units_Z   1
loop_
 _symmetry_equiv_pos_site_id
 _symmetry_equiv_pos_as_xyz
  1  'x, y, z'
loop_
 _atom_site_type_symbol
 _atom_site_label
 _atom_site_symmetry_multiplicity
 _atom_site_fract_x
 _atom_site_fract_y
 _atom_site_fract_z
 _atom_site_occupancy
  Mn  Mn0  1  0.227813  0.284964  0.250090  1
  Ag  Ag1  1  0.501110  0.506584  0.490609  1
  Ag  Ag2  1  0.993503  0.998838  0.009755  1
  Pt  Pt3  1  0.779171  0.709543  0.749892  1
  F  F4  1  0.191887  0.537669  0.363703  1
  F  F5  1  0.814254  0.443682  0.631389  1
  F  F6  1  0.894779  0.250043  0.359574  1
  F  F7  1  0.118412  0.763523  0.633781  1
  F  F8  1  0.540914  0.324179  0.140260  1
  F  F9  1  0.442093  0.670363  0.865325  1
  F  F10  1  0.255833  0.031318  0.139183  1
  F  F11  1  0.733702  0.983500  0.867733  1
  F  F12  1  0.048400  0.371189  0.867348  1
  F  F13  1  0.969950  0.612125  0.139452  1
  F  F14  1  0.519454  0.042836  0.632998  1
  F  F15  1  0.468724  0.969645  0.358908  1
