# generated using pymatgen
data_Sr3PdPtO6
_symmetry_space_group_name_H-M   'P 1'
_cell_length_a   6.90562356
_cell_length_b   6.90562413
_cell_length_c   6.81936185
_cell_angle_alpha   90.14712416
_cell_angle_beta   90.14712387
_cell_angle_gamma   91.95065511
_symmetry_Int_Tables_number   1
_chemical_formula_structural   Sr3PdPtO6
_chemical_formula_sum   'Sr6 Pd2 Pt2 O12'
_cell_volume   325.00861026
_cell_formula_units_Z   2
loop_
 _symmetry_equiv_pos_site_id
 _symmetry_equiv_pos_as_xyz
  1  'x, y, z'
loop_
 _atom_site_type_symbol
 _atom_site_label
 _atom_site_symmetry_multiplicity
 _atom_site_fract_x
 _atom_site_fract_y
 _atom_site_fract_z
 _atom_site_occupancy
  Sr  Sr0  1  0.093019  0.906981  0.750000  1
  Sr  Sr1  1  0.906981  0.093019  0.250000  1
  Sr  Sr2  1  0.758064  0.609800  0.124595  1
  Sr  Sr3  1  0.390200  0.241936  0.375405  1
  Sr  Sr4  1  0.241936  0.390200  0.875405  1
  Sr  Sr5  1  0.609800  0.758064  0.624595  1
  Pd  Pd6  1  0.683599  0.316401  0.750000  1
  Pd  Pd7  1  0.316401  0.683599  0.250000  1
  Pt  Pt8  1  0.000000  0.500000  0.500000  1
  Pt  Pt9  1  0.500000  0.000000  0.000000  1
  O  O10  1  0.276663  0.612229  0.542787  1
  O  O11  1  0.387771  0.723337  0.957213  1
  O  O12  1  0.723337  0.387771  0.457213  1
  O  O13  1  0.612229  0.276663  0.042787  1
  O  O14  1  0.085666  0.221729  0.564603  1
  O  O15  1  0.778271  0.914334  0.935397  1
  O  O16  1  0.914334  0.778271  0.435397  1
  O  O17  1  0.221729  0.085666  0.064603  1
  O  O18  1  0.100573  0.470026  0.217369  1
  O  O19  1  0.529974  0.899427  0.282631  1
  O  O20  1  0.470026  0.100573  0.717369  1
  O  O21  1  0.899427  0.529974  0.782631  1
