# generated using pymatgen
data_Sm8Tm12Si15Pt
_symmetry_space_group_name_H-M   'P 1'
_cell_length_a   7.35989879
_cell_length_b   7.75712466
_cell_length_c   14.60378200
_cell_angle_alpha   90.00000000
_cell_angle_beta   90.00000000
_cell_angle_gamma   90.14918450
_symmetry_Int_Tables_number   1
_chemical_formula_structural   Sm8Tm12Si15Pt
_chemical_formula_sum   'Sm8 Tm12 Si15 Pt1'
_cell_volume   833.75121856
_cell_formula_units_Z   1
loop_
 _symmetry_equiv_pos_site_id
 _symmetry_equiv_pos_as_xyz
  1  'x, y, z'
loop_
 _atom_site_type_symbol
 _atom_site_label
 _atom_site_symmetry_multiplicity
 _atom_site_fract_x
 _atom_site_fract_y
 _atom_site_fract_z
 _atom_site_occupancy
  Sm  Sm0  1  0.015412  0.180862  0.097817  1
  Sm  Sm1  1  0.987369  0.820025  0.905138  1
  Sm  Sm2  1  0.485778  0.677921  0.904002  1
  Sm  Sm3  1  0.987369  0.820025  0.594862  1
  Sm  Sm4  1  0.514337  0.321609  0.097327  1
  Sm  Sm5  1  0.015412  0.180862  0.402183  1
  Sm  Sm6  1  0.514337  0.321609  0.402673  1
  Sm  Sm7  1  0.485778  0.677921  0.595998  1
  Tm  Tm8  1  0.157358  0.508616  0.750000  1
  Tm  Tm9  1  0.838035  0.490996  0.250000  1
  Tm  Tm10  1  0.339511  0.010583  0.250000  1
  Tm  Tm11  1  0.666923  0.993722  0.750000  1
  Tm  Tm12  1  0.319835  0.174033  0.624399  1
  Tm  Tm13  1  0.674541  0.825150  0.374781  1
  Tm  Tm14  1  0.174344  0.678041  0.375476  1
  Tm  Tm15  1  0.674541  0.825150  0.125219  1
  Tm  Tm16  1  0.829028  0.321078  0.623967  1
  Tm  Tm17  1  0.319835  0.174033  0.875601  1
  Tm  Tm18  1  0.829028  0.321078  0.876033  1
  Tm  Tm19  1  0.174344  0.678041  0.124524  1
  Si  Si20  1  0.970707  0.887700  0.250000  1
  Si  Si21  1  0.468600  0.611569  0.250000  1
  Si  Si22  1  0.531088  0.391486  0.750000  1
  Si  Si23  1  0.281270  0.870097  0.750000  1
  Si  Si24  1  0.717555  0.128804  0.250000  1
  Si  Si25  1  0.217341  0.373055  0.250000  1
  Si  Si26  1  0.774105  0.622953  0.750000  1
  Si  Si27  1  0.156039  0.469429  0.537540  1
  Si  Si28  1  0.845062  0.534177  0.461371  1
  Si  Si29  1  0.348498  0.967130  0.461213  1
  Si  Si30  1  0.845062  0.534177  0.038629  1
  Si  Si31  1  0.653900  0.031824  0.538223  1
  Si  Si32  1  0.156039  0.469429  0.962460  1
  Si  Si33  1  0.653900  0.031824  0.961777  1
  Si  Si34  1  0.348498  0.967130  0.038787  1
  Pt  Pt35  1  0.029219  0.107861  0.750000  1
