# generated using pymatgen
data_AcGa2Ir2Pd
_symmetry_space_group_name_H-M   'P 1'
_cell_length_a   5.65444800
_cell_length_b   5.71007401
_cell_length_c   3.93398400
_cell_angle_alpha   90.00000000
_cell_angle_beta   90.00000000
_cell_angle_gamma   120.32595393
_symmetry_Int_Tables_number   1
_chemical_formula_structural   AcGa2Ir2Pd
_chemical_formula_sum   'Ac1 Ga2 Ir2 Pd1'
_cell_volume   109.63755188
_cell_formula_units_Z   1
loop_
 _symmetry_equiv_pos_site_id
 _symmetry_equiv_pos_as_xyz
  1  'x, y, z'
loop_
 _atom_site_type_symbol
 _atom_site_label
 _atom_site_symmetry_multiplicity
 _atom_site_fract_x
 _atom_site_fract_y
 _atom_site_fract_z
 _atom_site_occupancy
  Ac  Ac0  1  0.000000  0.000000  0.000000  1
  Ga  Ga1  1  0.657588  0.328794  0.000000  1
  Ga  Ga2  1  0.342411  0.671205  0.000000  1
  Ir  Ir3  1  0.499999  0.000000  0.500001  1
  Ir  Ir4  1  0.500000  0.500000  0.500001  1
  Pd  Pd5  1  0.000000  0.500000  0.500001  1
