# generated using pymatgen
data_NbSi2B4Mo2Ru10W
_symmetry_space_group_name_H-M   'P 1'
_cell_length_a   9.29370065
_cell_length_b   9.29370001
_cell_length_c   2.89842900
_cell_angle_alpha   90.00000000
_cell_angle_beta   90.00000000
_cell_angle_gamma   89.98095628
_symmetry_Int_Tables_number   1
_chemical_formula_structural   NbSi2B4Mo2Ru10W
_chemical_formula_sum   'Nb1 Si2 B4 Mo2 Ru10 W1'
_cell_volume   250.34560522
_cell_formula_units_Z   1
loop_
 _symmetry_equiv_pos_site_id
 _symmetry_equiv_pos_as_xyz
  1  'x, y, z'
loop_
 _atom_site_type_symbol
 _atom_site_label
 _atom_site_symmetry_multiplicity
 _atom_site_fract_x
 _atom_site_fract_y
 _atom_site_fract_z
 _atom_site_occupancy
  Nb  Nb0  1  0.677389  0.177389  0.000000  1
  Si  Si1  1  0.500978  0.498965  0.000000  1
  Si  Si2  1  0.998965  0.000978  0.000000  1
  B  B3  1  0.625671  0.874857  0.000000  1
  B  B4  1  0.374857  0.125671  0.000000  1
  B  B5  1  0.125418  0.625418  0.000000  1
  B  B6  1  0.875450  0.375450  0.000000  1
  Mo  Mo7  1  0.822516  0.677814  0.000000  1
  Mo  Mo8  1  0.177814  0.322516  0.000000  1
  Ru  Ru9  1  0.563882  0.710918  0.500000  1
  Ru  Ru10  1  0.430402  0.289888  0.500000  1
  Ru  Ru11  1  0.066153  0.789149  0.500000  1
  Ru  Ru12  1  0.938224  0.212682  0.500000  1
  Ru  Ru13  1  0.289149  0.566153  0.500000  1
  Ru  Ru14  1  0.712682  0.438224  0.500000  1
  Ru  Ru15  1  0.210918  0.063882  0.500000  1
  Ru  Ru16  1  0.789888  0.930402  0.500000  1
  Ru  Ru17  1  0.497609  0.997609  0.500000  1
  Ru  Ru18  1  0.000441  0.500441  0.500000  1
  W  W19  1  0.321595  0.821595  0.000000  1
