# generated using pymatgen
data_Er3MgIn4Ru
_symmetry_space_group_name_H-M   'P 1'
_cell_length_a   8.27354200
_cell_length_b   8.27354152
_cell_length_c   3.60129800
_cell_angle_alpha   90.00000000
_cell_angle_beta   90.00000000
_cell_angle_gamma   120.00000191
_symmetry_Int_Tables_number   1
_chemical_formula_structural   Er3MgIn4Ru
_chemical_formula_sum   'Er3 Mg1 In4 Ru1'
_cell_volume   213.48757786
_cell_formula_units_Z   1
loop_
 _symmetry_equiv_pos_site_id
 _symmetry_equiv_pos_as_xyz
  1  'x, y, z'
loop_
 _atom_site_type_symbol
 _atom_site_label
 _atom_site_symmetry_multiplicity
 _atom_site_fract_x
 _atom_site_fract_y
 _atom_site_fract_z
 _atom_site_occupancy
  Er  Er0  1  0.713918  0.961165  0.500000  1
  Er  Er1  1  0.247247  0.286082  0.500000  1
  Er  Er2  1  0.038835  0.752753  0.500000  1
  Mg  Mg3  1  0.666667  0.333333  0.500000  1
  In  In4  1  0.950742  0.335870  0.000000  1
  In  In5  1  0.385128  0.049258  0.000000  1
  In  In6  1  0.664130  0.614872  0.000000  1
  In  In7  1  0.333333  0.666667  0.000000  1
  Ru  Ru8  1  0.000000  0.000000  0.000000  1
