# generated using pymatgen
data_YbScB6Os
_symmetry_space_group_name_H-M   'P 1'
_cell_length_a   3.54215200
_cell_length_b   8.98226700
_cell_length_c   11.35743600
_cell_angle_alpha   90.00000000
_cell_angle_beta   90.00000000
_cell_angle_gamma   90.00000000
_symmetry_Int_Tables_number   1
_chemical_formula_structural   YbScB6Os
_chemical_formula_sum   'Yb4 Sc4 B24 Os4'
_cell_volume   361.35448736
_cell_formula_units_Z   4
loop_
 _symmetry_equiv_pos_site_id
 _symmetry_equiv_pos_as_xyz
  1  'x, y, z'
loop_
 _atom_site_type_symbol
 _atom_site_label
 _atom_site_symmetry_multiplicity
 _atom_site_fract_x
 _atom_site_fract_y
 _atom_site_fract_z
 _atom_site_occupancy
  Yb  Yb0  1  0.000000  0.322855  0.414743  1
  Yb  Yb1  1  0.000000  0.677145  0.585257  1
  Yb  Yb2  1  0.000000  0.822855  0.085257  1
  Yb  Yb3  1  0.000000  0.177145  0.914743  1
  Sc  Sc4  1  0.000000  0.943459  0.368627  1
  Sc  Sc5  1  0.000000  0.056541  0.631374  1
  Sc  Sc6  1  0.000000  0.443459  0.131373  1
  Sc  Sc7  1  0.000000  0.556541  0.868626  1
  B  B8  1  0.500000  0.554307  0.432666  1
  B  B9  1  0.500000  0.445693  0.567334  1
  B  B10  1  0.500000  0.054307  0.067334  1
  B  B11  1  0.500000  0.945693  0.932666  1
  B  B12  1  0.500000  0.752809  0.417538  1
  B  B13  1  0.500000  0.247191  0.582462  1
  B  B14  1  0.500000  0.252809  0.082462  1
  B  B15  1  0.500000  0.747191  0.917538  1
  B  B16  1  0.500000  0.794382  0.263983  1
  B  B17  1  0.500000  0.205618  0.736017  1
  B  B18  1  0.500000  0.294381  0.236017  1
  B  B19  1  0.500000  0.705618  0.763983  1
  B  B20  1  0.500000  0.629790  0.183186  1
  B  B21  1  0.500000  0.370210  0.816814  1
  B  B22  1  0.500000  0.129790  0.316814  1
  B  B23  1  0.500000  0.870210  0.683186  1
  B  B24  1  0.500000  0.981874  0.212605  1
  B  B25  1  0.500000  0.018126  0.787395  1
  B  B26  1  0.500000  0.481874  0.287395  1
  B  B27  1  0.500000  0.518126  0.712605  1
  B  B28  1  0.500000  0.594479  0.025538  1
  B  B29  1  0.500000  0.405521  0.974462  1
  B  B30  1  0.500000  0.094479  0.474462  1
  B  B31  1  0.500000  0.905521  0.525538  1
  Os  Os32  1  0.000000  0.640939  0.317830  1
  Os  Os33  1  0.000000  0.359061  0.682170  1
  Os  Os34  1  0.000000  0.140939  0.182170  1
  Os  Os35  1  0.000000  0.859061  0.817830  1
