# generated using pymatgen
data_CuB3IrPt3Au
_symmetry_space_group_name_H-M   'P 1'
_cell_length_a   14.07391985
_cell_length_b   14.07391950
_cell_length_c   2.79425700
_cell_angle_alpha   90.00000000
_cell_angle_beta   90.00000000
_cell_angle_gamma   168.14033913
_symmetry_Int_Tables_number   1
_chemical_formula_structural   CuB3IrPt3Au
_chemical_formula_sum   'Cu1 B3 Ir1 Pt3 Au1'
_cell_volume   113.74713384
_cell_formula_units_Z   1
loop_
 _symmetry_equiv_pos_site_id
 _symmetry_equiv_pos_as_xyz
  1  'x, y, z'
loop_
 _atom_site_type_symbol
 _atom_site_label
 _atom_site_symmetry_multiplicity
 _atom_site_fract_x
 _atom_site_fract_y
 _atom_site_fract_z
 _atom_site_occupancy
  Cu  Cu0  1  0.287618  0.712382  0.500000  1
  B  B1  1  0.389839  0.610161  0.500000  1
  B  B2  1  0.605243  0.394757  0.000000  1
  B  B3  1  0.986438  0.013562  0.500000  1
  Ir  Ir4  1  0.452553  0.547447  0.000000  1
  Pt  Pt5  1  0.138674  0.861326  0.500000  1
  Pt  Pt6  1  0.856997  0.143003  0.000000  1
  Pt  Pt7  1  0.544408  0.455592  0.500000  1
  Au  Au8  1  0.722229  0.277771  0.000000  1
