# generated using pymatgen
data_Na2Pa4O11
_symmetry_space_group_name_H-M   'P 1'
_cell_length_a   6.86602795
_cell_length_b   6.86602768
_cell_length_c   13.87207184
_cell_angle_alpha   75.65818423
_cell_angle_beta   75.65818572
_cell_angle_gamma   59.98008899
_symmetry_Int_Tables_number   1
_chemical_formula_structural   Na2Pa4O11
_chemical_formula_sum   'Na4 Pa8 O22'
_cell_volume   542.58252785
_cell_formula_units_Z   2
loop_
 _symmetry_equiv_pos_site_id
 _symmetry_equiv_pos_as_xyz
  1  'x, y, z'
loop_
 _atom_site_type_symbol
 _atom_site_label
 _atom_site_symmetry_multiplicity
 _atom_site_fract_x
 _atom_site_fract_y
 _atom_site_fract_z
 _atom_site_occupancy
  Na  Na0  1  0.340403  0.848113  0.477993  1
  Na  Na1  1  0.848113  0.340403  0.977993  1
  Na  Na2  1  0.165098  0.660760  0.020801  1
  Na  Na3  1  0.660760  0.165098  0.520801  1
  Pa  Pa4  1  0.750697  0.609287  0.250084  1
  Pa  Pa5  1  0.609287  0.750697  0.750084  1
  Pa  Pa6  1  0.393231  0.251856  0.249821  1
  Pa  Pa7  1  0.251856  0.393231  0.749821  1
  Pa  Pa8  1  0.108426  0.893972  0.249973  1
  Pa  Pa9  1  0.893972  0.108426  0.749973  1
  Pa  Pa10  1  0.501938  0.000888  0.999868  1
  Pa  Pa11  1  0.000888  0.501938  0.499868  1
  O  O12  1  0.751669  0.713386  0.089725  1
  O  O13  1  0.713386  0.751669  0.589725  1
  O  O14  1  0.288670  0.251233  0.410212  1
  O  O15  1  0.251233  0.288670  0.910212  1
  O  O16  1  0.750148  0.553568  0.410482  1
  O  O17  1  0.553568  0.750148  0.910482  1
  O  O18  1  0.447816  0.251929  0.089601  1
  O  O19  1  0.251929  0.447816  0.589601  1
  O  O20  1  0.213432  0.949208  0.089550  1
  O  O21  1  0.949208  0.213432  0.589550  1
  O  O22  1  0.052625  0.790135  0.410287  1
  O  O23  1  0.790135  0.052625  0.910287  1
  O  O24  1  0.007145  0.251650  0.250008  1
  O  O25  1  0.251650  0.007145  0.750008  1
  O  O26  1  0.750676  0.994901  0.249795  1
  O  O27  1  0.994901  0.750676  0.749795  1
  O  O28  1  0.406443  0.907759  0.282581  1
  O  O29  1  0.907759  0.406443  0.782581  1
  O  O30  1  0.094722  0.595664  0.217860  1
  O  O31  1  0.595664  0.094722  0.717860  1
  O  O32  1  0.493441  0.509093  0.249917  1
  O  O33  1  0.509093  0.493441  0.749917  1
