# generated using pymatgen
data_Lu2PaFe3
_symmetry_space_group_name_H-M   'P 1'
_cell_length_a   5.05808244
_cell_length_b   5.05808300
_cell_length_c   5.05808383
_cell_angle_alpha   66.10439192
_cell_angle_beta   66.10438905
_cell_angle_gamma   66.10439605
_symmetry_Int_Tables_number   1
_chemical_formula_structural   Lu2PaFe3
_chemical_formula_sum   'Lu2 Pa1 Fe3'
_cell_volume   103.58076059
_cell_formula_units_Z   1
loop_
 _symmetry_equiv_pos_site_id
 _symmetry_equiv_pos_as_xyz
  1  'x, y, z'
loop_
 _atom_site_type_symbol
 _atom_site_label
 _atom_site_symmetry_multiplicity
 _atom_site_fract_x
 _atom_site_fract_y
 _atom_site_fract_z
 _atom_site_occupancy
  Lu  Lu0  1  0.627625  0.627625  0.627625  1
  Lu  Lu1  1  0.372375  0.372375  0.372375  1
  Pa  Pa2  1  0.000000  0.000000  0.000000  1
  Fe  Fe3  1  0.000000  0.500000  0.000000  1
  Fe  Fe4  1  0.500000  0.000000  0.000000  1
  Fe  Fe5  1  0.000000  0.000000  0.500000  1
