# generated using pymatgen
data_Dy8Ti10ReSi16Tc
_symmetry_space_group_name_H-M   'P 1'
_cell_length_a   7.00327634
_cell_length_b   6.98406937
_cell_length_c   12.90215151
_cell_angle_alpha   90.30152618
_cell_angle_beta   89.94949738
_cell_angle_gamma   89.99029929
_symmetry_Int_Tables_number   1
_chemical_formula_structural   Dy8Ti10ReSi16Tc
_chemical_formula_sum   'Dy8 Ti10 Re1 Si16 Tc1'
_cell_volume   631.05288441
_cell_formula_units_Z   1
loop_
 _symmetry_equiv_pos_site_id
 _symmetry_equiv_pos_as_xyz
  1  'x, y, z'
loop_
 _atom_site_type_symbol
 _atom_site_label
 _atom_site_symmetry_multiplicity
 _atom_site_fract_x
 _atom_site_fract_y
 _atom_site_fract_z
 _atom_site_occupancy
  Dy  Dy0  1  0.998885  0.659274  0.035811  1
  Dy  Dy1  1  0.001647  0.340419  0.529853  1
  Dy  Dy2  1  0.659759  0.997160  0.967022  1
  Dy  Dy3  1  0.159127  0.502203  0.782963  1
  Dy  Dy4  1  0.840776  0.496523  0.283290  1
  Dy  Dy5  1  0.501960  0.159527  0.220267  1
  Dy  Dy6  1  0.498356  0.840609  0.714210  1
  Dy  Dy7  1  0.340827  0.002540  0.466648  1
  Ti  Ti8  1  0.009648  0.157379  0.127218  1
  Ti  Ti9  1  0.997042  0.842505  0.622844  1
  Ti  Ti10  1  0.508869  0.342998  0.623217  1
  Ti  Ti11  1  0.154172  0.006230  0.873992  1
  Ti  Ti12  1  0.672609  0.673760  0.497687  1
  Ti  Ti13  1  0.827383  0.171785  0.749257  1
  Ti  Ti14  1  0.171437  0.828446  0.252058  1
  Ti  Ti15  1  0.328080  0.328375  0.001001  1
  Ti  Ti16  1  0.497842  0.657566  0.126413  1
  Ti  Ti17  1  0.654222  0.493464  0.876218  1
  Re  Re18  1  0.843057  0.989250  0.375582  1
  Si  Si19  1  0.044466  0.711582  0.436218  1
  Si  Si20  1  0.955849  0.290187  0.935967  1
  Si  Si21  1  0.710212  0.044303  0.562440  1
  Si  Si22  1  0.210607  0.456553  0.187653  1
  Si  Si23  1  0.790789  0.545783  0.685013  1
  Si  Si24  1  0.455452  0.209492  0.814440  1
  Si  Si25  1  0.544503  0.787487  0.313423  1
  Si  Si26  1  0.291538  0.954696  0.064897  1
  Si  Si27  1  0.799060  0.870796  0.186624  1
  Si  Si28  1  0.298681  0.629576  0.563385  1
  Si  Si29  1  0.700521  0.368301  0.067023  1
  Si  Si30  1  0.625879  0.299376  0.433543  1
  Si  Si31  1  0.368994  0.702298  0.934365  1
  Si  Si32  1  0.126037  0.200014  0.316784  1
  Si  Si33  1  0.199964  0.131489  0.682955  1
  Si  Si34  1  0.869060  0.797568  0.815202  1
  Tc  Tc35  1  0.342688  0.510485  0.374519  1
