# generated using pymatgen
data_Tb5Ho11Cd4TcNi3
_symmetry_space_group_name_H-M   'P 1'
_cell_length_a   9.56989829
_cell_length_b   9.56895700
_cell_length_c   9.56895705
_cell_angle_alpha   59.45845720
_cell_angle_beta   59.45736180
_cell_angle_gamma   59.45736103
_symmetry_Int_Tables_number   1
_chemical_formula_structural   Tb5Ho11Cd4TcNi3
_chemical_formula_sum   'Tb5 Ho11 Cd4 Tc1 Ni3'
_cell_volume   611.97093618
_cell_formula_units_Z   1
loop_
 _symmetry_equiv_pos_site_id
 _symmetry_equiv_pos_as_xyz
  1  'x, y, z'
loop_
 _atom_site_type_symbol
 _atom_site_label
 _atom_site_symmetry_multiplicity
 _atom_site_fract_x
 _atom_site_fract_y
 _atom_site_fract_z
 _atom_site_occupancy
  Tb  Tb0  1  0.555465  0.939240  0.939240  1
  Tb  Tb1  1  0.565061  0.936137  0.564849  1
  Tb  Tb2  1  0.939246  0.555556  0.938947  1
  Tb  Tb3  1  0.565061  0.564849  0.936137  1
  Tb  Tb4  1  0.939246  0.938947  0.555556  1
  Ho  Ho5  1  0.347288  0.347565  0.347565  1
  Ho  Ho6  1  0.351331  0.351391  0.954376  1
  Ho  Ho7  1  0.351331  0.954376  0.351391  1
  Ho  Ho8  1  0.954173  0.351495  0.351495  1
  Ho  Ho9  1  0.810855  0.187625  0.187625  1
  Ho  Ho10  1  0.187024  0.811043  0.811043  1
  Ho  Ho11  1  0.187513  0.810733  0.187829  1
  Ho  Ho12  1  0.811142  0.187143  0.810928  1
  Ho  Ho13  1  0.187513  0.187829  0.810733  1
  Ho  Ho14  1  0.811142  0.810928  0.187143  1
  Ho  Ho15  1  0.936422  0.564730  0.564730  1
  Cd  Cd16  1  0.580047  0.579848  0.579848  1
  Cd  Cd17  1  0.579795  0.579787  0.256317  1
  Cd  Cd18  1  0.579795  0.256317  0.579787  1
  Cd  Cd19  1  0.256048  0.579833  0.579833  1
  Tc  Tc20  1  0.143497  0.143425  0.143425  1
  Ni  Ni21  1  0.142753  0.142935  0.575463  1
  Ni  Ni22  1  0.142753  0.575463  0.142935  1
  Ni  Ni23  1  0.575502  0.142808  0.142808  1
