# generated using pymatgen
data_Tm8CdCo2Ag
_symmetry_space_group_name_H-M   'P 1'
_cell_length_a   9.32375756
_cell_length_b   9.32375626
_cell_length_c   9.32052700
_cell_angle_alpha   60.01145996
_cell_angle_beta   60.01146458
_cell_angle_gamma   60.02067432
_symmetry_Int_Tables_number   1
_chemical_formula_structural   Tm8CdCo2Ag
_chemical_formula_sum   'Tm16 Cd2 Co4 Ag2'
_cell_volume   573.12639498
_cell_formula_units_Z   2
loop_
 _symmetry_equiv_pos_site_id
 _symmetry_equiv_pos_as_xyz
  1  'x, y, z'
loop_
 _atom_site_type_symbol
 _atom_site_label
 _atom_site_symmetry_multiplicity
 _atom_site_fract_x
 _atom_site_fract_y
 _atom_site_fract_z
 _atom_site_occupancy
  Tm  Tm0  1  0.596530  0.596530  0.597077  1
  Tm  Tm1  1  0.596530  0.596530  0.209863  1
  Tm  Tm2  1  0.596119  0.209920  0.596981  1
  Tm  Tm3  1  0.209920  0.596119  0.596981  1
  Tm  Tm4  1  0.062449  0.437184  0.438321  1
  Tm  Tm5  1  0.437184  0.062449  0.062047  1
  Tm  Tm6  1  0.437184  0.062449  0.438321  1
  Tm  Tm7  1  0.062449  0.437184  0.062047  1
  Tm  Tm8  1  0.437409  0.437409  0.062591  1
  Tm  Tm9  1  0.061457  0.061457  0.438543  1
  Tm  Tm10  1  0.185037  0.811530  0.813326  1
  Tm  Tm11  1  0.811530  0.185037  0.190106  1
  Tm  Tm12  1  0.811530  0.185037  0.813326  1
  Tm  Tm13  1  0.185037  0.811530  0.190106  1
  Tm  Tm14  1  0.811402  0.811402  0.188598  1
  Tm  Tm15  1  0.186342  0.186342  0.813658  1
  Cd  Cd16  1  0.831792  0.511446  0.828381  1
  Cd  Cd17  1  0.511446  0.831792  0.828381  1
  Co  Co18  1  0.391698  0.391698  0.390506  1
  Co  Co19  1  0.391698  0.391698  0.826096  1
  Co  Co20  1  0.391351  0.826296  0.391175  1
  Co  Co21  1  0.826296  0.391351  0.391175  1
  Ag  Ag22  1  0.833803  0.833803  0.832058  1
  Ag  Ag23  1  0.833803  0.833803  0.500335  1
