# generated using pymatgen
data_La2Zr3Pb4
_symmetry_space_group_name_H-M   'P 1'
_cell_length_a   8.12145700
_cell_length_b   8.11189300
_cell_length_c   15.19810700
_cell_angle_alpha   90.00000000
_cell_angle_beta   90.00000000
_cell_angle_gamma   90.00000000
_symmetry_Int_Tables_number   1
_chemical_formula_structural   La2Zr3Pb4
_chemical_formula_sum   'La8 Zr12 Pb16'
_cell_volume   1001.25721928
_cell_formula_units_Z   4
loop_
 _symmetry_equiv_pos_site_id
 _symmetry_equiv_pos_as_xyz
  1  'x, y, z'
loop_
 _atom_site_type_symbol
 _atom_site_label
 _atom_site_symmetry_multiplicity
 _atom_site_fract_x
 _atom_site_fract_y
 _atom_site_fract_z
 _atom_site_occupancy
  La  La0  1  0.014038  0.174934  0.092550  1
  La  La1  1  0.514038  0.325066  0.407450  1
  La  La2  1  0.485962  0.674934  0.907450  1
  La  La3  1  0.985962  0.825066  0.592550  1
  La  La4  1  0.985962  0.825066  0.907450  1
  La  La5  1  0.485962  0.674934  0.592550  1
  La  La6  1  0.514038  0.325066  0.092550  1
  La  La7  1  0.014038  0.174934  0.407450  1
  Zr  Zr8  1  0.848926  0.657295  0.129478  1
  Zr  Zr9  1  0.348926  0.842705  0.370522  1
  Zr  Zr10  1  0.651074  0.157295  0.870522  1
  Zr  Zr11  1  0.151074  0.342705  0.629478  1
  Zr  Zr12  1  0.151074  0.342705  0.870522  1
  Zr  Zr13  1  0.651074  0.157295  0.629478  1
  Zr  Zr14  1  0.348926  0.842705  0.129478  1
  Zr  Zr15  1  0.848926  0.657295  0.370522  1
  Zr  Zr16  1  0.671130  0.989300  0.250000  1
  Zr  Zr17  1  0.171130  0.510700  0.250000  1
  Zr  Zr18  1  0.828870  0.489300  0.750000  1
  Zr  Zr19  1  0.328870  0.010700  0.750000  1
  Pb  Pb20  1  0.042431  0.873210  0.250000  1
  Pb  Pb21  1  0.542431  0.626790  0.250000  1
  Pb  Pb22  1  0.457569  0.373210  0.750000  1
  Pb  Pb23  1  0.957569  0.126790  0.750000  1
  Pb  Pb24  1  0.820705  0.347030  0.250000  1
  Pb  Pb25  1  0.320705  0.152970  0.250000  1
  Pb  Pb26  1  0.679295  0.847030  0.750000  1
  Pb  Pb27  1  0.179295  0.652970  0.750000  1
  Pb  Pb28  1  0.813040  0.453505  0.954128  1
  Pb  Pb29  1  0.313040  0.046495  0.545872  1
  Pb  Pb30  1  0.686960  0.953505  0.045872  1
  Pb  Pb31  1  0.186960  0.546495  0.454128  1
  Pb  Pb32  1  0.186960  0.546495  0.045872  1
  Pb  Pb33  1  0.686960  0.953505  0.454128  1
  Pb  Pb34  1  0.313040  0.046495  0.954128  1
  Pb  Pb35  1  0.813040  0.453505  0.545872  1
