# generated using pymatgen
data_NaCu4(SeS)2
_symmetry_space_group_name_H-M   'P 1'
_cell_length_a   3.90584300
_cell_length_b   3.90584389
_cell_length_c   12.54447700
_cell_angle_alpha   90.00000000
_cell_angle_beta   90.00000000
_cell_angle_gamma   120.00000093
_symmetry_Int_Tables_number   1
_chemical_formula_structural   NaCu4(SeS)2
_chemical_formula_sum   'Na1 Cu4 Se2 S2'
_cell_volume   165.73447266
_cell_formula_units_Z   1
loop_
 _symmetry_equiv_pos_site_id
 _symmetry_equiv_pos_as_xyz
  1  'x, y, z'
loop_
 _atom_site_type_symbol
 _atom_site_label
 _atom_site_symmetry_multiplicity
 _atom_site_fract_x
 _atom_site_fract_y
 _atom_site_fract_z
 _atom_site_occupancy
  Na  Na0  1  0.000000  0.000000  0.500000  1
  Cu  Cu1  1  0.666667  0.333333  0.836700  1
  Cu  Cu2  1  0.333333  0.666667  0.163300  1
  Cu  Cu3  1  0.333333  0.666667  0.682601  1
  Cu  Cu4  1  0.666667  0.333333  0.317399  1
  Se  Se5  1  0.000000  0.000000  0.904064  1
  Se  Se6  1  0.000000  0.000000  0.095936  1
  S  S7  1  0.666667  0.333333  0.653208  1
  S  S8  1  0.333333  0.666667  0.346792  1
