# generated using pymatgen
data_Sn5Au6
_symmetry_space_group_name_H-M   'P 1'
_cell_length_a   16.09681700
_cell_length_b   16.09681696
_cell_length_c   4.05642000
_cell_angle_alpha   90.00000000
_cell_angle_beta   90.00000000
_cell_angle_gamma   166.04117235
_symmetry_Int_Tables_number   1
_chemical_formula_structural   Sn5Au6
_chemical_formula_sum   'Sn5 Au6'
_cell_volume   253.53883860
_cell_formula_units_Z   1
loop_
 _symmetry_equiv_pos_site_id
 _symmetry_equiv_pos_as_xyz
  1  'x, y, z'
loop_
 _atom_site_type_symbol
 _atom_site_label
 _atom_site_symmetry_multiplicity
 _atom_site_fract_x
 _atom_site_fract_y
 _atom_site_fract_z
 _atom_site_occupancy
  Sn  Sn0  1  0.000000  0.000000  0.000000  1
  Sn  Sn1  1  0.617257  0.382743  0.000000  1
  Sn  Sn2  1  0.382743  0.617257  0.000000  1
  Sn  Sn3  1  0.803565  0.196434  0.500000  1
  Sn  Sn4  1  0.196434  0.803565  0.500000  1
  Au  Au5  1  0.714803  0.285197  0.000000  1
  Au  Au6  1  0.285197  0.714803  0.000000  1
  Au  Au7  1  0.892895  0.107105  0.500000  1
  Au  Au8  1  0.542462  0.457537  0.500000  1
  Au  Au9  1  0.457537  0.542462  0.500000  1
  Au  Au10  1  0.107105  0.892895  0.500000  1
