# generated using pymatgen
data_Ti2Nb12Si3As5
_symmetry_space_group_name_H-M   'P 1'
_cell_length_a   3.53481900
_cell_length_b   7.92444172
_cell_length_c   14.09680918
_cell_angle_alpha   103.86554426
_cell_angle_beta   90.00000000
_cell_angle_gamma   102.88722348
_symmetry_Int_Tables_number   1
_chemical_formula_structural   Ti2Nb12Si3As5
_chemical_formula_sum   'Ti2 Nb12 Si3 As5'
_cell_volume   373.11296720
_cell_formula_units_Z   1
loop_
 _symmetry_equiv_pos_site_id
 _symmetry_equiv_pos_as_xyz
  1  'x, y, z'
loop_
 _atom_site_type_symbol
 _atom_site_label
 _atom_site_symmetry_multiplicity
 _atom_site_fract_x
 _atom_site_fract_y
 _atom_site_fract_z
 _atom_site_occupancy
  Ti  Ti0  1  0.000294  0.000589  0.999794  1
  Ti  Ti1  1  0.498079  0.996158  0.500739  1
  Nb  Nb2  1  0.426765  0.853532  0.824097  1
  Nb  Nb3  1  0.572614  0.145228  0.171142  1
  Nb  Nb4  1  0.196459  0.392919  0.307517  1
  Nb  Nb5  1  0.802966  0.605933  0.691244  1
  Nb  Nb6  1  0.211909  0.423817  0.799409  1
  Nb  Nb7  1  0.788387  0.576774  0.200505  1
  Nb  Nb8  1  0.331951  0.663902  0.028965  1
  Nb  Nb9  1  0.668117  0.336235  0.970102  1
  Nb  Nb10  1  0.998734  0.997468  0.660773  1
  Nb  Nb11  1  0.999713  0.999426  0.338325  1
  Nb  Nb12  1  0.181975  0.363950  0.548191  1
  Nb  Nb13  1  0.822270  0.644541  0.456750  1
  Si  Si14  1  0.173925  0.347849  0.107464  1
  Si  Si15  1  0.826741  0.653484  0.891609  1
  Si  Si16  1  0.372744  0.745490  0.599970  1
  As  As17  1  0.627767  0.255532  0.403296  1
  As  As18  1  0.372715  0.745428  0.335320  1
  As  As19  1  0.626051  0.252103  0.665476  1
  As  As20  1  0.061803  0.123606  0.849193  1
  As  As21  1  0.938018  0.876036  0.150120  1
