# generated using pymatgen
data_Re6As13Au
_symmetry_space_group_name_H-M   'P 1'
_cell_length_a   7.67663526
_cell_length_b   7.67660268
_cell_length_c   7.67663473
_cell_angle_alpha   110.52629498
_cell_angle_beta   107.38188350
_cell_angle_gamma   110.52630034
_symmetry_Int_Tables_number   1
_chemical_formula_structural   Re6As13Au
_chemical_formula_sum   'Re6 As13 Au1'
_cell_volume   347.89888498
_cell_formula_units_Z   1
loop_
 _symmetry_equiv_pos_site_id
 _symmetry_equiv_pos_as_xyz
  1  'x, y, z'
loop_
 _atom_site_type_symbol
 _atom_site_label
 _atom_site_symmetry_multiplicity
 _atom_site_fract_x
 _atom_site_fract_y
 _atom_site_fract_z
 _atom_site_occupancy
  Re  Re0  1  0.340707  0.000002  0.340713  1
  Re  Re1  1  0.011980  0.338447  0.350426  1
  Re  Re2  1  0.011972  0.661556  0.673530  1
  Re  Re3  1  0.326470  0.338444  0.988028  1
  Re  Re4  1  0.649574  0.661553  0.988020  1
  Re  Re5  1  0.659287  0.999998  0.659293  1
  As  As6  1  0.500746  0.748256  0.249001  1
  As  As7  1  0.500749  0.251748  0.752489  1
  As  As8  1  0.750999  0.251744  0.499254  1
  As  As9  1  0.247511  0.748252  0.499251  1
  As  As10  1  0.249999  0.500000  0.750001  1
  As  As11  1  0.996425  0.992604  0.326888  1
  As  As12  1  0.673112  0.007396  0.003575  1
  As  As13  1  0.996422  0.669531  0.003818  1
  As  As14  1  0.334284  0.330461  0.326891  1
  As  As15  1  0.996182  0.330469  0.003578  1
  As  As16  1  0.673109  0.669539  0.665716  1
  As  As17  1  0.334294  0.007399  0.003828  1
  As  As18  1  0.996172  0.992601  0.665706  1
  Au  Au19  1  0.750007  0.500000  0.249993  1
