# generated using pymatgen
data_Ti8Al15TcPd6
_symmetry_space_group_name_H-M   'P 1'
_cell_length_a   8.70296465
_cell_length_b   8.70296474
_cell_length_c   8.70296400
_cell_angle_alpha   120.18125658
_cell_angle_beta   119.71557424
_cell_angle_gamma   90.08984946
_symmetry_Int_Tables_number   1
_chemical_formula_structural   Ti8Al15TcPd6
_chemical_formula_sum   'Ti8 Al15 Tc1 Pd6'
_cell_volume   466.46124632
_cell_formula_units_Z   1
loop_
 _symmetry_equiv_pos_site_id
 _symmetry_equiv_pos_as_xyz
  1  'x, y, z'
loop_
 _atom_site_type_symbol
 _atom_site_label
 _atom_site_symmetry_multiplicity
 _atom_site_fract_x
 _atom_site_fract_y
 _atom_site_fract_z
 _atom_site_occupancy
  Ti  Ti0  1  0.786997  0.288268  0.073216  1
  Ti  Ti1  1  0.215058  0.288271  0.501274  1
  Ti  Ti2  1  0.212020  0.711998  0.499978  1
  Ti  Ti3  1  0.215054  0.713747  0.926808  1
  Ti  Ti4  1  0.786937  0.713752  0.498693  1
  Ti  Ti5  1  0.783652  0.283678  0.500027  1
  Ti  Ti6  1  0.381804  0.120053  0.738267  1
  Ti  Ti7  1  0.381875  0.643566  0.261661  1
  Al  Al8  1  0.997453  0.497643  0.500200  1
  Al  Al9  1  0.156596  0.346897  0.190285  1
  Al  Al10  1  0.156462  0.966111  0.809672  1
  Al  Al11  1  0.156051  0.344616  0.811716  1
  Al  Al12  1  0.532895  0.344594  0.188546  1
  Al  Al13  1  0.845577  0.655101  0.809546  1
  Al  Al14  1  0.845449  0.035859  0.190397  1
  Al  Al15  1  0.844780  0.656102  0.188831  1
  Al  Al16  1  0.467268  0.656116  0.811338  1
  Al  Al17  1  0.380570  0.119158  0.261243  1
  Al  Al18  1  0.857916  0.119175  0.738601  1
  Al  Al19  1  0.619881  0.879552  0.259655  1
  Al  Al20  1  0.619975  0.360275  0.740309  1
  Al  Al21  1  0.620318  0.879323  0.740815  1
  Al  Al22  1  0.138508  0.879311  0.258990  1
  Tc  Tc23  1  0.497107  0.997011  0.499901  1
  Pd  Pd24  1  0.997336  0.999535  0.498591  1
  Pd  Pd25  1  0.500943  0.999532  0.002198  1
  Pd  Pd26  1  0.501756  0.501792  0.000037  1
  Pd  Pd27  1  0.500985  0.498789  0.501436  1
  Pd  Pd28  1  0.997354  0.498791  0.997807  1
  Pd  Pd29  1  0.001419  0.001384  0.999964  1
