# generated using pymatgen
data_LiEu3Ag2P3
_symmetry_space_group_name_H-M   'P 1'
_cell_length_a   7.14798500
_cell_length_b   7.17912214
_cell_length_c   4.28121800
_cell_angle_alpha   90.00000000
_cell_angle_beta   90.00000000
_cell_angle_gamma   119.85662609
_symmetry_Int_Tables_number   1
_chemical_formula_structural   LiEu3Ag2P3
_chemical_formula_sum   'Li1 Eu3 Ag2 P3'
_cell_volume   190.53667237
_cell_formula_units_Z   1
loop_
 _symmetry_equiv_pos_site_id
 _symmetry_equiv_pos_as_xyz
  1  'x, y, z'
loop_
 _atom_site_type_symbol
 _atom_site_label
 _atom_site_symmetry_multiplicity
 _atom_site_fract_x
 _atom_site_fract_y
 _atom_site_fract_z
 _atom_site_occupancy
  Li  Li0  1  0.766206  0.000000  0.000000  1
  Eu  Eu1  1  0.409661  0.000000  0.500000  1
  Eu  Eu2  1  0.001591  0.416079  0.500000  1
  Eu  Eu3  1  0.585512  0.583921  0.500000  1
  Ag  Ag4  1  0.244334  0.246107  0.000000  1
  Ag  Ag5  1  0.998227  0.753893  0.000000  1
  P  P6  1  0.666178  0.329722  0.000000  1
  P  P7  1  0.336455  0.670278  0.000000  1
  P  P8  1  0.991838  0.000000  0.500000  1
