# generated using pymatgen
data_Tb4Y4Re3B24Rh
_symmetry_space_group_name_H-M   'P 1'
_cell_length_a   3.68729500
_cell_length_b   9.18237589
_cell_length_c   11.56779224
_cell_angle_alpha   89.85598252
_cell_angle_beta   90.00000000
_cell_angle_gamma   90.00000000
_symmetry_Int_Tables_number   1
_chemical_formula_structural   Tb4Y4Re3B24Rh
_chemical_formula_sum   'Tb4 Y4 Re3 B24 Rh1'
_cell_volume   391.66256102
_cell_formula_units_Z   1
loop_
 _symmetry_equiv_pos_site_id
 _symmetry_equiv_pos_as_xyz
  1  'x, y, z'
loop_
 _atom_site_type_symbol
 _atom_site_label
 _atom_site_symmetry_multiplicity
 _atom_site_fract_x
 _atom_site_fract_y
 _atom_site_fract_z
 _atom_site_occupancy
  Tb  Tb0  1  0.000000  0.818569  0.084648  1
  Tb  Tb1  1  0.000000  0.177970  0.908953  1
  Tb  Tb2  1  0.000000  0.327320  0.418469  1
  Tb  Tb3  1  0.000000  0.677386  0.587375  1
  Y  Y4  1  0.000000  0.443015  0.129942  1
  Y  Y5  1  0.000000  0.555999  0.871384  1
  Y  Y6  1  0.000000  0.941161  0.371118  1
  Y  Y7  1  0.000000  0.057074  0.628186  1
  Re  Re8  1  0.000000  0.862700  0.822380  1
  Re  Re9  1  0.000000  0.638149  0.320095  1
  Re  Re10  1  0.000000  0.362044  0.679065  1
  B  B11  1  0.500000  0.053690  0.066544  1
  B  B12  1  0.500000  0.946587  0.932916  1
  B  B13  1  0.500000  0.553585  0.433246  1
  B  B14  1  0.500000  0.447554  0.567731  1
  B  B15  1  0.500000  0.248132  0.079919  1
  B  B16  1  0.500000  0.751252  0.918784  1
  B  B17  1  0.500000  0.748688  0.418357  1
  B  B18  1  0.500000  0.252772  0.581389  1
  B  B19  1  0.500000  0.290184  0.234637  1
  B  B20  1  0.500000  0.709099  0.766222  1
  B  B21  1  0.500000  0.790974  0.264981  1
  B  B22  1  0.500000  0.208924  0.733851  1
  B  B23  1  0.500000  0.131818  0.315459  1
  B  B24  1  0.500000  0.869457  0.686265  1
  B  B25  1  0.500000  0.630638  0.185570  1
  B  B26  1  0.500000  0.368417  0.814107  1
  B  B27  1  0.500000  0.483151  0.288215  1
  B  B28  1  0.500000  0.517372  0.713096  1
  B  B29  1  0.500000  0.983252  0.211852  1
  B  B30  1  0.500000  0.017959  0.787551  1
  B  B31  1  0.500000  0.104918  0.470170  1
  B  B32  1  0.500000  0.896713  0.528122  1
  B  B33  1  0.500000  0.602416  0.029380  1
  B  B34  1  0.500000  0.393790  0.971512  1
  Rh  Rh35  1  0.000000  0.137266  0.178513  1
