# generated using pymatgen
data_Zr6Ti2Al15Pt5Rh2
_symmetry_space_group_name_H-M   'P 1'
_cell_length_a   8.86339650
_cell_length_b   8.86339543
_cell_length_c   8.86339633
_cell_angle_alpha   119.99221107
_cell_angle_beta   119.80156594
_cell_angle_gamma   90.17876875
_symmetry_Int_Tables_number   1
_chemical_formula_structural   Zr6Ti2Al15Pt5Rh2
_chemical_formula_sum   'Zr6 Ti2 Al15 Pt5 Rh2'
_cell_volume   493.12612667
_cell_formula_units_Z   1
loop_
 _symmetry_equiv_pos_site_id
 _symmetry_equiv_pos_as_xyz
  1  'x, y, z'
loop_
 _atom_site_type_symbol
 _atom_site_label
 _atom_site_symmetry_multiplicity
 _atom_site_fract_x
 _atom_site_fract_y
 _atom_site_fract_z
 _atom_site_occupancy
  Zr  Zr0  1  0.792883  0.293014  0.082271  1
  Zr  Zr1  1  0.210743  0.293014  0.500130  1
  Zr  Zr2  1  0.206877  0.706877  0.500000  1
  Zr  Zr3  1  0.210743  0.710612  0.917729  1
  Zr  Zr4  1  0.792883  0.710612  0.499870  1
  Zr  Zr5  1  0.785985  0.285985  0.500000  1
  Ti  Ti6  1  0.379305  0.119978  0.740674  1
  Ti  Ti7  1  0.379305  0.638631  0.259326  1
  Al  Al8  1  0.995443  0.495443  0.500000  1
  Al  Al9  1  0.164009  0.334756  0.170746  1
  Al  Al10  1  0.164009  0.993263  0.829254  1
  Al  Al11  1  0.163043  0.337038  0.826003  1
  Al  Al12  1  0.511034  0.337038  0.173997  1
  Al  Al13  1  0.838195  0.667489  0.829294  1
  Al  Al14  1  0.838195  0.008900  0.170706  1
  Al  Al15  1  0.835591  0.665470  0.170122  1
  Al  Al16  1  0.495348  0.665470  0.829878  1
  Al  Al17  1  0.374649  0.116597  0.258052  1
  Al  Al18  1  0.858545  0.116597  0.741948  1
  Al  Al19  1  0.618977  0.878703  0.259726  1
  Al  Al20  1  0.618977  0.359251  0.740274  1
  Al  Al21  1  0.623784  0.881816  0.741968  1
  Al  Al22  1  0.139847  0.881816  0.258032  1
  Pt  Pt23  1  0.999599  0.999975  0.499537  1
  Pt  Pt24  1  0.500438  0.999975  0.000376  1
  Pt  Pt25  1  0.500814  0.500814  0.000000  1
  Pt  Pt26  1  0.500438  0.500062  0.500463  1
  Pt  Pt27  1  0.999599  0.500062  0.999624  1
  Rh  Rh28  1  0.002603  0.002603  0.000000  1
  Rh  Rh29  1  0.498131  0.998131  0.500000  1
