# generated using pymatgen
data_LaTm5FeCl10
_symmetry_space_group_name_H-M   'P 1'
_cell_length_a   7.06606847
_cell_length_b   8.85314647
_cell_length_c   8.65272600
_cell_angle_alpha   106.93133912
_cell_angle_beta   94.94574035
_cell_angle_gamma   105.59469530
_symmetry_Int_Tables_number   1
_chemical_formula_structural   LaTm5FeCl10
_chemical_formula_sum   'La1 Tm5 Fe1 Cl10'
_cell_volume   490.75040449
_cell_formula_units_Z   1
loop_
 _symmetry_equiv_pos_site_id
 _symmetry_equiv_pos_as_xyz
  1  'x, y, z'
loop_
 _atom_site_type_symbol
 _atom_site_label
 _atom_site_symmetry_multiplicity
 _atom_site_fract_x
 _atom_site_fract_y
 _atom_site_fract_z
 _atom_site_occupancy
  La  La0  1  0.876252  0.951859  0.237388  1
  Tm  Tm1  1  0.124267  0.048400  0.771091  1
  Tm  Tm2  1  0.031885  0.697218  0.900806  1
  Tm  Tm3  1  0.969823  0.301958  0.093393  1
  Tm  Tm4  1  0.638039  0.863520  0.820832  1
  Tm  Tm5  1  0.362140  0.137757  0.181363  1
  Fe  Fe6  1  0.989835  0.994950  0.017223  1
  Cl  Cl7  1  0.663434  0.559516  0.730437  1
  Cl  Cl8  1  0.335805  0.441708  0.264868  1
  Cl  Cl9  1  0.767905  0.924671  0.560461  1
  Cl  Cl10  1  0.267073  0.087185  0.458574  1
  Cl  Cl11  1  0.918096  0.613648  0.158566  1
  Cl  Cl12  1  0.088330  0.363172  0.825531  1
  Cl  Cl13  1  0.532041  0.168759  0.909471  1
  Cl  Cl14  1  0.443173  0.821195  0.074949  1
  Cl  Cl15  1  0.222924  0.758288  0.660683  1
  Cl  Cl16  1  0.768979  0.266200  0.334363  1
