# generated using pymatgen
data_Eu9TlSe10
_symmetry_space_group_name_H-M   'P 1'
_cell_length_a   7.47201152
_cell_length_b   8.62439064
_cell_length_c   9.64413500
_cell_angle_alpha   102.87713369
_cell_angle_beta   97.38345145
_cell_angle_gamma   106.75111678
_symmetry_Int_Tables_number   1
_chemical_formula_structural   Eu9TlSe10
_chemical_formula_sum   'Eu9 Tl1 Se10'
_cell_volume   567.64286589
_cell_formula_units_Z   1
loop_
 _symmetry_equiv_pos_site_id
 _symmetry_equiv_pos_as_xyz
  1  'x, y, z'
loop_
 _atom_site_type_symbol
 _atom_site_label
 _atom_site_symmetry_multiplicity
 _atom_site_fract_x
 _atom_site_fract_y
 _atom_site_fract_z
 _atom_site_occupancy
  Eu  Eu0  1  0.797601  0.599921  0.607930  1
  Eu  Eu1  1  0.614678  0.205257  0.202505  1
  Eu  Eu2  1  0.385322  0.794743  0.797495  1
  Eu  Eu3  1  0.599015  0.699112  0.198796  1
  Eu  Eu4  1  0.202399  0.400079  0.392070  1
  Eu  Eu5  1  0.400985  0.300888  0.801204  1
  Eu  Eu6  1  0.000000  0.000000  0.000000  1
  Eu  Eu7  1  0.200578  0.898824  0.398251  1
  Eu  Eu8  1  0.799422  0.101176  0.601749  1
  Tl  Tl9  1  0.000000  0.500000  0.000000  1
  Se  Se10  1  0.682178  0.656524  0.897475  1
  Se  Se11  1  0.501512  0.249732  0.502275  1
  Se  Se12  1  0.686411  0.132400  0.892798  1
  Se  Se13  1  0.313589  0.867600  0.107202  1
  Se  Se14  1  0.498488  0.750268  0.497725  1
  Se  Se15  1  0.101902  0.442641  0.683234  1
  Se  Se16  1  0.317822  0.343476  0.102525  1
  Se  Se17  1  0.904671  0.048401  0.300052  1
  Se  Se18  1  0.095329  0.951599  0.699948  1
  Se  Se19  1  0.898098  0.557359  0.316766  1
