# generated using pymatgen
data_TmMn4CoP3
_symmetry_space_group_name_H-M   'P 1'
_cell_length_a   3.57441300
_cell_length_b   10.53662100
_cell_length_c   12.16821000
_cell_angle_alpha   90.00000000
_cell_angle_beta   90.00000000
_cell_angle_gamma   90.00000000
_symmetry_Int_Tables_number   1
_chemical_formula_structural   TmMn4CoP3
_chemical_formula_sum   'Tm4 Mn16 Co4 P12'
_cell_volume   458.28198550
_cell_formula_units_Z   4
loop_
 _symmetry_equiv_pos_site_id
 _symmetry_equiv_pos_as_xyz
  1  'x, y, z'
loop_
 _atom_site_type_symbol
 _atom_site_label
 _atom_site_symmetry_multiplicity
 _atom_site_fract_x
 _atom_site_fract_y
 _atom_site_fract_z
 _atom_site_occupancy
  Tm  Tm0  1  0.250000  0.583792  0.708055  1
  Tm  Tm1  1  0.250000  0.916208  0.208055  1
  Tm  Tm2  1  0.750000  0.416208  0.291945  1
  Tm  Tm3  1  0.750000  0.083792  0.791945  1
  Mn  Mn4  1  0.250000  0.712317  0.987784  1
  Mn  Mn5  1  0.250000  0.787683  0.487784  1
  Mn  Mn6  1  0.750000  0.287683  0.012216  1
  Mn  Mn7  1  0.750000  0.212317  0.512216  1
  Mn  Mn8  1  0.250000  0.407409  0.492043  1
  Mn  Mn9  1  0.250000  0.092591  0.992043  1
  Mn  Mn10  1  0.750000  0.592591  0.507957  1
  Mn  Mn11  1  0.750000  0.907409  0.007957  1
  Mn  Mn12  1  0.250000  0.217240  0.176157  1
  Mn  Mn13  1  0.250000  0.282760  0.676157  1
  Mn  Mn14  1  0.750000  0.782760  0.823843  1
  Mn  Mn15  1  0.750000  0.717240  0.323843  1
  Mn  Mn16  1  0.250000  0.878537  0.697971  1
  Mn  Mn17  1  0.250000  0.621463  0.197971  1
  Mn  Mn18  1  0.750000  0.121463  0.302029  1
  Mn  Mn19  1  0.750000  0.378537  0.802029  1
  Co  Co20  1  0.250000  0.464050  0.933698  1
  Co  Co21  1  0.250000  0.035950  0.433698  1
  Co  Co22  1  0.750000  0.535950  0.066302  1
  Co  Co23  1  0.750000  0.964050  0.566302  1
  P  P24  1  0.250000  0.420435  0.112692  1
  P  P25  1  0.250000  0.079565  0.612692  1
  P  P26  1  0.750000  0.579565  0.887308  1
  P  P27  1  0.750000  0.920435  0.387308  1
  P  P28  1  0.250000  0.264780  0.871495  1
  P  P29  1  0.250000  0.235220  0.371495  1
  P  P30  1  0.750000  0.735220  0.128505  1
  P  P31  1  0.750000  0.764780  0.628505  1
  P  P32  1  0.250000  0.591909  0.385972  1
  P  P33  1  0.250000  0.908091  0.885972  1
  P  P34  1  0.750000  0.408091  0.614028  1
  P  P35  1  0.750000  0.091909  0.114028  1
