# generated using pymatgen
data_K4ZrTeI12
_symmetry_space_group_name_H-M   'P 1'
_cell_length_a   8.50449809
_cell_length_b   8.19465053
_cell_length_c   14.22229976
_cell_angle_alpha   54.94289363
_cell_angle_beta   89.95531159
_cell_angle_gamma   89.81369248
_symmetry_Int_Tables_number   1
_chemical_formula_structural   K4ZrTeI12
_chemical_formula_sum   'K4 Zr1 Te1 I12'
_cell_volume   811.34839368
_cell_formula_units_Z   1
loop_
 _symmetry_equiv_pos_site_id
 _symmetry_equiv_pos_as_xyz
  1  'x, y, z'
loop_
 _atom_site_type_symbol
 _atom_site_label
 _atom_site_symmetry_multiplicity
 _atom_site_fract_x
 _atom_site_fract_y
 _atom_site_fract_z
 _atom_site_occupancy
  K  K0  1  0.578051  0.725314  0.251954  1
  K  K1  1  0.077223  0.273916  0.247516  1
  K  K2  1  0.421949  0.274686  0.748046  1
  K  K3  1  0.922777  0.726084  0.752484  1
  Zr  Zr4  1  0.000000  0.000000  0.000000  1
  Te  Te5  1  0.500000  0.000000  0.500000  1
  I  I6  1  0.993558  0.838532  0.241452  1
  I  I7  1  0.493147  0.163344  0.251474  1
  I  I8  1  0.006442  0.161468  0.758548  1
  I  I9  1  0.506853  0.836656  0.748526  1
  I  I10  1  0.696074  0.657549  0.547087  1
  I  I11  1  0.188222  0.331776  0.955861  1
  I  I12  1  0.303926  0.342451  0.452913  1
  I  I13  1  0.811778  0.668224  0.044139  1
  I  I14  1  0.713887  0.222087  0.964222  1
  I  I15  1  0.207339  0.769982  0.537358  1
  I  I16  1  0.286113  0.777913  0.035778  1
  I  I17  1  0.792661  0.230018  0.462642  1
