# generated using pymatgen
data_Tb13Dy3(InNi)4
_symmetry_space_group_name_H-M   'P 1'
_cell_length_a   9.62011869
_cell_length_b   9.61349027
_cell_length_c   9.63480582
_cell_angle_alpha   59.97218371
_cell_angle_beta   59.98397501
_cell_angle_gamma   60.12386434
_symmetry_Int_Tables_number   1
_chemical_formula_structural   Tb13Dy3(InNi)4
_chemical_formula_sum   'Tb13 Dy3 In4 Ni4'
_cell_volume   630.44924987
_cell_formula_units_Z   1
loop_
 _symmetry_equiv_pos_site_id
 _symmetry_equiv_pos_as_xyz
  1  'x, y, z'
loop_
 _atom_site_type_symbol
 _atom_site_label
 _atom_site_symmetry_multiplicity
 _atom_site_fract_x
 _atom_site_fract_y
 _atom_site_fract_z
 _atom_site_occupancy
  Tb  Tb0  1  0.596177  0.597893  0.597327  1
  Tb  Tb1  1  0.596190  0.598174  0.205302  1
  Tb  Tb2  1  0.597327  0.208603  0.596177  1
  Tb  Tb3  1  0.205302  0.600334  0.596190  1
  Tb  Tb4  1  0.061900  0.437818  0.439137  1
  Tb  Tb5  1  0.439137  0.061145  0.061900  1
  Tb  Tb6  1  0.439203  0.060797  0.439203  1
  Tb  Tb7  1  0.061679  0.438321  0.061679  1
  Tb  Tb8  1  0.439023  0.437510  0.062888  1
  Tb  Tb9  1  0.062888  0.060579  0.439023  1
  Tb  Tb10  1  0.186254  0.812431  0.815417  1
  Tb  Tb11  1  0.815417  0.185897  0.186254  1
  Tb  Tb12  1  0.814178  0.185822  0.814178  1
  Dy  Dy13  1  0.186884  0.813116  0.186884  1
  Dy  Dy14  1  0.812416  0.810953  0.188407  1
  Dy  Dy15  1  0.188407  0.188224  0.812416  1
  In  In16  1  0.831972  0.832991  0.831866  1
  In  In17  1  0.832037  0.831778  0.504302  1
  In  In18  1  0.831866  0.503172  0.831972  1
  In  In19  1  0.504302  0.831884  0.832037  1
  Ni  Ni20  1  0.389316  0.392860  0.395325  1
  Ni  Ni21  1  0.389811  0.393034  0.822990  1
  Ni  Ni22  1  0.395325  0.822501  0.389316  1
  Ni  Ni23  1  0.822990  0.394166  0.389811  1
