# generated using pymatgen
data_BaPuS3
_symmetry_space_group_name_H-M   'P 1'
_cell_length_a   4.16128400
_cell_length_b   8.78670200
_cell_length_c   14.72932100
_cell_angle_alpha   90.00000000
_cell_angle_beta   90.00000000
_cell_angle_gamma   90.00000000
_symmetry_Int_Tables_number   1
_chemical_formula_structural   BaPuS3
_chemical_formula_sum   'Ba4 Pu4 S12'
_cell_volume   538.56233989
_cell_formula_units_Z   4
loop_
 _symmetry_equiv_pos_site_id
 _symmetry_equiv_pos_as_xyz
  1  'x, y, z'
loop_
 _atom_site_type_symbol
 _atom_site_label
 _atom_site_symmetry_multiplicity
 _atom_site_fract_x
 _atom_site_fract_y
 _atom_site_fract_z
 _atom_site_occupancy
  Ba  Ba0  1  0.750000  0.567055  0.177506  1
  Ba  Ba1  1  0.250000  0.432945  0.822494  1
  Ba  Ba2  1  0.750000  0.067055  0.322494  1
  Ba  Ba3  1  0.250000  0.932945  0.677506  1
  Pu  Pu4  1  0.250000  0.666735  0.443328  1
  Pu  Pu5  1  0.750000  0.333265  0.556672  1
  Pu  Pu6  1  0.250000  0.166735  0.056672  1
  Pu  Pu7  1  0.750000  0.833265  0.943328  1
  S  S8  1  0.750000  0.830246  0.505811  1
  S  S9  1  0.250000  0.169754  0.494189  1
  S  S10  1  0.750000  0.330246  0.994189  1
  S  S11  1  0.250000  0.669754  0.005811  1
  S  S12  1  0.250000  0.518380  0.602880  1
  S  S13  1  0.750000  0.481620  0.397120  1
  S  S14  1  0.250000  0.018380  0.897120  1
  S  S15  1  0.750000  0.981620  0.102880  1
  S  S16  1  0.250000  0.790233  0.283598  1
  S  S17  1  0.750000  0.209767  0.716402  1
  S  S18  1  0.250000  0.290233  0.216402  1
  S  S19  1  0.750000  0.709767  0.783598  1
