# generated using pymatgen
data_Ho19ErSi15P
_symmetry_space_group_name_H-M   'P 1'
_cell_length_a   7.45456895
_cell_length_b   7.61780247
_cell_length_c   14.54069400
_cell_angle_alpha   89.89593523
_cell_angle_beta   86.16653289
_cell_angle_gamma   90.04298484
_symmetry_Int_Tables_number   1
_chemical_formula_structural   Ho19ErSi15P
_chemical_formula_sum   'Ho19 Er1 Si15 P1'
_cell_volume   823.87952806
_cell_formula_units_Z   1
loop_
 _symmetry_equiv_pos_site_id
 _symmetry_equiv_pos_as_xyz
  1  'x, y, z'
loop_
 _atom_site_type_symbol
 _atom_site_label
 _atom_site_symmetry_multiplicity
 _atom_site_fract_x
 _atom_site_fract_y
 _atom_site_fract_z
 _atom_site_occupancy
  Ho  Ho0  1  0.167472  0.505298  0.244932  1
  Ho  Ho1  1  0.832252  0.494468  0.754054  1
  Ho  Ho2  1  0.331703  0.005288  0.754434  1
  Ho  Ho3  1  0.004022  0.823030  0.100312  1
  Ho  Ho4  1  0.472820  0.684902  0.398267  1
  Ho  Ho5  1  0.497996  0.320780  0.900988  1
  Ho  Ho6  1  0.027097  0.185081  0.602422  1
  Ho  Ho7  1  0.998414  0.180637  0.900770  1
  Ho  Ho8  1  0.526905  0.314693  0.601879  1
  Ho  Ho9  1  0.502617  0.682178  0.099240  1
  Ho  Ho10  1  0.972212  0.813947  0.398103  1
  Ho  Ho11  1  0.646745  0.831565  0.880752  1
  Ho  Ho12  1  0.176566  0.676188  0.622724  1
  Ho  Ho13  1  0.853553  0.339232  0.115441  1
  Ho  Ho14  1  0.324247  0.177049  0.377659  1
  Ho  Ho15  1  0.354420  0.165170  0.120346  1
  Ho  Ho16  1  0.823801  0.323140  0.377798  1
  Ho  Ho17  1  0.142412  0.664306  0.882326  1
  Ho  Ho18  1  0.675945  0.822820  0.622742  1
  Er  Er19  1  0.668741  0.994501  0.245522  1
  Si  Si20  1  0.783771  0.629541  0.250978  1
  Si  Si21  1  0.283860  0.870494  0.251727  1
  Si  Si22  1  0.715312  0.129999  0.749019  1
  Si  Si23  1  0.215087  0.370476  0.749212  1
  Si  Si24  1  0.040667  0.109000  0.251929  1
  Si  Si25  1  0.542668  0.391852  0.251083  1
  Si  Si26  1  0.457944  0.607984  0.749594  1
  Si  Si27  1  0.958288  0.890875  0.748895  1
  Si  Si28  1  0.355797  0.971507  0.542481  1
  Si  Si29  1  0.703657  0.035081  0.042225  1
  Si  Si30  1  0.145095  0.471176  0.458075  1
  Si  Si31  1  0.209404  0.465508  0.042780  1
  Si  Si32  1  0.644734  0.027488  0.457268  1
  Si  Si33  1  0.298243  0.964390  0.957248  1
  Si  Si34  1  0.855405  0.527761  0.542598  1
  P  P35  1  0.790130  0.532595  0.954178  1
