# generated using pymatgen
data_Yb12Y5Ho3Sn16
_symmetry_space_group_name_H-M   'P 1'
_cell_length_a   7.82108203
_cell_length_b   8.40772907
_cell_length_c   16.00505000
_cell_angle_alpha   89.99518885
_cell_angle_beta   90.00522330
_cell_angle_gamma   89.99463049
_symmetry_Int_Tables_number   1
_chemical_formula_structural   Yb12Y5Ho3Sn16
_chemical_formula_sum   'Yb12 Y5 Ho3 Sn16'
_cell_volume   1052.45268265
_cell_formula_units_Z   1
loop_
 _symmetry_equiv_pos_site_id
 _symmetry_equiv_pos_as_xyz
  1  'x, y, z'
loop_
 _atom_site_type_symbol
 _atom_site_label
 _atom_site_symmetry_multiplicity
 _atom_site_fract_x
 _atom_site_fract_y
 _atom_site_fract_z
 _atom_site_occupancy
  Yb  Yb0  1  0.502718  0.687478  0.593290  1
  Yb  Yb1  1  0.002656  0.812534  0.906730  1
  Yb  Yb2  1  0.497288  0.312406  0.093110  1
  Yb  Yb3  1  0.997284  0.187545  0.406775  1
  Yb  Yb4  1  0.497384  0.312425  0.406960  1
  Yb  Yb5  1  0.997654  0.187370  0.092884  1
  Yb  Yb6  1  0.502381  0.687449  0.906980  1
  Yb  Yb7  1  0.002566  0.812557  0.593219  1
  Yb  Yb8  1  0.832635  0.511287  0.749966  1
  Yb  Yb9  1  0.332548  0.988735  0.750154  1
  Yb  Yb10  1  0.167341  0.488531  0.249742  1
  Yb  Yb11  1  0.667397  0.011331  0.249977  1
  Y  Y12  1  0.829344  0.667140  0.378009  1
  Y  Y13  1  0.329614  0.833144  0.377989  1
  Y  Y14  1  0.829602  0.666790  0.121878  1
  Y  Y15  1  0.670479  0.166784  0.878089  1
  Y  Y16  1  0.170683  0.333008  0.622095  1
  Ho  Ho17  1  0.670122  0.166937  0.622403  1
  Ho  Ho18  1  0.170272  0.333111  0.877800  1
  Ho  Ho19  1  0.329801  0.833133  0.122039  1
  Sn  Sn20  1  0.672537  0.965419  0.460113  1
  Sn  Sn21  1  0.173256  0.535625  0.040058  1
  Sn  Sn22  1  0.326646  0.035693  0.959831  1
  Sn  Sn23  1  0.827067  0.463889  0.540581  1
  Sn  Sn24  1  0.328296  0.035345  0.540566  1
  Sn  Sn25  1  0.828437  0.464696  0.959310  1
  Sn  Sn26  1  0.671694  0.964664  0.040586  1
  Sn  Sn27  1  0.172279  0.535027  0.459614  1
  Sn  Sn28  1  0.467753  0.375464  0.750093  1
  Sn  Sn29  1  0.967624  0.124646  0.750094  1
  Sn  Sn30  1  0.531945  0.624271  0.249698  1
  Sn  Sn31  1  0.032701  0.875769  0.249660  1
  Sn  Sn32  1  0.713228  0.872559  0.749730  1
  Sn  Sn33  1  0.213311  0.627443  0.750319  1
  Sn  Sn34  1  0.286876  0.127526  0.249661  1
  Sn  Sn35  1  0.786587  0.372268  0.249997  1
