# generated using pymatgen
data_YbSiNiO4
_symmetry_space_group_name_H-M   'P 1'
_cell_length_a   4.83303500
_cell_length_b   6.37796500
_cell_length_c   10.97955000
_cell_angle_alpha   90.00000000
_cell_angle_beta   90.00000000
_cell_angle_gamma   90.00000000
_symmetry_Int_Tables_number   1
_chemical_formula_structural   YbSiNiO4
_chemical_formula_sum   'Yb4 Si4 Ni4 O16'
_cell_volume   338.44383903
_cell_formula_units_Z   4
loop_
 _symmetry_equiv_pos_site_id
 _symmetry_equiv_pos_as_xyz
  1  'x, y, z'
loop_
 _atom_site_type_symbol
 _atom_site_label
 _atom_site_symmetry_multiplicity
 _atom_site_fract_x
 _atom_site_fract_y
 _atom_site_fract_z
 _atom_site_occupancy
  Yb  Yb0  1  0.473377  0.499999  0.226266  1
  Yb  Yb1  1  0.973377  0.000000  0.273735  1
  Yb  Yb2  1  0.026622  0.499999  0.726264  1
  Yb  Yb3  1  0.526624  0.000000  0.773736  1
  Si  Si4  1  0.411065  0.000000  0.080175  1
  Si  Si5  1  0.911068  0.499999  0.419826  1
  Si  Si6  1  0.088933  0.000000  0.580174  1
  Si  Si7  1  0.588932  0.499999  0.919826  1
  Ni  Ni8  1  0.000000  0.250001  0.000000  1
  Ni  Ni9  1  0.000000  0.750000  0.000000  1
  Ni  Ni10  1  0.500002  0.250001  0.500001  1
  Ni  Ni11  1  0.500002  0.750000  0.500001  1
  O  O12  1  0.746693  0.499999  0.055492  1
  O  O13  1  0.749725  0.000000  0.077977  1
  O  O14  1  0.273858  0.205823  0.149126  1
  O  O15  1  0.273858  0.794177  0.149126  1
  O  O16  1  0.773860  0.294180  0.350875  1
  O  O17  1  0.773860  0.705819  0.350875  1
  O  O18  1  0.249725  0.499999  0.422023  1
  O  O19  1  0.246694  0.000000  0.444507  1
  O  O20  1  0.753307  0.499999  0.555492  1
  O  O21  1  0.750274  0.000000  0.577978  1
  O  O22  1  0.226141  0.205823  0.649126  1
  O  O23  1  0.226141  0.794177  0.649126  1
  O  O24  1  0.726143  0.294180  0.850874  1
  O  O25  1  0.726143  0.705819  0.850874  1
  O  O26  1  0.250274  0.499999  0.922023  1
  O  O27  1  0.253308  0.000000  0.944509  1
