# generated using pymatgen
data_Zr8CrReBi4
_symmetry_space_group_name_H-M   'P 1'
_cell_length_a   8.38728623
_cell_length_b   8.38728696
_cell_length_c   8.38728644
_cell_angle_alpha   96.05533067
_cell_angle_beta   96.05533482
_cell_angle_gamma   142.09423986
_symmetry_Int_Tables_number   1
_chemical_formula_structural   Zr8CrReBi4
_chemical_formula_sum   'Zr8 Cr1 Re1 Bi4'
_cell_volume   342.83365061
_cell_formula_units_Z   1
loop_
 _symmetry_equiv_pos_site_id
 _symmetry_equiv_pos_as_xyz
  1  'x, y, z'
loop_
 _atom_site_type_symbol
 _atom_site_label
 _atom_site_symmetry_multiplicity
 _atom_site_fract_x
 _atom_site_fract_y
 _atom_site_fract_z
 _atom_site_occupancy
  Zr  Zr0  1  0.079467  0.195770  0.281995  1
  Zr  Zr1  1  0.913774  0.797470  0.718005  1
  Zr  Zr2  1  0.797470  0.079467  0.883695  1
  Zr  Zr3  1  0.420533  0.702530  0.116305  1
  Zr  Zr4  1  0.195770  0.913774  0.116305  1
  Zr  Zr5  1  0.586226  0.304230  0.883695  1
  Zr  Zr6  1  0.702530  0.586226  0.281995  1
  Zr  Zr7  1  0.304230  0.420533  0.718005  1
  Cr  Cr8  1  0.750000  0.750000  0.000000  1
  Re  Re9  1  0.250000  0.250000  0.000000  1
  Bi  Bi10  1  0.140211  0.640211  0.780421  1
  Bi  Bi11  1  0.859789  0.359789  0.219579  1
  Bi  Bi12  1  0.359789  0.140211  0.500000  1
  Bi  Bi13  1  0.640211  0.859789  0.500000  1
