# generated using pymatgen
data_HoEr4P12Ru17Pt2
_symmetry_space_group_name_H-M   'P 1'
_cell_length_a   12.60639500
_cell_length_b   12.52338431
_cell_length_c   3.97934800
_cell_angle_alpha   90.00000000
_cell_angle_beta   90.00000000
_cell_angle_gamma   120.21950818
_symmetry_Int_Tables_number   1
_chemical_formula_structural   HoEr4P12Ru17Pt2
_chemical_formula_sum   'Ho1 Er4 P12 Ru17 Pt2'
_cell_volume   542.86306599
_cell_formula_units_Z   1
loop_
 _symmetry_equiv_pos_site_id
 _symmetry_equiv_pos_as_xyz
  1  'x, y, z'
loop_
 _atom_site_type_symbol
 _atom_site_label
 _atom_site_symmetry_multiplicity
 _atom_site_fract_x
 _atom_site_fract_y
 _atom_site_fract_z
 _atom_site_occupancy
  Ho  Ho0  1  0.183420  0.000000  0.500000  1
  Er  Er1  1  0.001582  0.182705  0.500000  1
  Er  Er2  1  0.818877  0.817295  0.500000  1
  Er  Er3  1  0.664077  0.326983  0.000000  1
  Er  Er4  1  0.337092  0.673017  0.000000  1
  P  P5  1  0.997393  0.812329  0.000000  1
  P  P6  1  0.185065  0.187671  0.000000  1
  P  P7  1  0.818860  0.000000  0.000000  1
  P  P8  1  0.692636  0.169463  0.500000  1
  P  P9  1  0.816442  0.515684  0.500000  1
  P  P10  1  0.477778  0.299333  0.500000  1
  P  P11  1  0.178445  0.700667  0.500000  1
  P  P12  1  0.523172  0.830537  0.500000  1
  P  P13  1  0.300758  0.484316  0.500000  1
  P  P14  1  0.000288  0.364617  0.000000  1
  P  P15  1  0.635671  0.635383  0.000000  1
  P  P16  1  0.372949  0.000000  0.000000  1
  Ru  Ru17  1  0.555188  0.000000  0.000000  1
  Ru  Ru18  1  0.997099  0.709378  0.500000  1
  Ru  Ru19  1  0.287722  0.290622  0.500000  1
  Ru  Ru20  1  0.719274  0.000000  0.500000  1
  Ru  Ru21  1  0.809196  0.184496  0.000000  1
  Ru  Ru22  1  0.812725  0.618046  0.000000  1
  Ru  Ru23  1  0.375877  0.192639  0.000000  1
  Ru  Ru24  1  0.183237  0.807361  0.000000  1
  Ru  Ru25  1  0.624700  0.815504  0.000000  1
  Ru  Ru26  1  0.194678  0.381954  0.000000  1
  Ru  Ru27  1  0.869893  0.364660  0.500000  1
  Ru  Ru28  1  0.628817  0.505504  0.500000  1
  Ru  Ru29  1  0.491792  0.124139  0.500000  1
  Ru  Ru30  1  0.367653  0.875861  0.500000  1
  Ru  Ru31  1  0.505233  0.635340  0.500000  1
  Ru  Ru32  1  0.123314  0.494496  0.500000  1
  Ru  Ru33  1  0.002906  0.000000  0.000000  1
  Pt  Pt34  1  0.997769  0.549346  0.000000  1
  Pt  Pt35  1  0.448422  0.450654  0.000000  1
