# generated using pymatgen
data_YbDy3(AlPd)4
_symmetry_space_group_name_H-M   'P 1'
_cell_length_a   4.43204600
_cell_length_b   6.90070990
_cell_length_c   7.83960188
_cell_angle_alpha   90.52412036
_cell_angle_beta   90.00000000
_cell_angle_gamma   90.00000000
_symmetry_Int_Tables_number   1
_chemical_formula_structural   YbDy3(AlPd)4
_chemical_formula_sum   'Yb1 Dy3 Al4 Pd4'
_cell_volume   239.75841960
_cell_formula_units_Z   1
loop_
 _symmetry_equiv_pos_site_id
 _symmetry_equiv_pos_as_xyz
  1  'x, y, z'
loop_
 _atom_site_type_symbol
 _atom_site_label
 _atom_site_symmetry_multiplicity
 _atom_site_fract_x
 _atom_site_fract_y
 _atom_site_fract_z
 _atom_site_occupancy
  Yb  Yb0  1  0.750000  0.467998  0.821163  1
  Dy  Dy1  1  0.250000  0.033724  0.320394  1
  Dy  Dy2  1  0.250000  0.533690  0.179146  1
  Dy  Dy3  1  0.750000  0.964781  0.679874  1
  Al  Al4  1  0.250000  0.141784  0.939433  1
  Al  Al5  1  0.250000  0.643142  0.560280  1
  Al  Al6  1  0.750000  0.858466  0.062553  1
  Al  Al7  1  0.750000  0.356779  0.438209  1
  Pd  Pd8  1  0.250000  0.271051  0.620526  1
  Pd  Pd9  1  0.250000  0.773512  0.880239  1
  Pd  Pd10  1  0.750000  0.727266  0.378404  1
  Pd  Pd11  1  0.750000  0.227807  0.119779  1
