# generated using pymatgen
data_BaNb6SbS12
_symmetry_space_group_name_H-M   'P 1'
_cell_length_a   5.86229200
_cell_length_b   5.86229131
_cell_length_c   14.92331200
_cell_angle_alpha   90.00000000
_cell_angle_beta   90.00000000
_cell_angle_gamma   120.00000389
_symmetry_Int_Tables_number   1
_chemical_formula_structural   BaNb6SbS12
_chemical_formula_sum   'Ba1 Nb6 Sb1 S12'
_cell_volume   444.15103245
_cell_formula_units_Z   1
loop_
 _symmetry_equiv_pos_site_id
 _symmetry_equiv_pos_as_xyz
  1  'x, y, z'
loop_
 _atom_site_type_symbol
 _atom_site_label
 _atom_site_symmetry_multiplicity
 _atom_site_fract_x
 _atom_site_fract_y
 _atom_site_fract_z
 _atom_site_occupancy
  Ba  Ba0  1  0.000000  0.000000  0.500000  1
  Nb  Nb1  1  0.000000  0.000000  0.764942  1
  Nb  Nb2  1  0.000000  0.000000  0.235058  1
  Nb  Nb3  1  0.333333  0.666667  0.233294  1
  Nb  Nb4  1  0.666667  0.333333  0.766706  1
  Nb  Nb5  1  0.666667  0.333333  0.233294  1
  Nb  Nb6  1  0.333333  0.666667  0.766706  1
  Sb  Sb7  1  0.000000  0.000000  0.000000  1
  S  S8  1  0.335438  0.000000  0.129444  1
  S  S9  1  0.000000  0.335438  0.129444  1
  S  S10  1  0.664562  0.664562  0.129444  1
  S  S11  1  0.338412  0.338412  0.661464  1
  S  S12  1  0.661588  0.661588  0.338536  1
  S  S13  1  0.661588  0.000000  0.661464  1
  S  S14  1  0.000000  0.661588  0.661464  1
  S  S15  1  0.000000  0.664562  0.870556  1
  S  S16  1  0.335438  0.335438  0.870556  1
  S  S17  1  0.000000  0.338412  0.338536  1
  S  S18  1  0.338412  0.000000  0.338536  1
  S  S19  1  0.664562  0.000000  0.870556  1
