# generated using pymatgen
data_Ta5Nb3(Ni2N)2
_symmetry_space_group_name_H-M   'P 1'
_cell_length_a   8.22692881
_cell_length_b   8.22692868
_cell_length_c   8.22692900
_cell_angle_alpha   59.99999470
_cell_angle_beta   59.99999521
_cell_angle_gamma   60.00000094
_symmetry_Int_Tables_number   1
_chemical_formula_structural   Ta5Nb3(Ni2N)2
_chemical_formula_sum   'Ta10 Nb6 Ni8 N4'
_cell_volume   393.72971557
_cell_formula_units_Z   2
loop_
 _symmetry_equiv_pos_site_id
 _symmetry_equiv_pos_as_xyz
  1  'x, y, z'
loop_
 _atom_site_type_symbol
 _atom_site_label
 _atom_site_symmetry_multiplicity
 _atom_site_fract_x
 _atom_site_fract_y
 _atom_site_fract_z
 _atom_site_occupancy
  Ta  Ta0  1  0.125198  0.624934  0.624934  1
  Ta  Ta1  1  0.624934  0.125198  0.624934  1
  Ta  Ta2  1  0.624934  0.624934  0.125198  1
  Ta  Ta3  1  0.624934  0.624934  0.624934  1
  Ta  Ta4  1  0.433556  0.433556  0.066444  1
  Ta  Ta5  1  0.066444  0.066444  0.433556  1
  Ta  Ta6  1  0.433556  0.066444  0.433556  1
  Ta  Ta7  1  0.066444  0.433556  0.066444  1
  Ta  Ta8  1  0.066444  0.433556  0.433556  1
  Ta  Ta9  1  0.433556  0.066444  0.066444  1
  Nb  Nb10  1  0.817141  0.817141  0.182859  1
  Nb  Nb11  1  0.182859  0.182859  0.817141  1
  Nb  Nb12  1  0.817141  0.182859  0.817141  1
  Nb  Nb13  1  0.182859  0.817141  0.182859  1
  Nb  Nb14  1  0.182859  0.817141  0.817141  1
  Nb  Nb15  1  0.817141  0.182859  0.182859  1
  Ni  Ni16  1  0.742385  0.419205  0.419205  1
  Ni  Ni17  1  0.419205  0.742385  0.419205  1
  Ni  Ni18  1  0.419205  0.419205  0.742385  1
  Ni  Ni19  1  0.419205  0.419205  0.419205  1
  Ni  Ni20  1  0.511332  0.829556  0.829556  1
  Ni  Ni21  1  0.829556  0.511332  0.829556  1
  Ni  Ni22  1  0.829556  0.829556  0.511332  1
  Ni  Ni23  1  0.829556  0.829556  0.829556  1
  N  N24  1  0.619243  0.126919  0.126919  1
  N  N25  1  0.126919  0.619243  0.126919  1
  N  N26  1  0.126919  0.126919  0.619243  1
  N  N27  1  0.126919  0.126919  0.126919  1
