# generated using pymatgen
data_Tb3CoGe4(PRh4)2
_symmetry_space_group_name_H-M   'P 1'
_cell_length_a   3.91852100
_cell_length_b   11.38481600
_cell_length_c   13.20537500
_cell_angle_alpha   90.00000000
_cell_angle_beta   90.00000000
_cell_angle_gamma   90.00000000
_symmetry_Int_Tables_number   1
_chemical_formula_structural   Tb3CoGe4(PRh4)2
_chemical_formula_sum   'Tb6 Co2 Ge8 P4 Rh16'
_cell_volume   589.11344319
_cell_formula_units_Z   2
loop_
 _symmetry_equiv_pos_site_id
 _symmetry_equiv_pos_as_xyz
  1  'x, y, z'
loop_
 _atom_site_type_symbol
 _atom_site_label
 _atom_site_symmetry_multiplicity
 _atom_site_fract_x
 _atom_site_fract_y
 _atom_site_fract_z
 _atom_site_occupancy
  Tb  Tb0  1  0.000000  0.500000  0.519960  1
  Tb  Tb1  1  0.500000  0.000000  0.480040  1
  Tb  Tb2  1  0.500000  0.819478  0.202196  1
  Tb  Tb3  1  0.500000  0.180522  0.202196  1
  Tb  Tb4  1  0.000000  0.680522  0.797804  1
  Tb  Tb5  1  0.000000  0.319478  0.797804  1
  Co  Co6  1  0.000000  0.500000  0.971614  1
  Co  Co7  1  0.500000  0.000000  0.028386  1
  Ge  Ge8  1  0.500000  0.313013  0.617696  1
  Ge  Ge9  1  0.500000  0.686987  0.617696  1
  Ge  Ge10  1  0.000000  0.186987  0.382304  1
  Ge  Ge11  1  0.000000  0.813013  0.382304  1
  Ge  Ge12  1  0.500000  0.857249  0.894313  1
  Ge  Ge13  1  0.500000  0.142751  0.894313  1
  Ge  Ge14  1  0.000000  0.642751  0.105687  1
  Ge  Ge15  1  0.000000  0.357249  0.105687  1
  P  P16  1  0.500000  0.500000  0.886542  1
  P  P17  1  0.000000  0.000000  0.113458  1
  P  P18  1  0.500000  0.500000  0.343547  1
  P  P19  1  0.000000  0.000000  0.656453  1
  Rh  Rh20  1  0.500000  0.500000  0.164129  1
  Rh  Rh21  1  0.000000  0.000000  0.835871  1
  Rh  Rh22  1  0.500000  0.500000  0.711703  1
  Rh  Rh23  1  0.000000  0.000000  0.288297  1
  Rh  Rh24  1  0.500000  0.336377  0.987200  1
  Rh  Rh25  1  0.500000  0.663623  0.987200  1
  Rh  Rh26  1  0.000000  0.163623  0.012800  1
  Rh  Rh27  1  0.000000  0.836377  0.012800  1
  Rh  Rh28  1  0.500000  0.308596  0.430966  1
  Rh  Rh29  1  0.500000  0.691404  0.430966  1
  Rh  Rh30  1  0.000000  0.191404  0.569034  1
  Rh  Rh31  1  0.000000  0.808596  0.569034  1
  Rh  Rh32  1  0.500000  0.879625  0.708058  1
  Rh  Rh33  1  0.500000  0.120375  0.708058  1
  Rh  Rh34  1  0.000000  0.620375  0.291942  1
  Rh  Rh35  1  0.000000  0.379625  0.291942  1
