# generated using pymatgen
data_Th4ReTc2Os5
_symmetry_space_group_name_H-M   'P 1'
_cell_length_a   5.59845620
_cell_length_b   5.17518368
_cell_length_c   9.32275700
_cell_angle_alpha   90.00000000
_cell_angle_beta   90.00000000
_cell_angle_gamma   120.14928536
_symmetry_Int_Tables_number   1
_chemical_formula_structural   Th4ReTc2Os5
_chemical_formula_sum   'Th4 Re1 Tc2 Os5'
_cell_volume   233.56823242
_cell_formula_units_Z   1
loop_
 _symmetry_equiv_pos_site_id
 _symmetry_equiv_pos_as_xyz
  1  'x, y, z'
loop_
 _atom_site_type_symbol
 _atom_site_label
 _atom_site_symmetry_multiplicity
 _atom_site_fract_x
 _atom_site_fract_y
 _atom_site_fract_z
 _atom_site_occupancy
  Th  Th0  1  0.334896  0.671796  0.066667  1
  Th  Th1  1  0.671036  0.337241  0.564477  1
  Th  Th2  1  0.671036  0.337241  0.935523  1
  Th  Th3  1  0.334896  0.671796  0.433333  1
  Re  Re4  1  0.161411  0.322776  0.750000  1
  Tc  Tc5  1  0.825797  0.654353  0.250000  1
  Tc  Tc6  1  0.165678  0.819293  0.750000  1
  Os  Os7  1  0.009647  0.011815  0.000616  1
  Os  Os8  1  0.009647  0.011815  0.499384  1
  Os  Os9  1  0.649456  0.818864  0.750000  1
  Os  Os10  1  0.334951  0.173359  0.250000  1
  Os  Os11  1  0.831547  0.169648  0.250000  1
