# generated using pymatgen
data_Sm2Sc2VSi7Pt9
_symmetry_space_group_name_H-M   'P 1'
_cell_length_a   10.00235461
_cell_length_b   9.99203568
_cell_length_c   3.98421100
_cell_angle_alpha   90.00000000
_cell_angle_beta   90.00000000
_cell_angle_gamma   119.76963548
_symmetry_Int_Tables_number   1
_chemical_formula_structural   Sm2Sc2VSi7Pt9
_chemical_formula_sum   'Sm2 Sc2 V1 Si7 Pt9'
_cell_volume   345.64688128
_cell_formula_units_Z   1
loop_
 _symmetry_equiv_pos_site_id
 _symmetry_equiv_pos_as_xyz
  1  'x, y, z'
loop_
 _atom_site_type_symbol
 _atom_site_label
 _atom_site_symmetry_multiplicity
 _atom_site_fract_x
 _atom_site_fract_y
 _atom_site_fract_z
 _atom_site_occupancy
  Sm  Sm0  1  0.001492  0.997668  0.000000  1
  Sm  Sm1  1  0.331167  0.666368  0.500000  1
  Sc  Sc2  1  0.564228  0.110151  0.500000  1
  Sc  Sc3  1  0.549969  0.439153  0.500000  1
  V  V4  1  0.884695  0.452405  0.500000  1
  Si  Si5  1  0.248737  0.203070  0.500000  1
  Si  Si6  1  0.801957  0.047923  0.500000  1
  Si  Si7  1  0.951593  0.739096  0.500000  1
  Si  Si8  1  0.554802  0.643837  0.000000  1
  Si  Si9  1  0.355206  0.911774  0.000000  1
  Si  Si10  1  0.080493  0.445668  0.000000  1
  Si  Si11  1  0.677643  0.338215  0.000000  1
  Pt  Pt12  1  0.220772  0.938920  0.500000  1
  Pt  Pt13  1  0.059016  0.286730  0.500000  1
  Pt  Pt14  1  0.718106  0.776990  0.500000  1
  Pt  Pt15  1  0.306882  0.408507  0.000000  1
  Pt  Pt16  1  0.590662  0.902039  0.000000  1
  Pt  Pt17  1  0.095541  0.690549  0.000000  1
  Pt  Pt18  1  0.391625  0.175781  0.000000  1
  Pt  Pt19  1  0.829106  0.212077  0.000000  1
  Pt  Pt20  1  0.786309  0.613081  0.000000  1
