# generated using pymatgen
data_NaSr2Cd2Sb3
_symmetry_space_group_name_H-M   'P 1'
_cell_length_a   4.81928400
_cell_length_b   12.82822700
_cell_length_c   16.36135400
_cell_angle_alpha   90.00000000
_cell_angle_beta   90.00000000
_cell_angle_gamma   90.00000000
_symmetry_Int_Tables_number   1
_chemical_formula_structural   NaSr2Cd2Sb3
_chemical_formula_sum   'Na4 Sr8 Cd8 Sb12'
_cell_volume   1011.50584712
_cell_formula_units_Z   4
loop_
 _symmetry_equiv_pos_site_id
 _symmetry_equiv_pos_as_xyz
  1  'x, y, z'
loop_
 _atom_site_type_symbol
 _atom_site_label
 _atom_site_symmetry_multiplicity
 _atom_site_fract_x
 _atom_site_fract_y
 _atom_site_fract_z
 _atom_site_occupancy
  Na  Na0  1  0.250000  0.393716  0.547324  1
  Na  Na1  1  0.750000  0.106284  0.047324  1
  Na  Na2  1  0.250000  0.893716  0.952676  1
  Na  Na3  1  0.750000  0.606284  0.452676  1
  Sr  Sr4  1  0.250000  0.368241  0.285963  1
  Sr  Sr5  1  0.750000  0.131759  0.785963  1
  Sr  Sr6  1  0.250000  0.868241  0.214037  1
  Sr  Sr7  1  0.750000  0.631759  0.714037  1
  Sr  Sr8  1  0.250000  0.102850  0.426931  1
  Sr  Sr9  1  0.750000  0.397150  0.926931  1
  Sr  Sr10  1  0.250000  0.602850  0.073069  1
  Sr  Sr11  1  0.750000  0.897150  0.573069  1
  Cd  Cd12  1  0.250000  0.303979  0.079982  1
  Cd  Cd13  1  0.750000  0.196021  0.579982  1
  Cd  Cd14  1  0.250000  0.803979  0.420018  1
  Cd  Cd15  1  0.750000  0.696021  0.920018  1
  Cd  Cd16  1  0.250000  0.362784  0.782447  1
  Cd  Cd17  1  0.750000  0.137216  0.282447  1
  Cd  Cd18  1  0.250000  0.862784  0.717553  1
  Cd  Cd19  1  0.750000  0.637216  0.217553  1
  Sb  Sb20  1  0.250000  0.123286  0.188941  1
  Sb  Sb21  1  0.750000  0.376714  0.688941  1
  Sb  Sb22  1  0.250000  0.623286  0.311059  1
  Sb  Sb23  1  0.750000  0.876714  0.811059  1
  Sb  Sb24  1  0.250000  0.703896  0.578663  1
  Sb  Sb25  1  0.750000  0.796104  0.078663  1
  Sb  Sb26  1  0.250000  0.203896  0.921337  1
  Sb  Sb27  1  0.750000  0.296104  0.421337  1
  Sb  Sb28  1  0.250000  0.074783  0.631863  1
  Sb  Sb29  1  0.750000  0.425217  0.131863  1
  Sb  Sb30  1  0.250000  0.574783  0.868137  1
  Sb  Sb31  1  0.750000  0.925217  0.368137  1
