# generated using pymatgen
data_Pu2AsS
_symmetry_space_group_name_H-M   'P 1'
_cell_length_a   7.02517957
_cell_length_b   7.02517887
_cell_length_c   7.02517900
_cell_angle_alpha   131.81046177
_cell_angle_beta   131.81044569
_cell_angle_gamma   70.52855583
_symmetry_Int_Tables_number   1
_chemical_formula_structural   Pu2AsS
_chemical_formula_sum   'Pu4 As2 S2'
_cell_volume   188.72679626
_cell_formula_units_Z   2
loop_
 _symmetry_equiv_pos_site_id
 _symmetry_equiv_pos_as_xyz
  1  'x, y, z'
loop_
 _atom_site_type_symbol
 _atom_site_label
 _atom_site_symmetry_multiplicity
 _atom_site_fract_x
 _atom_site_fract_y
 _atom_site_fract_z
 _atom_site_occupancy
  Pu  Pu0  1  0.755200  0.755200  0.000000  1
  Pu  Pu1  1  0.244800  0.244800  0.000000  1
  Pu  Pu2  1  0.994800  0.494800  0.500000  1
  Pu  Pu3  1  0.505200  0.005200  0.500000  1
  As  As4  1  0.500000  0.500000  0.000000  1
  As  As5  1  0.250000  0.750000  0.500000  1
  S  S6  1  0.000000  0.000000  0.000000  1
  S  S7  1  0.750000  0.250000  0.500000  1
