# generated using pymatgen
data_TaNbReB2
_symmetry_space_group_name_H-M   'P 1'
_cell_length_a   6.05792800
_cell_length_b   6.05944300
_cell_length_c   3.31278500
_cell_angle_alpha   90.00000000
_cell_angle_beta   90.00000000
_cell_angle_gamma   90.00000000
_symmetry_Int_Tables_number   1
_chemical_formula_structural   TaNbReB2
_chemical_formula_sum   'Ta2 Nb2 Re2 B4'
_cell_volume   121.60461662
_cell_formula_units_Z   2
loop_
 _symmetry_equiv_pos_site_id
 _symmetry_equiv_pos_as_xyz
  1  'x, y, z'
loop_
 _atom_site_type_symbol
 _atom_site_label
 _atom_site_symmetry_multiplicity
 _atom_site_fract_x
 _atom_site_fract_y
 _atom_site_fract_z
 _atom_site_occupancy
  Ta  Ta0  1  0.175203  0.324371  0.500000  1
  Ta  Ta1  1  0.675203  0.175629  0.500000  1
  Nb  Nb2  1  0.825389  0.674561  0.500000  1
  Nb  Nb3  1  0.325389  0.825439  0.500000  1
  Re  Re4  1  0.499266  0.498943  0.000000  1
  Re  Re5  1  0.999266  0.001057  0.000000  1
  B  B6  1  0.112050  0.610291  0.000000  1
  B  B7  1  0.612050  0.889709  0.000000  1
  B  B8  1  0.388093  0.113411  0.000000  1
  B  B9  1  0.888093  0.386589  0.000000  1
