# generated using pymatgen
data_Y9Er11(Bi2As)4
_symmetry_space_group_name_H-M   'P 1'
_cell_length_a   8.02519087
_cell_length_b   9.07477500
_cell_length_c   12.10760644
_cell_angle_alpha   90.00000000
_cell_angle_beta   89.90179870
_cell_angle_gamma   90.00000000
_symmetry_Int_Tables_number   1
_chemical_formula_structural   Y9Er11(Bi2As)4
_chemical_formula_sum   'Y9 Er11 Bi8 As4'
_cell_volume   881.75695535
_cell_formula_units_Z   1
loop_
 _symmetry_equiv_pos_site_id
 _symmetry_equiv_pos_as_xyz
  1  'x, y, z'
loop_
 _atom_site_type_symbol
 _atom_site_label
 _atom_site_symmetry_multiplicity
 _atom_site_fract_x
 _atom_site_fract_y
 _atom_site_fract_z
 _atom_site_occupancy
  Y  Y0  1  0.654118  0.750000  0.711217  1
  Y  Y1  1  0.345567  0.250000  0.288652  1
  Y  Y2  1  0.154496  0.250000  0.787575  1
  Y  Y3  1  0.845288  0.750000  0.212390  1
  Y  Y4  1  0.134112  0.750000  0.794692  1
  Y  Y5  1  0.866230  0.250000  0.205196  1
  Y  Y6  1  0.634234  0.250000  0.705067  1
  Y  Y7  1  0.365901  0.750000  0.295168  1
  Y  Y8  1  0.536719  0.750000  0.999465  1
  Er  Er9  1  0.464121  0.250000  0.000146  1
  Er  Er10  1  0.035663  0.250000  0.500443  1
  Er  Er11  1  0.964171  0.750000  0.499524  1
  Er  Er12  1  0.816896  0.444261  0.935323  1
  Er  Er13  1  0.183052  0.555038  0.064960  1
  Er  Er14  1  0.316302  0.555555  0.564188  1
  Er  Er15  1  0.183052  0.944962  0.064960  1
  Er  Er16  1  0.683553  0.444493  0.435775  1
  Er  Er17  1  0.816896  0.055739  0.935323  1
  Er  Er18  1  0.683553  0.055507  0.435775  1
  Er  Er19  1  0.316302  0.944445  0.564188  1
  Bi  Bi20  1  0.925521  0.008603  0.671748  1
  Bi  Bi21  1  0.074323  0.991325  0.328235  1
  Bi  Bi22  1  0.424975  0.991615  0.827418  1
  Bi  Bi23  1  0.074323  0.508675  0.328235  1
  Bi  Bi24  1  0.574300  0.009510  0.172493  1
  Bi  Bi25  1  0.925521  0.491397  0.671748  1
  Bi  Bi26  1  0.574300  0.490490  0.172493  1
  Bi  Bi27  1  0.424975  0.508385  0.827418  1
  As  As28  1  0.917290  0.750000  0.982007  1
  As  As29  1  0.084329  0.250000  0.018202  1
  As  As30  1  0.415564  0.250000  0.518953  1
  As  As31  1  0.584353  0.750000  0.481019  1
