# generated using pymatgen
data_Ta3MnTcS8
_symmetry_space_group_name_H-M   'P 1'
_cell_length_a   6.62548500
_cell_length_b   6.62614922
_cell_length_c   12.57279600
_cell_angle_alpha   90.00000000
_cell_angle_beta   90.00000000
_cell_angle_gamma   119.99668904
_symmetry_Int_Tables_number   1
_chemical_formula_structural   Ta3MnTcS8
_chemical_formula_sum   'Ta6 Mn2 Tc2 S16'
_cell_volume   478.03079658
_cell_formula_units_Z   2
loop_
 _symmetry_equiv_pos_site_id
 _symmetry_equiv_pos_as_xyz
  1  'x, y, z'
loop_
 _atom_site_type_symbol
 _atom_site_label
 _atom_site_symmetry_multiplicity
 _atom_site_fract_x
 _atom_site_fract_y
 _atom_site_fract_z
 _atom_site_occupancy
  Ta  Ta0  1  0.497914  0.989884  0.250000  1
  Ta  Ta1  1  0.508032  0.010116  0.750000  1
  Ta  Ta2  1  0.989839  0.492101  0.750000  1
  Ta  Ta3  1  0.497736  0.507899  0.250000  1
  Ta  Ta4  1  0.998261  0.002026  0.750000  1
  Ta  Ta5  1  0.996235  0.997974  0.250000  1
  Mn  Mn6  1  0.001215  0.000000  0.500000  1
  Mn  Mn7  1  0.001215  0.000000  0.000000  1
  Tc  Tc8  1  0.503775  0.496687  0.750000  1
  Tc  Tc9  1  0.007087  0.503313  0.250000  1
  S  S10  1  0.833773  0.173513  0.373674  1
  S  S11  1  0.833888  0.660030  0.373135  1
  S  S12  1  0.336634  0.168194  0.374344  1
  S  S13  1  0.660260  0.826487  0.873674  1
  S  S14  1  0.173859  0.339970  0.626865  1
  S  S15  1  0.168440  0.831806  0.874344  1
  S  S16  1  0.173859  0.339970  0.873135  1
  S  S17  1  0.833773  0.173513  0.126326  1
  S  S18  1  0.336634  0.168194  0.125656  1
  S  S19  1  0.660260  0.826487  0.626326  1
  S  S20  1  0.328333  0.664175  0.124436  1
  S  S21  1  0.664159  0.335825  0.624436  1
  S  S22  1  0.664159  0.335825  0.875564  1
  S  S23  1  0.328333  0.664175  0.375564  1
  S  S24  1  0.833888  0.660030  0.126865  1
  S  S25  1  0.168440  0.831806  0.625656  1
