# generated using pymatgen
data_PrHo5(RuI3)2
_symmetry_space_group_name_H-M   'P 1'
_cell_length_a   4.23811200
_cell_length_b   8.97843668
_cell_length_c   12.35725913
_cell_angle_alpha   94.39958957
_cell_angle_beta   90.00000000
_cell_angle_gamma   90.00000000
_symmetry_Int_Tables_number   1
_chemical_formula_structural   PrHo5(RuI3)2
_chemical_formula_sum   'Pr1 Ho5 Ru2 I6'
_cell_volume   468.82815357
_cell_formula_units_Z   1
loop_
 _symmetry_equiv_pos_site_id
 _symmetry_equiv_pos_as_xyz
  1  'x, y, z'
loop_
 _atom_site_type_symbol
 _atom_site_label
 _atom_site_symmetry_multiplicity
 _atom_site_fract_x
 _atom_site_fract_y
 _atom_site_fract_z
 _atom_site_occupancy
  Pr  Pr0  1  0.750000  0.274352  0.603599  1
  Ho  Ho1  1  0.250000  0.739729  0.396398  1
  Ho  Ho2  1  0.750000  0.874837  0.624152  1
  Ho  Ho3  1  0.250000  0.123667  0.372505  1
  Ho  Ho4  1  0.750000  0.894846  0.186028  1
  Ho  Ho5  1  0.250000  0.097092  0.815843  1
  Ru  Ru6  1  0.750000  0.943012  0.405833  1
  Ru  Ru7  1  0.250000  0.055330  0.592843  1
  I  I8  1  0.750000  0.425283  0.361723  1
  I  I9  1  0.250000  0.586952  0.634798  1
  I  I10  1  0.750000  0.860524  0.890038  1
  I  I11  1  0.250000  0.131674  0.109088  1
  I  I12  1  0.750000  0.347406  0.871955  1
  I  I13  1  0.250000  0.645297  0.135195  1
