# generated using pymatgen
data_YHo3(Si5Os3)2
_symmetry_space_group_name_H-M   'P 1'
_cell_length_a   8.12279135
_cell_length_b   8.12086590
_cell_length_c   5.77583800
_cell_angle_alpha   70.57514188
_cell_angle_beta   70.57436662
_cell_angle_gamma   94.09747534
_symmetry_Int_Tables_number   1
_chemical_formula_structural   YHo3(Si5Os3)2
_chemical_formula_sum   'Y1 Ho3 Si10 Os6'
_cell_volume   331.68127177
_cell_formula_units_Z   1
loop_
 _symmetry_equiv_pos_site_id
 _symmetry_equiv_pos_as_xyz
  1  'x, y, z'
loop_
 _atom_site_type_symbol
 _atom_site_label
 _atom_site_symmetry_multiplicity
 _atom_site_fract_x
 _atom_site_fract_y
 _atom_site_fract_z
 _atom_site_occupancy
  Y  Y0  1  0.601337  0.868910  0.252960  1
  Ho  Ho1  1  0.869000  0.601163  0.753223  1
  Ho  Ho2  1  0.398795  0.131124  0.746737  1
  Ho  Ho3  1  0.131049  0.398809  0.246748  1
  Si  Si4  1  0.068421  0.261784  0.833436  1
  Si  Si5  1  0.738334  0.931677  0.666353  1
  Si  Si6  1  0.931895  0.738102  0.166496  1
  Si  Si7  1  0.261695  0.068544  0.333432  1
  Si  Si8  1  0.206067  0.793753  0.750245  1
  Si  Si9  1  0.793926  0.206400  0.250037  1
  Si  Si10  1  0.512420  0.487342  0.750226  1
  Si  Si11  1  0.487383  0.512146  0.249977  1
  Si  Si12  1  0.775252  0.225019  0.749724  1
  Si  Si13  1  0.224614  0.775059  0.250027  1
  Os  Os14  1  0.255446  0.544092  0.630974  1
  Os  Os15  1  0.455434  0.744210  0.869647  1
  Os  Os16  1  0.744397  0.455683  0.369285  1
  Os  Os17  1  0.544183  0.256102  0.130648  1
  Os  Os18  1  0.002475  0.997725  0.750019  1
  Os  Os19  1  0.997876  0.002357  0.249804  1
