# generated using pymatgen
data_Al12Os5PdRh6
_symmetry_space_group_name_H-M   'P 1'
_cell_length_a   4.23934600
_cell_length_b   6.05533600
_cell_length_c   12.82188300
_cell_angle_alpha   90.00000000
_cell_angle_beta   90.00041275
_cell_angle_gamma   90.00000000
_symmetry_Int_Tables_number   1
_chemical_formula_structural   Al12Os5PdRh6
_chemical_formula_sum   'Al12 Os5 Pd1 Rh6'
_cell_volume   329.14625611
_cell_formula_units_Z   1
loop_
 _symmetry_equiv_pos_site_id
 _symmetry_equiv_pos_as_xyz
  1  'x, y, z'
loop_
 _atom_site_type_symbol
 _atom_site_label
 _atom_site_symmetry_multiplicity
 _atom_site_fract_x
 _atom_site_fract_y
 _atom_site_fract_z
 _atom_site_occupancy
  Al  Al0  1  0.500001  0.239903  0.000000  1
  Al  Al1  1  0.500001  0.760097  0.000000  1
  Al  Al2  1  0.000101  0.244646  0.170653  1
  Al  Al3  1  0.000101  0.755353  0.170653  1
  Al  Al4  1  0.500118  0.249384  0.334018  1
  Al  Al5  1  0.500118  0.750615  0.334018  1
  Al  Al6  1  0.000000  0.250019  0.500000  1
  Al  Al7  1  0.000000  0.749981  0.500000  1
  Al  Al8  1  0.499881  0.249384  0.665983  1
  Al  Al9  1  0.499881  0.750615  0.665983  1
  Al  Al10  1  0.999899  0.244646  0.829347  1
  Al  Al11  1  0.999899  0.755353  0.829347  1
  Os  Os12  1  0.500094  0.000000  0.165451  1
  Os  Os13  1  0.000110  0.500001  0.331989  1
  Os  Os14  1  0.500001  0.000000  0.500000  1
  Os  Os15  1  0.999890  0.500001  0.668011  1
  Os  Os16  1  0.499908  0.000000  0.834549  1
  Pd  Pd17  1  0.000000  0.500001  0.000000  1
  Rh  Rh18  1  0.000000  0.000000  0.000000  1
  Rh  Rh19  1  0.500104  0.500001  0.161885  1
  Rh  Rh20  1  0.000088  0.000000  0.333948  1
  Rh  Rh21  1  0.500001  0.500001  0.500000  1
  Rh  Rh22  1  0.999911  0.000000  0.666052  1
  Rh  Rh23  1  0.499896  0.500001  0.838115  1
