# generated using pymatgen
data_TaTi2Nb(InC)2
_symmetry_space_group_name_H-M   'P 1'
_cell_length_a   3.13982900
_cell_length_b   3.13982953
_cell_length_c   14.50835800
_cell_angle_alpha   90.00000000
_cell_angle_beta   90.00000000
_cell_angle_gamma   120.00000496
_symmetry_Int_Tables_number   1
_chemical_formula_structural   TaTi2Nb(InC)2
_chemical_formula_sum   'Ta1 Ti2 Nb1 In2 C2'
_cell_volume   123.86851736
_cell_formula_units_Z   1
loop_
 _symmetry_equiv_pos_site_id
 _symmetry_equiv_pos_as_xyz
  1  'x, y, z'
loop_
 _atom_site_type_symbol
 _atom_site_label
 _atom_site_symmetry_multiplicity
 _atom_site_fract_x
 _atom_site_fract_y
 _atom_site_fract_z
 _atom_site_occupancy
  Ta  Ta0  1  0.333333  0.666667  0.418831  1
  Ti  Ti1  1  0.666667  0.333333  0.581830  1
  Ti  Ti2  1  0.666667  0.333333  0.918372  1
  Nb  Nb3  1  0.333333  0.666667  0.082033  1
  In  In4  1  0.333333  0.666667  0.749702  1
  In  In5  1  0.666667  0.333333  0.250253  1
  C  C6  1  0.000000  0.000000  0.504892  1
  C  C7  1  0.000000  0.000000  0.994088  1
