# generated using pymatgen
data_Ba2In5SnAu6
_symmetry_space_group_name_H-M   'P 1'
_cell_length_a   4.73631400
_cell_length_b   8.01346482
_cell_length_c   9.35215593
_cell_angle_alpha   90.44361860
_cell_angle_beta   90.00000000
_cell_angle_gamma   90.00000000
_symmetry_Int_Tables_number   1
_chemical_formula_structural   Ba2In5SnAu6
_chemical_formula_sum   'Ba2 In5 Sn1 Au6'
_cell_volume   354.94375791
_cell_formula_units_Z   1
loop_
 _symmetry_equiv_pos_site_id
 _symmetry_equiv_pos_as_xyz
  1  'x, y, z'
loop_
 _atom_site_type_symbol
 _atom_site_label
 _atom_site_symmetry_multiplicity
 _atom_site_fract_x
 _atom_site_fract_y
 _atom_site_fract_z
 _atom_site_occupancy
  Ba  Ba0  1  0.000000  0.499306  0.265056  1
  Ba  Ba1  1  0.500000  0.002704  0.735251  1
  In  In2  1  0.500000  0.190759  0.118230  1
  In  In3  1  0.500000  0.804073  0.113138  1
  In  In4  1  0.000000  0.695926  0.883294  1
  In  In5  1  0.000000  0.000684  0.373221  1
  In  In6  1  0.500000  0.502946  0.624836  1
  Sn  Sn7  1  0.000000  0.305783  0.886674  1
  Au  Au8  1  0.500000  0.780983  0.411963  1
  Au  Au9  1  0.000000  0.998257  0.052642  1
  Au  Au10  1  0.500000  0.496377  0.947135  1
  Au  Au11  1  0.000000  0.720132  0.585787  1
  Au  Au12  1  0.000000  0.283013  0.587572  1
  Au  Au13  1  0.500000  0.219059  0.415202  1
