# generated using pymatgen
data_Tc5OsRh8
_symmetry_space_group_name_H-M   'P 1'
_cell_length_a   7.31546280
_cell_length_b   7.31310021
_cell_length_c   4.32982100
_cell_angle_alpha   90.00000000
_cell_angle_beta   90.00000000
_cell_angle_gamma   60.06710098
_symmetry_Int_Tables_number   1
_chemical_formula_structural   Tc5OsRh8
_chemical_formula_sum   'Tc5 Os1 Rh8'
_cell_volume   200.74149676
_cell_formula_units_Z   1
loop_
 _symmetry_equiv_pos_site_id
 _symmetry_equiv_pos_as_xyz
  1  'x, y, z'
loop_
 _atom_site_type_symbol
 _atom_site_label
 _atom_site_symmetry_multiplicity
 _atom_site_fract_x
 _atom_site_fract_y
 _atom_site_fract_z
 _atom_site_occupancy
  Tc  Tc0  1  0.293966  0.569132  0.000000  1
  Tc  Tc1  1  0.426121  0.851445  0.000000  1
  Tc  Tc2  1  0.526816  0.386307  0.500000  1
  Tc  Tc3  1  0.659347  0.668712  0.500000  1
  Tc  Tc4  1  0.243509  0.801624  0.500000  1
  Os  Os5  1  0.708033  0.437426  0.000000  1
  Rh  Rh6  1  0.572629  0.141611  0.000000  1
  Rh  Rh7  1  0.143194  0.285154  0.000000  1
  Rh  Rh8  1  0.856960  0.715746  0.000000  1
  Rh  Rh9  1  0.997998  0.999982  0.000000  1
  Rh  Rh10  1  0.379485  0.097099  0.500000  1
  Rh  Rh11  1  0.953184  0.238402  0.500000  1
  Rh  Rh12  1  0.095492  0.522267  0.500000  1
  Rh  Rh13  1  0.809825  0.951662  0.500000  1
