# generated using pymatgen
data_Ba2HfMoO6
_symmetry_space_group_name_H-M   'P 1'
_cell_length_a   5.92758100
_cell_length_b   8.29968301
_cell_length_c   5.92753600
_cell_angle_alpha   90.00071086
_cell_angle_beta   90.00073462
_cell_angle_gamma   89.99988678
_symmetry_Int_Tables_number   1
_chemical_formula_structural   Ba2HfMoO6
_chemical_formula_sum   'Ba4 Hf2 Mo2 O12'
_cell_volume   291.61724529
_cell_formula_units_Z   2
loop_
 _symmetry_equiv_pos_site_id
 _symmetry_equiv_pos_as_xyz
  1  'x, y, z'
loop_
 _atom_site_type_symbol
 _atom_site_label
 _atom_site_symmetry_multiplicity
 _atom_site_fract_x
 _atom_site_fract_y
 _atom_site_fract_z
 _atom_site_occupancy
  Ba  Ba0  1  0.500033  0.250010  0.000062  1
  Ba  Ba1  1  0.999990  0.749990  0.499917  1
  Ba  Ba2  1  0.499994  0.749991  0.000041  1
  Ba  Ba3  1  0.000027  0.250012  0.499951  1
  Hf  Hf4  1  0.499955  0.500071  0.500090  1
  Hf  Hf5  1  0.999995  0.999938  0.999925  1
  Mo  Mo6  1  0.500004  0.000063  0.499986  1
  Mo  Mo7  1  0.999962  0.499955  0.000051  1
  O  O8  1  0.000014  0.252799  0.999943  1
  O  O9  1  0.499997  0.752882  0.500042  1
  O  O10  1  0.254112  0.500007  0.254184  1
  O  O11  1  0.747134  0.999977  0.747071  1
  O  O12  1  0.247094  0.500014  0.752896  1
  O  O13  1  0.754144  0.999983  0.245860  1
  O  O14  1  0.999986  0.747113  0.999951  1
  O  O15  1  0.500032  0.247205  0.500016  1
  O  O16  1  0.745898  0.500005  0.745907  1
  O  O17  1  0.252866  0.999974  0.252871  1
  O  O18  1  0.752885  0.500020  0.247170  1
  O  O19  1  0.245877  0.999990  0.754065  1
