# generated using pymatgen
data_K4Ba2SiP4
_symmetry_space_group_name_H-M   'P 1'
_cell_length_a   10.08289431
_cell_length_b   10.08289489
_cell_length_c   7.84958593
_cell_angle_alpha   89.18705238
_cell_angle_beta   89.18704844
_cell_angle_gamma   119.37117914
_symmetry_Int_Tables_number   1
_chemical_formula_structural   K4Ba2SiP4
_chemical_formula_sum   'K8 Ba4 Si2 P8'
_cell_volume   695.17369559
_cell_formula_units_Z   2
loop_
 _symmetry_equiv_pos_site_id
 _symmetry_equiv_pos_as_xyz
  1  'x, y, z'
loop_
 _atom_site_type_symbol
 _atom_site_label
 _atom_site_symmetry_multiplicity
 _atom_site_fract_x
 _atom_site_fract_y
 _atom_site_fract_z
 _atom_site_occupancy
  K  K0  1  0.051834  0.526044  0.611258  1
  K  K1  1  0.526044  0.051834  0.111258  1
  K  K2  1  0.273651  0.134535  0.808907  1
  K  K3  1  0.867437  0.719403  0.780399  1
  K  K4  1  0.862360  0.149088  0.792276  1
  K  K5  1  0.719403  0.867437  0.280399  1
  K  K6  1  0.134535  0.273651  0.308907  1
  K  K7  1  0.149088  0.862360  0.292276  1
  Ba  Ba8  1  0.471537  0.949238  0.614169  1
  Ba  Ba9  1  0.468179  0.523662  0.612735  1
  Ba  Ba10  1  0.949238  0.471537  0.114169  1
  Ba  Ba11  1  0.523662  0.468179  0.112735  1
  Si  Si12  1  0.668894  0.336674  0.500242  1
  Si  Si13  1  0.336674  0.668894  0.000242  1
  P  P14  1  0.661444  0.339206  0.798876  1
  P  P15  1  0.339206  0.661444  0.298876  1
  P  P16  1  0.588268  0.789779  0.894296  1
  P  P17  1  0.209168  0.412465  0.915680  1
  P  P18  1  0.206184  0.790777  0.907180  1
  P  P19  1  0.412465  0.209168  0.415680  1
  P  P20  1  0.789779  0.588268  0.394296  1
  P  P21  1  0.790777  0.206184  0.407180  1
