# generated using pymatgen
data_HfNbInRh5
_symmetry_space_group_name_H-M   'P 1'
_cell_length_a   4.09905900
_cell_length_b   5.59593557
_cell_length_c   11.15337550
_cell_angle_alpha   89.64765546
_cell_angle_beta   90.00000000
_cell_angle_gamma   90.00000000
_symmetry_Int_Tables_number   1
_chemical_formula_structural   HfNbInRh5
_chemical_formula_sum   'Hf2 Nb2 In2 Rh10'
_cell_volume   255.83207092
_cell_formula_units_Z   2
loop_
 _symmetry_equiv_pos_site_id
 _symmetry_equiv_pos_as_xyz
  1  'x, y, z'
loop_
 _atom_site_type_symbol
 _atom_site_label
 _atom_site_symmetry_multiplicity
 _atom_site_fract_x
 _atom_site_fract_y
 _atom_site_fract_z
 _atom_site_occupancy
  Hf  Hf0  1  0.500000  0.688568  0.860350  1
  Hf  Hf1  1  0.500000  0.311432  0.139650  1
  Nb  Nb2  1  0.500000  0.188780  0.641356  1
  Nb  Nb3  1  0.500000  0.811220  0.358644  1
  In  In4  1  0.000000  0.500000  0.500000  1
  In  In5  1  0.000000  0.000000  0.000000  1
  Rh  Rh6  1  0.500000  0.209969  0.877191  1
  Rh  Rh7  1  0.500000  0.790031  0.122809  1
  Rh  Rh8  1  0.500000  0.721503  0.615975  1
  Rh  Rh9  1  0.500000  0.278497  0.384025  1
  Rh  Rh10  1  0.000000  0.445519  0.746963  1
  Rh  Rh11  1  0.000000  0.554481  0.253037  1
  Rh  Rh12  1  0.000000  0.000000  0.500000  1
  Rh  Rh13  1  0.000000  0.500000  0.000000  1
  Rh  Rh14  1  0.000000  0.046496  0.254253  1
  Rh  Rh15  1  0.000000  0.953504  0.745747  1
