# generated using pymatgen
data_Tb2Er3(TcO6)2
_symmetry_space_group_name_H-M   'P 1'
_cell_length_a   6.79815890
_cell_length_b   6.79815948
_cell_length_c   7.50166800
_cell_angle_alpha   73.96065017
_cell_angle_beta   73.96065103
_cell_angle_gamma   49.24487559
_symmetry_Int_Tables_number   1
_chemical_formula_structural   Tb2Er3(TcO6)2
_chemical_formula_sum   'Tb2 Er3 Tc2 O12'
_cell_volume   250.19582235
_cell_formula_units_Z   1
loop_
 _symmetry_equiv_pos_site_id
 _symmetry_equiv_pos_as_xyz
  1  'x, y, z'
loop_
 _atom_site_type_symbol
 _atom_site_label
 _atom_site_symmetry_multiplicity
 _atom_site_fract_x
 _atom_site_fract_y
 _atom_site_fract_z
 _atom_site_occupancy
  Tb  Tb0  1  0.695177  0.695177  0.643185  1
  Tb  Tb1  1  0.304823  0.304823  0.356815  1
  Er  Er2  1  0.684400  0.684400  0.174882  1
  Er  Er3  1  0.315600  0.315600  0.825118  1
  Er  Er4  1  0.000000  0.000000  0.500000  1
  Tc  Tc5  1  0.786180  0.213820  0.000000  1
  Tc  Tc6  1  0.213820  0.786180  0.000000  1
  O  O7  1  0.000351  0.000351  0.205652  1
  O  O8  1  0.999649  0.999649  0.794348  1
  O  O9  1  0.584296  0.085139  0.082595  1
  O  O10  1  0.415704  0.914861  0.917405  1
  O  O11  1  0.914861  0.415704  0.917405  1
  O  O12  1  0.085139  0.584296  0.082595  1
  O  O13  1  0.500137  0.500137  0.177397  1
  O  O14  1  0.499863  0.499863  0.822603  1
  O  O15  1  0.404638  0.900274  0.423713  1
  O  O16  1  0.595362  0.099726  0.576287  1
  O  O17  1  0.099726  0.595362  0.576287  1
  O  O18  1  0.900274  0.404638  0.423713  1
