# generated using pymatgen
data_LaDy(Tc2P)4
_symmetry_space_group_name_H-M   'P 1'
_cell_length_a   7.47976738
_cell_length_b   7.47976738
_cell_length_c   3.96397600
_cell_angle_alpha   90.00000000
_cell_angle_beta   90.00000000
_cell_angle_gamma   89.23338661
_symmetry_Int_Tables_number   1
_chemical_formula_structural   LaDy(Tc2P)4
_chemical_formula_sum   'La1 Dy1 Tc8 P4'
_cell_volume   221.75239759
_cell_formula_units_Z   1
loop_
 _symmetry_equiv_pos_site_id
 _symmetry_equiv_pos_as_xyz
  1  'x, y, z'
loop_
 _atom_site_type_symbol
 _atom_site_label
 _atom_site_symmetry_multiplicity
 _atom_site_fract_x
 _atom_site_fract_y
 _atom_site_fract_z
 _atom_site_occupancy
  La  La0  1  0.000000  0.000000  0.000000  1
  Dy  Dy1  1  0.500000  0.500000  0.500000  1
  Tc  Tc2  1  0.579329  0.837951  0.000000  1
  Tc  Tc3  1  0.837951  0.579329  0.000000  1
  Tc  Tc4  1  0.162049  0.420671  0.000000  1
  Tc  Tc5  1  0.420671  0.162049  0.000000  1
  Tc  Tc6  1  0.656870  0.084902  0.500000  1
  Tc  Tc7  1  0.915098  0.343130  0.500000  1
  Tc  Tc8  1  0.084902  0.656870  0.500000  1
  Tc  Tc9  1  0.343130  0.915098  0.500000  1
  P  P10  1  0.708024  0.291976  0.000000  1
  P  P11  1  0.291976  0.708024  0.000000  1
  P  P12  1  0.782873  0.782873  0.500000  1
  P  P13  1  0.217127  0.217127  0.500000  1
