# generated using pymatgen
data_Hf2TiB2Ru5
_symmetry_space_group_name_H-M   'P 1'
_cell_length_a   9.37410400
_cell_length_b   9.37410400
_cell_length_c   3.09468400
_cell_angle_alpha   90.00000000
_cell_angle_beta   90.00000000
_cell_angle_gamma   90.00000000
_symmetry_Int_Tables_number   1
_chemical_formula_structural   Hf2TiB2Ru5
_chemical_formula_sum   'Hf4 Ti2 B4 Ru10'
_cell_volume   271.94172273
_cell_formula_units_Z   2
loop_
 _symmetry_equiv_pos_site_id
 _symmetry_equiv_pos_as_xyz
  1  'x, y, z'
loop_
 _atom_site_type_symbol
 _atom_site_label
 _atom_site_symmetry_multiplicity
 _atom_site_fract_x
 _atom_site_fract_y
 _atom_site_fract_z
 _atom_site_occupancy
  Hf  Hf0  1  0.675281  0.175281  0.000000  1
  Hf  Hf1  1  0.324719  0.824719  0.000000  1
  Hf  Hf2  1  0.175281  0.324719  0.000000  1
  Hf  Hf3  1  0.824719  0.675281  0.000000  1
  Ti  Ti4  1  0.000000  0.000000  0.000000  1
  Ti  Ti5  1  0.500000  0.500000  0.000000  1
  B  B6  1  0.123842  0.623842  0.000000  1
  B  B7  1  0.876158  0.376158  0.000000  1
  B  B8  1  0.623842  0.876158  0.000000  1
  B  B9  1  0.376158  0.123842  0.000000  1
  Ru  Ru10  1  0.215665  0.071398  0.500000  1
  Ru  Ru11  1  0.784335  0.928602  0.500000  1
  Ru  Ru12  1  0.071398  0.784335  0.500000  1
  Ru  Ru13  1  0.715665  0.428602  0.500000  1
  Ru  Ru14  1  0.928602  0.215665  0.500000  1
  Ru  Ru15  1  0.284335  0.571398  0.500000  1
  Ru  Ru16  1  0.571398  0.715665  0.500000  1
  Ru  Ru17  1  0.428602  0.284335  0.500000  1
  Ru  Ru18  1  0.500000  0.000000  0.500000  1
  Ru  Ru19  1  0.000000  0.500000  0.500000  1
