# generated using pymatgen
data_Nd5RuRh2
_symmetry_space_group_name_H-M   'P 1'
_cell_length_a   11.23265200
_cell_length_b   11.23265200
_cell_length_c   6.60142400
_cell_angle_alpha   90.00000000
_cell_angle_beta   90.00000000
_cell_angle_gamma   90.00000000
_symmetry_Int_Tables_number   1
_chemical_formula_structural   Nd5RuRh2
_chemical_formula_sum   'Nd20 Ru4 Rh8'
_cell_volume   832.91797789
_cell_formula_units_Z   4
loop_
 _symmetry_equiv_pos_site_id
 _symmetry_equiv_pos_as_xyz
  1  'x, y, z'
loop_
 _atom_site_type_symbol
 _atom_site_label
 _atom_site_symmetry_multiplicity
 _atom_site_fract_x
 _atom_site_fract_y
 _atom_site_fract_z
 _atom_site_occupancy
  Nd  Nd0  1  0.088568  0.294254  0.117138  1
  Nd  Nd1  1  0.794254  0.411432  0.117138  1
  Nd  Nd2  1  0.205746  0.588568  0.117138  1
  Nd  Nd3  1  0.911432  0.705746  0.117138  1
  Nd  Nd4  1  0.411432  0.794254  0.382862  1
  Nd  Nd5  1  0.588568  0.205746  0.382862  1
  Nd  Nd6  1  0.294254  0.088568  0.382862  1
  Nd  Nd7  1  0.705746  0.911432  0.382862  1
  Nd  Nd8  1  0.411432  0.205746  0.882862  1
  Nd  Nd9  1  0.705746  0.088568  0.882862  1
  Nd  Nd10  1  0.294254  0.911432  0.882862  1
  Nd  Nd11  1  0.588568  0.794254  0.882862  1
  Nd  Nd12  1  0.088568  0.705746  0.617138  1
  Nd  Nd13  1  0.911432  0.294254  0.617138  1
  Nd  Nd14  1  0.205746  0.411432  0.617138  1
  Nd  Nd15  1  0.794254  0.588568  0.617138  1
  Nd  Nd16  1  0.000000  0.000000  0.000000  1
  Nd  Nd17  1  0.500000  0.500000  0.000000  1
  Nd  Nd18  1  0.500000  0.500000  0.500000  1
  Nd  Nd19  1  0.000000  0.000000  0.500000  1
  Ru  Ru20  1  0.000000  0.500000  0.377711  1
  Ru  Ru21  1  0.500000  0.000000  0.122289  1
  Ru  Ru22  1  0.500000  0.000000  0.622289  1
  Ru  Ru23  1  0.000000  0.500000  0.877711  1
  Rh  Rh24  1  0.152874  0.847126  0.250000  1
  Rh  Rh25  1  0.347126  0.347126  0.250000  1
  Rh  Rh26  1  0.652874  0.652874  0.250000  1
  Rh  Rh27  1  0.847126  0.152874  0.250000  1
  Rh  Rh28  1  0.347126  0.652874  0.750000  1
  Rh  Rh29  1  0.152874  0.152874  0.750000  1
  Rh  Rh30  1  0.847126  0.847126  0.750000  1
  Rh  Rh31  1  0.652874  0.347126  0.750000  1
