# generated using pymatgen
data_Tb8OsRuBr8
_symmetry_space_group_name_H-M   'P 1'
_cell_length_a   9.05714193
_cell_length_b   9.05714009
_cell_length_c   6.57646342
_cell_angle_alpha   89.66859522
_cell_angle_beta   89.66859585
_cell_angle_gamma   89.44363818
_symmetry_Int_Tables_number   1
_chemical_formula_structural   Tb8OsRuBr8
_chemical_formula_sum   'Tb8 Os1 Ru1 Br8'
_cell_volume   539.43584514
_cell_formula_units_Z   1
loop_
 _symmetry_equiv_pos_site_id
 _symmetry_equiv_pos_as_xyz
  1  'x, y, z'
loop_
 _atom_site_type_symbol
 _atom_site_label
 _atom_site_symmetry_multiplicity
 _atom_site_fract_x
 _atom_site_fract_y
 _atom_site_fract_z
 _atom_site_occupancy
  Tb  Tb0  1  0.249010  0.902035  0.009529  1
  Tb  Tb1  1  0.751523  0.097705  0.989373  1
  Tb  Tb2  1  0.097965  0.750990  0.490471  1
  Tb  Tb3  1  0.902295  0.248477  0.510627  1
  Tb  Tb4  1  0.752051  0.903436  0.506203  1
  Tb  Tb5  1  0.248167  0.096921  0.494996  1
  Tb  Tb6  1  0.096564  0.247949  0.993797  1
  Tb  Tb7  1  0.903079  0.751833  0.005004  1
  Os  Os8  1  0.003967  0.996033  0.750000  1
  Ru  Ru9  1  0.995753  0.004247  0.250000  1
  Br  Br10  1  0.415512  0.818080  0.414383  1
  Br  Br11  1  0.584116  0.181849  0.586163  1
  Br  Br12  1  0.181920  0.584488  0.085617  1
  Br  Br13  1  0.818151  0.415884  0.913837  1
  Br  Br14  1  0.411598  0.187601  0.088588  1
  Br  Br15  1  0.588144  0.812212  0.910920  1
  Br  Br16  1  0.812399  0.588402  0.411412  1
  Br  Br17  1  0.187788  0.411856  0.589080  1
