# generated using pymatgen
data_Tb3Yb3(CoSn6)2
_symmetry_space_group_name_H-M   'P 1'
_cell_length_a   8.43098549
_cell_length_b   8.43098515
_cell_length_c   13.21190776
_cell_angle_alpha   90.03732025
_cell_angle_beta   89.96268077
_cell_angle_gamma   148.00537519
_symmetry_Int_Tables_number   1
_chemical_formula_structural   Tb3Yb3(CoSn6)2
_chemical_formula_sum   'Tb3 Yb3 Co2 Sn12'
_cell_volume   497.58421861
_cell_formula_units_Z   1
loop_
 _symmetry_equiv_pos_site_id
 _symmetry_equiv_pos_as_xyz
  1  'x, y, z'
loop_
 _atom_site_type_symbol
 _atom_site_label
 _atom_site_symmetry_multiplicity
 _atom_site_fract_x
 _atom_site_fract_y
 _atom_site_fract_z
 _atom_site_occupancy
  Tb  Tb0  1  0.897872  0.102128  0.093684  1
  Tb  Tb1  1  0.901173  0.098827  0.754045  1
  Tb  Tb2  1  0.098895  0.901105  0.248185  1
  Yb  Yb3  1  0.100596  0.899404  0.596607  1
  Yb  Yb4  1  0.100988  0.899012  0.904032  1
  Yb  Yb5  1  0.899642  0.100358  0.403399  1
  Co  Co6  1  0.299424  0.700576  0.249771  1
  Co  Co7  1  0.702610  0.297390  0.750082  1
  Sn  Sn8  1  0.757769  0.242231  0.571829  1
  Sn  Sn9  1  0.426517  0.573483  0.578626  1
  Sn  Sn10  1  0.572890  0.427110  0.422766  1
  Sn  Sn11  1  0.733763  0.266237  0.248746  1
  Sn  Sn12  1  0.266777  0.733223  0.749998  1
  Sn  Sn13  1  0.241608  0.758392  0.072117  1
  Sn  Sn14  1  0.243103  0.756897  0.427727  1
  Sn  Sn15  1  0.571670  0.428330  0.076094  1
  Sn  Sn16  1  0.454731  0.545269  0.249073  1
  Sn  Sn17  1  0.546156  0.453844  0.749975  1
  Sn  Sn18  1  0.756805  0.243195  0.929079  1
  Sn  Sn19  1  0.427010  0.572990  0.924168  1
