# generated using pymatgen
data_Eu2Cu3Rh
_symmetry_space_group_name_H-M   'P 1'
_cell_length_a   5.27761195
_cell_length_b   5.27761259
_cell_length_c   5.47238719
_cell_angle_alpha   61.17056038
_cell_angle_beta   61.17055144
_cell_angle_gamma   60.00000742
_symmetry_Int_Tables_number   1
_chemical_formula_structural   Eu2Cu3Rh
_chemical_formula_sum   'Eu2 Cu3 Rh1'
_cell_volume   109.64739530
_cell_formula_units_Z   1
loop_
 _symmetry_equiv_pos_site_id
 _symmetry_equiv_pos_as_xyz
  1  'x, y, z'
loop_
 _atom_site_type_symbol
 _atom_site_label
 _atom_site_symmetry_multiplicity
 _atom_site_fract_x
 _atom_site_fract_y
 _atom_site_fract_z
 _atom_site_occupancy
  Eu  Eu0  1  0.251654  0.251654  0.245037  1
  Eu  Eu1  1  0.998346  0.998346  0.004963  1
  Cu  Cu2  1  0.125000  0.625000  0.625000  1
  Cu  Cu3  1  0.625000  0.625000  0.625000  1
  Cu  Cu4  1  0.625000  0.125000  0.625000  1
  Rh  Rh5  1  0.625000  0.625000  0.125000  1
