# generated using pymatgen
data_Ac6CoSn6Pt5
_symmetry_space_group_name_H-M   'P 1'
_cell_length_a   7.70566600
_cell_length_b   7.70566593
_cell_length_c   8.66641900
_cell_angle_alpha   90.00000000
_cell_angle_beta   90.00000000
_cell_angle_gamma   119.99999174
_symmetry_Int_Tables_number   1
_chemical_formula_structural   Ac6CoSn6Pt5
_chemical_formula_sum   'Ac6 Co1 Sn6 Pt5'
_cell_volume   445.64671273
_cell_formula_units_Z   1
loop_
 _symmetry_equiv_pos_site_id
 _symmetry_equiv_pos_as_xyz
  1  'x, y, z'
loop_
 _atom_site_type_symbol
 _atom_site_label
 _atom_site_symmetry_multiplicity
 _atom_site_fract_x
 _atom_site_fract_y
 _atom_site_fract_z
 _atom_site_occupancy
  Ac  Ac0  1  0.999726  0.417915  0.750000  1
  Ac  Ac1  1  0.582086  0.581814  0.750000  1
  Ac  Ac2  1  0.418187  0.000275  0.750000  1
  Ac  Ac3  1  0.000025  0.412272  0.250000  1
  Ac  Ac4  1  0.587729  0.587755  0.250000  1
  Ac  Ac5  1  0.412247  0.999975  0.250000  1
  Co  Co6  1  0.999999  0.000000  0.250000  1
  Sn  Sn7  1  0.238765  0.239054  0.493809  1
  Sn  Sn8  1  0.000295  0.761235  0.493811  1
  Sn  Sn9  1  0.000295  0.761235  0.006189  1
  Sn  Sn10  1  0.760941  0.999705  0.493809  1
  Sn  Sn11  1  0.760941  0.999705  0.006191  1
  Sn  Sn12  1  0.238765  0.239054  0.006191  1
  Pt  Pt13  1  0.333333  0.666668  0.500535  1
  Pt  Pt14  1  0.666667  0.333334  0.500032  1
  Pt  Pt15  1  0.333333  0.666668  0.999465  1
  Pt  Pt16  1  0.000000  0.000001  0.750000  1
  Pt  Pt17  1  0.666667  0.333334  0.999968  1
