# generated using pymatgen
data_Sm2Ho3Sn4
_symmetry_space_group_name_H-M   'P 1'
_cell_length_a   8.07542700
_cell_length_b   8.23020800
_cell_length_c   15.52997200
_cell_angle_alpha   90.00000000
_cell_angle_beta   90.00000000
_cell_angle_gamma   90.00000000
_symmetry_Int_Tables_number   1
_chemical_formula_structural   Sm2Ho3Sn4
_chemical_formula_sum   'Sm8 Ho12 Sn16'
_cell_volume   1032.15989280
_cell_formula_units_Z   4
loop_
 _symmetry_equiv_pos_site_id
 _symmetry_equiv_pos_as_xyz
  1  'x, y, z'
loop_
 _atom_site_type_symbol
 _atom_site_label
 _atom_site_symmetry_multiplicity
 _atom_site_fract_x
 _atom_site_fract_y
 _atom_site_fract_z
 _atom_site_occupancy
  Sm  Sm0  1  0.519647  0.320354  0.901747  1
  Sm  Sm1  1  0.019647  0.179646  0.598253  1
  Sm  Sm2  1  0.480353  0.679646  0.401747  1
  Sm  Sm3  1  0.980353  0.820354  0.098253  1
  Sm  Sm4  1  0.480353  0.679646  0.098253  1
  Sm  Sm5  1  0.980353  0.820354  0.401747  1
  Sm  Sm6  1  0.519647  0.320354  0.598253  1
  Sm  Sm7  1  0.019647  0.179646  0.901747  1
  Ho  Ho8  1  0.366627  0.834889  0.878041  1
  Ho  Ho9  1  0.866627  0.665111  0.621959  1
  Ho  Ho10  1  0.633373  0.165111  0.378041  1
  Ho  Ho11  1  0.133373  0.334889  0.121959  1
  Ho  Ho12  1  0.633373  0.165111  0.121959  1
  Ho  Ho13  1  0.133373  0.334889  0.378041  1
  Ho  Ho14  1  0.366627  0.834889  0.621959  1
  Ho  Ho15  1  0.866627  0.665111  0.878041  1
  Ho  Ho16  1  0.197803  0.503502  0.750000  1
  Ho  Ho17  1  0.697803  0.996498  0.750000  1
  Ho  Ho18  1  0.802197  0.496498  0.250000  1
  Ho  Ho19  1  0.302197  0.003502  0.250000  1
  Sn  Sn20  1  0.295445  0.036462  0.041886  1
  Sn  Sn21  1  0.795445  0.463538  0.458114  1
  Sn  Sn22  1  0.704555  0.963538  0.541886  1
  Sn  Sn23  1  0.204555  0.536462  0.958114  1
  Sn  Sn24  1  0.704555  0.963538  0.958114  1
  Sn  Sn25  1  0.204555  0.536462  0.541886  1
  Sn  Sn26  1  0.295445  0.036462  0.458114  1
  Sn  Sn27  1  0.795445  0.463538  0.041886  1
  Sn  Sn28  1  0.564870  0.621557  0.750000  1
  Sn  Sn29  1  0.064870  0.878443  0.750000  1
  Sn  Sn30  1  0.435130  0.378443  0.250000  1
  Sn  Sn31  1  0.935130  0.121557  0.250000  1
  Sn  Sn32  1  0.326923  0.143462  0.750000  1
  Sn  Sn33  1  0.826923  0.356538  0.750000  1
  Sn  Sn34  1  0.673077  0.856538  0.250000  1
  Sn  Sn35  1  0.173077  0.643462  0.250000  1
