# generated using pymatgen
data_Tb(CrC)4
_symmetry_space_group_name_H-M   'P 1'
_cell_length_a   5.74991538
_cell_length_b   5.75007202
_cell_length_c   5.75030114
_cell_angle_alpha   94.50265894
_cell_angle_beta   94.48939363
_cell_angle_gamma   147.47841301
_symmetry_Int_Tables_number   1
_chemical_formula_structural   Tb(CrC)4
_chemical_formula_sum   'Tb1 Cr4 C4'
_cell_volume   98.12413712
_cell_formula_units_Z   1
loop_
 _symmetry_equiv_pos_site_id
 _symmetry_equiv_pos_as_xyz
  1  'x, y, z'
loop_
 _atom_site_type_symbol
 _atom_site_label
 _atom_site_symmetry_multiplicity
 _atom_site_fract_x
 _atom_site_fract_y
 _atom_site_fract_z
 _atom_site_occupancy
  Tb  Tb0  1  0.999998  0.000005  0.000002  1
  Cr  Cr1  1  0.819266  0.365311  0.184581  1
  Cr  Cr2  1  0.634616  0.819285  0.453892  1
  Cr  Cr3  1  0.365330  0.180646  0.545967  1
  Cr  Cr4  1  0.180824  0.634822  0.815642  1
  C  C5  1  0.400752  0.746047  0.146822  1
  C  C6  1  0.746065  0.599171  0.345233  1
  C  C7  1  0.253791  0.400765  0.654548  1
  C  C8  1  0.599360  0.253951  0.853310  1
