# generated using pymatgen
data_Rb5Nb2S4Cl9
_symmetry_space_group_name_H-M   'P 1'
_cell_length_a   7.29246081
_cell_length_b   10.07976003
_cell_length_c   10.20153232
_cell_angle_alpha   119.60591595
_cell_angle_beta   110.94182945
_cell_angle_gamma   89.99999497
_symmetry_Int_Tables_number   1
_chemical_formula_structural   Rb5Nb2S4Cl9
_chemical_formula_sum   'Rb5 Nb2 S4 Cl9'
_cell_volume   594.33739959
_cell_formula_units_Z   1
loop_
 _symmetry_equiv_pos_site_id
 _symmetry_equiv_pos_as_xyz
  1  'x, y, z'
loop_
 _atom_site_type_symbol
 _atom_site_label
 _atom_site_symmetry_multiplicity
 _atom_site_fract_x
 _atom_site_fract_y
 _atom_site_fract_z
 _atom_site_occupancy
  Rb  Rb0  1  0.000000  0.500000  0.000000  1
  Rb  Rb1  1  0.666051  0.444310  0.332102  1
  Rb  Rb2  1  0.666051  0.887793  0.332102  1
  Rb  Rb3  1  0.333949  0.112208  0.667897  1
  Rb  Rb4  1  0.333949  0.555689  0.667897  1
  Nb  Nb5  1  0.090890  0.090890  0.181779  1
  Nb  Nb6  1  0.909109  0.909110  0.818221  1
  S  S7  1  0.244009  0.099842  0.000000  1
  S  S8  1  0.755990  0.099842  0.000000  1
  S  S9  1  0.244009  0.900158  0.000000  1
  S  S10  1  0.755990  0.900158  0.000000  1
  Cl  Cl11  1  0.500000  0.500000  0.000000  1
  Cl  Cl12  1  0.131370  0.384971  0.262739  1
  Cl  Cl13  1  0.131370  0.877769  0.262739  1
  Cl  Cl14  1  0.445487  0.206787  0.413574  1
  Cl  Cl15  1  0.968087  0.206787  0.413574  1
  Cl  Cl16  1  0.031914  0.793213  0.586426  1
  Cl  Cl17  1  0.554513  0.793213  0.586426  1
  Cl  Cl18  1  0.868630  0.122231  0.737261  1
  Cl  Cl19  1  0.868630  0.615029  0.737261  1
