# generated using pymatgen
data_LiCa21Ga9Sn5
_symmetry_space_group_name_H-M   'P 1'
_cell_length_a   11.47404153
_cell_length_b   11.47182539
_cell_length_c   11.47404200
_cell_angle_alpha   60.00639379
_cell_angle_beta   59.98721458
_cell_angle_gamma   60.00639653
_symmetry_Int_Tables_number   1
_chemical_formula_structural   LiCa21Ga9Sn5
_chemical_formula_sum   'Li1 Ca21 Ga9 Sn5'
_cell_volume   1067.94863941
_cell_formula_units_Z   1
loop_
 _symmetry_equiv_pos_site_id
 _symmetry_equiv_pos_as_xyz
  1  'x, y, z'
loop_
 _atom_site_type_symbol
 _atom_site_label
 _atom_site_symmetry_multiplicity
 _atom_site_fract_x
 _atom_site_fract_y
 _atom_site_fract_z
 _atom_site_occupancy
  Li  Li0  1  0.501036  0.498964  0.501036  1
  Ca  Ca1  1  0.999045  0.000955  0.999045  1
  Ca  Ca2  1  0.130096  0.130431  0.130096  1
  Ca  Ca3  1  0.390621  0.869904  0.869569  1
  Ca  Ca4  1  0.867689  0.388667  0.867689  1
  Ca  Ca5  1  0.869569  0.869904  0.390621  1
  Ca  Ca6  1  0.130096  0.609379  0.130096  1
  Ca  Ca7  1  0.124045  0.132311  0.611333  1
  Ca  Ca8  1  0.611333  0.132311  0.124045  1
  Ca  Ca9  1  0.867689  0.875955  0.867689  1
  Ca  Ca10  1  0.499810  0.831682  0.499810  1
  Ca  Ca11  1  0.830857  0.494230  0.505770  1
  Ca  Ca12  1  0.500287  0.832047  0.167953  1
  Ca  Ca13  1  0.168318  0.500190  0.831302  1
  Ca  Ca14  1  0.831302  0.500190  0.168318  1
  Ca  Ca15  1  0.505770  0.494230  0.830857  1
  Ca  Ca16  1  0.167953  0.832047  0.500287  1
  Ca  Ca17  1  0.505770  0.169143  0.830857  1
  Ca  Ca18  1  0.500287  0.499713  0.167953  1
  Ca  Ca19  1  0.830857  0.169143  0.505770  1
  Ca  Ca20  1  0.167953  0.499713  0.500287  1
  Ca  Ca21  1  0.499810  0.168698  0.499810  1
  Ga  Ga22  1  0.782727  0.217273  0.782727  1
  Ga  Ga23  1  0.309296  0.308974  0.309295  1
  Ga  Ga24  1  0.927565  0.690705  0.691026  1
  Ga  Ga25  1  0.690374  0.928441  0.690374  1
  Ga  Ga26  1  0.691026  0.690705  0.927565  1
  Ga  Ga27  1  0.309295  0.072435  0.309295  1
  Ga  Ga28  1  0.309190  0.309626  0.071559  1
  Ga  Ga29  1  0.071559  0.309626  0.309190  1
  Ga  Ga30  1  0.690374  0.690810  0.690373  1
  Sn  Sn31  1  0.215530  0.784470  0.215530  1
  Sn  Sn32  1  0.217832  0.782168  0.783604  1
  Sn  Sn33  1  0.783604  0.216396  0.217832  1
  Sn  Sn34  1  0.783604  0.782168  0.217832  1
  Sn  Sn35  1  0.217832  0.216396  0.783604  1
