# generated using pymatgen
data_TbEr3OsBr4
_symmetry_space_group_name_H-M   'P 1'
_cell_length_a   8.97291730
_cell_length_b   8.92171155
_cell_length_c   6.52714351
_cell_angle_alpha   89.65385916
_cell_angle_beta   89.29384067
_cell_angle_gamma   89.37086435
_symmetry_Int_Tables_number   1
_chemical_formula_structural   TbEr3OsBr4
_chemical_formula_sum   'Tb2 Er6 Os2 Br8'
_cell_volume   522.44221275
_cell_formula_units_Z   2
loop_
 _symmetry_equiv_pos_site_id
 _symmetry_equiv_pos_as_xyz
  1  'x, y, z'
loop_
 _atom_site_type_symbol
 _atom_site_label
 _atom_site_symmetry_multiplicity
 _atom_site_fract_x
 _atom_site_fract_y
 _atom_site_fract_z
 _atom_site_occupancy
  Tb  Tb0  1  0.250804  0.900357  0.008574  1
  Tb  Tb1  1  0.749196  0.099643  0.991426  1
  Er  Er2  1  0.097989  0.752566  0.488796  1
  Er  Er3  1  0.902011  0.247434  0.511204  1
  Er  Er4  1  0.754387  0.903078  0.508929  1
  Er  Er5  1  0.245613  0.096922  0.491071  1
  Er  Er6  1  0.095972  0.246827  0.991588  1
  Er  Er7  1  0.904028  0.753173  0.008412  1
  Os  Os8  1  0.995596  0.004733  0.250507  1
  Os  Os9  1  0.004404  0.995267  0.749493  1
  Br  Br10  1  0.418179  0.817677  0.411797  1
  Br  Br11  1  0.581821  0.182323  0.588203  1
  Br  Br12  1  0.181487  0.580099  0.092052  1
  Br  Br13  1  0.818513  0.419901  0.907948  1
  Br  Br14  1  0.411326  0.192029  0.092539  1
  Br  Br15  1  0.588674  0.807971  0.907461  1
  Br  Br16  1  0.811372  0.586338  0.406599  1
  Br  Br17  1  0.188628  0.413662  0.593401  1
