# generated using pymatgen
data_TbEr2(Co3P2)3
_symmetry_space_group_name_H-M   'P 1'
_cell_length_a   3.67897400
_cell_length_b   10.48149600
_cell_length_c   12.13691800
_cell_angle_alpha   90.00000000
_cell_angle_beta   90.00000000
_cell_angle_gamma   90.00000000
_symmetry_Int_Tables_number   1
_chemical_formula_structural   TbEr2(Co3P2)3
_chemical_formula_sum   'Tb2 Er4 Co18 P12'
_cell_volume   468.01353089
_cell_formula_units_Z   2
loop_
 _symmetry_equiv_pos_site_id
 _symmetry_equiv_pos_as_xyz
  1  'x, y, z'
loop_
 _atom_site_type_symbol
 _atom_site_label
 _atom_site_symmetry_multiplicity
 _atom_site_fract_x
 _atom_site_fract_y
 _atom_site_fract_z
 _atom_site_occupancy
  Tb  Tb0  1  0.750000  0.250000  0.477862  1
  Tb  Tb1  1  0.250000  0.750000  0.522138  1
  Er  Er2  1  0.250000  0.932863  0.794452  1
  Er  Er3  1  0.250000  0.567137  0.794452  1
  Er  Er4  1  0.750000  0.067137  0.205548  1
  Er  Er5  1  0.750000  0.432863  0.205548  1
  Co  Co6  1  0.250000  0.250000  0.841659  1
  Co  Co7  1  0.750000  0.750000  0.158341  1
  Co  Co8  1  0.250000  0.250000  0.296062  1
  Co  Co9  1  0.750000  0.750000  0.703938  1
  Co  Co10  1  0.750000  0.250000  0.014465  1
  Co  Co11  1  0.250000  0.750000  0.985535  1
  Co  Co12  1  0.250000  0.416745  0.005628  1
  Co  Co13  1  0.250000  0.083255  0.005628  1
  Co  Co14  1  0.750000  0.583255  0.994372  1
  Co  Co15  1  0.750000  0.916745  0.994372  1
  Co  Co16  1  0.250000  0.452639  0.569843  1
  Co  Co17  1  0.250000  0.047361  0.569843  1
  Co  Co18  1  0.750000  0.547361  0.430157  1
  Co  Co19  1  0.750000  0.952639  0.430157  1
  Co  Co20  1  0.250000  0.870998  0.289479  1
  Co  Co21  1  0.250000  0.629002  0.289479  1
  Co  Co22  1  0.750000  0.129002  0.710521  1
  Co  Co23  1  0.750000  0.370998  0.710521  1
  P  P24  1  0.250000  0.250000  0.117917  1
  P  P25  1  0.750000  0.750000  0.882083  1
  P  P26  1  0.250000  0.250000  0.656867  1
  P  P27  1  0.750000  0.750000  0.343133  1
  P  P28  1  0.250000  0.439924  0.383395  1
  P  P29  1  0.250000  0.060076  0.383395  1
  P  P30  1  0.750000  0.560076  0.616605  1
  P  P31  1  0.750000  0.939924  0.616605  1
  P  P32  1  0.250000  0.902790  0.106816  1
  P  P33  1  0.250000  0.597210  0.106816  1
  P  P34  1  0.750000  0.097210  0.893184  1
  P  P35  1  0.750000  0.402790  0.893184  1
