# generated using pymatgen
data_Tm5ReMoC7
_symmetry_space_group_name_H-M   'P 1'
_cell_length_a   8.25987263
_cell_length_b   8.25987163
_cell_length_c   3.38003000
_cell_angle_alpha   90.00000000
_cell_angle_beta   90.00000000
_cell_angle_gamma   121.99911728
_symmetry_Int_Tables_number   1
_chemical_formula_structural   Tm5ReMoC7
_chemical_formula_sum   'Tm5 Re1 Mo1 C7'
_cell_volume   195.56533118
_cell_formula_units_Z   1
loop_
 _symmetry_equiv_pos_site_id
 _symmetry_equiv_pos_as_xyz
  1  'x, y, z'
loop_
 _atom_site_type_symbol
 _atom_site_label
 _atom_site_symmetry_multiplicity
 _atom_site_fract_x
 _atom_site_fract_y
 _atom_site_fract_z
 _atom_site_occupancy
  Tm  Tm0  1  0.499009  0.500991  0.000000  1
  Tm  Tm1  1  0.078266  0.336298  0.500000  1
  Tm  Tm2  1  0.923707  0.665063  0.500000  1
  Tm  Tm3  1  0.663702  0.921734  0.500000  1
  Tm  Tm4  1  0.334937  0.076293  0.500000  1
  Re  Re5  1  0.286022  0.713978  0.000000  1
  Mo  Mo6  1  0.714370  0.285630  0.000000  1
  C  C7  1  0.622920  0.377080  0.500000  1
  C  C8  1  0.375474  0.624526  0.500000  1
  C  C9  1  0.999846  0.000154  0.000000  1
  C  C10  1  0.169805  0.169168  0.000000  1
  C  C11  1  0.830832  0.830195  0.000000  1
  C  C12  1  0.002206  0.501096  0.000000  1
  C  C13  1  0.498904  0.997794  0.000000  1
