# generated using pymatgen
data_Sc3Be2Rh5
_symmetry_space_group_name_H-M   'P 1'
_cell_length_a   9.51771400
_cell_length_b   9.51771400
_cell_length_c   3.22347900
_cell_angle_alpha   90.00000000
_cell_angle_beta   90.00000000
_cell_angle_gamma   90.00000000
_symmetry_Int_Tables_number   1
_chemical_formula_structural   Sc3Be2Rh5
_chemical_formula_sum   'Sc6 Be4 Rh10'
_cell_volume   292.00490467
_cell_formula_units_Z   2
loop_
 _symmetry_equiv_pos_site_id
 _symmetry_equiv_pos_as_xyz
  1  'x, y, z'
loop_
 _atom_site_type_symbol
 _atom_site_label
 _atom_site_symmetry_multiplicity
 _atom_site_fract_x
 _atom_site_fract_y
 _atom_site_fract_z
 _atom_site_occupancy
  Sc  Sc0  1  0.824499  0.324499  0.000000  1
  Sc  Sc1  1  0.324499  0.175501  0.000000  1
  Sc  Sc2  1  0.675501  0.824499  0.000000  1
  Sc  Sc3  1  0.175501  0.675501  0.000000  1
  Sc  Sc4  1  0.000000  0.000000  0.000000  1
  Sc  Sc5  1  0.500000  0.500000  0.000000  1
  Be  Be6  1  0.622383  0.122383  0.000000  1
  Be  Be7  1  0.122383  0.377617  0.000000  1
  Be  Be8  1  0.877617  0.622383  0.000000  1
  Be  Be9  1  0.377617  0.877617  0.000000  1
  Rh  Rh10  1  0.070737  0.215560  0.500000  1
  Rh  Rh11  1  0.215560  0.929263  0.500000  1
  Rh  Rh12  1  0.784440  0.070737  0.500000  1
  Rh  Rh13  1  0.929263  0.784440  0.500000  1
  Rh  Rh14  1  0.429263  0.715560  0.500000  1
  Rh  Rh15  1  0.570737  0.284440  0.500000  1
  Rh  Rh16  1  0.715560  0.570737  0.500000  1
  Rh  Rh17  1  0.284440  0.429263  0.500000  1
  Rh  Rh18  1  0.500000  0.000000  0.500000  1
  Rh  Rh19  1  0.000000  0.500000  0.500000  1
