# generated using pymatgen
data_Ho20Cd6NiRh
_symmetry_space_group_name_H-M   'P 1'
_cell_length_a   9.53324300
_cell_length_b   9.53324395
_cell_length_c   9.80084900
_cell_angle_alpha   90.00000000
_cell_angle_beta   90.00000000
_cell_angle_gamma   119.99999325
_symmetry_Int_Tables_number   1
_chemical_formula_structural   Ho20Cd6NiRh
_chemical_formula_sum   'Ho20 Cd6 Ni1 Rh1'
_cell_volume   771.39306290
_cell_formula_units_Z   1
loop_
 _symmetry_equiv_pos_site_id
 _symmetry_equiv_pos_as_xyz
  1  'x, y, z'
loop_
 _atom_site_type_symbol
 _atom_site_label
 _atom_site_symmetry_multiplicity
 _atom_site_fract_x
 _atom_site_fract_y
 _atom_site_fract_z
 _atom_site_occupancy
  Ho  Ho0  1  0.000000  0.000000  0.499893  1
  Ho  Ho1  1  0.000000  0.000000  0.000107  1
  Ho  Ho2  1  0.542910  0.457090  0.250000  1
  Ho  Ho3  1  0.542910  0.085821  0.250000  1
  Ho  Ho4  1  0.914179  0.457090  0.250000  1
  Ho  Ho5  1  0.456951  0.543049  0.750000  1
  Ho  Ho6  1  0.456951  0.913901  0.750000  1
  Ho  Ho7  1  0.086099  0.543049  0.750000  1
  Ho  Ho8  1  0.208989  0.791011  0.441393  1
  Ho  Ho9  1  0.208989  0.417979  0.441393  1
  Ho  Ho10  1  0.582021  0.791011  0.441393  1
  Ho  Ho11  1  0.788882  0.211118  0.562133  1
  Ho  Ho12  1  0.788882  0.577764  0.562133  1
  Ho  Ho13  1  0.422236  0.211118  0.562133  1
  Ho  Ho14  1  0.788882  0.211118  0.937867  1
  Ho  Ho15  1  0.788882  0.577764  0.937867  1
  Ho  Ho16  1  0.422236  0.211118  0.937867  1
  Ho  Ho17  1  0.208989  0.791011  0.058607  1
  Ho  Ho18  1  0.208989  0.417979  0.058607  1
  Ho  Ho19  1  0.582021  0.791011  0.058607  1
  Cd  Cd20  1  0.885047  0.114953  0.250000  1
  Cd  Cd21  1  0.885047  0.770094  0.250000  1
  Cd  Cd22  1  0.229906  0.114953  0.250000  1
  Cd  Cd23  1  0.115093  0.884907  0.750000  1
  Cd  Cd24  1  0.115093  0.230186  0.750000  1
  Cd  Cd25  1  0.769814  0.884907  0.750000  1
  Ni  Ni26  1  0.666667  0.333333  0.750000  1
  Rh  Rh27  1  0.333333  0.666667  0.250000  1
