# generated using pymatgen
data_ErTm19(Cd3Ni)2
_symmetry_space_group_name_H-M   'P 1'
_cell_length_a   9.46873351
_cell_length_b   9.46873532
_cell_length_c   9.61249900
_cell_angle_alpha   90.00000000
_cell_angle_beta   90.00000000
_cell_angle_gamma   119.96253056
_symmetry_Int_Tables_number   1
_chemical_formula_structural   ErTm19(Cd3Ni)2
_chemical_formula_sum   'Er1 Tm19 Cd6 Ni2'
_cell_volume   746.64585978
_cell_formula_units_Z   1
loop_
 _symmetry_equiv_pos_site_id
 _symmetry_equiv_pos_as_xyz
  1  'x, y, z'
loop_
 _atom_site_type_symbol
 _atom_site_label
 _atom_site_symmetry_multiplicity
 _atom_site_fract_x
 _atom_site_fract_y
 _atom_site_fract_z
 _atom_site_occupancy
  Er  Er0  1  0.543128  0.456872  0.250000  1
  Tm  Tm1  1  0.000030  0.999970  0.499906  1
  Tm  Tm2  1  0.000030  0.999970  0.000094  1
  Tm  Tm3  1  0.543134  0.085846  0.250000  1
  Tm  Tm4  1  0.914154  0.456866  0.250000  1
  Tm  Tm5  1  0.456972  0.543028  0.750000  1
  Tm  Tm6  1  0.456893  0.913811  0.750000  1
  Tm  Tm7  1  0.086189  0.543107  0.750000  1
  Tm  Tm8  1  0.211128  0.788872  0.438639  1
  Tm  Tm9  1  0.210794  0.422265  0.438748  1
  Tm  Tm10  1  0.577735  0.789206  0.438748  1
  Tm  Tm11  1  0.788926  0.211074  0.561388  1
  Tm  Tm12  1  0.789033  0.577834  0.561588  1
  Tm  Tm13  1  0.422166  0.210967  0.561588  1
  Tm  Tm14  1  0.788926  0.211074  0.938612  1
  Tm  Tm15  1  0.789033  0.577834  0.938412  1
  Tm  Tm16  1  0.422166  0.210967  0.938412  1
  Tm  Tm17  1  0.211128  0.788872  0.061361  1
  Tm  Tm18  1  0.210794  0.422265  0.061252  1
  Tm  Tm19  1  0.577735  0.789206  0.061252  1
  Cd  Cd20  1  0.885516  0.114484  0.250000  1
  Cd  Cd21  1  0.885888  0.771372  0.250000  1
  Cd  Cd22  1  0.228628  0.114112  0.250000  1
  Cd  Cd23  1  0.114609  0.885391  0.750000  1
  Cd  Cd24  1  0.114460  0.229026  0.750000  1
  Cd  Cd25  1  0.770974  0.885540  0.750000  1
  Ni  Ni26  1  0.333226  0.666774  0.250000  1
  Ni  Ni27  1  0.666605  0.333395  0.750000  1
