# generated using pymatgen
data_Gd4Pb3
_symmetry_space_group_name_H-M   'P 1'
_cell_length_a   8.25773690
_cell_length_b   8.25773719
_cell_length_c   8.25773800
_cell_angle_alpha   109.47122017
_cell_angle_beta   109.47122088
_cell_angle_gamma   109.47122315
_symmetry_Int_Tables_number   1
_chemical_formula_structural   Gd4Pb3
_chemical_formula_sum   'Gd8 Pb6'
_cell_volume   433.47224497
_cell_formula_units_Z   2
loop_
 _symmetry_equiv_pos_site_id
 _symmetry_equiv_pos_as_xyz
  1  'x, y, z'
loop_
 _atom_site_type_symbol
 _atom_site_label
 _atom_site_symmetry_multiplicity
 _atom_site_fract_x
 _atom_site_fract_y
 _atom_site_fract_z
 _atom_site_occupancy
  Gd  Gd0  1  0.141730  0.000000  0.000000  1
  Gd  Gd1  1  0.641730  0.000000  0.000000  1
  Gd  Gd2  1  0.500000  0.500000  0.141730  1
  Gd  Gd3  1  0.358270  0.858270  0.358270  1
  Gd  Gd4  1  0.000000  0.641729  0.500000  1
  Gd  Gd5  1  0.000000  0.141730  0.500001  1
  Gd  Gd6  1  0.500001  0.500001  0.641730  1
  Gd  Gd7  1  0.858271  0.358271  0.858271  1
  Pb  Pb8  1  0.875000  0.750000  0.125000  1
  Pb  Pb9  1  0.125000  0.375000  0.250000  1
  Pb  Pb10  1  0.625000  0.250000  0.375000  1
  Pb  Pb11  1  0.750000  0.875000  0.625000  1
  Pb  Pb12  1  0.375000  0.125001  0.750000  1
  Pb  Pb13  1  0.250000  0.625000  0.875001  1
