# generated using pymatgen
data_Nd2Ho3ErRh18
_symmetry_space_group_name_H-M   'P 1'
_cell_length_a   5.29516900
_cell_length_b   5.29517023
_cell_length_c   17.50004100
_cell_angle_alpha   90.00000000
_cell_angle_beta   90.00000000
_cell_angle_gamma   119.99999858
_symmetry_Int_Tables_number   1
_chemical_formula_structural   Nd2Ho3ErRh18
_chemical_formula_sum   'Nd2 Ho3 Er1 Rh18'
_cell_volume   424.94180264
_cell_formula_units_Z   1
loop_
 _symmetry_equiv_pos_site_id
 _symmetry_equiv_pos_as_xyz
  1  'x, y, z'
loop_
 _atom_site_type_symbol
 _atom_site_label
 _atom_site_symmetry_multiplicity
 _atom_site_fract_x
 _atom_site_fract_y
 _atom_site_fract_z
 _atom_site_occupancy
  Nd  Nd0  1  0.333333  0.666667  0.749005  1
  Nd  Nd1  1  0.666667  0.333333  0.250836  1
  Ho  Ho2  1  0.666667  0.333333  0.041633  1
  Ho  Ho3  1  0.666667  0.333333  0.459326  1
  Ho  Ho4  1  0.333333  0.666667  0.958297  1
  Er  Er5  1  0.333333  0.666667  0.541531  1
  Rh  Rh6  1  0.167383  0.334765  0.125498  1
  Rh  Rh7  1  0.832414  0.664830  0.624233  1
  Rh  Rh8  1  0.665235  0.832617  0.125498  1
  Rh  Rh9  1  0.167383  0.832617  0.125498  1
  Rh  Rh10  1  0.832414  0.167586  0.624233  1
  Rh  Rh11  1  0.335170  0.167586  0.624233  1
  Rh  Rh12  1  0.832639  0.665280  0.874696  1
  Rh  Rh13  1  0.832639  0.167361  0.874696  1
  Rh  Rh14  1  0.334720  0.167361  0.874696  1
  Rh  Rh15  1  0.664989  0.832494  0.375663  1
  Rh  Rh16  1  0.167506  0.832494  0.375663  1
  Rh  Rh17  1  0.167506  0.335011  0.375663  1
  Rh  Rh18  1  0.000000  0.000000  0.250245  1
  Rh  Rh19  1  0.000000  0.000000  0.749021  1
  Rh  Rh20  1  0.333333  0.666667  0.250103  1
  Rh  Rh21  1  0.666667  0.333333  0.749070  1
  Rh  Rh22  1  0.000000  0.000000  0.000504  1
  Rh  Rh23  1  0.000000  0.000000  0.500154  1
