# generated using pymatgen
data_Gd5Ho7Co5Sn
_symmetry_space_group_name_H-M   'P 1'
_cell_length_a   8.31217835
_cell_length_b   8.31217866
_cell_length_c   8.32154600
_cell_angle_alpha   112.18134345
_cell_angle_beta   109.04948163
_cell_angle_gamma   107.17450572
_symmetry_Int_Tables_number   1
_chemical_formula_structural   Gd5Ho7Co5Sn
_chemical_formula_sum   'Gd5 Ho7 Co5 Sn1'
_cell_volume   441.99552306
_cell_formula_units_Z   1
loop_
 _symmetry_equiv_pos_site_id
 _symmetry_equiv_pos_as_xyz
  1  'x, y, z'
loop_
 _atom_site_type_symbol
 _atom_site_label
 _atom_site_symmetry_multiplicity
 _atom_site_fract_x
 _atom_site_fract_y
 _atom_site_fract_z
 _atom_site_occupancy
  Gd  Gd0  1  0.412105  0.219410  0.192003  1
  Gd  Gd1  1  0.590146  0.781667  0.809142  1
  Gd  Gd2  1  0.027474  0.218996  0.809142  1
  Gd  Gd3  1  0.972592  0.779897  0.192003  1
  Gd  Gd4  1  0.178175  0.285719  0.463892  1
  Ho  Ho5  1  0.821898  0.716003  0.537902  1
  Ho  Ho6  1  0.177752  0.716128  0.893881  1
  Ho  Ho7  1  0.820791  0.284476  0.105268  1
  Ho  Ho8  1  0.325579  0.638710  0.312887  1
  Ho  Ho9  1  0.676051  0.362365  0.687666  1
  Ho  Ho10  1  0.325301  0.011614  0.687666  1
  Ho  Ho11  1  0.674177  0.987309  0.312887  1
  Co  Co12  1  0.000041  0.998322  0.998363  1
  Co  Co13  1  0.348594  0.998566  0.347159  1
  Co  Co14  1  0.652035  0.999760  0.651795  1
  Co  Co15  1  0.112702  0.614409  0.499218  1
  Co  Co16  1  0.884810  0.386516  0.499218  1
  Sn  Sn17  1  0.499775  0.500133  0.999908  1
