# generated using pymatgen
data_RbTi2CrSe6
_symmetry_space_group_name_H-M   'P 1'
_cell_length_a   9.47774386
_cell_length_b   9.47774213
_cell_length_c   9.47774259
_cell_angle_alpha   37.76768377
_cell_angle_beta   37.76769398
_cell_angle_gamma   37.76768784
_symmetry_Int_Tables_number   1
_chemical_formula_structural   RbTi2CrSe6
_chemical_formula_sum   'Rb1 Ti2 Cr1 Se6'
_cell_volume   286.54430695
_cell_formula_units_Z   1
loop_
 _symmetry_equiv_pos_site_id
 _symmetry_equiv_pos_as_xyz
  1  'x, y, z'
loop_
 _atom_site_type_symbol
 _atom_site_label
 _atom_site_symmetry_multiplicity
 _atom_site_fract_x
 _atom_site_fract_y
 _atom_site_fract_z
 _atom_site_occupancy
  Rb  Rb0  1  0.999417  0.999417  0.999417  1
  Ti  Ti1  1  0.500107  0.500107  0.500107  1
  Ti  Ti2  1  0.833654  0.833654  0.833654  1
  Cr  Cr3  1  0.166468  0.166468  0.166468  1
  Se  Se4  1  0.550833  0.226854  0.897013  1
  Se  Se5  1  0.897013  0.550833  0.226854  1
  Se  Se6  1  0.226854  0.897013  0.550833  1
  Se  Se7  1  0.778166  0.108121  0.439369  1
  Se  Se8  1  0.108121  0.439369  0.778166  1
  Se  Se9  1  0.439369  0.778166  0.108121  1
