# generated using pymatgen
data_ScPa3(GaNi2)2
_symmetry_space_group_name_H-M   'P 1'
_cell_length_a   7.14126444
_cell_length_b   7.14126469
_cell_length_c   3.50469400
_cell_angle_alpha   90.00000000
_cell_angle_beta   90.00000000
_cell_angle_gamma   88.53501778
_symmetry_Int_Tables_number   1
_chemical_formula_structural   ScPa3(GaNi2)2
_chemical_formula_sum   'Sc1 Pa3 Ga2 Ni4'
_cell_volume   178.67277079
_cell_formula_units_Z   1
loop_
 _symmetry_equiv_pos_site_id
 _symmetry_equiv_pos_as_xyz
  1  'x, y, z'
loop_
 _atom_site_type_symbol
 _atom_site_label
 _atom_site_symmetry_multiplicity
 _atom_site_fract_x
 _atom_site_fract_y
 _atom_site_fract_z
 _atom_site_occupancy
  Sc  Sc0  1  0.319655  0.819655  0.500000  1
  Pa  Pa1  1  0.675117  0.175117  0.500000  1
  Pa  Pa2  1  0.180068  0.321965  0.500000  1
  Pa  Pa3  1  0.821965  0.680068  0.500000  1
  Ga  Ga4  1  0.012828  0.992240  0.000000  1
  Ga  Ga5  1  0.492240  0.512828  0.000000  1
  Ni  Ni6  1  0.869524  0.369524  0.000000  1
  Ni  Ni7  1  0.378278  0.132225  0.000000  1
  Ni  Ni8  1  0.632225  0.878278  0.000000  1
  Ni  Ni9  1  0.118100  0.618100  0.000000  1
