# generated using pymatgen
data_LiHf2TiN4
_symmetry_space_group_name_H-M   'P 1'
_cell_length_a   5.38863899
_cell_length_b   5.38863883
_cell_length_c   3.12199900
_cell_angle_alpha   90.00000000
_cell_angle_beta   90.00000000
_cell_angle_gamma   108.02122984
_symmetry_Int_Tables_number   1
_chemical_formula_structural   LiHf2TiN4
_chemical_formula_sum   'Li1 Hf2 Ti1 N4'
_cell_volume   86.20747642
_cell_formula_units_Z   1
loop_
 _symmetry_equiv_pos_site_id
 _symmetry_equiv_pos_as_xyz
  1  'x, y, z'
loop_
 _atom_site_type_symbol
 _atom_site_label
 _atom_site_symmetry_multiplicity
 _atom_site_fract_x
 _atom_site_fract_y
 _atom_site_fract_z
 _atom_site_occupancy
  Li  Li0  1  0.500000  0.500000  0.500000  1
  Hf  Hf1  1  0.500000  0.000000  0.000000  1
  Hf  Hf2  1  0.000000  0.500000  0.000000  1
  Ti  Ti3  1  0.000000  0.000000  0.500000  1
  N  N4  1  0.772458  0.772458  0.000000  1
  N  N5  1  0.245230  0.754770  0.500000  1
  N  N6  1  0.227542  0.227542  0.000000  1
  N  N7  1  0.754770  0.245230  0.500000  1
