# generated using pymatgen
data_Tb3Tm(ZnSi)4
_symmetry_space_group_name_H-M   'P 1'
_cell_length_a   4.15671900
_cell_length_b   4.15671767
_cell_length_c   15.71472400
_cell_angle_alpha   90.00000000
_cell_angle_beta   90.00000000
_cell_angle_gamma   120.00000265
_symmetry_Int_Tables_number   1
_chemical_formula_structural   Tb3Tm(ZnSi)4
_chemical_formula_sum   'Tb3 Tm1 Zn4 Si4'
_cell_volume   235.14652865
_cell_formula_units_Z   1
loop_
 _symmetry_equiv_pos_site_id
 _symmetry_equiv_pos_as_xyz
  1  'x, y, z'
loop_
 _atom_site_type_symbol
 _atom_site_label
 _atom_site_symmetry_multiplicity
 _atom_site_fract_x
 _atom_site_fract_y
 _atom_site_fract_z
 _atom_site_occupancy
  Tb  Tb0  1  0.000000  0.000000  0.250000  1
  Tb  Tb1  1  0.000000  0.000000  0.997715  1
  Tb  Tb2  1  0.000000  0.000000  0.502285  1
  Tm  Tm3  1  0.000000  0.000000  0.750000  1
  Zn  Zn4  1  0.333333  0.666667  0.136277  1
  Zn  Zn5  1  0.666667  0.333333  0.857075  1
  Zn  Zn6  1  0.666667  0.333333  0.642925  1
  Zn  Zn7  1  0.333333  0.666667  0.363723  1
  Si  Si8  1  0.333333  0.666667  0.620612  1
  Si  Si9  1  0.666667  0.333333  0.382862  1
  Si  Si10  1  0.666667  0.333333  0.117138  1
  Si  Si11  1  0.333333  0.666667  0.879388  1
