# generated using pymatgen
data_Y20InNi2Hg5
_symmetry_space_group_name_H-M   'P 1'
_cell_length_a   9.75898224
_cell_length_b   9.75898226
_cell_length_c   9.60494100
_cell_angle_alpha   90.00000000
_cell_angle_beta   90.00000000
_cell_angle_gamma   120.25889533
_symmetry_Int_Tables_number   1
_chemical_formula_structural   Y20InNi2Hg5
_chemical_formula_sum   'Y20 In1 Ni2 Hg5'
_cell_volume   790.12441133
_cell_formula_units_Z   1
loop_
 _symmetry_equiv_pos_site_id
 _symmetry_equiv_pos_as_xyz
  1  'x, y, z'
loop_
 _atom_site_type_symbol
 _atom_site_label
 _atom_site_symmetry_multiplicity
 _atom_site_fract_x
 _atom_site_fract_y
 _atom_site_fract_z
 _atom_site_occupancy
  Y  Y0  1  0.003629  0.996371  0.507023  1
  Y  Y1  1  0.003629  0.996371  0.992977  1
  Y  Y2  1  0.541667  0.458333  0.250000  1
  Y  Y3  1  0.536870  0.088176  0.250000  1
  Y  Y4  1  0.911824  0.463130  0.250000  1
  Y  Y5  1  0.455642  0.544358  0.750000  1
  Y  Y6  1  0.457464  0.913763  0.750000  1
  Y  Y7  1  0.086237  0.542536  0.750000  1
  Y  Y8  1  0.210487  0.789513  0.436775  1
  Y  Y9  1  0.208186  0.418604  0.435545  1
  Y  Y10  1  0.581396  0.791814  0.435545  1
  Y  Y11  1  0.790550  0.209450  0.563296  1
  Y  Y12  1  0.789198  0.579811  0.565492  1
  Y  Y13  1  0.420189  0.210802  0.565492  1
  Y  Y14  1  0.790550  0.209450  0.936704  1
  Y  Y15  1  0.789198  0.579811  0.934508  1
  Y  Y16  1  0.420189  0.210802  0.934508  1
  Y  Y17  1  0.210487  0.789513  0.063225  1
  Y  Y18  1  0.208186  0.418604  0.064455  1
  Y  Y19  1  0.581396  0.791814  0.064455  1
  In  In20  1  0.882396  0.117604  0.250000  1
  Ni  Ni21  1  0.333113  0.666887  0.250000  1
  Ni  Ni22  1  0.668001  0.331999  0.750000  1
  Hg  Hg23  1  0.880647  0.762358  0.250000  1
  Hg  Hg24  1  0.237642  0.119353  0.250000  1
  Hg  Hg25  1  0.123043  0.876957  0.750000  1
  Hg  Hg26  1  0.121839  0.243655  0.750000  1
  Hg  Hg27  1  0.756345  0.878161  0.750000  1
