# generated using pymatgen
data_ErTm3(ScPt)4
_symmetry_space_group_name_H-M   'P 1'
_cell_length_a   4.58184400
_cell_length_b   6.91091232
_cell_length_c   8.42846941
_cell_angle_alpha   89.97524764
_cell_angle_beta   90.00000000
_cell_angle_gamma   90.00000000
_symmetry_Int_Tables_number   1
_chemical_formula_structural   ErTm3(ScPt)4
_chemical_formula_sum   'Er1 Tm3 Sc4 Pt4'
_cell_volume   266.88511698
_cell_formula_units_Z   1
loop_
 _symmetry_equiv_pos_site_id
 _symmetry_equiv_pos_as_xyz
  1  'x, y, z'
loop_
 _atom_site_type_symbol
 _atom_site_label
 _atom_site_symmetry_multiplicity
 _atom_site_fract_x
 _atom_site_fract_y
 _atom_site_fract_z
 _atom_site_occupancy
  Er  Er0  1  0.750000  0.480065  0.825602  1
  Tm  Tm1  1  0.250000  0.020287  0.325471  1
  Tm  Tm2  1  0.250000  0.520174  0.174685  1
  Tm  Tm3  1  0.750000  0.979757  0.674140  1
  Sc  Sc4  1  0.250000  0.641202  0.570130  1
  Sc  Sc5  1  0.250000  0.140826  0.929364  1
  Sc  Sc6  1  0.750000  0.358897  0.429163  1
  Sc  Sc7  1  0.750000  0.859066  0.070850  1
  Pt  Pt8  1  0.250000  0.251770  0.604024  1
  Pt  Pt9  1  0.250000  0.752614  0.895726  1
  Pt  Pt10  1  0.750000  0.747875  0.395562  1
  Pt  Pt11  1  0.750000  0.247467  0.105284  1
