# generated using pymatgen
data_Co(TcO4)3
_symmetry_space_group_name_H-M   'P 1'
_cell_length_a   10.15345807
_cell_length_b   10.15345711
_cell_length_c   10.15345700
_cell_angle_alpha   49.19423058
_cell_angle_beta   49.19423526
_cell_angle_gamma   49.19423504
_symmetry_Int_Tables_number   1
_chemical_formula_structural   Co(TcO4)3
_chemical_formula_sum   'Co2 Tc6 O24'
_cell_volume   550.89941526
_cell_formula_units_Z   2
loop_
 _symmetry_equiv_pos_site_id
 _symmetry_equiv_pos_as_xyz
  1  'x, y, z'
loop_
 _atom_site_type_symbol
 _atom_site_label
 _atom_site_symmetry_multiplicity
 _atom_site_fract_x
 _atom_site_fract_y
 _atom_site_fract_z
 _atom_site_occupancy
  Co  Co0  1  0.500000  0.500000  0.500000  1
  Co  Co1  1  0.000000  0.000000  0.000000  1
  Tc  Tc2  1  0.613920  0.886080  0.250000  1
  Tc  Tc3  1  0.250000  0.613920  0.886080  1
  Tc  Tc4  1  0.886080  0.250000  0.613920  1
  Tc  Tc5  1  0.750000  0.386080  0.113920  1
  Tc  Tc6  1  0.113920  0.750000  0.386080  1
  Tc  Tc7  1  0.386080  0.113920  0.750000  1
  O  O8  1  0.841566  0.864420  0.171074  1
  O  O9  1  0.171074  0.841566  0.864420  1
  O  O10  1  0.864420  0.171074  0.841566  1
  O  O11  1  0.671074  0.364420  0.341566  1
  O  O12  1  0.341566  0.671074  0.364420  1
  O  O13  1  0.364420  0.341566  0.671074  1
  O  O14  1  0.158434  0.135580  0.828926  1
  O  O15  1  0.828926  0.158434  0.135580  1
  O  O16  1  0.135580  0.828926  0.158434  1
  O  O17  1  0.328926  0.635580  0.658434  1
  O  O18  1  0.658434  0.328926  0.635580  1
  O  O19  1  0.635580  0.658434  0.328926  1
  O  O20  1  0.452003  0.963209  0.429831  1
  O  O21  1  0.429831  0.452003  0.963209  1
  O  O22  1  0.963209  0.429831  0.452003  1
  O  O23  1  0.929831  0.463209  0.952003  1
  O  O24  1  0.952003  0.929831  0.463209  1
  O  O25  1  0.463209  0.952003  0.929831  1
  O  O26  1  0.547997  0.036791  0.570169  1
  O  O27  1  0.570169  0.547997  0.036791  1
  O  O28  1  0.036791  0.570169  0.547997  1
  O  O29  1  0.070169  0.536791  0.047997  1
  O  O30  1  0.047997  0.070169  0.536791  1
  O  O31  1  0.536791  0.047997  0.070169  1
