# generated using pymatgen
data_Ac2ScCuS5
_symmetry_space_group_name_H-M   'P 1'
_cell_length_a   11.73990200
_cell_length_b   3.99046000
_cell_length_c   17.23371900
_cell_angle_alpha   90.00000000
_cell_angle_beta   90.00000000
_cell_angle_gamma   90.00000000
_symmetry_Int_Tables_number   1
_chemical_formula_structural   Ac2ScCuS5
_chemical_formula_sum   'Ac8 Sc4 Cu4 S20'
_cell_volume   807.35853510
_cell_formula_units_Z   4
loop_
 _symmetry_equiv_pos_site_id
 _symmetry_equiv_pos_as_xyz
  1  'x, y, z'
loop_
 _atom_site_type_symbol
 _atom_site_label
 _atom_site_symmetry_multiplicity
 _atom_site_fract_x
 _atom_site_fract_y
 _atom_site_fract_z
 _atom_site_occupancy
  Ac  Ac0  1  0.366213  0.250000  0.097919  1
  Ac  Ac1  1  0.011465  0.250000  0.173443  1
  Ac  Ac2  1  0.511465  0.250000  0.326558  1
  Ac  Ac3  1  0.866212  0.250000  0.402081  1
  Ac  Ac4  1  0.133788  0.749999  0.597919  1
  Ac  Ac5  1  0.488535  0.749999  0.673443  1
  Ac  Ac6  1  0.988535  0.749999  0.826558  1
  Ac  Ac7  1  0.633787  0.749999  0.902081  1
  Sc  Sc8  1  0.698830  0.749999  0.138670  1
  Sc  Sc9  1  0.198830  0.749999  0.361331  1
  Sc  Sc10  1  0.801170  0.250000  0.638670  1
  Sc  Sc11  1  0.301170  0.250000  0.861331  1
  Cu  Cu12  1  0.821732  0.250000  0.018814  1
  Cu  Cu13  1  0.321731  0.250000  0.481186  1
  Cu  Cu14  1  0.678269  0.749999  0.518814  1
  Cu  Cu15  1  0.178269  0.749999  0.981186  1
  S  S16  1  0.620025  0.250000  0.040792  1
  S  S17  1  0.889991  0.749999  0.071095  1
  S  S18  1  0.181295  0.749999  0.113724  1
  S  S19  1  0.493638  0.749999  0.195450  1
  S  S20  1  0.754242  0.250000  0.225122  1
  S  S21  1  0.254241  0.250000  0.274878  1
  S  S22  1  0.993637  0.749999  0.304550  1
  S  S23  1  0.681295  0.749999  0.386276  1
  S  S24  1  0.389991  0.749999  0.428905  1
  S  S25  1  0.120025  0.250000  0.459207  1
  S  S26  1  0.879975  0.749999  0.540792  1
  S  S27  1  0.610009  0.250000  0.571095  1
  S  S28  1  0.318706  0.250000  0.613724  1
  S  S29  1  0.006363  0.250000  0.695451  1
  S  S30  1  0.745759  0.749999  0.725122  1
  S  S31  1  0.245758  0.749999  0.774878  1
  S  S32  1  0.506362  0.250000  0.804550  1
  S  S33  1  0.818705  0.250000  0.886276  1
  S  S34  1  0.110009  0.250000  0.928905  1
  S  S35  1  0.379975  0.749999  0.959207  1
