# generated using pymatgen
data_Hf5Zr3(TiGa3)4
_symmetry_space_group_name_H-M   'P 1'
_cell_length_a   5.56499000
_cell_length_b   8.50700729
_cell_length_c   9.10135531
_cell_angle_alpha   90.02976761
_cell_angle_beta   90.00000000
_cell_angle_gamma   90.00000000
_symmetry_Int_Tables_number   1
_chemical_formula_structural   Hf5Zr3(TiGa3)4
_chemical_formula_sum   'Hf5 Zr3 Ti4 Ga12'
_cell_volume   430.87093939
_cell_formula_units_Z   1
loop_
 _symmetry_equiv_pos_site_id
 _symmetry_equiv_pos_as_xyz
  1  'x, y, z'
loop_
 _atom_site_type_symbol
 _atom_site_label
 _atom_site_symmetry_multiplicity
 _atom_site_fract_x
 _atom_site_fract_y
 _atom_site_fract_z
 _atom_site_occupancy
  Hf  Hf0  1  0.250000  0.028144  0.617940  1
  Hf  Hf1  1  0.750000  0.360051  0.186919  1
  Hf  Hf2  1  0.250000  0.639069  0.813007  1
  Hf  Hf3  1  0.750000  0.860631  0.812487  1
  Hf  Hf4  1  0.250000  0.139608  0.186227  1
  Zr  Zr5  1  0.750000  0.472905  0.616834  1
  Zr  Zr6  1  0.250000  0.527859  0.383298  1
  Zr  Zr7  1  0.750000  0.972047  0.383839  1
  Ti  Ti8  1  0.000041  0.750491  0.107131  1
  Ti  Ti9  1  0.499500  0.249394  0.892087  1
  Ti  Ti10  1  0.000500  0.249394  0.892087  1
  Ti  Ti11  1  0.499959  0.750491  0.107131  1
  Ga  Ga12  1  0.001047  0.750696  0.566823  1
  Ga  Ga13  1  0.499252  0.249479  0.433712  1
  Ga  Ga14  1  0.000748  0.249479  0.433712  1
  Ga  Ga15  1  0.498953  0.750696  0.566823  1
  Ga  Ga16  1  0.750000  0.045256  0.080447  1
  Ga  Ga17  1  0.250000  0.955150  0.919112  1
  Ga  Ga18  1  0.750000  0.544824  0.919866  1
  Ga  Ga19  1  0.250000  0.454595  0.080117  1
  Ga  Ga20  1  0.750000  0.135252  0.662109  1
  Ga  Ga21  1  0.250000  0.865379  0.338486  1
  Ga  Ga22  1  0.750000  0.634889  0.337783  1
  Ga  Ga23  1  0.250000  0.364222  0.662020  1
