# generated using pymatgen
data_Pr3Dy(Si5Os3)2
_symmetry_space_group_name_H-M   'P 1'
_cell_length_a   8.22875644
_cell_length_b   8.21451176
_cell_length_c   5.88174109
_cell_angle_alpha   70.43676929
_cell_angle_beta   70.33504851
_cell_angle_gamma   93.66812421
_symmetry_Int_Tables_number   1
_chemical_formula_structural   Pr3Dy(Si5Os3)2
_chemical_formula_sum   'Pr3 Dy1 Si10 Os6'
_cell_volume   345.71444412
_cell_formula_units_Z   1
loop_
 _symmetry_equiv_pos_site_id
 _symmetry_equiv_pos_as_xyz
  1  'x, y, z'
loop_
 _atom_site_type_symbol
 _atom_site_label
 _atom_site_symmetry_multiplicity
 _atom_site_fract_x
 _atom_site_fract_y
 _atom_site_fract_z
 _atom_site_occupancy
  Pr  Pr0  1  0.868596  0.602554  0.753776  1
  Pr  Pr1  1  0.397046  0.133463  0.744491  1
  Pr  Pr2  1  0.133457  0.396559  0.245205  1
  Dy  Dy3  1  0.601255  0.868104  0.255864  1
  Si  Si4  1  0.061847  0.261355  0.836531  1
  Si  Si5  1  0.738613  0.937209  0.665490  1
  Si  Si6  1  0.933056  0.741190  0.163815  1
  Si  Si7  1  0.260183  0.059287  0.337064  1
  Si  Si8  1  0.208390  0.791629  0.751161  1
  Si  Si9  1  0.789841  0.206208  0.250246  1
  Si  Si10  1  0.513699  0.489248  0.749913  1
  Si  Si11  1  0.490644  0.515145  0.246457  1
  Si  Si12  1  0.772028  0.225596  0.752394  1
  Si  Si13  1  0.230982  0.772908  0.249021  1
  Os  Os14  1  0.260152  0.543811  0.630491  1
  Os  Os15  1  0.459124  0.744547  0.865741  1
  Os  Os16  1  0.743021  0.457569  0.368285  1
  Os  Os17  1  0.541885  0.254378  0.132093  1
  Os  Os18  1  0.001177  0.997089  0.751002  1
  Os  Os19  1  0.995006  0.002152  0.250960  1
