# generated using pymatgen
data_HoTm3V4(WO6)4
_symmetry_space_group_name_H-M   'P 1'
_cell_length_a   5.19057519
_cell_length_b   7.40231052
_cell_length_c   11.16520705
_cell_angle_alpha   90.04088288
_cell_angle_beta   90.02834337
_cell_angle_gamma   89.98675728
_symmetry_Int_Tables_number   1
_chemical_formula_structural   HoTm3V4(WO6)4
_chemical_formula_sum   'Ho1 Tm3 V4 W4 O24'
_cell_volume   428.99219640
_cell_formula_units_Z   1
loop_
 _symmetry_equiv_pos_site_id
 _symmetry_equiv_pos_as_xyz
  1  'x, y, z'
loop_
 _atom_site_type_symbol
 _atom_site_label
 _atom_site_symmetry_multiplicity
 _atom_site_fract_x
 _atom_site_fract_y
 _atom_site_fract_z
 _atom_site_occupancy
  Ho  Ho0  1  0.543295  0.253824  0.045354  1
  Tm  Tm1  1  0.044644  0.753689  0.454573  1
  Tm  Tm2  1  0.955590  0.253671  0.545451  1
  Tm  Tm3  1  0.455119  0.753714  0.954410  1
  V  V4  1  0.050530  0.507402  0.134057  1
  V  V5  1  0.550935  0.006594  0.366374  1
  V  V6  1  0.448992  0.506797  0.633898  1
  V  V7  1  0.948996  0.006211  0.865720  1
  W  W8  1  0.056532  0.997593  0.143789  1
  W  W9  1  0.557195  0.498393  0.356942  1
  W  W10  1  0.442915  0.998304  0.643396  1
  W  W11  1  0.942958  0.498563  0.855995  1
  O  O12  1  0.753691  0.547129  0.019682  1
  O  O13  1  0.762900  0.955433  0.029539  1
  O  O14  1  0.186155  0.754691  0.114299  1
  O  O15  1  0.932107  0.246252  0.143209  1
  O  O16  1  0.377328  0.072613  0.206231  1
  O  O17  1  0.394922  0.434909  0.213337  1
  O  O18  1  0.895590  0.933740  0.287478  1
  O  O19  1  0.877917  0.574087  0.294709  1
  O  O20  1  0.428824  0.746300  0.357491  1
  O  O21  1  0.685707  0.254946  0.385869  1
  O  O22  1  0.262613  0.456321  0.470628  1
  O  O23  1  0.252958  0.045928  0.480235  1
  O  O24  1  0.747103  0.546038  0.519975  1
  O  O25  1  0.737441  0.956249  0.529563  1
  O  O26  1  0.314427  0.754975  0.614111  1
  O  O27  1  0.571223  0.246237  0.642724  1
  O  O28  1  0.122090  0.074011  0.705344  1
  O  O29  1  0.104232  0.434328  0.712291  1
  O  O30  1  0.603824  0.934005  0.787332  1
  O  O31  1  0.621415  0.574147  0.794540  1
  O  O32  1  0.071262  0.746368  0.856744  1
  O  O33  1  0.816798  0.255039  0.884620  1
  O  O34  1  0.236195  0.457746  0.970211  1
  O  O35  1  0.245576  0.044157  0.979876  1
