# generated using pymatgen
data_Li7Ho9Pt8
_symmetry_space_group_name_H-M   'P 1'
_cell_length_a   9.35345049
_cell_length_b   7.96354254
_cell_length_c   7.02980200
_cell_angle_alpha   90.08779050
_cell_angle_beta   89.90268819
_cell_angle_gamma   115.40654405
_symmetry_Int_Tables_number   1
_chemical_formula_structural   Li7Ho9Pt8
_chemical_formula_sum   'Li7 Ho9 Pt8'
_cell_volume   472.98337126
_cell_formula_units_Z   1
loop_
 _symmetry_equiv_pos_site_id
 _symmetry_equiv_pos_as_xyz
  1  'x, y, z'
loop_
 _atom_site_type_symbol
 _atom_site_label
 _atom_site_symmetry_multiplicity
 _atom_site_fract_x
 _atom_site_fract_y
 _atom_site_fract_z
 _atom_site_occupancy
  Li  Li0  1  0.192702  0.846377  0.375385  1
  Li  Li1  1  0.693644  0.844591  0.120282  1
  Li  Li2  1  0.802404  0.651535  0.875929  1
  Li  Li3  1  0.806739  0.153701  0.872813  1
  Li  Li4  1  0.313489  0.144081  0.633895  1
  Li  Li5  1  0.313201  0.669734  0.633017  1
  Li  Li6  1  0.694010  0.347945  0.120116  1
  Ho  Ho7  1  0.574564  0.036981  0.451647  1
  Ho  Ho8  1  0.580428  0.539730  0.450113  1
  Ho  Ho9  1  0.919037  0.465799  0.552765  1
  Ho  Ho10  1  0.434360  0.966132  0.943074  1
  Ho  Ho11  1  0.428522  0.464943  0.945062  1
  Ho  Ho12  1  0.065814  0.545982  0.036451  1
  Ho  Ho13  1  0.919540  0.953498  0.552429  1
  Ho  Ho14  1  0.066238  0.020880  0.034954  1
  Ho  Ho15  1  0.196283  0.347387  0.374759  1
  Pt  Pt16  1  0.120280  0.311549  0.759807  1
  Pt  Pt17  1  0.123014  0.811813  0.746110  1
  Pt  Pt18  1  0.622530  0.810563  0.743767  1
  Pt  Pt19  1  0.875960  0.688037  0.255062  1
  Pt  Pt20  1  0.879710  0.189234  0.252248  1
  Pt  Pt21  1  0.377978  0.180827  0.233803  1
  Pt  Pt22  1  0.377232  0.696191  0.234276  1
  Pt  Pt23  1  0.622322  0.312491  0.744207  1
