# generated using pymatgen
data_YScCo5Si14Rh
_symmetry_space_group_name_H-M   'P 1'
_cell_length_a   7.69481039
_cell_length_b   7.67298073
_cell_length_c   7.67821329
_cell_angle_alpha   57.50451171
_cell_angle_beta   57.30108195
_cell_angle_gamma   57.31366901
_symmetry_Int_Tables_number   1
_chemical_formula_structural   YScCo5Si14Rh
_chemical_formula_sum   'Y1 Sc1 Co5 Si14 Rh1'
_cell_volume   301.17583542
_cell_formula_units_Z   1
loop_
 _symmetry_equiv_pos_site_id
 _symmetry_equiv_pos_as_xyz
  1  'x, y, z'
loop_
 _atom_site_type_symbol
 _atom_site_label
 _atom_site_symmetry_multiplicity
 _atom_site_fract_x
 _atom_site_fract_y
 _atom_site_fract_z
 _atom_site_occupancy
  Y  Y0  1  0.000488  0.999015  0.001107  1
  Sc  Sc1  1  0.498873  0.499923  0.501158  1
  Co  Co2  1  0.072343  0.430253  0.748738  1
  Co  Co3  1  0.252179  0.926483  0.570329  1
  Co  Co4  1  0.568859  0.253021  0.926745  1
  Co  Co5  1  0.927950  0.569876  0.251891  1
  Co  Co6  1  0.430837  0.746937  0.072974  1
  Si  Si7  1  0.750130  0.740027  0.760166  1
  Si  Si8  1  0.249825  0.250594  0.248909  1
  Si  Si9  1  0.854228  0.074539  0.670764  1
  Si  Si10  1  0.665563  0.847957  0.074180  1
  Si  Si11  1  0.076940  0.664886  0.847742  1
  Si  Si12  1  0.642521  0.826670  0.428758  1
  Si  Si13  1  0.427260  0.647872  0.832271  1
  Si  Si14  1  0.832039  0.429453  0.647822  1
  Si  Si15  1  0.165439  0.572807  0.353169  1
  Si  Si16  1  0.565402  0.360317  0.160088  1
  Si  Si17  1  0.341450  0.170115  0.573412  1
  Si  Si18  1  0.930817  0.342619  0.143038  1
  Si  Si19  1  0.337535  0.151001  0.922881  1
  Si  Si20  1  0.162139  0.922231  0.332719  1
  Rh  Rh21  1  0.747185  0.073405  0.431139  1
