# generated using pymatgen
data_La4Nd2RuI10
_symmetry_space_group_name_H-M   'P 1'
_cell_length_a   8.11473318
_cell_length_b   10.11257657
_cell_length_c   10.09527623
_cell_angle_alpha   107.37959913
_cell_angle_beta   95.85106518
_cell_angle_gamma   104.73958532
_symmetry_Int_Tables_number   1
_chemical_formula_structural   La4Nd2RuI10
_chemical_formula_sum   'La4 Nd2 Ru1 I10'
_cell_volume   750.24482129
_cell_formula_units_Z   1
loop_
 _symmetry_equiv_pos_site_id
 _symmetry_equiv_pos_as_xyz
  1  'x, y, z'
loop_
 _atom_site_type_symbol
 _atom_site_label
 _atom_site_symmetry_multiplicity
 _atom_site_fract_x
 _atom_site_fract_y
 _atom_site_fract_z
 _atom_site_occupancy
  La  La0  1  0.118395  0.043007  0.762242  1
  La  La1  1  0.881605  0.956993  0.237758  1
  La  La2  1  0.966803  0.280934  0.085360  1
  La  La3  1  0.033197  0.719066  0.914640  1
  Nd  Nd4  1  0.355599  0.127470  0.170632  1
  Nd  Nd5  1  0.644401  0.872530  0.829368  1
  Ru  Ru6  1  0.000000  0.000000  0.000000  1
  I  I7  1  0.350596  0.446970  0.269493  1
  I  I8  1  0.649404  0.553030  0.730507  1
  I  I9  1  0.256167  0.084505  0.455524  1
  I  I10  1  0.743833  0.915495  0.544476  1
  I  I11  1  0.086217  0.370107  0.818357  1
  I  I12  1  0.913783  0.629893  0.181643  1
  I  I13  1  0.453001  0.818327  0.089692  1
  I  I14  1  0.546999  0.181673  0.910308  1
  I  I15  1  0.772398  0.254810  0.347621  1
  I  I16  1  0.227602  0.745190  0.652379  1
