# generated using pymatgen
data_LiEr4Sc5Si8
_symmetry_space_group_name_H-M   'P 1'
_cell_length_a   6.96521500
_cell_length_b   7.36886239
_cell_length_c   13.95544100
_cell_angle_alpha   90.00000000
_cell_angle_beta   90.00000000
_cell_angle_gamma   89.95531041
_symmetry_Int_Tables_number   1
_chemical_formula_structural   LiEr4Sc5Si8
_chemical_formula_sum   'Li2 Er8 Sc10 Si16'
_cell_volume   716.27271218
_cell_formula_units_Z   2
loop_
 _symmetry_equiv_pos_site_id
 _symmetry_equiv_pos_as_xyz
  1  'x, y, z'
loop_
 _atom_site_type_symbol
 _atom_site_label
 _atom_site_symmetry_multiplicity
 _atom_site_fract_x
 _atom_site_fract_y
 _atom_site_fract_z
 _atom_site_occupancy
  Li  Li0  1  0.159739  0.506255  0.750000  1
  Li  Li1  1  0.840261  0.493745  0.250000  1
  Er  Er2  1  0.010065  0.184525  0.098008  1
  Er  Er3  1  0.989935  0.815475  0.901992  1
  Er  Er4  1  0.485258  0.674900  0.902881  1
  Er  Er5  1  0.989935  0.815475  0.598008  1
  Er  Er6  1  0.514742  0.325100  0.097119  1
  Er  Er7  1  0.010065  0.184525  0.401992  1
  Er  Er8  1  0.514742  0.325100  0.402881  1
  Er  Er9  1  0.485258  0.674900  0.597119  1
  Sc  Sc10  1  0.341071  0.003851  0.250000  1
  Sc  Sc11  1  0.658929  0.996149  0.750000  1
  Sc  Sc12  1  0.326565  0.181154  0.626262  1
  Sc  Sc13  1  0.673435  0.818846  0.373738  1
  Sc  Sc14  1  0.166030  0.674723  0.373116  1
  Sc  Sc15  1  0.673435  0.818846  0.126262  1
  Sc  Sc16  1  0.833970  0.325277  0.626884  1
  Sc  Sc17  1  0.326565  0.181154  0.873738  1
  Sc  Sc18  1  0.833970  0.325277  0.873116  1
  Sc  Sc19  1  0.166030  0.674723  0.126884  1
  Si  Si20  1  0.029310  0.100393  0.750000  1
  Si  Si21  1  0.970690  0.899607  0.250000  1
  Si  Si22  1  0.466603  0.610892  0.250000  1
  Si  Si23  1  0.533397  0.389108  0.750000  1
  Si  Si24  1  0.287204  0.876798  0.750000  1
  Si  Si25  1  0.712796  0.123202  0.250000  1
  Si  Si26  1  0.219877  0.371234  0.250000  1
  Si  Si27  1  0.780123  0.628766  0.750000  1
  Si  Si28  1  0.160961  0.461508  0.533480  1
  Si  Si29  1  0.839039  0.538492  0.466520  1
  Si  Si30  1  0.342052  0.967010  0.461250  1
  Si  Si31  1  0.839039  0.538492  0.033480  1
  Si  Si32  1  0.657948  0.032990  0.538750  1
  Si  Si33  1  0.160961  0.461508  0.966520  1
  Si  Si34  1  0.657948  0.032990  0.961250  1
  Si  Si35  1  0.342052  0.967010  0.038750  1
