# generated using pymatgen
data_Ho2VCoB8
_symmetry_space_group_name_H-M   'P 1'
_cell_length_a   3.40843100
_cell_length_b   5.94364275
_cell_length_c   11.48825804
_cell_angle_alpha   90.07720236
_cell_angle_beta   90.00000000
_cell_angle_gamma   90.00000000
_symmetry_Int_Tables_number   1
_chemical_formula_structural   Ho2VCoB8
_chemical_formula_sum   'Ho4 V2 Co2 B16'
_cell_volume   232.73462049
_cell_formula_units_Z   2
loop_
 _symmetry_equiv_pos_site_id
 _symmetry_equiv_pos_as_xyz
  1  'x, y, z'
loop_
 _atom_site_type_symbol
 _atom_site_label
 _atom_site_symmetry_multiplicity
 _atom_site_fract_x
 _atom_site_fract_y
 _atom_site_fract_z
 _atom_site_occupancy
  Ho  Ho0  1  0.500000  0.371760  0.148157  1
  Ho  Ho1  1  0.500000  0.628240  0.851843  1
  Ho  Ho2  1  0.500000  0.124714  0.652612  1
  Ho  Ho3  1  0.500000  0.875286  0.347388  1
  V  V4  1  0.500000  0.373015  0.414432  1
  V  V5  1  0.500000  0.626985  0.585568  1
  Co  Co6  1  0.500000  0.135347  0.912511  1
  Co  Co7  1  0.500000  0.864653  0.087489  1
  B  B8  1  0.000000  0.111295  0.045878  1
  B  B9  1  0.000000  0.888705  0.954122  1
  B  B10  1  0.000000  0.385230  0.547134  1
  B  B11  1  0.000000  0.614770  0.452866  1
  B  B12  1  0.000000  0.134358  0.466834  1
  B  B13  1  0.000000  0.865642  0.533166  1
  B  B14  1  0.000000  0.360968  0.968724  1
  B  B15  1  0.000000  0.639032  0.031276  1
  B  B16  1  0.000000  0.020873  0.189381  1
  B  B17  1  0.000000  0.979127  0.810619  1
  B  B18  1  0.000000  0.474083  0.694612  1
  B  B19  1  0.000000  0.525917  0.305388  1
  B  B20  1  0.000000  0.212530  0.311599  1
  B  B21  1  0.000000  0.787470  0.688401  1
  B  B22  1  0.000000  0.281385  0.817350  1
  B  B23  1  0.000000  0.718615  0.182650  1
