# generated using pymatgen
data_Dy5Co3Ni4(PRu)12
_symmetry_space_group_name_H-M   'P 1'
_cell_length_a   12.41888600
_cell_length_b   12.41888521
_cell_length_c   3.81006800
_cell_angle_alpha   90.00000000
_cell_angle_beta   90.00000000
_cell_angle_gamma   119.99999146
_symmetry_Int_Tables_number   1
_chemical_formula_structural   Dy5Co3Ni4(PRu)12
_chemical_formula_sum   'Dy5 Co3 Ni4 P12 Ru12'
_cell_volume   508.89554504
_cell_formula_units_Z   1
loop_
 _symmetry_equiv_pos_site_id
 _symmetry_equiv_pos_as_xyz
  1  'x, y, z'
loop_
 _atom_site_type_symbol
 _atom_site_label
 _atom_site_symmetry_multiplicity
 _atom_site_fract_x
 _atom_site_fract_y
 _atom_site_fract_z
 _atom_site_occupancy
  Dy  Dy0  1  0.666667  0.333333  0.000000  1
  Dy  Dy1  1  0.333333  0.666667  0.000000  1
  Dy  Dy2  1  0.182899  0.181623  0.500000  1
  Dy  Dy3  1  0.818377  0.001277  0.500000  1
  Dy  Dy4  1  0.998723  0.817101  0.500000  1
  Co  Co5  1  0.714067  0.722304  0.500000  1
  Co  Co6  1  0.277696  0.991764  0.500000  1
  Co  Co7  1  0.008236  0.285933  0.500000  1
  Ni  Ni8  1  0.192832  0.823938  0.000000  1
  Ni  Ni9  1  0.631106  0.807168  0.000000  1
  Ni  Ni10  1  0.176062  0.368894  0.000000  1
  Ni  Ni11  1  0.000000  0.000000  0.000000  1
  P  P12  1  0.367386  0.366091  0.000000  1
  P  P13  1  0.633909  0.001295  0.000000  1
  P  P14  1  0.998705  0.632614  0.000000  1
  P  P15  1  0.836967  0.312851  0.500000  1
  P  P16  1  0.687149  0.524117  0.500000  1
  P  P17  1  0.475883  0.163033  0.500000  1
  P  P18  1  0.320166  0.839351  0.500000  1
  P  P19  1  0.519185  0.679834  0.500000  1
  P  P20  1  0.160649  0.480815  0.500000  1
  P  P21  1  0.821291  0.825245  0.000000  1
  P  P22  1  0.174755  0.996045  0.000000  1
  P  P23  1  0.003955  0.178709  0.000000  1
  Ru  Ru24  1  0.549118  0.560348  0.000000  1
  Ru  Ru25  1  0.439652  0.988769  0.000000  1
  Ru  Ru26  1  0.011231  0.450882  0.000000  1
  Ru  Ru27  1  0.828246  0.197765  0.000000  1
  Ru  Ru28  1  0.802235  0.630481  0.000000  1
  Ru  Ru29  1  0.369519  0.171754  0.000000  1
  Ru  Ru30  1  0.638839  0.124322  0.500000  1
  Ru  Ru31  1  0.875678  0.514518  0.500000  1
  Ru  Ru32  1  0.485482  0.361161  0.500000  1
  Ru  Ru33  1  0.130773  0.651289  0.500000  1
  Ru  Ru34  1  0.520517  0.869227  0.500000  1
  Ru  Ru35  1  0.348711  0.479483  0.500000  1
