# generated using pymatgen
data_EuZnCuNi3
_symmetry_space_group_name_H-M   'P 1'
_cell_length_a   5.08775881
_cell_length_b   5.09610456
_cell_length_c   4.00869100
_cell_angle_alpha   90.00000000
_cell_angle_beta   90.00000000
_cell_angle_gamma   120.05427975
_symmetry_Int_Tables_number   1
_chemical_formula_structural   EuZnCuNi3
_chemical_formula_sum   'Eu1 Zn1 Cu1 Ni3'
_cell_volume   89.96223921
_cell_formula_units_Z   1
loop_
 _symmetry_equiv_pos_site_id
 _symmetry_equiv_pos_as_xyz
  1  'x, y, z'
loop_
 _atom_site_type_symbol
 _atom_site_label
 _atom_site_symmetry_multiplicity
 _atom_site_fract_x
 _atom_site_fract_y
 _atom_site_fract_z
 _atom_site_occupancy
  Eu  Eu0  1  0.333216  0.666608  0.000000  1
  Zn  Zn1  1  0.331508  0.165754  0.500000  1
  Cu  Cu2  1  0.683931  0.341965  0.000000  1
  Ni  Ni3  1  0.982065  0.991032  0.000000  1
  Ni  Ni4  1  0.834640  0.165241  0.500000  1
  Ni  Ni5  1  0.834640  0.669400  0.500000  1
