# generated using pymatgen
data_NbTe2OsBr18
_symmetry_space_group_name_H-M   'P 1'
_cell_length_a   12.14589100
_cell_length_b   7.10366245
_cell_length_c   10.35700328
_cell_angle_alpha   76.26287246
_cell_angle_beta   90.00000000
_cell_angle_gamma   90.00000000
_symmetry_Int_Tables_number   1
_chemical_formula_structural   NbTe2OsBr18
_chemical_formula_sum   'Nb1 Te2 Os1 Br18'
_cell_volume   868.04426552
_cell_formula_units_Z   1
loop_
 _symmetry_equiv_pos_site_id
 _symmetry_equiv_pos_as_xyz
  1  'x, y, z'
loop_
 _atom_site_type_symbol
 _atom_site_label
 _atom_site_symmetry_multiplicity
 _atom_site_fract_x
 _atom_site_fract_y
 _atom_site_fract_z
 _atom_site_occupancy
  Nb  Nb0  1  0.250000  0.643534  0.857612  1
  Te  Te1  1  0.250000  0.756519  0.469104  1
  Te  Te2  1  0.750000  0.243518  0.531611  1
  Os  Os3  1  0.750000  0.354096  0.151132  1
  Br  Br4  1  0.606438  0.452936  0.302713  1
  Br  Br5  1  0.104124  0.546312  0.691692  1
  Br  Br6  1  0.395876  0.546312  0.691692  1
  Br  Br7  1  0.893562  0.452936  0.302713  1
  Br  Br8  1  0.750000  0.681591  0.012343  1
  Br  Br9  1  0.250000  0.307762  0.990741  1
  Br  Br10  1  0.750000  0.520187  0.650270  1
  Br  Br11  1  0.250000  0.479989  0.349652  1
  Br  Br12  1  0.750000  0.022306  0.314325  1
  Br  Br13  1  0.250000  0.983828  0.680319  1
  Br  Br14  1  0.896204  0.246048  0.026085  1
  Br  Br15  1  0.401458  0.758073  0.976376  1
  Br  Br16  1  0.098542  0.758073  0.976376  1
  Br  Br17  1  0.603796  0.246048  0.026085  1
  Br  Br18  1  0.906973  0.050224  0.664414  1
  Br  Br19  1  0.407073  0.949741  0.335165  1
  Br  Br20  1  0.092927  0.949741  0.335165  1
  Br  Br21  1  0.593027  0.050224  0.664414  1
