# generated using pymatgen
data_Na7Li(PaBr6)4
_symmetry_space_group_name_H-M   'P 1'
_cell_length_a   7.45690600
_cell_length_b   7.45690684
_cell_length_c   27.88781500
_cell_angle_alpha   90.00000000
_cell_angle_beta   90.00000000
_cell_angle_gamma   119.99998859
_symmetry_Int_Tables_number   1
_chemical_formula_structural   Na7Li(PaBr6)4
_chemical_formula_sum   'Na7 Li1 Pa4 Br24'
_cell_volume   1342.95838882
_cell_formula_units_Z   1
loop_
 _symmetry_equiv_pos_site_id
 _symmetry_equiv_pos_as_xyz
  1  'x, y, z'
loop_
 _atom_site_type_symbol
 _atom_site_label
 _atom_site_symmetry_multiplicity
 _atom_site_fract_x
 _atom_site_fract_y
 _atom_site_fract_z
 _atom_site_occupancy
  Na  Na0  1  0.000000  0.000000  0.250012  1
  Na  Na1  1  0.000000  0.000000  0.750006  1
  Na  Na2  1  0.333333  0.666667  0.000888  1
  Na  Na3  1  0.333333  0.666667  0.499129  1
  Na  Na4  1  0.333333  0.666667  0.249991  1
  Na  Na5  1  0.666667  0.333333  0.749979  1
  Na  Na6  1  0.666667  0.333333  0.999041  1
  Li  Li7  1  0.666667  0.333333  0.501099  1
  Pa  Pa8  1  0.000000  0.000000  0.999915  1
  Pa  Pa9  1  0.000000  0.000000  0.500184  1
  Pa  Pa10  1  0.333333  0.666667  0.749998  1
  Pa  Pa11  1  0.666667  0.333333  0.250009  1
  Br  Br12  1  0.355924  0.021539  0.307271  1
  Br  Br13  1  0.334372  0.978563  0.807402  1
  Br  Br14  1  0.997974  0.310594  0.057263  1
  Br  Br15  1  0.983233  0.309702  0.555152  1
  Br  Br16  1  0.978461  0.334385  0.307271  1
  Br  Br17  1  0.021437  0.355809  0.807402  1
  Br  Br18  1  0.355887  0.334192  0.192600  1
  Br  Br19  1  0.334024  0.355926  0.692645  1
  Br  Br20  1  0.326396  0.308345  0.444952  1
  Br  Br21  1  0.310560  0.312503  0.942631  1
  Br  Br22  1  0.691655  0.018051  0.444952  1
  Br  Br23  1  0.312619  0.002026  0.057263  1
  Br  Br24  1  0.326468  0.016767  0.555152  1
  Br  Br25  1  0.689406  0.687381  0.057263  1
  Br  Br26  1  0.690298  0.673532  0.555152  1
  Br  Br27  1  0.665615  0.644076  0.307271  1
  Br  Br28  1  0.644191  0.665628  0.807402  1
  Br  Br29  1  0.978304  0.644113  0.192600  1
  Br  Br30  1  0.021902  0.665976  0.692645  1
  Br  Br31  1  0.981949  0.673604  0.444952  1
  Br  Br32  1  0.001943  0.689440  0.942631  1
  Br  Br33  1  0.687497  0.998057  0.942631  1
  Br  Br34  1  0.665808  0.021696  0.192600  1
  Br  Br35  1  0.644074  0.978098  0.692645  1
