# generated using pymatgen
data_Lu10Si5Sb
_symmetry_space_group_name_H-M   'P 1'
_cell_length_a   8.31959400
_cell_length_b   8.34215791
_cell_length_c   6.17162200
_cell_angle_alpha   90.00000000
_cell_angle_beta   90.00000000
_cell_angle_gamma   119.91057397
_symmetry_Int_Tables_number   1
_chemical_formula_structural   Lu10Si5Sb
_chemical_formula_sum   'Lu10 Si5 Sb1'
_cell_volume   371.27964007
_cell_formula_units_Z   1
loop_
 _symmetry_equiv_pos_site_id
 _symmetry_equiv_pos_as_xyz
  1  'x, y, z'
loop_
 _atom_site_type_symbol
 _atom_site_label
 _atom_site_symmetry_multiplicity
 _atom_site_fract_x
 _atom_site_fract_y
 _atom_site_fract_z
 _atom_site_occupancy
  Lu  Lu0  1  0.674141  0.342572  0.003503  1
  Lu  Lu1  1  0.331568  0.657428  0.496497  1
  Lu  Lu2  1  0.331568  0.657428  0.003503  1
  Lu  Lu3  1  0.674141  0.342572  0.496497  1
  Lu  Lu4  1  0.765949  0.000000  0.750000  1
  Lu  Lu5  1  0.756843  0.757198  0.250000  1
  Lu  Lu6  1  0.999645  0.242802  0.250000  1
  Lu  Lu7  1  0.987523  0.748579  0.750000  1
  Lu  Lu8  1  0.238944  0.251421  0.750000  1
  Lu  Lu9  1  0.240076  0.000000  0.250000  1
  Si  Si10  1  0.394191  0.392288  0.250000  1
  Si  Si11  1  0.001904  0.607712  0.250000  1
  Si  Si12  1  0.999196  0.394899  0.750000  1
  Si  Si13  1  0.604298  0.605101  0.750000  1
  Si  Si14  1  0.606478  0.000000  0.250000  1
  Sb  Sb15  1  0.393536  0.000000  0.750000  1
