# generated using pymatgen
data_Dy9Th3(Cd3C)4
_symmetry_space_group_name_H-M   'P 1'
_cell_length_a   9.60247063
_cell_length_b   9.61391884
_cell_length_c   9.60242300
_cell_angle_alpha   120.03933343
_cell_angle_beta   89.80850197
_cell_angle_gamma   120.03991475
_symmetry_Int_Tables_number   1
_chemical_formula_structural   Dy9Th3(Cd3C)4
_chemical_formula_sum   'Dy9 Th3 Cd12 C4'
_cell_volume   627.12109724
_cell_formula_units_Z   1
loop_
 _symmetry_equiv_pos_site_id
 _symmetry_equiv_pos_as_xyz
  1  'x, y, z'
loop_
 _atom_site_type_symbol
 _atom_site_label
 _atom_site_symmetry_multiplicity
 _atom_site_fract_x
 _atom_site_fract_y
 _atom_site_fract_z
 _atom_site_occupancy
  Dy  Dy0  1  0.934624  0.372036  0.183765  1
  Dy  Dy1  1  0.934624  0.746340  0.183750  1
  Dy  Dy2  1  0.686736  0.249734  0.437764  1
  Dy  Dy3  1  0.686725  0.874774  0.437758  1
  Dy  Dy4  1  0.316253  0.127975  0.565382  1
  Dy  Dy5  1  0.316238  0.753641  0.565375  1
  Dy  Dy6  1  0.687277  0.250002  0.812727  1
  Dy  Dy7  1  0.062231  0.625213  0.813262  1
  Dy  Dy8  1  0.062237  0.250285  0.813275  1
  Th  Th9  1  0.309937  0.750012  0.190084  1
  Th  Th10  1  0.062460  0.249990  0.437527  1
  Th  Th11  1  0.939172  0.750007  0.560843  1
  Cd  Cd12  1  0.998016  0.997912  0.997802  1
  Cd  Cd13  1  0.500598  0.000775  0.999411  1
  Cd  Cd14  1  0.500584  0.499233  0.999408  1
  Cd  Cd15  1  0.706505  0.913634  0.120766  1
  Cd  Cd16  1  0.292607  0.086634  0.207397  1
  Cd  Cd17  1  0.292601  0.413373  0.207398  1
  Cd  Cd18  1  0.622534  0.414016  0.205492  1
  Cd  Cd19  1  0.502201  0.502100  0.501989  1
  Cd  Cd20  1  0.379225  0.586362  0.793492  1
  Cd  Cd21  1  0.706666  0.581364  0.793338  1
  Cd  Cd22  1  0.706665  0.918637  0.793334  1
  Cd  Cd23  1  0.294509  0.085983  0.877464  1
  C  C24  1  0.003333  0.503233  0.003159  1
  C  C25  1  0.999309  0.001005  0.500685  1
  C  C26  1  0.496849  0.996750  0.496668  1
  C  C27  1  0.999293  0.498992  0.500692  1
