# generated using pymatgen
data_Zr2Mn12P7
_symmetry_space_group_name_H-M   'P 1'
_cell_length_a   9.18353100
_cell_length_b   9.18353113
_cell_length_c   3.55660900
_cell_angle_alpha   90.00000000
_cell_angle_beta   90.00000000
_cell_angle_gamma   120.00000315
_symmetry_Int_Tables_number   1
_chemical_formula_structural   Zr2Mn12P7
_chemical_formula_sum   'Zr2 Mn12 P7'
_cell_volume   259.76829253
_cell_formula_units_Z   1
loop_
 _symmetry_equiv_pos_site_id
 _symmetry_equiv_pos_as_xyz
  1  'x, y, z'
loop_
 _atom_site_type_symbol
 _atom_site_label
 _atom_site_symmetry_multiplicity
 _atom_site_fract_x
 _atom_site_fract_y
 _atom_site_fract_z
 _atom_site_occupancy
  Zr  Zr0  1  0.000000  0.000000  0.000000  1
  Zr  Zr1  1  0.666667  0.333333  0.500000  1
  Mn  Mn2  1  0.384346  0.289802  0.000000  1
  Mn  Mn3  1  0.905456  0.615654  0.000000  1
  Mn  Mn4  1  0.710198  0.094544  0.000000  1
  Mn  Mn5  1  0.612542  0.786556  0.000000  1
  Mn  Mn6  1  0.174015  0.387458  0.000000  1
  Mn  Mn7  1  0.213444  0.825985  0.000000  1
  Mn  Mn8  1  0.771394  0.711355  0.500000  1
  Mn  Mn9  1  0.939961  0.228606  0.500000  1
  Mn  Mn10  1  0.288645  0.060039  0.500000  1
  Mn  Mn11  1  0.437651  0.539496  0.500000  1
  Mn  Mn12  1  0.101845  0.562349  0.500000  1
  Mn  Mn13  1  0.460504  0.898155  0.500000  1
  P  P14  1  0.624073  0.542567  0.000000  1
  P  P15  1  0.918495  0.375927  0.000000  1
  P  P16  1  0.457433  0.081505  0.000000  1
  P  P17  1  0.745129  0.948519  0.500000  1
  P  P18  1  0.203390  0.254871  0.500000  1
  P  P19  1  0.051481  0.796610  0.500000  1
  P  P20  1  0.333333  0.666667  0.000000  1
