# generated using pymatgen
data_Yb7Dy13Ir12
_symmetry_space_group_name_H-M   'P 1'
_cell_length_a   6.35541427
_cell_length_b   10.78224198
_cell_length_c   10.90624552
_cell_angle_alpha   90.06161748
_cell_angle_beta   90.11658374
_cell_angle_gamma   89.86279829
_symmetry_Int_Tables_number   1
_chemical_formula_structural   Yb7Dy13Ir12
_chemical_formula_sum   'Yb7 Dy13 Ir12'
_cell_volume   747.35305866
_cell_formula_units_Z   1
loop_
 _symmetry_equiv_pos_site_id
 _symmetry_equiv_pos_as_xyz
  1  'x, y, z'
loop_
 _atom_site_type_symbol
 _atom_site_label
 _atom_site_symmetry_multiplicity
 _atom_site_fract_x
 _atom_site_fract_y
 _atom_site_fract_z
 _atom_site_occupancy
  Yb  Yb0  1  0.621597  0.038128  0.161609  1
  Yb  Yb1  1  0.623444  0.462093  0.339124  1
  Yb  Yb2  1  0.123701  0.040076  0.338591  1
  Yb  Yb3  1  0.500955  0.748529  0.250115  1
  Yb  Yb4  1  0.001342  0.754029  0.249942  1
  Yb  Yb5  1  0.007532  0.249391  0.751252  1
  Yb  Yb6  1  0.507350  0.251070  0.751673  1
  Dy  Dy7  1  0.374802  0.840316  0.539432  1
  Dy  Dy8  1  0.875623  0.660807  0.539913  1
  Dy  Dy9  1  0.877813  0.839688  0.958482  1
  Dy  Dy10  1  0.377438  0.659896  0.958371  1
  Dy  Dy11  1  0.879328  0.540045  0.838287  1
  Dy  Dy12  1  0.378923  0.960549  0.837531  1
  Dy  Dy13  1  0.376989  0.540252  0.658984  1
  Dy  Dy14  1  0.876852  0.961100  0.660808  1
  Dy  Dy15  1  0.618304  0.162099  0.455783  1
  Dy  Dy16  1  0.118661  0.337734  0.456252  1
  Dy  Dy17  1  0.120198  0.157663  0.046045  1
  Dy  Dy18  1  0.621584  0.339671  0.045577  1
  Dy  Dy19  1  0.119568  0.458530  0.162901  1
  Ir  Ir20  1  0.251683  0.898581  0.083215  1
  Ir  Ir21  1  0.755876  0.599339  0.086046  1
  Ir  Ir22  1  0.746309  0.901858  0.414881  1
  Ir  Ir23  1  0.241783  0.596322  0.409029  1
  Ir  Ir24  1  0.755269  0.092538  0.902773  1
  Ir  Ir25  1  0.249786  0.404682  0.911114  1
  Ir  Ir26  1  0.256420  0.093639  0.597692  1
  Ir  Ir27  1  0.754649  0.407078  0.598851  1
  Ir  Ir28  1  0.118874  0.749960  0.748651  1
  Ir  Ir29  1  0.617081  0.749529  0.748846  1
  Ir  Ir30  1  0.874585  0.252458  0.248968  1
  Ir  Ir31  1  0.375683  0.252352  0.249264  1
