# generated using pymatgen
data_UPa2Mn3
_symmetry_space_group_name_H-M   'P 1'
_cell_length_a   5.03156174
_cell_length_b   5.03156078
_cell_length_c   5.03156089
_cell_angle_alpha   65.72892059
_cell_angle_beta   65.72892982
_cell_angle_gamma   65.72893942
_symmetry_Int_Tables_number   1
_chemical_formula_structural   UPa2Mn3
_chemical_formula_sum   'U1 Pa2 Mn3'
_cell_volume   101.26765136
_cell_formula_units_Z   1
loop_
 _symmetry_equiv_pos_site_id
 _symmetry_equiv_pos_as_xyz
  1  'x, y, z'
loop_
 _atom_site_type_symbol
 _atom_site_label
 _atom_site_symmetry_multiplicity
 _atom_site_fract_x
 _atom_site_fract_y
 _atom_site_fract_z
 _atom_site_occupancy
  U  U0  1  0.000000  0.000000  0.000000  1
  Pa  Pa1  1  0.622787  0.622787  0.622787  1
  Pa  Pa2  1  0.377213  0.377213  0.377213  1
  Mn  Mn3  1  0.000000  0.500000  0.000000  1
  Mn  Mn4  1  0.500000  0.000000  0.000000  1
  Mn  Mn5  1  0.000000  0.000000  0.500000  1
