# generated using pymatgen
data_CaPr5SmOsBr12
_symmetry_space_group_name_H-M   'P 1'
_cell_length_a   9.69125566
_cell_length_b   9.60620656
_cell_length_c   9.58366660
_cell_angle_alpha   107.10373614
_cell_angle_beta   107.26228205
_cell_angle_gamma   106.85027374
_symmetry_Int_Tables_number   1
_chemical_formula_structural   CaPr5SmOsBr12
_chemical_formula_sum   'Ca1 Pr5 Sm1 Os1 Br12'
_cell_volume   741.56143631
_cell_formula_units_Z   1
loop_
 _symmetry_equiv_pos_site_id
 _symmetry_equiv_pos_as_xyz
  1  'x, y, z'
loop_
 _atom_site_type_symbol
 _atom_site_label
 _atom_site_symmetry_multiplicity
 _atom_site_fract_x
 _atom_site_fract_y
 _atom_site_fract_z
 _atom_site_occupancy
  Ca  Ca0  1  0.499525  0.500481  0.501184  1
  Pr  Pr1  1  0.323678  0.109434  0.026961  1
  Pr  Pr2  1  0.025766  0.311348  0.104825  1
  Pr  Pr3  1  0.103876  0.026504  0.312496  1
  Pr  Pr4  1  0.893342  0.972645  0.686240  1
  Pr  Pr5  1  0.975387  0.688405  0.894881  1
  Sm  Sm6  1  0.682072  0.891750  0.972637  1
  Os  Os7  1  0.999825  0.999535  0.999132  1
  Br  Br8  1  0.683875  0.213307  0.067760  1
  Br  Br9  1  0.379043  0.458263  0.167386  1
  Br  Br10  1  0.069541  0.684025  0.220885  1
  Br  Br11  1  0.776254  0.928996  0.309817  1
  Br  Br12  1  0.457280  0.167868  0.381263  1
  Br  Br13  1  0.168953  0.381185  0.459479  1
  Br  Br14  1  0.829557  0.618395  0.540185  1
  Br  Br15  1  0.542289  0.833675  0.625392  1
  Br  Br16  1  0.218320  0.069152  0.682828  1
  Br  Br17  1  0.929880  0.315852  0.778767  1
  Br  Br18  1  0.621422  0.547746  0.836849  1
  Br  Br19  1  0.320119  0.781438  0.931037  1
