# generated using pymatgen
data_Er(Si2Ir3)2
_symmetry_space_group_name_H-M   'P 1'
_cell_length_a   7.03211400
_cell_length_b   7.03211368
_cell_length_c   3.83367900
_cell_angle_alpha   90.00000000
_cell_angle_beta   90.00000000
_cell_angle_gamma   120.00000149
_symmetry_Int_Tables_number   1
_chemical_formula_structural   Er(Si2Ir3)2
_chemical_formula_sum   'Er1 Si4 Ir6'
_cell_volume   164.17920816
_cell_formula_units_Z   1
loop_
 _symmetry_equiv_pos_site_id
 _symmetry_equiv_pos_as_xyz
  1  'x, y, z'
loop_
 _atom_site_type_symbol
 _atom_site_label
 _atom_site_symmetry_multiplicity
 _atom_site_fract_x
 _atom_site_fract_y
 _atom_site_fract_z
 _atom_site_occupancy
  Er  Er0  1  0.000000  0.000000  0.000000  1
  Si  Si1  1  0.333334  0.666667  0.000000  1
  Si  Si2  1  0.393429  0.196714  0.500001  1
  Si  Si3  1  0.803286  0.196714  0.500001  1
  Si  Si4  1  0.803285  0.606571  0.500001  1
  Ir  Ir5  1  0.532942  0.065885  0.000000  1
  Ir  Ir6  1  0.532942  0.467058  0.000000  1
  Ir  Ir7  1  0.934115  0.467058  0.000000  1
  Ir  Ir8  1  0.197029  0.394056  0.500001  1
  Ir  Ir9  1  0.197029  0.802971  0.500001  1
  Ir  Ir10  1  0.605943  0.802971  0.500001  1
