# generated using pymatgen
data_La2Fe3Re14C3
_symmetry_space_group_name_H-M   'P 1'
_cell_length_a   6.97607296
_cell_length_b   6.97607321
_cell_length_c   6.97607400
_cell_angle_alpha   82.71138537
_cell_angle_beta   82.71138511
_cell_angle_gamma   82.71138156
_symmetry_Int_Tables_number   1
_chemical_formula_structural   La2Fe3Re14C3
_chemical_formula_sum   'La2 Fe3 Re14 C3'
_cell_volume   331.90679762
_cell_formula_units_Z   1
loop_
 _symmetry_equiv_pos_site_id
 _symmetry_equiv_pos_as_xyz
  1  'x, y, z'
loop_
 _atom_site_type_symbol
 _atom_site_label
 _atom_site_symmetry_multiplicity
 _atom_site_fract_x
 _atom_site_fract_y
 _atom_site_fract_z
 _atom_site_occupancy
  La  La0  1  0.647108  0.647108  0.647108  1
  La  La1  1  0.352892  0.352892  0.352892  1
  Fe  Fe2  1  0.000000  0.000000  0.500000  1
  Fe  Fe3  1  0.500000  0.000000  0.000000  1
  Fe  Fe4  1  0.000000  0.500000  0.000000  1
  Re  Re5  1  0.722750  0.277250  0.000000  1
  Re  Re6  1  0.000000  0.722750  0.277250  1
  Re  Re7  1  0.277250  0.000000  0.722750  1
  Re  Re8  1  0.000000  0.277250  0.722750  1
  Re  Re9  1  0.722750  0.000000  0.277250  1
  Re  Re10  1  0.277250  0.722750  0.000000  1
  Re  Re11  1  0.344384  0.344384  0.865330  1
  Re  Re12  1  0.865330  0.344384  0.344384  1
  Re  Re13  1  0.344384  0.865330  0.344384  1
  Re  Re14  1  0.655616  0.655616  0.134670  1
  Re  Re15  1  0.134670  0.655616  0.655616  1
  Re  Re16  1  0.655616  0.134670  0.655616  1
  Re  Re17  1  0.899380  0.899380  0.899380  1
  Re  Re18  1  0.100620  0.100620  0.100620  1
  C  C19  1  0.500000  0.500000  0.000000  1
  C  C20  1  0.000000  0.500000  0.500000  1
  C  C21  1  0.500000  0.000000  0.500000  1
