# generated using pymatgen
data_Nd8Ti5Si16Mo7
_symmetry_space_group_name_H-M   'P 1'
_cell_length_a   7.07109203
_cell_length_b   7.06360740
_cell_length_c   13.09724018
_cell_angle_alpha   89.86478667
_cell_angle_beta   89.99738419
_cell_angle_gamma   90.03886975
_symmetry_Int_Tables_number   1
_chemical_formula_structural   Nd8Ti5Si16Mo7
_chemical_formula_sum   'Nd8 Ti5 Si16 Mo7'
_cell_volume   654.17135667
_cell_formula_units_Z   1
loop_
 _symmetry_equiv_pos_site_id
 _symmetry_equiv_pos_as_xyz
  1  'x, y, z'
loop_
 _atom_site_type_symbol
 _atom_site_label
 _atom_site_symmetry_multiplicity
 _atom_site_fract_x
 _atom_site_fract_y
 _atom_site_fract_z
 _atom_site_occupancy
  Nd  Nd0  1  0.338770  0.005496  0.466762  1
  Nd  Nd1  1  0.495075  0.838384  0.718570  1
  Nd  Nd2  1  0.504437  0.161936  0.218236  1
  Nd  Nd3  1  0.837908  0.494209  0.281055  1
  Nd  Nd4  1  0.161467  0.504940  0.783161  1
  Nd  Nd5  1  0.661442  0.995197  0.968378  1
  Nd  Nd6  1  0.005476  0.338157  0.532005  1
  Nd  Nd7  1  0.994089  0.662687  0.031472  1
  Ti  Ti8  1  0.328944  0.329383  0.999231  1
  Ti  Ti9  1  0.170378  0.828348  0.249987  1
  Ti  Ti10  1  0.827376  0.172979  0.750479  1
  Ti  Ti11  1  0.670022  0.668501  0.499133  1
  Ti  Ti12  1  0.991221  0.838650  0.624923  1
  Si  Si13  1  0.200402  0.125110  0.688167  1
  Si  Si14  1  0.376377  0.699009  0.937842  1
  Si  Si15  1  0.625085  0.301819  0.437710  1
  Si  Si16  1  0.696976  0.375876  0.062543  1
  Si  Si17  1  0.303793  0.623789  0.561342  1
  Si  Si18  1  0.801887  0.876505  0.187498  1
  Si  Si19  1  0.122808  0.198165  0.312546  1
  Si  Si20  1  0.877125  0.802856  0.812471  1
  Si  Si21  1  0.284766  0.959625  0.062618  1
  Si  Si22  1  0.540902  0.784392  0.312245  1
  Si  Si23  1  0.459088  0.214984  0.812534  1
  Si  Si24  1  0.784828  0.540906  0.687808  1
  Si  Si25  1  0.214861  0.458920  0.187140  1
  Si  Si26  1  0.713935  0.042667  0.563051  1
  Si  Si27  1  0.958850  0.285222  0.937913  1
  Si  Si28  1  0.042812  0.714290  0.436591  1
  Mo  Mo29  1  0.162249  0.012623  0.876461  1
  Mo  Mo30  1  0.488610  0.660727  0.125029  1
  Mo  Mo31  1  0.510009  0.338409  0.624313  1
  Mo  Mo32  1  0.659783  0.488120  0.876952  1
  Mo  Mo33  1  0.340249  0.508360  0.373874  1
  Mo  Mo34  1  0.837863  0.987935  0.374371  1
  Mo  Mo35  1  0.010135  0.160824  0.125596  1
