# generated using pymatgen
data_NdHo3(Si5Os3)2
_symmetry_space_group_name_H-M   'P 1'
_cell_length_a   8.16097597
_cell_length_b   8.14664165
_cell_length_c   5.81607995
_cell_angle_alpha   70.53594416
_cell_angle_beta   70.47354061
_cell_angle_gamma   93.90408076
_symmetry_Int_Tables_number   1
_chemical_formula_structural   NdHo3(Si5Os3)2
_chemical_formula_sum   'Nd1 Ho3 Si10 Os6'
_cell_volume   336.53281290
_cell_formula_units_Z   1
loop_
 _symmetry_equiv_pos_site_id
 _symmetry_equiv_pos_as_xyz
  1  'x, y, z'
loop_
 _atom_site_type_symbol
 _atom_site_label
 _atom_site_symmetry_multiplicity
 _atom_site_fract_x
 _atom_site_fract_y
 _atom_site_fract_z
 _atom_site_occupancy
  Nd  Nd0  1  0.867815  0.602710  0.753254  1
  Ho  Ho1  1  0.398975  0.129962  0.746825  1
  Ho  Ho2  1  0.130715  0.398396  0.246947  1
  Ho  Ho3  1  0.602410  0.867672  0.254029  1
  Si  Si4  1  0.070205  0.261728  0.833246  1
  Si  Si5  1  0.737274  0.936857  0.665632  1
  Si  Si6  1  0.933199  0.739123  0.165118  1
  Si  Si7  1  0.260346  0.067599  0.334237  1
  Si  Si8  1  0.208351  0.794969  0.750646  1
  Si  Si9  1  0.793639  0.207143  0.248072  1
  Si  Si10  1  0.509236  0.484350  0.752946  1
  Si  Si11  1  0.486183  0.511245  0.250280  1
  Si  Si12  1  0.773728  0.224061  0.750642  1
  Si  Si13  1  0.227566  0.774111  0.247479  1
  Os  Os14  1  0.257522  0.544383  0.631012  1
  Os  Os15  1  0.457149  0.744416  0.867003  1
  Os  Os16  1  0.742815  0.454855  0.370857  1
  Os  Os17  1  0.542011  0.252783  0.133365  1
  Os  Os18  1  0.003159  0.999406  0.749271  1
  Os  Os19  1  0.997703  0.004229  0.249139  1
