# generated using pymatgen
data_Ti4P4Ru3Pt
_symmetry_space_group_name_H-M   'P 1'
_cell_length_a   3.75191900
_cell_length_b   6.26171704
_cell_length_c   7.17795222
_cell_angle_alpha   89.41562001
_cell_angle_beta   90.00000000
_cell_angle_gamma   90.00000000
_symmetry_Int_Tables_number   1
_chemical_formula_structural   Ti4P4Ru3Pt
_chemical_formula_sum   'Ti4 P4 Ru3 Pt1'
_cell_volume   168.62612712
_cell_formula_units_Z   1
loop_
 _symmetry_equiv_pos_site_id
 _symmetry_equiv_pos_as_xyz
  1  'x, y, z'
loop_
 _atom_site_type_symbol
 _atom_site_label
 _atom_site_symmetry_multiplicity
 _atom_site_fract_x
 _atom_site_fract_y
 _atom_site_fract_z
 _atom_site_occupancy
  Ti  Ti0  1  0.750000  0.531962  0.326232  1
  Ti  Ti1  1  0.250000  0.972588  0.821212  1
  Ti  Ti2  1  0.750000  0.022329  0.175801  1
  Ti  Ti3  1  0.250000  0.477893  0.673013  1
  P  P4  1  0.250000  0.746113  0.122272  1
  P  P5  1  0.250000  0.234318  0.385915  1
  P  P6  1  0.750000  0.264022  0.864070  1
  P  P7  1  0.750000  0.767162  0.625747  1
  Ru  Ru8  1  0.250000  0.845911  0.438687  1
  Ru  Ru9  1  0.750000  0.149292  0.557310  1
  Ru  Ru10  1  0.750000  0.645288  0.941119  1
  Pt  Pt11  1  0.250000  0.343123  0.068619  1
