# generated using pymatgen
data_Er20CdAg5Ru2
_symmetry_space_group_name_H-M   'P 1'
_cell_length_a   9.42164412
_cell_length_b   9.37834250
_cell_length_c   9.60507500
_cell_angle_alpha   90.00000000
_cell_angle_beta   90.00000000
_cell_angle_gamma   119.84808126
_symmetry_Int_Tables_number   1
_chemical_formula_structural   Er20CdAg5Ru2
_chemical_formula_sum   'Er20 Cd1 Ag5 Ru2'
_cell_volume   736.11721867
_cell_formula_units_Z   1
loop_
 _symmetry_equiv_pos_site_id
 _symmetry_equiv_pos_as_xyz
  1  'x, y, z'
loop_
 _atom_site_type_symbol
 _atom_site_label
 _atom_site_symmetry_multiplicity
 _atom_site_fract_x
 _atom_site_fract_y
 _atom_site_fract_z
 _atom_site_occupancy
  Er  Er0  1  0.003832  0.001916  0.495008  1
  Er  Er1  1  0.003832  0.001916  0.004992  1
  Er  Er2  1  0.208140  0.791626  0.441285  1
  Er  Er3  1  0.208140  0.416515  0.441285  1
  Er  Er4  1  0.582811  0.791406  0.441950  1
  Er  Er5  1  0.791965  0.208149  0.558169  1
  Er  Er6  1  0.791965  0.583814  0.558169  1
  Er  Er7  1  0.417666  0.208833  0.557895  1
  Er  Er8  1  0.791965  0.208149  0.941831  1
  Er  Er9  1  0.791965  0.583814  0.941831  1
  Er  Er10  1  0.417666  0.208833  0.942105  1
  Er  Er11  1  0.208140  0.791626  0.058715  1
  Er  Er12  1  0.208140  0.416515  0.058715  1
  Er  Er13  1  0.582811  0.791406  0.058050  1
  Er  Er14  1  0.539843  0.459114  0.250000  1
  Er  Er15  1  0.539843  0.080729  0.250000  1
  Er  Er16  1  0.918643  0.459321  0.250000  1
  Er  Er17  1  0.454532  0.535805  0.750000  1
  Er  Er18  1  0.454532  0.918727  0.750000  1
  Er  Er19  1  0.079354  0.539677  0.750000  1
  Cd  Cd20  1  0.772589  0.886294  0.750000  1
  Ag  Ag21  1  0.883173  0.116405  0.250000  1
  Ag  Ag22  1  0.883173  0.766768  0.250000  1
  Ag  Ag23  1  0.234002  0.117001  0.250000  1
  Ag  Ag24  1  0.115300  0.884719  0.750000  1
  Ag  Ag25  1  0.115300  0.230580  0.750000  1
  Ru  Ru26  1  0.332930  0.666466  0.250000  1
  Ru  Ru27  1  0.667750  0.333874  0.750000  1
