# generated using pymatgen
data_Ca3Tb7(SiPb3)2
_symmetry_space_group_name_H-M   'P 1'
_cell_length_a   9.38940200
_cell_length_b   9.38940266
_cell_length_c   6.71529700
_cell_angle_alpha   90.00000000
_cell_angle_beta   90.00000000
_cell_angle_gamma   119.99999062
_symmetry_Int_Tables_number   1
_chemical_formula_structural   Ca3Tb7(SiPb3)2
_chemical_formula_sum   'Ca3 Tb7 Si2 Pb6'
_cell_volume   512.71000859
_cell_formula_units_Z   1
loop_
 _symmetry_equiv_pos_site_id
 _symmetry_equiv_pos_as_xyz
  1  'x, y, z'
loop_
 _atom_site_type_symbol
 _atom_site_label
 _atom_site_symmetry_multiplicity
 _atom_site_fract_x
 _atom_site_fract_y
 _atom_site_fract_z
 _atom_site_occupancy
  Ca  Ca0  1  0.333333  0.666667  0.000000  1
  Ca  Ca1  1  0.666667  0.333333  0.000000  1
  Ca  Ca2  1  0.666667  0.333333  0.500000  1
  Tb  Tb3  1  0.247440  0.000468  0.252441  1
  Tb  Tb4  1  0.753028  0.000468  0.747559  1
  Tb  Tb5  1  0.999532  0.246972  0.252441  1
  Tb  Tb6  1  0.999532  0.752560  0.747559  1
  Tb  Tb7  1  0.753028  0.752560  0.252441  1
  Tb  Tb8  1  0.247440  0.246972  0.747559  1
  Tb  Tb9  1  0.333333  0.666667  0.500000  1
  Si  Si10  1  0.000000  0.000000  0.000000  1
  Si  Si11  1  0.000000  0.000000  0.500000  1
  Pb  Pb12  1  0.604195  0.996979  0.255611  1
  Pb  Pb13  1  0.392784  0.996979  0.744389  1
  Pb  Pb14  1  0.003021  0.607216  0.255611  1
  Pb  Pb15  1  0.003021  0.395805  0.744389  1
  Pb  Pb16  1  0.392784  0.395805  0.255611  1
  Pb  Pb17  1  0.604195  0.607216  0.744389  1
