# generated using pymatgen
data_Pr3Er2Lu3(WO6)4
_symmetry_space_group_name_H-M   'P 1'
_cell_length_a   5.47011420
_cell_length_b   7.76469306
_cell_length_c   11.44500167
_cell_angle_alpha   76.08834847
_cell_angle_beta   90.01385855
_cell_angle_gamma   90.03004283
_symmetry_Int_Tables_number   1
_chemical_formula_structural   Pr3Er2Lu3(WO6)4
_chemical_formula_sum   'Pr3 Er2 Lu3 W4 O24'
_cell_volume   471.85332637
_cell_formula_units_Z   1
loop_
 _symmetry_equiv_pos_site_id
 _symmetry_equiv_pos_as_xyz
  1  'x, y, z'
loop_
 _atom_site_type_symbol
 _atom_site_label
 _atom_site_symmetry_multiplicity
 _atom_site_fract_x
 _atom_site_fract_y
 _atom_site_fract_z
 _atom_site_occupancy
  Pr  Pr0  1  0.683216  0.500174  0.250095  1
  Pr  Pr1  1  0.313090  0.500477  0.749507  1
  Pr  Pr2  1  0.745572  0.999659  0.250555  1
  Er  Er3  1  0.818046  0.204964  0.920221  1
  Er  Er4  1  0.256549  0.999670  0.749349  1
  Lu  Lu5  1  0.185448  0.205842  0.423520  1
  Lu  Lu6  1  0.185629  0.793692  0.076731  1
  Lu  Lu7  1  0.818312  0.794292  0.580651  1
  W  W8  1  0.254025  0.276608  0.113063  1
  W  W9  1  0.254382  0.723787  0.387595  1
  W  W10  1  0.744437  0.731278  0.883719  1
  W  W11  1  0.744115  0.269051  0.615780  1
  O  O12  1  0.443936  0.210859  0.274247  1
  O  O13  1  0.444120  0.789437  0.226258  1
  O  O14  1  0.546417  0.798844  0.724579  1
  O  O15  1  0.544152  0.201816  0.773819  1
  O  O16  1  0.059414  0.058152  0.097883  1
  O  O17  1  0.059182  0.941541  0.402715  1
  O  O18  1  0.955923  0.942562  0.894901  1
  O  O19  1  0.952967  0.055045  0.604849  1
  O  O20  1  0.988222  0.284178  0.229038  1
  O  O21  1  0.988906  0.715841  0.271104  1
  O  O22  1  0.012078  0.722086  0.767125  1
  O  O23  1  0.013333  0.277787  0.731142  1
  O  O24  1  0.856543  0.352542  0.453988  1
  O  O25  1  0.856346  0.647383  0.045855  1
  O  O26  1  0.135376  0.637331  0.547745  1
  O  O27  1  0.138945  0.364353  0.952397  1
  O  O28  1  0.656759  0.504781  0.614078  1
  O  O29  1  0.655052  0.496375  0.885803  1
  O  O30  1  0.346492  0.488329  0.390944  1
  O  O31  1  0.347024  0.512244  0.109569  1
  O  O32  1  0.458798  0.156128  0.567693  1
  O  O33  1  0.459400  0.844242  0.931626  1
  O  O34  1  0.540184  0.831045  0.437749  1
  O  O35  1  0.537609  0.167604  0.064107  1
