# generated using pymatgen
data_Hf2Zr2ZnIn2Co3
_symmetry_space_group_name_H-M   'P 1'
_cell_length_a   7.28006840
_cell_length_b   7.28006849
_cell_length_c   3.34129900
_cell_angle_alpha   90.00000000
_cell_angle_beta   90.00000000
_cell_angle_gamma   90.45794885
_symmetry_Int_Tables_number   1
_chemical_formula_structural   Hf2Zr2ZnIn2Co3
_chemical_formula_sum   'Hf2 Zr2 Zn1 In2 Co3'
_cell_volume   177.08117424
_cell_formula_units_Z   1
loop_
 _symmetry_equiv_pos_site_id
 _symmetry_equiv_pos_as_xyz
  1  'x, y, z'
loop_
 _atom_site_type_symbol
 _atom_site_label
 _atom_site_symmetry_multiplicity
 _atom_site_fract_x
 _atom_site_fract_y
 _atom_site_fract_z
 _atom_site_occupancy
  Hf  Hf0  1  0.144216  0.355784  0.500000  1
  Hf  Hf1  1  0.830171  0.669829  0.500000  1
  Zr  Zr2  1  0.692693  0.161149  0.500000  1
  Zr  Zr3  1  0.338851  0.807307  0.500000  1
  Zn  Zn4  1  0.373185  0.126815  0.000000  1
  In  In5  1  0.006841  0.996282  0.000000  1
  In  In6  1  0.503718  0.493159  0.000000  1
  Co  Co7  1  0.121624  0.629862  0.000000  1
  Co  Co8  1  0.618563  0.881437  0.000000  1
  Co  Co9  1  0.870138  0.378376  0.000000  1
