# generated using pymatgen
data_EuYCo8(TcP3)2
_symmetry_space_group_name_H-M   'P 1'
_cell_length_a   3.71400900
_cell_length_b   10.41115306
_cell_length_c   11.85693886
_cell_angle_alpha   89.87653205
_cell_angle_beta   90.00000000
_cell_angle_gamma   90.00000000
_symmetry_Int_Tables_number   1
_chemical_formula_structural   EuYCo8(TcP3)2
_chemical_formula_sum   'Eu2 Y2 Co16 Tc4 P12'
_cell_volume   458.47256789
_cell_formula_units_Z   2
loop_
 _symmetry_equiv_pos_site_id
 _symmetry_equiv_pos_as_xyz
  1  'x, y, z'
loop_
 _atom_site_type_symbol
 _atom_site_label
 _atom_site_symmetry_multiplicity
 _atom_site_fract_x
 _atom_site_fract_y
 _atom_site_fract_z
 _atom_site_occupancy
  Eu  Eu0  1  0.250000  0.914875  0.204453  1
  Eu  Eu1  1  0.750000  0.085125  0.795547  1
  Y  Y2  1  0.750000  0.416182  0.296079  1
  Y  Y3  1  0.250000  0.583818  0.703921  1
  Co  Co4  1  0.250000  0.094451  0.991857  1
  Co  Co5  1  0.750000  0.905549  0.008143  1
  Co  Co6  1  0.750000  0.593314  0.511863  1
  Co  Co7  1  0.250000  0.406686  0.488137  1
  Co  Co8  1  0.250000  0.282166  0.674888  1
  Co  Co9  1  0.750000  0.717834  0.325112  1
  Co  Co10  1  0.750000  0.776362  0.823157  1
  Co  Co11  1  0.250000  0.223638  0.176843  1
  Co  Co12  1  0.250000  0.612014  0.201836  1
  Co  Co13  1  0.750000  0.387986  0.798164  1
  Co  Co14  1  0.750000  0.116966  0.299727  1
  Co  Co15  1  0.250000  0.883034  0.700273  1
  Co  Co16  1  0.250000  0.036035  0.434067  1
  Co  Co17  1  0.750000  0.963965  0.565933  1
  Co  Co18  1  0.750000  0.535025  0.067857  1
  Co  Co19  1  0.250000  0.464975  0.932143  1
  Tc  Tc20  1  0.250000  0.789581  0.488385  1
  Tc  Tc21  1  0.750000  0.210419  0.511615  1
  Tc  Tc22  1  0.750000  0.291370  0.010978  1
  Tc  Tc23  1  0.250000  0.708630  0.989022  1
  P  P24  1  0.250000  0.080623  0.613528  1
  P  P25  1  0.750000  0.919377  0.386472  1
  P  P26  1  0.750000  0.579330  0.887033  1
  P  P27  1  0.250000  0.420670  0.112967  1
  P  P28  1  0.250000  0.229381  0.365250  1
  P  P29  1  0.750000  0.770619  0.634750  1
  P  P30  1  0.750000  0.727761  0.134753  1
  P  P31  1  0.250000  0.272239  0.865247  1
  P  P32  1  0.250000  0.901762  0.892044  1
  P  P33  1  0.750000  0.098238  0.107956  1
  P  P34  1  0.750000  0.402914  0.608765  1
  P  P35  1  0.250000  0.597086  0.391235  1
