# generated using pymatgen
data_Pr8ZnInIr2
_symmetry_space_group_name_H-M   'P 1'
_cell_length_a   9.98823002
_cell_length_b   9.98822970
_cell_length_c   9.96984100
_cell_angle_alpha   60.06088565
_cell_angle_beta   60.06088670
_cell_angle_gamma   60.22673492
_symmetry_Int_Tables_number   1
_chemical_formula_structural   Pr8ZnInIr2
_chemical_formula_sum   'Pr16 Zn2 In2 Ir4'
_cell_volume   705.16279763
_cell_formula_units_Z   2
loop_
 _symmetry_equiv_pos_site_id
 _symmetry_equiv_pos_as_xyz
  1  'x, y, z'
loop_
 _atom_site_type_symbol
 _atom_site_label
 _atom_site_symmetry_multiplicity
 _atom_site_fract_x
 _atom_site_fract_y
 _atom_site_fract_z
 _atom_site_occupancy
  Pr  Pr0  1  0.349323  0.349323  0.349505  1
  Pr  Pr1  1  0.349323  0.349323  0.951849  1
  Pr  Pr2  1  0.350625  0.950969  0.349202  1
  Pr  Pr3  1  0.950969  0.350625  0.349202  1
  Pr  Pr4  1  0.807695  0.191663  0.192582  1
  Pr  Pr5  1  0.191663  0.807695  0.808060  1
  Pr  Pr6  1  0.191663  0.807695  0.192582  1
  Pr  Pr7  1  0.807695  0.191663  0.808060  1
  Pr  Pr8  1  0.190656  0.190656  0.809344  1
  Pr  Pr9  1  0.806390  0.806390  0.193610  1
  Pr  Pr10  1  0.945565  0.561421  0.560791  1
  Pr  Pr11  1  0.561421  0.945565  0.932223  1
  Pr  Pr12  1  0.561421  0.945565  0.560791  1
  Pr  Pr13  1  0.945565  0.561421  0.932223  1
  Pr  Pr14  1  0.561535  0.561535  0.938465  1
  Pr  Pr15  1  0.939832  0.939832  0.560168  1
  Zn  Zn16  1  0.576649  0.259653  0.581848  1
  Zn  Zn17  1  0.259653  0.576649  0.581848  1
  In  In18  1  0.575897  0.575897  0.581951  1
  In  In19  1  0.575897  0.575897  0.266254  1
  Ir  Ir20  1  0.141671  0.141671  0.141078  1
  Ir  Ir21  1  0.141671  0.141671  0.575578  1
  Ir  Ir22  1  0.142739  0.574479  0.141391  1
  Ir  Ir23  1  0.574479  0.142739  0.141391  1
