# generated using pymatgen
data_Tm4ReB12Rh
_symmetry_space_group_name_H-M   'P 1'
_cell_length_a   3.64022600
_cell_length_b   9.07911472
_cell_length_c   11.46324756
_cell_angle_alpha   90.41446423
_cell_angle_beta   90.00000000
_cell_angle_gamma   90.00000000
_symmetry_Int_Tables_number   1
_chemical_formula_structural   Tm4ReB12Rh
_chemical_formula_sum   'Tm8 Re2 B24 Rh2'
_cell_volume   378.85075720
_cell_formula_units_Z   2
loop_
 _symmetry_equiv_pos_site_id
 _symmetry_equiv_pos_as_xyz
  1  'x, y, z'
loop_
 _atom_site_type_symbol
 _atom_site_label
 _atom_site_symmetry_multiplicity
 _atom_site_fract_x
 _atom_site_fract_y
 _atom_site_fract_z
 _atom_site_occupancy
  Tm  Tm0  1  0.500000  0.317889  0.410734  1
  Tm  Tm1  1  0.500000  0.682111  0.589266  1
  Tm  Tm2  1  0.500000  0.173805  0.917399  1
  Tm  Tm3  1  0.500000  0.826195  0.082601  1
  Tm  Tm4  1  0.500000  0.442633  0.126532  1
  Tm  Tm5  1  0.500000  0.557367  0.873468  1
  Tm  Tm6  1  0.500000  0.054433  0.627906  1
  Tm  Tm7  1  0.500000  0.945567  0.372094  1
  Re  Re8  1  0.500000  0.139079  0.179799  1
  Re  Re9  1  0.500000  0.860921  0.820201  1
  B  B10  1  0.000000  0.106988  0.471140  1
  B  B11  1  0.000000  0.893012  0.528860  1
  B  B12  1  0.000000  0.394600  0.970774  1
  B  B13  1  0.000000  0.605400  0.029226  1
  B  B14  1  0.000000  0.132051  0.315417  1
  B  B15  1  0.000000  0.867949  0.684583  1
  B  B16  1  0.000000  0.367375  0.816997  1
  B  B17  1  0.000000  0.632625  0.183003  1
  B  B18  1  0.000000  0.052915  0.067050  1
  B  B19  1  0.000000  0.947085  0.932950  1
  B  B20  1  0.000000  0.445739  0.565365  1
  B  B21  1  0.000000  0.554261  0.434635  1
  B  B22  1  0.000000  0.483104  0.287756  1
  B  B23  1  0.000000  0.516896  0.712244  1
  B  B24  1  0.000000  0.017612  0.786795  1
  B  B25  1  0.000000  0.982388  0.213205  1
  B  B26  1  0.000000  0.249089  0.080787  1
  B  B27  1  0.000000  0.750911  0.919213  1
  B  B28  1  0.000000  0.250569  0.578234  1
  B  B29  1  0.000000  0.749431  0.421766  1
  B  B30  1  0.000000  0.293779  0.235155  1
  B  B31  1  0.000000  0.706221  0.764845  1
  B  B32  1  0.000000  0.208039  0.735002  1
  B  B33  1  0.000000  0.791961  0.264998  1
  Rh  Rh34  1  0.500000  0.361801  0.678679  1
  Rh  Rh35  1  0.500000  0.638199  0.321321  1
