# generated using pymatgen
data_K3PrIr2O9
_symmetry_space_group_name_H-M   'P 1'
_cell_length_a   6.07120400
_cell_length_b   6.07325236
_cell_length_c   14.90498400
_cell_angle_alpha   90.00000000
_cell_angle_beta   90.00000000
_cell_angle_gamma   119.98884366
_symmetry_Int_Tables_number   1
_chemical_formula_structural   K3PrIr2O9
_chemical_formula_sum   'K6 Pr2 Ir4 O18'
_cell_volume   476.00017341
_cell_formula_units_Z   2
loop_
 _symmetry_equiv_pos_site_id
 _symmetry_equiv_pos_as_xyz
  1  'x, y, z'
loop_
 _atom_site_type_symbol
 _atom_site_label
 _atom_site_symmetry_multiplicity
 _atom_site_fract_x
 _atom_site_fract_y
 _atom_site_fract_z
 _atom_site_occupancy
  K  K0  1  0.666660  0.333319  0.105860  1
  K  K1  1  0.999994  0.999989  0.250000  1
  K  K2  1  0.666660  0.333319  0.394140  1
  K  K3  1  0.333340  0.666681  0.605860  1
  K  K4  1  0.000006  0.000011  0.750000  1
  K  K5  1  0.333340  0.666681  0.894140  1
  Pr  Pr6  1  0.000000  0.000000  0.000000  1
  Pr  Pr7  1  0.000000  0.000000  0.500000  1
  Ir  Ir8  1  0.333306  0.666614  0.160907  1
  Ir  Ir9  1  0.333306  0.666614  0.339093  1
  Ir  Ir10  1  0.666694  0.333386  0.660907  1
  Ir  Ir11  1  0.666694  0.333386  0.839093  1
  O  O12  1  0.182741  0.365482  0.090476  1
  O  O13  1  0.182717  0.817294  0.090465  1
  O  O14  1  0.634577  0.817294  0.090465  1
  O  O15  1  0.047209  0.523595  0.250000  1
  O  O16  1  0.476387  0.523595  0.250000  1
  O  O17  1  0.476386  0.952774  0.250000  1
  O  O18  1  0.182741  0.365482  0.409524  1
  O  O19  1  0.182717  0.817294  0.409535  1
  O  O20  1  0.634577  0.817294  0.409535  1
  O  O21  1  0.365424  0.182707  0.590465  1
  O  O22  1  0.817284  0.182707  0.590465  1
  O  O23  1  0.817259  0.634517  0.590476  1
  O  O24  1  0.523614  0.047226  0.750000  1
  O  O25  1  0.523613  0.476404  0.750000  1
  O  O26  1  0.952791  0.476404  0.750000  1
  O  O27  1  0.365424  0.182707  0.909535  1
  O  O28  1  0.817284  0.182707  0.909535  1
  O  O29  1  0.817259  0.634517  0.909524  1
