# generated using pymatgen
data_SrTbNp(Si3Pd10)2
_symmetry_space_group_name_H-M   'P 1'
_cell_length_a   8.77023398
_cell_length_b   8.77023359
_cell_length_c   8.77023500
_cell_angle_alpha   60.00000599
_cell_angle_beta   60.00000748
_cell_angle_gamma   60.00000132
_symmetry_Int_Tables_number   1
_chemical_formula_structural   SrTbNp(Si3Pd10)2
_chemical_formula_sum   'Sr1 Tb1 Np1 Si6 Pd20'
_cell_volume   477.00026696
_cell_formula_units_Z   1
loop_
 _symmetry_equiv_pos_site_id
 _symmetry_equiv_pos_as_xyz
  1  'x, y, z'
loop_
 _atom_site_type_symbol
 _atom_site_label
 _atom_site_symmetry_multiplicity
 _atom_site_fract_x
 _atom_site_fract_y
 _atom_site_fract_z
 _atom_site_occupancy
  Sr  Sr0  1  0.250000  0.250000  0.250000  1
  Tb  Tb1  1  0.000000  0.000000  0.000000  1
  Np  Np2  1  0.750000  0.750000  0.750000  1
  Si  Si3  1  0.733013  0.266987  0.266987  1
  Si  Si4  1  0.266987  0.733013  0.733013  1
  Si  Si5  1  0.266987  0.733013  0.266987  1
  Si  Si6  1  0.733013  0.266987  0.733013  1
  Si  Si7  1  0.266987  0.266987  0.733013  1
  Si  Si8  1  0.733013  0.733013  0.266987  1
  Pd  Pd9  1  0.388157  0.388157  0.388157  1
  Pd  Pd10  1  0.617633  0.617633  0.617633  1
  Pd  Pd11  1  0.388157  0.388157  0.835533  1
  Pd  Pd12  1  0.388157  0.835533  0.388157  1
  Pd  Pd13  1  0.617633  0.617633  0.147099  1
  Pd  Pd14  1  0.617633  0.147099  0.617633  1
  Pd  Pd15  1  0.835533  0.388157  0.388157  1
  Pd  Pd16  1  0.147099  0.617633  0.617633  1
  Pd  Pd17  1  0.348820  0.996038  0.996038  1
  Pd  Pd18  1  0.659102  0.996038  0.996038  1
  Pd  Pd19  1  0.996038  0.348820  0.659102  1
  Pd  Pd20  1  0.996038  0.659102  0.348820  1
  Pd  Pd21  1  0.996038  0.348820  0.996038  1
  Pd  Pd22  1  0.659102  0.996038  0.348820  1
  Pd  Pd23  1  0.996038  0.659102  0.996038  1
  Pd  Pd24  1  0.348820  0.996038  0.659102  1
  Pd  Pd25  1  0.996038  0.996038  0.348820  1
  Pd  Pd26  1  0.996038  0.996038  0.659102  1
  Pd  Pd27  1  0.659102  0.348820  0.996038  1
  Pd  Pd28  1  0.348820  0.659102  0.996038  1
