# generated using pymatgen
data_LiCa2Ni2(AsO4)3
_symmetry_space_group_name_H-M   'P 1'
_cell_length_a   10.73962357
_cell_length_b   10.73962321
_cell_length_c   10.73962396
_cell_angle_alpha   108.96726378
_cell_angle_beta   108.96726831
_cell_angle_gamma   110.48389790
_symmetry_Int_Tables_number   1
_chemical_formula_structural   LiCa2Ni2(AsO4)3
_chemical_formula_sum   'Li4 Ca8 Ni8 As12 O48'
_cell_volume   953.33016082
_cell_formula_units_Z   4
loop_
 _symmetry_equiv_pos_site_id
 _symmetry_equiv_pos_as_xyz
  1  'x, y, z'
loop_
 _atom_site_type_symbol
 _atom_site_label
 _atom_site_symmetry_multiplicity
 _atom_site_fract_x
 _atom_site_fract_y
 _atom_site_fract_z
 _atom_site_occupancy
  Li  Li0  1  0.750000  0.750000  0.000000  1
  Li  Li1  1  0.500000  0.000000  0.500000  1
  Li  Li2  1  0.250000  0.250000  0.000000  1
  Li  Li3  1  0.000000  0.500000  0.500000  1
  Ca  Ca4  1  0.125000  0.753052  0.128052  1
  Ca  Ca5  1  0.003052  0.875000  0.628052  1
  Ca  Ca6  1  0.125000  0.253052  0.628052  1
  Ca  Ca7  1  0.503052  0.875000  0.128052  1
  Ca  Ca8  1  0.625000  0.996948  0.871948  1
  Ca  Ca9  1  0.246948  0.375000  0.371948  1
  Ca  Ca10  1  0.625000  0.496948  0.371948  1
  Ca  Ca11  1  0.746948  0.375000  0.871948  1
  Ni  Ni12  1  0.375000  0.625000  0.750000  1
  Ni  Ni13  1  0.875000  0.125000  0.250000  1
  Ni  Ni14  1  0.875000  0.125000  0.750000  1
  Ni  Ni15  1  0.375000  0.125000  0.250000  1
  Ni  Ni16  1  0.375000  0.125000  0.750000  1
  Ni  Ni17  1  0.875000  0.625000  0.250000  1
  Ni  Ni18  1  0.375000  0.625000  0.250000  1
  Ni  Ni19  1  0.875000  0.625000  0.750000  1
  As  As20  1  0.250000  0.750000  0.500000  1
  As  As21  1  0.625000  0.749433  0.624433  1
  As  As22  1  0.250567  0.875000  0.875567  1
  As  As23  1  0.750567  0.875000  0.375567  1
  As  As24  1  0.125000  0.000567  0.375567  1
  As  As25  1  0.000000  0.000000  0.000000  1
  As  As26  1  0.750000  0.250000  0.500000  1
  As  As27  1  0.999433  0.375000  0.124433  1
  As  As28  1  0.625000  0.249433  0.124433  1
  As  As29  1  0.499433  0.375000  0.624433  1
  As  As30  1  0.125000  0.500567  0.875567  1
  As  As31  1  0.500000  0.500000  0.000000  1
  O  O32  1  0.068149  0.727976  0.736343  1
  O  O33  1  0.286119  0.746212  0.352894  1
  O  O34  1  0.270879  0.642450  0.058572  1
  O  O35  1  0.066775  0.713881  0.460092  1
  O  O36  1  0.770879  0.712308  0.628430  1
  O  O37  1  0.787692  0.729121  0.371570  1
  O  O38  1  0.977976  0.818149  0.236343  1
  O  O39  1  0.166122  0.037692  0.558572  1
  O  O40  1  0.287692  0.916122  0.058572  1
  O  O41  1  0.272024  0.008368  0.340173  1
  O  O42  1  0.496212  0.643317  0.960092  1
  O  O43  1  0.668194  0.931851  0.659827  1
  O  O44  1  0.963881  0.816775  0.960092  1
  O  O45  1  0.568149  0.831806  0.340173  1
  O  O46  1  0.892450  0.020879  0.558572  1
  O  O47  1  0.393317  0.933225  0.647106  1
  O  O48  1  0.758368  0.918194  0.236343  1
  O  O49  1  0.581806  0.741632  0.763657  1
  O  O50  1  0.083878  0.142450  0.371570  1
  O  O51  1  0.258368  0.022024  0.840173  1
  O  O52  1  0.183225  0.143317  0.147106  1
  O  O53  1  0.856683  0.003788  0.039908  1
  O  O54  1  0.357550  0.416122  0.628430  1
  O  O55  1  0.996212  0.036119  0.852894  1
  O  O56  1  0.753788  0.213881  0.647106  1
  O  O57  1  0.392450  0.833878  0.871570  1
  O  O58  1  0.893317  0.246212  0.460092  1
  O  O59  1  0.566775  0.106683  0.352894  1
  O  O60  1  0.491632  0.227976  0.659827  1
  O  O61  1  0.666122  0.107550  0.128430  1
  O  O62  1  0.168194  0.508368  0.736343  1
  O  O63  1  0.991632  0.331806  0.263657  1
  O  O64  1  0.356683  0.316775  0.852894  1
  O  O65  1  0.857550  0.229121  0.941428  1
  O  O66  1  0.181851  0.418194  0.159827  1
  O  O67  1  0.786119  0.433225  0.539908  1
  O  O68  1  0.081806  0.318149  0.840173  1
  O  O69  1  0.253788  0.606683  0.539908  1
  O  O70  1  0.477976  0.241632  0.159827  1
  O  O71  1  0.462308  0.333878  0.441428  1
  O  O72  1  0.583878  0.212308  0.941428  1
  O  O73  1  0.772024  0.431851  0.263657  1
  O  O74  1  0.962308  0.520879  0.128430  1
  O  O75  1  0.979121  0.537692  0.871570  1
  O  O76  1  0.683225  0.536119  0.039908  1
  O  O77  1  0.463881  0.503788  0.147106  1
  O  O78  1  0.479121  0.607550  0.441428  1
  O  O79  1  0.681851  0.522024  0.763657  1
