# generated using pymatgen
data_CaPrB3Ru4C
_symmetry_space_group_name_H-M   'P 1'
_cell_length_a   6.76614367
_cell_length_b   5.90302182
_cell_length_c   5.58355670
_cell_angle_alpha   72.11808168
_cell_angle_beta   56.94426715
_cell_angle_gamma   51.75348791
_symmetry_Int_Tables_number   1
_chemical_formula_structural   CaPrB3Ru4C
_chemical_formula_sum   'Ca1 Pr1 B3 Ru4 C1'
_cell_volume   146.63551049
_cell_formula_units_Z   1
loop_
 _symmetry_equiv_pos_site_id
 _symmetry_equiv_pos_as_xyz
  1  'x, y, z'
loop_
 _atom_site_type_symbol
 _atom_site_label
 _atom_site_symmetry_multiplicity
 _atom_site_fract_x
 _atom_site_fract_y
 _atom_site_fract_z
 _atom_site_occupancy
  Ca  Ca0  1  0.999930  0.000070  0.999930  1
  Pr  Pr1  1  0.250185  0.249815  0.250185  1
  B  B2  1  0.316027  0.683973  0.316027  1
  B  B3  1  0.929875  0.570125  0.929875  1
  B  B4  1  0.569397  0.930603  0.569397  1
  Ru  Ru5  1  0.616194  0.605313  0.881298  1
  Ru  Ru6  1  0.640139  0.626131  0.364622  1
  Ru  Ru7  1  0.364622  0.369106  0.640139  1
  Ru  Ru8  1  0.881299  0.897196  0.616193  1
  C  C9  1  0.682332  0.317668  0.682332  1
