# generated using pymatgen
data_Pr8Zn8Ir6PtRh
_symmetry_space_group_name_H-M   'P 1'
_cell_length_a   4.07573600
_cell_length_b   7.37723509
_cell_length_c   16.71483322
_cell_angle_alpha   90.00021906
_cell_angle_beta   90.00000000
_cell_angle_gamma   90.00000000
_symmetry_Int_Tables_number   1
_chemical_formula_structural   Pr8Zn8Ir6PtRh
_chemical_formula_sum   'Pr8 Zn8 Ir6 Pt1 Rh1'
_cell_volume   502.57596675
_cell_formula_units_Z   1
loop_
 _symmetry_equiv_pos_site_id
 _symmetry_equiv_pos_as_xyz
  1  'x, y, z'
loop_
 _atom_site_type_symbol
 _atom_site_label
 _atom_site_symmetry_multiplicity
 _atom_site_fract_x
 _atom_site_fract_y
 _atom_site_fract_z
 _atom_site_occupancy
  Pr  Pr0  1  0.750000  0.446382  0.217523  1
  Pr  Pr1  1  0.750000  0.956997  0.285100  1
  Pr  Pr2  1  0.750000  0.834634  0.057257  1
  Pr  Pr3  1  0.250000  0.046551  0.716718  1
  Pr  Pr4  1  0.250000  0.167653  0.938917  1
  Pr  Pr5  1  0.250000  0.546311  0.783058  1
  Pr  Pr6  1  0.750000  0.331899  0.440105  1
  Pr  Pr7  1  0.250000  0.666772  0.561508  1
  Zn  Zn8  1  0.250000  0.999370  0.439907  1
  Zn  Zn9  1  0.750000  0.500510  0.939621  1
  Zn  Zn10  1  0.750000  0.001889  0.560568  1
  Zn  Zn11  1  0.250000  0.625018  0.350686  1
  Zn  Zn12  1  0.750000  0.374647  0.649903  1
  Zn  Zn13  1  0.750000  0.874373  0.849989  1
  Zn  Zn14  1  0.250000  0.497205  0.059276  1
  Zn  Zn15  1  0.250000  0.129262  0.149870  1
  Ir  Ir16  1  0.250000  0.241655  0.564887  1
  Ir  Ir17  1  0.750000  0.258704  0.065618  1
  Ir  Ir18  1  0.250000  0.246027  0.313365  1
  Ir  Ir19  1  0.750000  0.253353  0.813316  1
  Ir  Ir20  1  0.250000  0.742534  0.935588  1
  Ir  Ir21  1  0.750000  0.752756  0.685742  1
  Pt  Pt22  1  0.250000  0.746607  0.187239  1
  Rh  Rh23  1  0.750000  0.758892  0.434239  1
