# generated using pymatgen
data_Pr19HoSi15Tc
_symmetry_space_group_name_H-M   'P 1'
_cell_length_a   7.91342402
_cell_length_b   7.90686186
_cell_length_c   15.25675526
_cell_angle_alpha   90.26376972
_cell_angle_beta   89.86948576
_cell_angle_gamma   89.90441551
_symmetry_Int_Tables_number   1
_chemical_formula_structural   Pr19HoSi15Tc
_chemical_formula_sum   'Pr19 Ho1 Si15 Tc1'
_cell_volume   954.60658675
_cell_formula_units_Z   1
loop_
 _symmetry_equiv_pos_site_id
 _symmetry_equiv_pos_as_xyz
  1  'x, y, z'
loop_
 _atom_site_type_symbol
 _atom_site_label
 _atom_site_symmetry_multiplicity
 _atom_site_fract_x
 _atom_site_fract_y
 _atom_site_fract_z
 _atom_site_occupancy
  Pr  Pr0  1  0.191979  0.808544  0.250168  1
  Pr  Pr1  1  0.823757  0.189997  0.748420  1
  Pr  Pr2  1  0.695788  0.689814  0.502334  1
  Pr  Pr3  1  0.370682  0.012227  0.451137  1
  Pr  Pr4  1  0.483280  0.882986  0.696651  1
  Pr  Pr5  1  0.510724  0.124037  0.198481  1
  Pr  Pr6  1  0.876682  0.488717  0.300531  1
  Pr  Pr7  1  0.129288  0.502275  0.799100  1
  Pr  Pr8  1  0.625862  0.988300  0.949225  1
  Pr  Pr9  1  0.007835  0.378087  0.550974  1
  Pr  Pr10  1  0.988471  0.625391  0.050514  1
  Pr  Pr11  1  0.131998  0.983234  0.872881  1
  Pr  Pr12  1  0.516789  0.629495  0.126104  1
  Pr  Pr13  1  0.472270  0.361730  0.629446  1
  Pr  Pr14  1  0.627905  0.515366  0.875318  1
  Pr  Pr15  1  0.375034  0.483125  0.373185  1
  Pr  Pr16  1  0.873405  0.020364  0.376231  1
  Pr  Pr17  1  0.982265  0.127441  0.124016  1
  Pr  Pr18  1  0.025145  0.880202  0.627325  1
  Ho  Ho19  1  0.310027  0.307414  0.998545  1
  Si  Si20  1  0.331474  0.691228  0.952551  1
  Si  Si21  1  0.663833  0.301875  0.451087  1
  Si  Si22  1  0.693852  0.331900  0.049089  1
  Si  Si23  1  0.303560  0.668081  0.547006  1
  Si  Si24  1  0.805426  0.832185  0.202557  1
  Si  Si25  1  0.168082  0.197656  0.297352  1
  Si  Si26  1  0.830632  0.802039  0.800269  1
  Si  Si27  1  0.289065  0.925973  0.057877  1
  Si  Si28  1  0.579979  0.787408  0.310519  1
  Si  Si29  1  0.417714  0.213055  0.815623  1
  Si  Si30  1  0.778574  0.582599  0.692248  1
  Si  Si31  1  0.213250  0.419884  0.186932  1
  Si  Si32  1  0.704880  0.075397  0.558412  1
  Si  Si33  1  0.924883  0.288281  0.942077  1
  Si  Si34  1  0.078930  0.714696  0.440669  1
  Tc  Tc35  1  0.196680  0.168992  0.695146  1
