# generated using pymatgen
data_Ho3Tm5Lu8(Ga3Co)2
_symmetry_space_group_name_H-M   'P 1'
_cell_length_a   9.81005900
_cell_length_b   9.81224397
_cell_length_c   6.87176500
_cell_angle_alpha   90.00097673
_cell_angle_beta   89.99950776
_cell_angle_gamma   119.99020665
_symmetry_Int_Tables_number   1
_chemical_formula_structural   Ho3Tm5Lu8(Ga3Co)2
_chemical_formula_sum   'Ho3 Tm5 Lu8 Ga6 Co2'
_cell_volume   572.90384642
_cell_formula_units_Z   1
loop_
 _symmetry_equiv_pos_site_id
 _symmetry_equiv_pos_as_xyz
  1  'x, y, z'
loop_
 _atom_site_type_symbol
 _atom_site_label
 _atom_site_symmetry_multiplicity
 _atom_site_fract_x
 _atom_site_fract_y
 _atom_site_fract_z
 _atom_site_occupancy
  Ho  Ho0  1  0.535945  0.071899  0.708210  1
  Ho  Ho1  1  0.000059  0.000074  0.231419  1
  Ho  Ho2  1  0.999954  0.999980  0.731477  1
  Tm  Tm3  1  0.463763  0.536212  0.208013  1
  Tm  Tm4  1  0.072430  0.536196  0.208025  1
  Tm  Tm5  1  0.463677  0.927353  0.208090  1
  Tm  Tm6  1  0.536223  0.463980  0.708000  1
  Tm  Tm7  1  0.927760  0.463999  0.707998  1
  Lu  Lu8  1  0.173942  0.825492  0.511532  1
  Lu  Lu9  1  0.651533  0.825475  0.511536  1
  Lu  Lu10  1  0.174310  0.348596  0.511835  1
  Lu  Lu11  1  0.826023  0.174392  0.012170  1
  Lu  Lu12  1  0.348383  0.174386  0.012134  1
  Lu  Lu13  1  0.825698  0.651398  0.011833  1
  Lu  Lu14  1  0.333190  0.666380  0.826452  1
  Lu  Lu15  1  0.666839  0.333652  0.326190  1
  Ga  Ga16  1  0.163641  0.836358  0.958252  1
  Ga  Ga17  1  0.672693  0.836353  0.958230  1
  Ga  Ga18  1  0.163647  0.327291  0.957986  1
  Ga  Ga19  1  0.836637  0.163687  0.457817  1
  Ga  Ga20  1  0.327074  0.163693  0.457774  1
  Ga  Ga21  1  0.836330  0.672656  0.458084  1
  Co  Co22  1  0.333310  0.666625  0.445333  1
  Co  Co23  1  0.666940  0.333875  0.945647  1
