# generated using pymatgen
data_Sm2DyEr(Sn5Rh3)2
_symmetry_space_group_name_H-M   'P 1'
_cell_length_a   13.49880337
_cell_length_b   13.49880444
_cell_length_c   7.25921801
_cell_angle_alpha   89.99363425
_cell_angle_beta   90.00636593
_cell_angle_gamma   160.98433063
_symmetry_Int_Tables_number   1
_chemical_formula_structural   Sm2DyEr(Sn5Rh3)2
_chemical_formula_sum   'Sm2 Dy1 Er1 Sn10 Rh6'
_cell_volume   430.98992320
_cell_formula_units_Z   1
loop_
 _symmetry_equiv_pos_site_id
 _symmetry_equiv_pos_as_xyz
  1  'x, y, z'
loop_
 _atom_site_type_symbol
 _atom_site_label
 _atom_site_symmetry_multiplicity
 _atom_site_fract_x
 _atom_site_fract_y
 _atom_site_fract_z
 _atom_site_occupancy
  Sm  Sm0  1  0.172171  0.827829  0.753035  1
  Sm  Sm1  1  0.827760  0.172240  0.252950  1
  Dy  Dy2  1  0.523659  0.476341  0.238978  1
  Er  Er3  1  0.476131  0.523869  0.739327  1
  Sn  Sn4  1  0.881252  0.118748  0.731290  1
  Sn  Sn5  1  0.118850  0.881150  0.231110  1
  Sn  Sn6  1  0.704456  0.295544  0.048360  1
  Sn  Sn7  1  0.295679  0.704321  0.548451  1
  Sn  Sn8  1  0.595339  0.404661  0.614695  1
  Sn  Sn9  1  0.404516  0.595484  0.114720  1
  Sn  Sn10  1  0.952869  0.047131  0.399781  1
  Sn  Sn11  1  0.046979  0.953021  0.898981  1
  Sn  Sn12  1  0.290667  0.709333  0.974868  1
  Sn  Sn13  1  0.709331  0.290669  0.475092  1
  Rh  Rh14  1  0.049947  0.950053  0.519061  1
  Rh  Rh15  1  0.949974  0.050026  0.018052  1
  Rh  Rh16  1  0.777830  0.222170  0.762256  1
  Rh  Rh17  1  0.222251  0.777749  0.262216  1
  Rh  Rh18  1  0.395180  0.604820  0.486946  1
  Rh  Rh19  1  0.605160  0.394840  0.985824  1
