# generated using pymatgen
data_Ce2Nd2InRh4Pb
_symmetry_space_group_name_H-M   'P 1'
_cell_length_a   7.79505003
_cell_length_b   7.75472056
_cell_length_c   3.76299100
_cell_angle_alpha   90.00000000
_cell_angle_beta   90.00000000
_cell_angle_gamma   86.69817116
_symmetry_Int_Tables_number   1
_chemical_formula_structural   Ce2Nd2InRh4Pb
_chemical_formula_sum   'Ce2 Nd2 In1 Rh4 Pb1'
_cell_volume   227.08931592
_cell_formula_units_Z   1
loop_
 _symmetry_equiv_pos_site_id
 _symmetry_equiv_pos_as_xyz
  1  'x, y, z'
loop_
 _atom_site_type_symbol
 _atom_site_label
 _atom_site_symmetry_multiplicity
 _atom_site_fract_x
 _atom_site_fract_y
 _atom_site_fract_z
 _atom_site_occupancy
  Ce  Ce0  1  0.172831  0.332045  0.500000  1
  Ce  Ce1  1  0.827169  0.667955  0.500000  1
  Nd  Nd2  1  0.669995  0.171173  0.500000  1
  Nd  Nd3  1  0.330005  0.828827  0.500000  1
  In  In4  1  0.500000  0.500000  0.000000  1
  Rh  Rh5  1  0.131121  0.618850  0.000000  1
  Rh  Rh6  1  0.868879  0.381150  0.000000  1
  Rh  Rh7  1  0.640801  0.850809  0.000000  1
  Rh  Rh8  1  0.359199  0.149191  0.000000  1
  Pb  Pb9  1  0.000000  0.000000  0.000000  1
