# generated using pymatgen
data_NbB3Ru3W2
_symmetry_space_group_name_H-M   'P 1'
_cell_length_a   3.03283600
_cell_length_b   8.99437700
_cell_length_c   15.80123600
_cell_angle_alpha   90.00000000
_cell_angle_beta   90.00000000
_cell_angle_gamma   90.00000000
_symmetry_Int_Tables_number   1
_chemical_formula_structural   NbB3Ru3W2
_chemical_formula_sum   'Nb4 B12 Ru12 W8'
_cell_volume   431.03354793
_cell_formula_units_Z   4
loop_
 _symmetry_equiv_pos_site_id
 _symmetry_equiv_pos_as_xyz
  1  'x, y, z'
loop_
 _atom_site_type_symbol
 _atom_site_label
 _atom_site_symmetry_multiplicity
 _atom_site_fract_x
 _atom_site_fract_y
 _atom_site_fract_z
 _atom_site_occupancy
  Nb  Nb0  1  0.000000  0.698274  0.198322  1
  Nb  Nb1  1  0.000000  0.301726  0.801678  1
  Nb  Nb2  1  0.000000  0.198274  0.301678  1
  Nb  Nb3  1  0.000000  0.801726  0.698322  1
  B  B4  1  0.500000  0.603560  0.495924  1
  B  B5  1  0.500000  0.396440  0.504076  1
  B  B6  1  0.500000  0.103560  0.004076  1
  B  B7  1  0.500000  0.896440  0.995924  1
  B  B8  1  0.000000  0.601772  0.831922  1
  B  B9  1  0.000000  0.398228  0.168078  1
  B  B10  1  0.000000  0.101772  0.668078  1
  B  B11  1  0.000000  0.898228  0.331922  1
  B  B12  1  0.500000  0.712069  0.594233  1
  B  B13  1  0.500000  0.287931  0.405767  1
  B  B14  1  0.500000  0.212069  0.905767  1
  B  B15  1  0.500000  0.787931  0.094233  1
  Ru  Ru16  1  0.500000  0.723681  0.350905  1
  Ru  Ru17  1  0.500000  0.276319  0.649095  1
  Ru  Ru18  1  0.500000  0.223681  0.149095  1
  Ru  Ru19  1  0.500000  0.776319  0.850905  1
  Ru  Ru20  1  0.500000  0.516548  0.088148  1
  Ru  Ru21  1  0.500000  0.483452  0.911852  1
  Ru  Ru22  1  0.500000  0.016548  0.411852  1
  Ru  Ru23  1  0.500000  0.983452  0.588148  1
  Ru  Ru24  1  0.500000  0.546022  0.735752  1
  Ru  Ru25  1  0.500000  0.453978  0.264248  1
  Ru  Ru26  1  0.500000  0.046022  0.764248  1
  Ru  Ru27  1  0.500000  0.953978  0.235752  1
  W  W28  1  0.000000  0.790587  0.492768  1
  W  W29  1  0.000000  0.209413  0.507232  1
  W  W30  1  0.000000  0.290587  0.007232  1
  W  W31  1  0.000000  0.709413  0.992768  1
  W  W32  1  0.000000  0.513056  0.591220  1
  W  W33  1  0.000000  0.486944  0.408780  1
  W  W34  1  0.000000  0.013056  0.908780  1
  W  W35  1  0.000000  0.986944  0.091220  1
