# generated using pymatgen
data_Pr4CdOs
_symmetry_space_group_name_H-M   'P 1'
_cell_length_a   10.01879749
_cell_length_b   10.01879779
_cell_length_c   10.01879700
_cell_angle_alpha   59.99999929
_cell_angle_beta   59.99999833
_cell_angle_gamma   59.99999794
_symmetry_Int_Tables_number   1
_chemical_formula_structural   Pr4CdOs
_chemical_formula_sum   'Pr16 Cd4 Os4'
_cell_volume   711.10179395
_cell_formula_units_Z   4
loop_
 _symmetry_equiv_pos_site_id
 _symmetry_equiv_pos_as_xyz
  1  'x, y, z'
loop_
 _atom_site_type_symbol
 _atom_site_label
 _atom_site_symmetry_multiplicity
 _atom_site_fract_x
 _atom_site_fract_y
 _atom_site_fract_z
 _atom_site_occupancy
  Pr  Pr0  1  0.346355  0.346355  0.346355  1
  Pr  Pr1  1  0.346355  0.346355  0.960935  1
  Pr  Pr2  1  0.346355  0.960935  0.346355  1
  Pr  Pr3  1  0.960935  0.346355  0.346355  1
  Pr  Pr4  1  0.808810  0.191190  0.191190  1
  Pr  Pr5  1  0.191190  0.808810  0.808810  1
  Pr  Pr6  1  0.191190  0.808810  0.191190  1
  Pr  Pr7  1  0.808810  0.191190  0.808810  1
  Pr  Pr8  1  0.191190  0.191190  0.808810  1
  Pr  Pr9  1  0.808810  0.808810  0.191190  1
  Pr  Pr10  1  0.941384  0.558616  0.558616  1
  Pr  Pr11  1  0.558616  0.941384  0.941384  1
  Pr  Pr12  1  0.558616  0.941384  0.558616  1
  Pr  Pr13  1  0.941384  0.558616  0.941384  1
  Pr  Pr14  1  0.558616  0.558616  0.941384  1
  Pr  Pr15  1  0.941384  0.941384  0.558616  1
  Cd  Cd16  1  0.579273  0.579273  0.579273  1
  Cd  Cd17  1  0.579273  0.579273  0.262181  1
  Cd  Cd18  1  0.579273  0.262181  0.579273  1
  Cd  Cd19  1  0.262181  0.579273  0.579273  1
  Os  Os20  1  0.138006  0.138006  0.138006  1
  Os  Os21  1  0.138006  0.138006  0.585981  1
  Os  Os22  1  0.138006  0.585981  0.138006  1
  Os  Os23  1  0.585981  0.138006  0.138006  1
