# generated using pymatgen
data_Hf(ZrPb)4
_symmetry_space_group_name_H-M   'P 1'
_cell_length_a   9.00560900
_cell_length_b   9.00560860
_cell_length_c   6.06281500
_cell_angle_alpha   90.00000000
_cell_angle_beta   90.00000000
_cell_angle_gamma   119.99999779
_symmetry_Int_Tables_number   1
_chemical_formula_structural   Hf(ZrPb)4
_chemical_formula_sum   'Hf2 Zr8 Pb8'
_cell_volume   425.82495857
_cell_formula_units_Z   2
loop_
 _symmetry_equiv_pos_site_id
 _symmetry_equiv_pos_as_xyz
  1  'x, y, z'
loop_
 _atom_site_type_symbol
 _atom_site_label
 _atom_site_symmetry_multiplicity
 _atom_site_fract_x
 _atom_site_fract_y
 _atom_site_fract_z
 _atom_site_occupancy
  Hf  Hf0  1  0.666667  0.333333  0.000000  1
  Hf  Hf1  1  0.333333  0.666667  0.500000  1
  Zr  Zr2  1  0.333333  0.666667  0.000000  1
  Zr  Zr3  1  0.666667  0.333333  0.500000  1
  Zr  Zr4  1  0.282613  0.000000  0.250000  1
  Zr  Zr5  1  0.282613  0.282613  0.750000  1
  Zr  Zr6  1  0.000000  0.717387  0.750000  1
  Zr  Zr7  1  0.000000  0.282613  0.250000  1
  Zr  Zr8  1  0.717387  0.717387  0.250000  1
  Zr  Zr9  1  0.717387  0.000000  0.750000  1
  Pb  Pb10  1  0.000000  0.000000  0.000000  1
  Pb  Pb11  1  0.000000  0.000000  0.500000  1
  Pb  Pb12  1  0.615004  0.000000  0.250000  1
  Pb  Pb13  1  0.615004  0.615004  0.750000  1
  Pb  Pb14  1  0.000000  0.384996  0.750000  1
  Pb  Pb15  1  0.000000  0.615004  0.250000  1
  Pb  Pb16  1  0.384996  0.384996  0.250000  1
  Pb  Pb17  1  0.384996  0.000000  0.750000  1
