# generated using pymatgen
data_YHoEr8In8IrPd3
_symmetry_space_group_name_H-M   'P 1'
_cell_length_a   3.60185800
_cell_length_b   8.11684341
_cell_length_c   18.20245010
_cell_angle_alpha   90.03982983
_cell_angle_beta   90.00000000
_cell_angle_gamma   90.00000000
_symmetry_Int_Tables_number   1
_chemical_formula_structural   YHoEr8In8IrPd3
_chemical_formula_sum   'Y1 Ho1 Er8 In8 Ir1 Pd3'
_cell_volume   532.16155795
_cell_formula_units_Z   1
loop_
 _symmetry_equiv_pos_site_id
 _symmetry_equiv_pos_as_xyz
  1  'x, y, z'
loop_
 _atom_site_type_symbol
 _atom_site_label
 _atom_site_symmetry_multiplicity
 _atom_site_fract_x
 _atom_site_fract_y
 _atom_site_fract_z
 _atom_site_occupancy
  Y  Y0  1  0.000000  0.000644  0.000868  1
  Ho  Ho1  1  0.000000  0.500300  0.499816  1
  Er  Er2  1  0.000000  0.729690  0.277542  1
  Er  Er3  1  0.000000  0.259685  0.719327  1
  Er  Er4  1  0.000000  0.759072  0.779684  1
  Er  Er5  1  0.000000  0.254844  0.220399  1
  Er  Er6  1  0.000000  0.615819  0.087234  1
  Er  Er7  1  0.000000  0.382638  0.916305  1
  Er  Er8  1  0.000000  0.882267  0.583328  1
  Er  Er9  1  0.000000  0.116989  0.415163  1
  In  In10  1  0.500000  0.707070  0.932234  1
  In  In11  1  0.500000  0.294449  0.068302  1
  In  In12  1  0.500000  0.791916  0.432250  1
  In  In13  1  0.500000  0.206743  0.566858  1
  In  In14  1  0.500000  0.577736  0.649153  1
  In  In15  1  0.500000  0.423200  0.351808  1
  In  In16  1  0.500000  0.924646  0.150541  1
  In  In17  1  0.500000  0.078507  0.849877  1
  Ir  Ir18  1  0.500000  0.520964  0.195939  1
  Pd  Pd19  1  0.500000  0.475840  0.803810  1
  Pd  Pd20  1  0.500000  0.976179  0.695695  1
  Pd  Pd21  1  0.500000  0.020801  0.303864  1
