# generated using pymatgen
data_CeDy2In3Ir2Rh
_symmetry_space_group_name_H-M   'P 1'
_cell_length_a   7.56056516
_cell_length_b   7.72820438
_cell_length_c   3.88018000
_cell_angle_alpha   90.00000000
_cell_angle_beta   90.00000000
_cell_angle_gamma   120.73621340
_symmetry_Int_Tables_number   1
_chemical_formula_structural   CeDy2In3Ir2Rh
_chemical_formula_sum   'Ce1 Dy2 In3 Ir2 Rh1'
_cell_volume   194.87022001
_cell_formula_units_Z   1
loop_
 _symmetry_equiv_pos_site_id
 _symmetry_equiv_pos_as_xyz
  1  'x, y, z'
loop_
 _atom_site_type_symbol
 _atom_site_label
 _atom_site_symmetry_multiplicity
 _atom_site_fract_x
 _atom_site_fract_y
 _atom_site_fract_z
 _atom_site_occupancy
  Ce  Ce0  1  0.000000  0.580166  0.000000  1
  Dy  Dy1  1  0.408422  0.409176  0.000000  1
  Dy  Dy2  1  0.591578  0.000753  0.000000  1
  In  In3  1  0.000000  0.247762  0.500000  1
  In  In4  1  0.739075  0.744404  0.500000  1
  In  In5  1  0.260925  0.005330  0.500000  1
  Ir  Ir6  1  0.319502  0.666305  0.500000  1
  Ir  Ir7  1  0.680498  0.346802  0.500000  1
  Rh  Rh8  1  0.000000  0.999301  0.000000  1
