# generated using pymatgen
data_La2Dy2Y16Si15Os
_symmetry_space_group_name_H-M   'P 1'
_cell_length_a   7.45710358
_cell_length_b   7.81243219
_cell_length_c   14.71944898
_cell_angle_alpha   89.68577883
_cell_angle_beta   89.96047281
_cell_angle_gamma   89.95491240
_symmetry_Int_Tables_number   1
_chemical_formula_structural   La2Dy2Y16Si15Os
_chemical_formula_sum   'La2 Dy2 Y16 Si15 Os1'
_cell_volume   857.51400513
_cell_formula_units_Z   1
loop_
 _symmetry_equiv_pos_site_id
 _symmetry_equiv_pos_as_xyz
  1  'x, y, z'
loop_
 _atom_site_type_symbol
 _atom_site_label
 _atom_site_symmetry_multiplicity
 _atom_site_fract_x
 _atom_site_fract_y
 _atom_site_fract_z
 _atom_site_occupancy
  La  La0  1  0.522587  0.569218  0.342353  1
  La  La1  1  0.024109  0.428411  0.657918  1
  Dy  Dy2  1  0.805781  0.576927  0.877862  1
  Dy  Dy3  1  0.324628  0.432171  0.123093  1
  Y  Y4  1  0.183546  0.928231  0.372710  1
  Y  Y5  1  0.682803  0.069395  0.626956  1
  Y  Y6  1  0.183544  0.927433  0.628791  1
  Y  Y7  1  0.682270  0.070350  0.371746  1
  Y  Y8  1  0.809784  0.573977  0.123442  1
  Y  Y9  1  0.326889  0.436273  0.875359  1
  Y  Y10  1  0.643750  0.239078  0.999628  1
  Y  Y11  1  0.158483  0.761335  0.000398  1
  Y  Y12  1  0.350441  0.263754  0.499782  1
  Y  Y13  1  0.849384  0.734386  0.499970  1
  Y  Y14  1  0.477475  0.925049  0.849024  1
  Y  Y15  1  0.973278  0.065983  0.151262  1
  Y  Y16  1  0.475958  0.925322  0.150380  1
  Y  Y17  1  0.971847  0.066684  0.849598  1
  Y  Y18  1  0.528499  0.564965  0.652172  1
  Y  Y19  1  0.027245  0.433562  0.347349  1
  Si  Si20  1  0.018828  0.350117  0.999500  1
  Si  Si21  1  0.475976  0.858467  0.501043  1
  Si  Si22  1  0.978645  0.140140  0.499109  1
  Si  Si23  1  0.652444  0.275788  0.789627  1
  Si  Si24  1  0.146787  0.720991  0.209952  1
  Si  Si25  1  0.352344  0.216034  0.286775  1
  Si  Si26  1  0.850442  0.783662  0.713218  1
  Si  Si27  1  0.362361  0.219509  0.711741  1
  Si  Si28  1  0.859127  0.780470  0.288318  1
  Si  Si29  1  0.648520  0.268222  0.207262  1
  Si  Si30  1  0.141167  0.728419  0.792739  1
  Si  Si31  1  0.767156  0.882928  0.000304  1
  Si  Si32  1  0.257909  0.126466  0.999606  1
  Si  Si33  1  0.232964  0.626365  0.501992  1
  Si  Si34  1  0.734149  0.373677  0.498735  1
  Os  Os35  1  0.518878  0.656242  0.000281  1
