# generated using pymatgen
data_CsHoBeF6
_symmetry_space_group_name_H-M   'P 1'
_cell_length_a   5.93078900
_cell_length_b   6.68749234
_cell_length_c   7.55351863
_cell_angle_alpha   64.92442046
_cell_angle_beta   90.00000000
_cell_angle_gamma   90.00000000
_symmetry_Int_Tables_number   1
_chemical_formula_structural   CsHoBeF6
_chemical_formula_sum   'Cs2 Ho2 Be2 F12'
_cell_volume   271.35210021
_cell_formula_units_Z   2
loop_
 _symmetry_equiv_pos_site_id
 _symmetry_equiv_pos_as_xyz
  1  'x, y, z'
loop_
 _atom_site_type_symbol
 _atom_site_label
 _atom_site_symmetry_multiplicity
 _atom_site_fract_x
 _atom_site_fract_y
 _atom_site_fract_z
 _atom_site_occupancy
  Cs  Cs0  1  0.250000  0.098233  0.778648  1
  Cs  Cs1  1  0.750000  0.901767  0.221352  1
  Ho  Ho2  1  0.250000  0.403163  0.177883  1
  Ho  Ho3  1  0.750000  0.596837  0.822117  1
  Be  Be4  1  0.250000  0.767164  0.467312  1
  Be  Be5  1  0.750000  0.232836  0.532688  1
  F  F6  1  0.464094  0.725808  0.600640  1
  F  F7  1  0.535906  0.274192  0.399360  1
  F  F8  1  0.964094  0.274192  0.399360  1
  F  F9  1  0.035906  0.725808  0.600640  1
  F  F10  1  0.250000  0.613086  0.358416  1
  F  F11  1  0.750000  0.386914  0.641584  1
  F  F12  1  0.499601  0.677174  0.013182  1
  F  F13  1  0.500399  0.322826  0.986818  1
  F  F14  1  0.999601  0.322826  0.986818  1
  F  F15  1  0.000399  0.677174  0.013182  1
  F  F16  1  0.250000  0.013605  0.305325  1
  F  F17  1  0.750000  0.986395  0.694675  1
