# generated using pymatgen
data_Ta(TiSi)4
_symmetry_space_group_name_H-M   'P 1'
_cell_length_a   6.72423500
_cell_length_b   6.72423500
_cell_length_c   12.28484700
_cell_angle_alpha   90.00000000
_cell_angle_beta   90.00000000
_cell_angle_gamma   90.00000000
_symmetry_Int_Tables_number   1
_chemical_formula_structural   Ta(TiSi)4
_chemical_formula_sum   'Ta4 Ti16 Si16'
_cell_volume   555.46348893
_cell_formula_units_Z   4
loop_
 _symmetry_equiv_pos_site_id
 _symmetry_equiv_pos_as_xyz
  1  'x, y, z'
loop_
 _atom_site_type_symbol
 _atom_site_label
 _atom_site_symmetry_multiplicity
 _atom_site_fract_x
 _atom_site_fract_y
 _atom_site_fract_z
 _atom_site_occupancy
  Ta  Ta0  1  0.171169  0.171169  0.000000  1
  Ta  Ta1  1  0.328831  0.671169  0.250000  1
  Ta  Ta2  1  0.671169  0.328831  0.750000  1
  Ta  Ta3  1  0.828831  0.828831  0.500000  1
  Ti  Ti4  1  0.995005  0.149417  0.621603  1
  Ti  Ti5  1  0.350583  0.495005  0.871603  1
  Ti  Ti6  1  0.649417  0.504995  0.371603  1
  Ti  Ti7  1  0.495005  0.350583  0.128397  1
  Ti  Ti8  1  0.504995  0.649417  0.628397  1
  Ti  Ti9  1  0.004995  0.850583  0.121603  1
  Ti  Ti10  1  0.149417  0.995005  0.378397  1
  Ti  Ti11  1  0.850583  0.004995  0.878397  1
  Ti  Ti12  1  0.003916  0.344311  0.219314  1
  Ti  Ti13  1  0.155689  0.503916  0.469314  1
  Ti  Ti14  1  0.844311  0.496084  0.969314  1
  Ti  Ti15  1  0.503916  0.155689  0.530686  1
  Ti  Ti16  1  0.496084  0.844311  0.030686  1
  Ti  Ti17  1  0.996084  0.655689  0.719314  1
  Ti  Ti18  1  0.344311  0.003916  0.780686  1
  Ti  Ti19  1  0.655689  0.996084  0.280686  1
  Si  Si20  1  0.046057  0.301525  0.812119  1
  Si  Si21  1  0.198475  0.546057  0.062119  1
  Si  Si22  1  0.801525  0.453943  0.562119  1
  Si  Si23  1  0.546057  0.198475  0.937881  1
  Si  Si24  1  0.453943  0.801525  0.437881  1
  Si  Si25  1  0.953943  0.698475  0.312119  1
  Si  Si26  1  0.301525  0.046057  0.187881  1
  Si  Si27  1  0.698475  0.953943  0.687881  1
  Si  Si28  1  0.293825  0.358044  0.672226  1
  Si  Si29  1  0.141956  0.793825  0.922226  1
  Si  Si30  1  0.858044  0.206175  0.422226  1
  Si  Si31  1  0.793825  0.141956  0.077774  1
  Si  Si32  1  0.206175  0.858044  0.577774  1
  Si  Si33  1  0.706175  0.641956  0.172226  1
  Si  Si34  1  0.358044  0.293825  0.327774  1
  Si  Si35  1  0.641956  0.706175  0.827774  1
