# generated using pymatgen
data_Ba2TbB2ClO6
_symmetry_space_group_name_H-M   'P 1'
_cell_length_a   6.49282382
_cell_length_b   5.36212700
_cell_length_c   11.51066169
_cell_angle_alpha   90.00000000
_cell_angle_beta   95.81251050
_cell_angle_gamma   90.00000000
_symmetry_Int_Tables_number   1
_chemical_formula_structural   Ba2TbB2ClO6
_chemical_formula_sum   'Ba4 Tb2 B4 Cl2 O12'
_cell_volume   398.68727209
_cell_formula_units_Z   2
loop_
 _symmetry_equiv_pos_site_id
 _symmetry_equiv_pos_as_xyz
  1  'x, y, z'
loop_
 _atom_site_type_symbol
 _atom_site_label
 _atom_site_symmetry_multiplicity
 _atom_site_fract_x
 _atom_site_fract_y
 _atom_site_fract_z
 _atom_site_occupancy
  Ba  Ba0  1  0.339354  0.250000  0.075018  1
  Ba  Ba1  1  0.903897  0.750001  0.293193  1
  Ba  Ba2  1  0.096102  0.250000  0.706807  1
  Ba  Ba3  1  0.660647  0.750001  0.924983  1
  Tb  Tb4  1  0.345838  0.250000  0.412044  1
  Tb  Tb5  1  0.654162  0.750001  0.587956  1
  B  B6  1  0.374450  0.750001  0.224446  1
  B  B7  1  0.788798  0.250000  0.426923  1
  B  B8  1  0.211202  0.750001  0.573077  1
  B  B9  1  0.625549  0.250000  0.775553  1
  Cl  Cl10  1  0.848839  0.250000  0.085368  1
  Cl  Cl11  1  0.151161  0.750001  0.914631  1
  O  O12  1  0.522415  0.750001  0.145865  1
  O  O13  1  0.290265  0.528239  0.261700  1
  O  O14  1  0.290265  0.971762  0.261700  1
  O  O15  1  0.991068  0.250000  0.404828  1
  O  O16  1  0.674962  0.030672  0.434821  1
  O  O17  1  0.674962  0.469329  0.434821  1
  O  O18  1  0.325037  0.530671  0.565178  1
  O  O19  1  0.325037  0.969328  0.565178  1
  O  O20  1  0.008933  0.750001  0.595172  1
  O  O21  1  0.709735  0.028238  0.738299  1
  O  O22  1  0.709735  0.471761  0.738299  1
  O  O23  1  0.477584  0.250000  0.854135  1
