# generated using pymatgen
data_NbNiBiF12
_symmetry_space_group_name_H-M   'P 1'
_cell_length_a   5.56990174
_cell_length_b   11.45266388
_cell_length_c   5.62729700
_cell_angle_alpha   57.73379439
_cell_angle_beta   57.66778176
_cell_angle_gamma   59.01647263
_symmetry_Int_Tables_number   1
_chemical_formula_structural   NbNiBiF12
_chemical_formula_sum   'Nb1 Ni1 Bi1 F12'
_cell_volume   242.91066731
_cell_formula_units_Z   1
loop_
 _symmetry_equiv_pos_site_id
 _symmetry_equiv_pos_as_xyz
  1  'x, y, z'
loop_
 _atom_site_type_symbol
 _atom_site_label
 _atom_site_symmetry_multiplicity
 _atom_site_fract_x
 _atom_site_fract_y
 _atom_site_fract_z
 _atom_site_occupancy
  Nb  Nb0  1  0.981083  0.494978  0.024214  1
  Ni  Ni1  1  0.500952  0.748588  0.500997  1
  Bi  Bi2  1  0.023495  0.004515  0.972734  1
  F  F3  1  0.414481  0.045221  0.759769  1
  F  F4  1  0.303309  0.589827  0.764725  1
  F  F5  1  0.110505  0.389830  0.351223  1
  F  F6  1  0.148172  0.866782  0.354065  1
  F  F7  1  0.220889  0.348327  0.859268  1
  F  F8  1  0.250557  0.817108  0.857914  1
  F  F9  1  0.912002  0.112146  0.604713  1
  F  F10  1  0.826759  0.630620  0.678889  1
  F  F11  1  0.629036  0.445217  0.235126  1
  F  F12  1  0.663477  0.920439  0.239116  1
  F  F13  1  0.767851  0.171064  0.124696  1
  F  F14  1  0.747430  0.665335  0.172553  1
