# generated using pymatgen
data_K6ScAlSb4
_symmetry_space_group_name_H-M   'P 1'
_cell_length_a   9.61617733
_cell_length_b   9.61617762
_cell_length_c   9.61617654
_cell_angle_alpha   127.45798165
_cell_angle_beta   70.20578817
_cell_angle_gamma   136.92526005
_symmetry_Int_Tables_number   1
_chemical_formula_structural   K6ScAlSb4
_chemical_formula_sum   'K6 Sc1 Al1 Sb4'
_cell_volume   472.83234017
_cell_formula_units_Z   1
loop_
 _symmetry_equiv_pos_site_id
 _symmetry_equiv_pos_as_xyz
  1  'x, y, z'
loop_
 _atom_site_type_symbol
 _atom_site_label
 _atom_site_symmetry_multiplicity
 _atom_site_fract_x
 _atom_site_fract_y
 _atom_site_fract_z
 _atom_site_occupancy
  K  K0  1  0.812289  0.183225  0.006058  1
  K  K1  1  0.687712  0.693770  0.370935  1
  K  K2  1  0.750000  0.250000  0.500000  1
  K  K3  1  0.250000  0.750000  0.499999  1
  K  K4  1  0.322835  0.316776  0.629064  1
  K  K5  1  0.177165  0.806231  0.993942  1
  Sc  Sc6  1  0.250000  0.250000  0.000000  1
  Al  Al7  1  0.750000  0.750000  0.000000  1
  Sb  Sb8  1  0.413359  0.700922  0.092433  1
  Sb  Sb9  1  0.086640  0.179074  0.287563  1
  Sb  Sb10  1  0.891510  0.799077  0.712438  1
  Sb  Sb11  1  0.608489  0.320926  0.907566  1
