# generated using pymatgen
data_Eu6Cr2HN6
_symmetry_space_group_name_H-M   'P 1'
_cell_length_a   6.21813249
_cell_length_b   6.21813222
_cell_length_c   6.21813183
_cell_angle_alpha   96.04170511
_cell_angle_beta   96.04170556
_cell_angle_gamma   96.04170018
_symmetry_Int_Tables_number   1
_chemical_formula_structural   Eu6Cr2HN6
_chemical_formula_sum   'Eu6 Cr2 H1 N6'
_cell_volume   236.11092108
_cell_formula_units_Z   1
loop_
 _symmetry_equiv_pos_site_id
 _symmetry_equiv_pos_as_xyz
  1  'x, y, z'
loop_
 _atom_site_type_symbol
 _atom_site_label
 _atom_site_symmetry_multiplicity
 _atom_site_fract_x
 _atom_site_fract_y
 _atom_site_fract_z
 _atom_site_occupancy
  Eu  Eu0  1  0.628323  0.110583  0.784778  1
  Eu  Eu1  1  0.110583  0.784778  0.628323  1
  Eu  Eu2  1  0.784778  0.628323  0.110583  1
  Eu  Eu3  1  0.371677  0.889417  0.215222  1
  Eu  Eu4  1  0.889417  0.215222  0.371677  1
  Eu  Eu5  1  0.215222  0.371677  0.889417  1
  Cr  Cr6  1  0.618675  0.618675  0.618675  1
  Cr  Cr7  1  0.381325  0.381325  0.381325  1
  H  H8  1  0.000000  0.000000  0.000000  1
  N  N9  1  0.723911  0.845790  0.476659  1
  N  N10  1  0.845790  0.476659  0.723911  1
  N  N11  1  0.476659  0.723911  0.845790  1
  N  N12  1  0.276089  0.154210  0.523341  1
  N  N13  1  0.154210  0.523341  0.276089  1
  N  N14  1  0.523341  0.276089  0.154210  1
