# generated using pymatgen
data_Tb3ErGa3SiRu4
_symmetry_space_group_name_H-M   'P 1'
_cell_length_a   4.46459700
_cell_length_b   7.13892637
_cell_length_c   7.15351029
_cell_angle_alpha   90.13276943
_cell_angle_beta   90.00000000
_cell_angle_gamma   90.00000000
_symmetry_Int_Tables_number   1
_chemical_formula_structural   Tb3ErGa3SiRu4
_chemical_formula_sum   'Tb3 Er1 Ga3 Si1 Ru4'
_cell_volume   227.99913843
_cell_formula_units_Z   1
loop_
 _symmetry_equiv_pos_site_id
 _symmetry_equiv_pos_as_xyz
  1  'x, y, z'
loop_
 _atom_site_type_symbol
 _atom_site_label
 _atom_site_symmetry_multiplicity
 _atom_site_fract_x
 _atom_site_fract_y
 _atom_site_fract_z
 _atom_site_occupancy
  Tb  Tb0  1  0.250000  0.985165  0.807130  1
  Tb  Tb1  1  0.750000  0.016103  0.196298  1
  Tb  Tb2  1  0.750000  0.514663  0.306665  1
  Er  Er3  1  0.250000  0.477200  0.695498  1
  Ga  Ga4  1  0.250000  0.303134  0.106689  1
  Ga  Ga5  1  0.750000  0.693551  0.891472  1
  Ga  Ga6  1  0.250000  0.800358  0.397444  1
  Si  Si7  1  0.750000  0.197411  0.602079  1
  Ru  Ru8  1  0.750000  0.857337  0.565090  1
  Ru  Ru9  1  0.250000  0.163153  0.447434  1
  Ru  Ru10  1  0.750000  0.332143  0.920326  1
  Ru  Ru11  1  0.250000  0.659782  0.063875  1
