# generated using pymatgen
data_TbLuCo12SiP6
_symmetry_space_group_name_H-M   'P 1'
_cell_length_a   8.99285700
_cell_length_b   8.99285672
_cell_length_c   3.56629100
_cell_angle_alpha   90.00000000
_cell_angle_beta   90.00000000
_cell_angle_gamma   120.00000472
_symmetry_Int_Tables_number   1
_chemical_formula_structural   TbLuCo12SiP6
_chemical_formula_sum   'Tb1 Lu1 Co12 Si1 P6'
_cell_volume   249.77142412
_cell_formula_units_Z   1
loop_
 _symmetry_equiv_pos_site_id
 _symmetry_equiv_pos_as_xyz
  1  'x, y, z'
loop_
 _atom_site_type_symbol
 _atom_site_label
 _atom_site_symmetry_multiplicity
 _atom_site_fract_x
 _atom_site_fract_y
 _atom_site_fract_z
 _atom_site_occupancy
  Tb  Tb0  1  0.000000  0.000000  0.000000  1
  Lu  Lu1  1  0.333333  0.666667  0.500000  1
  Co  Co2  1  0.102003  0.395731  0.000000  1
  Co  Co3  1  0.604269  0.706272  0.000000  1
  Co  Co4  1  0.293728  0.897997  0.000000  1
  Co  Co5  1  0.053312  0.768630  0.500000  1
  Co  Co6  1  0.231370  0.284681  0.500000  1
  Co  Co7  1  0.715319  0.946688  0.500000  1
  Co  Co8  1  0.825637  0.614157  0.000000  1
  Co  Co9  1  0.385843  0.211479  0.000000  1
  Co  Co10  1  0.788521  0.174363  0.000000  1
  Co  Co11  1  0.898858  0.435440  0.500000  1
  Co  Co12  1  0.564560  0.463417  0.500000  1
  Co  Co13  1  0.536583  0.101142  0.500000  1
  Si  Si14  1  0.666667  0.333333  0.000000  1
  P  P15  1  0.777944  0.734884  0.500000  1
  P  P16  1  0.265116  0.043060  0.500000  1
  P  P17  1  0.956940  0.222056  0.500000  1
  P  P18  1  0.074997  0.627360  0.000000  1
  P  P19  1  0.372640  0.447637  0.000000  1
  P  P20  1  0.552363  0.925003  0.000000  1
