# generated using pymatgen
data_Lu4Th4B24Mo3W
_symmetry_space_group_name_H-M   'P 1'
_cell_length_a   3.75983100
_cell_length_b   9.24158501
_cell_length_c   11.69502115
_cell_angle_alpha   90.01193234
_cell_angle_beta   90.00000000
_cell_angle_gamma   90.00000000
_symmetry_Int_Tables_number   1
_chemical_formula_structural   Lu4Th4B24Mo3W
_chemical_formula_sum   'Lu4 Th4 B24 Mo3 W1'
_cell_volume   406.36452643
_cell_formula_units_Z   1
loop_
 _symmetry_equiv_pos_site_id
 _symmetry_equiv_pos_as_xyz
  1  'x, y, z'
loop_
 _atom_site_type_symbol
 _atom_site_label
 _atom_site_symmetry_multiplicity
 _atom_site_fract_x
 _atom_site_fract_y
 _atom_site_fract_z
 _atom_site_occupancy
  Lu  Lu0  1  0.000000  0.943878  0.370883  1
  Lu  Lu1  1  0.000000  0.056407  0.628888  1
  Lu  Lu2  1  0.000000  0.444050  0.129048  1
  Lu  Lu3  1  0.000000  0.555543  0.870922  1
  Th  Th4  1  0.000000  0.321524  0.414717  1
  Th  Th5  1  0.000000  0.678296  0.585288  1
  Th  Th6  1  0.000000  0.821470  0.085580  1
  Th  Th7  1  0.000000  0.178801  0.914670  1
  B  B8  1  0.500000  0.554961  0.430741  1
  B  B9  1  0.500000  0.444956  0.569491  1
  B  B10  1  0.500000  0.054902  0.069187  1
  B  B11  1  0.500000  0.945104  0.930846  1
  B  B12  1  0.500000  0.752770  0.416500  1
  B  B13  1  0.500000  0.247353  0.583750  1
  B  B14  1  0.500000  0.252805  0.083509  1
  B  B15  1  0.500000  0.747159  0.916541  1
  B  B16  1  0.500000  0.793756  0.265631  1
  B  B17  1  0.500000  0.206347  0.734444  1
  B  B18  1  0.500000  0.293674  0.234317  1
  B  B19  1  0.500000  0.706030  0.765498  1
  B  B20  1  0.500000  0.629203  0.184443  1
  B  B21  1  0.500000  0.370868  0.815518  1
  B  B22  1  0.500000  0.129091  0.315483  1
  B  B23  1  0.500000  0.870868  0.684307  1
  B  B24  1  0.500000  0.982478  0.214598  1
  B  B25  1  0.500000  0.017746  0.785307  1
  B  B26  1  0.500000  0.482558  0.285300  1
  B  B27  1  0.500000  0.517315  0.714720  1
  B  B28  1  0.500000  0.596816  0.026601  1
  B  B29  1  0.500000  0.403329  0.973240  1
  B  B30  1  0.500000  0.096670  0.473362  1
  B  B31  1  0.500000  0.903372  0.526758  1
  Mo  Mo32  1  0.000000  0.640055  0.319060  1
  Mo  Mo33  1  0.000000  0.359880  0.680971  1
  Mo  Mo34  1  0.000000  0.140021  0.180822  1
  W  W35  1  0.000000  0.859944  0.819057  1
