# generated using pymatgen
data_La(CoO2)8
_symmetry_space_group_name_H-M   'P 1'
_cell_length_a   5.68538441
_cell_length_b   6.63802023
_cell_length_c   6.90553762
_cell_angle_alpha   92.14890258
_cell_angle_beta   78.16260630
_cell_angle_gamma   77.57480760
_symmetry_Int_Tables_number   1
_chemical_formula_structural   La(CoO2)8
_chemical_formula_sum   'La1 Co8 O16'
_cell_volume   248.18610728
_cell_formula_units_Z   1
loop_
 _symmetry_equiv_pos_site_id
 _symmetry_equiv_pos_as_xyz
  1  'x, y, z'
loop_
 _atom_site_type_symbol
 _atom_site_label
 _atom_site_symmetry_multiplicity
 _atom_site_fract_x
 _atom_site_fract_y
 _atom_site_fract_z
 _atom_site_occupancy
  La  La0  1  0.004865  0.998413  0.001771  1
  Co  Co1  1  0.582484  0.508262  0.180719  1
  Co  Co2  1  0.083731  0.502657  0.181076  1
  Co  Co3  1  0.169023  0.818411  0.523650  1
  Co  Co4  1  0.667012  0.815771  0.534700  1
  Co  Co5  1  0.340974  0.184327  0.467271  1
  Co  Co6  1  0.838895  0.183623  0.476294  1
  Co  Co7  1  0.425607  0.491476  0.818634  1
  Co  Co8  1  0.926563  0.496467  0.817683  1
  O  O9  1  0.828285  0.654182  0.067540  1
  O  O10  1  0.319534  0.655008  0.066389  1
  O  O11  1  0.982097  0.676648  0.404567  1
  O  O12  1  0.485378  0.678749  0.403741  1
  O  O13  1  0.850906  0.975626  0.659564  1
  O  O14  1  0.341581  0.978168  0.653933  1
  O  O15  1  0.353498  0.351304  0.259759  1
  O  O16  1  0.854456  0.336839  0.253279  1
  O  O17  1  0.153092  0.664487  0.748039  1
  O  O18  1  0.657119  0.647399  0.733576  1
  O  O19  1  0.155894  0.025969  0.339980  1
  O  O20  1  0.667583  0.020015  0.348561  1
  O  O21  1  0.026331  0.323783  0.595656  1
  O  O22  1  0.522877  0.320471  0.596057  1
  O  O23  1  0.180161  0.345929  0.933249  1
  O  O24  1  0.689152  0.346022  0.934310  1
