# generated using pymatgen
data_La3(EuRu)2
_symmetry_space_group_name_H-M   'P 1'
_cell_length_a   8.98337999
_cell_length_b   8.98338035
_cell_length_c   7.44123000
_cell_angle_alpha   84.92320062
_cell_angle_beta   84.92320042
_cell_angle_gamma   44.57644418
_symmetry_Int_Tables_number   1
_chemical_formula_structural   La3(EuRu)2
_chemical_formula_sum   'La6 Eu4 Ru4'
_cell_volume   419.54612375
_cell_formula_units_Z   2
loop_
 _symmetry_equiv_pos_site_id
 _symmetry_equiv_pos_as_xyz
  1  'x, y, z'
loop_
 _atom_site_type_symbol
 _atom_site_label
 _atom_site_symmetry_multiplicity
 _atom_site_fract_x
 _atom_site_fract_y
 _atom_site_fract_z
 _atom_site_occupancy
  La  La0  1  0.363951  0.206698  0.823513  1
  La  La1  1  0.793302  0.636049  0.676487  1
  La  La2  1  0.636049  0.793302  0.176487  1
  La  La3  1  0.206698  0.363951  0.323513  1
  La  La4  1  0.572957  0.427043  0.750000  1
  La  La5  1  0.427043  0.572957  0.250000  1
  Eu  Eu6  1  0.013114  0.801985  0.905365  1
  Eu  Eu7  1  0.198015  0.986886  0.594635  1
  Eu  Eu8  1  0.986886  0.198015  0.094635  1
  Eu  Eu9  1  0.801985  0.013114  0.405365  1
  Ru  Ru10  1  0.195856  0.574115  0.546157  1
  Ru  Ru11  1  0.425885  0.804144  0.953843  1
  Ru  Ru12  1  0.804144  0.425885  0.453843  1
  Ru  Ru13  1  0.574115  0.195856  0.046157  1
