# generated using pymatgen
data_Ac10Sn6Se
_symmetry_space_group_name_H-M   'P 1'
_cell_length_a   9.97828500
_cell_length_b   9.97828759
_cell_length_c   7.35854700
_cell_angle_alpha   90.00000000
_cell_angle_beta   90.00000000
_cell_angle_gamma   119.99999472
_symmetry_Int_Tables_number   1
_chemical_formula_structural   Ac10Sn6Se
_chemical_formula_sum   'Ac10 Sn6 Se1'
_cell_volume   634.50440853
_cell_formula_units_Z   1
loop_
 _symmetry_equiv_pos_site_id
 _symmetry_equiv_pos_as_xyz
  1  'x, y, z'
loop_
 _atom_site_type_symbol
 _atom_site_label
 _atom_site_symmetry_multiplicity
 _atom_site_fract_x
 _atom_site_fract_y
 _atom_site_fract_z
 _atom_site_occupancy
  Ac  Ac0  1  0.666667  0.333333  0.500000  1
  Ac  Ac1  1  0.333333  0.666667  0.500000  1
  Ac  Ac2  1  0.333333  0.666667  0.000000  1
  Ac  Ac3  1  0.666667  0.333333  0.000000  1
  Ac  Ac4  1  0.749180  0.749180  0.245885  1
  Ac  Ac5  1  0.250820  0.000000  0.245885  1
  Ac  Ac6  1  0.000000  0.250820  0.245885  1
  Ac  Ac7  1  0.250820  0.250820  0.754115  1
  Ac  Ac8  1  0.749180  0.000000  0.754115  1
  Ac  Ac9  1  0.000000  0.749180  0.754115  1
  Sn  Sn10  1  0.392547  0.392547  0.249051  1
  Sn  Sn11  1  0.607453  0.000000  0.249051  1
  Sn  Sn12  1  0.000000  0.607453  0.249051  1
  Sn  Sn13  1  0.607453  0.607453  0.750949  1
  Sn  Sn14  1  0.392547  0.000000  0.750949  1
  Sn  Sn15  1  0.000000  0.392547  0.750949  1
  Se  Se16  1  0.000000  0.000000  0.500000  1
