# generated using pymatgen
data_LiTaCuRh3S8
_symmetry_space_group_name_H-M   'P 1'
_cell_length_a   6.90559999
_cell_length_b   6.90560011
_cell_length_c   6.90560002
_cell_angle_alpha   62.95318935
_cell_angle_beta   62.95318918
_cell_angle_gamma   62.95319310
_symmetry_Int_Tables_number   1
_chemical_formula_structural   LiTaCuRh3S8
_chemical_formula_sum   'Li1 Ta1 Cu1 Rh3 S8'
_cell_volume   248.12916717
_cell_formula_units_Z   1
loop_
 _symmetry_equiv_pos_site_id
 _symmetry_equiv_pos_as_xyz
  1  'x, y, z'
loop_
 _atom_site_type_symbol
 _atom_site_label
 _atom_site_symmetry_multiplicity
 _atom_site_fract_x
 _atom_site_fract_y
 _atom_site_fract_z
 _atom_site_occupancy
  Li  Li0  1  0.753783  0.753783  0.753783  1
  Ta  Ta1  1  0.100513  0.100513  0.100513  1
  Cu  Cu2  1  0.508539  0.508539  0.508539  1
  Rh  Rh3  1  0.128107  0.128107  0.630738  1
  Rh  Rh4  1  0.128107  0.630738  0.128107  1
  Rh  Rh5  1  0.630738  0.128107  0.128107  1
  S  S6  1  0.868149  0.366641  0.868149  1
  S  S7  1  0.362750  0.362750  0.912721  1
  S  S8  1  0.369040  0.369040  0.369040  1
  S  S9  1  0.912721  0.362750  0.362750  1
  S  S10  1  0.890013  0.890013  0.890013  1
  S  S11  1  0.366641  0.868149  0.868149  1
  S  S12  1  0.362750  0.912721  0.362750  1
  S  S13  1  0.868149  0.868149  0.366641  1
