# generated using pymatgen
data_DyY3Er4(CdPt)2
_symmetry_space_group_name_H-M   'P 1'
_cell_length_a   9.65309458
_cell_length_b   9.65309394
_cell_length_c   9.65302000
_cell_angle_alpha   60.00024652
_cell_angle_beta   60.00024872
_cell_angle_gamma   60.01344374
_symmetry_Int_Tables_number   1
_chemical_formula_structural   DyY3Er4(CdPt)2
_chemical_formula_sum   'Dy2 Y6 Er8 Cd4 Pt4'
_cell_volume   636.10239873
_cell_formula_units_Z   2
loop_
 _symmetry_equiv_pos_site_id
 _symmetry_equiv_pos_as_xyz
  1  'x, y, z'
loop_
 _atom_site_type_symbol
 _atom_site_label
 _atom_site_symmetry_multiplicity
 _atom_site_fract_x
 _atom_site_fract_y
 _atom_site_fract_z
 _atom_site_occupancy
  Dy  Dy0  1  0.352524  0.352524  0.351644  1
  Dy  Dy1  1  0.352524  0.352524  0.943307  1
  Y  Y2  1  0.936350  0.563487  0.563881  1
  Y  Y3  1  0.563487  0.936350  0.936282  1
  Y  Y4  1  0.563487  0.936350  0.563881  1
  Y  Y5  1  0.936350  0.563487  0.936282  1
  Y  Y6  1  0.564128  0.564128  0.935872  1
  Y  Y7  1  0.936778  0.936778  0.563222  1
  Er  Er8  1  0.353193  0.942329  0.352239  1
  Er  Er9  1  0.942329  0.353193  0.352239  1
  Er  Er10  1  0.811504  0.188703  0.189017  1
  Er  Er11  1  0.188703  0.811504  0.810776  1
  Er  Er12  1  0.188703  0.811504  0.189017  1
  Er  Er13  1  0.811504  0.188703  0.810776  1
  Er  Er14  1  0.189040  0.189040  0.810960  1
  Er  Er15  1  0.811292  0.811292  0.188708  1
  Cd  Cd16  1  0.581654  0.581654  0.581456  1
  Cd  Cd17  1  0.581654  0.581654  0.255235  1
  Cd  Cd18  1  0.581822  0.254751  0.581714  1
  Cd  Cd19  1  0.254751  0.581822  0.581714  1
  Pt  Pt20  1  0.142656  0.142656  0.144743  1
  Pt  Pt21  1  0.142656  0.142656  0.569946  1
  Pt  Pt22  1  0.141585  0.571328  0.143544  1
  Pt  Pt23  1  0.571328  0.141585  0.143544  1
