# generated using pymatgen
data_TbLuZr2(Al3Ir)6
_symmetry_space_group_name_H-M   'P 1'
_cell_length_a   7.52462632
_cell_length_b   7.51006033
_cell_length_c   9.35739400
_cell_angle_alpha   90.00000000
_cell_angle_beta   90.00000000
_cell_angle_gamma   119.71356385
_symmetry_Int_Tables_number   1
_chemical_formula_structural   TbLuZr2(Al3Ir)6
_chemical_formula_sum   'Tb1 Lu1 Zr2 Al18 Ir6'
_cell_volume   459.26167124
_cell_formula_units_Z   1
loop_
 _symmetry_equiv_pos_site_id
 _symmetry_equiv_pos_as_xyz
  1  'x, y, z'
loop_
 _atom_site_type_symbol
 _atom_site_label
 _atom_site_symmetry_multiplicity
 _atom_site_fract_x
 _atom_site_fract_y
 _atom_site_fract_z
 _atom_site_occupancy
  Tb  Tb0  1  0.670285  0.993944  0.250000  1
  Lu  Lu1  1  0.328599  0.005729  0.750000  1
  Zr  Zr2  1  0.995543  0.671902  0.250000  1
  Zr  Zr3  1  0.005023  0.328535  0.750000  1
  Al  Al4  1  0.127250  0.125148  0.250000  1
  Al  Al5  1  0.874618  0.875489  0.750000  1
  Al  Al6  1  0.000466  0.337501  0.073852  1
  Al  Al7  1  0.000791  0.663603  0.923996  1
  Al  Al8  1  0.000791  0.663603  0.576004  1
  Al  Al9  1  0.332020  0.998974  0.423621  1
  Al  Al10  1  0.000466  0.337501  0.426148  1
  Al  Al11  1  0.666813  0.001257  0.579604  1
  Al  Al12  1  0.666813  0.001257  0.920396  1
  Al  Al13  1  0.332020  0.998974  0.076379  1
  Al  Al14  1  0.331507  0.333110  0.557397  1
  Al  Al15  1  0.668644  0.665815  0.444738  1
  Al  Al16  1  0.668644  0.665815  0.055262  1
  Al  Al17  1  0.331507  0.333110  0.942603  1
  Al  Al18  1  0.333779  0.547099  0.250000  1
  Al  Al19  1  0.664657  0.450960  0.750000  1
  Al  Al20  1  0.553964  0.344054  0.250000  1
  Al  Al21  1  0.445319  0.656717  0.750000  1
  Ir  Ir22  1  0.671812  0.327519  0.998860  1
  Ir  Ir23  1  0.327484  0.672218  0.000048  1
  Ir  Ir24  1  0.327484  0.672218  0.499952  1
  Ir  Ir25  1  0.671812  0.327519  0.501140  1
  Ir  Ir26  1  0.000946  0.000212  0.999289  1
  Ir  Ir27  1  0.000946  0.000212  0.500711  1
