# generated using pymatgen
data_YbY3Sc4(ReB6)4
_symmetry_space_group_name_H-M   'P 1'
_cell_length_a   3.58124500
_cell_length_b   9.03059622
_cell_length_c   11.40357228
_cell_angle_alpha   90.02522297
_cell_angle_beta   90.00000000
_cell_angle_gamma   90.00000000
_symmetry_Int_Tables_number   1
_chemical_formula_structural   YbY3Sc4(ReB6)4
_chemical_formula_sum   'Yb1 Y3 Sc4 Re4 B24'
_cell_volume   368.80035859
_cell_formula_units_Z   1
loop_
 _symmetry_equiv_pos_site_id
 _symmetry_equiv_pos_as_xyz
  1  'x, y, z'
loop_
 _atom_site_type_symbol
 _atom_site_label
 _atom_site_symmetry_multiplicity
 _atom_site_fract_x
 _atom_site_fract_y
 _atom_site_fract_z
 _atom_site_occupancy
  Yb  Yb0  1  0.000000  0.321949  0.413977  1
  Y  Y1  1  0.000000  0.677346  0.585481  1
  Y  Y2  1  0.000000  0.821872  0.086058  1
  Y  Y3  1  0.000000  0.178467  0.914301  1
  Sc  Sc4  1  0.000000  0.944070  0.369278  1
  Sc  Sc5  1  0.000000  0.056446  0.630430  1
  Sc  Sc6  1  0.000000  0.443989  0.130649  1
  Sc  Sc7  1  0.000000  0.555648  0.870063  1
  Re  Re8  1  0.000000  0.642128  0.318238  1
  Re  Re9  1  0.000000  0.358361  0.681672  1
  Re  Re10  1  0.000000  0.140852  0.182088  1
  Re  Re11  1  0.000000  0.858569  0.817701  1
  B  B12  1  0.500000  0.553747  0.432213  1
  B  B13  1  0.500000  0.445410  0.567332  1
  B  B14  1  0.500000  0.054290  0.067345  1
  B  B15  1  0.500000  0.945444  0.932423  1
  B  B16  1  0.500000  0.754646  0.418517  1
  B  B17  1  0.500000  0.245804  0.580962  1
  B  B18  1  0.500000  0.254637  0.081678  1
  B  B19  1  0.500000  0.745401  0.918481  1
  B  B20  1  0.500000  0.795976  0.264758  1
  B  B21  1  0.500000  0.204457  0.735174  1
  B  B22  1  0.500000  0.295525  0.235457  1
  B  B23  1  0.500000  0.704510  0.764897  1
  B  B24  1  0.500000  0.629068  0.183205  1
  B  B25  1  0.500000  0.371035  0.817197  1
  B  B26  1  0.500000  0.129761  0.317124  1
  B  B27  1  0.500000  0.870833  0.682951  1
  B  B28  1  0.500000  0.981494  0.213711  1
  B  B29  1  0.500000  0.018539  0.786107  1
  B  B30  1  0.500000  0.481214  0.286632  1
  B  B31  1  0.500000  0.518272  0.713833  1
  B  B32  1  0.500000  0.594984  0.025946  1
  B  B33  1  0.500000  0.405004  0.974181  1
  B  B34  1  0.500000  0.094021  0.474239  1
  B  B35  1  0.500000  0.906235  0.525700  1
