# generated using pymatgen
data_Yb3Sm(TmS2)8
_symmetry_space_group_name_H-M   'P 1'
_cell_length_a   3.82785400
_cell_length_b   12.75163811
_cell_length_c   12.97408300
_cell_angle_alpha   89.99242445
_cell_angle_beta   90.00000000
_cell_angle_gamma   90.00000000
_symmetry_Int_Tables_number   1
_chemical_formula_structural   Yb3Sm(TmS2)8
_chemical_formula_sum   'Yb3 Sm1 Tm8 S16'
_cell_volume   633.28326555
_cell_formula_units_Z   1
loop_
 _symmetry_equiv_pos_site_id
 _symmetry_equiv_pos_as_xyz
  1  'x, y, z'
loop_
 _atom_site_type_symbol
 _atom_site_label
 _atom_site_symmetry_multiplicity
 _atom_site_fract_x
 _atom_site_fract_y
 _atom_site_fract_z
 _atom_site_occupancy
  Yb  Yb0  1  0.250000  0.868316  0.916088  1
  Yb  Yb1  1  0.750000  0.633418  0.415321  1
  Yb  Yb2  1  0.750000  0.130265  0.082726  1
  Sm  Sm3  1  0.250000  0.368886  0.584319  1
  Tm  Tm4  1  0.250000  0.107684  0.418421  1
  Tm  Tm5  1  0.250000  0.608815  0.082992  1
  Tm  Tm6  1  0.750000  0.891873  0.583438  1
  Tm  Tm7  1  0.750000  0.393192  0.918420  1
  Tm  Tm8  1  0.250000  0.145173  0.798671  1
  Tm  Tm9  1  0.250000  0.646747  0.701709  1
  Tm  Tm10  1  0.750000  0.853512  0.201769  1
  Tm  Tm11  1  0.750000  0.352942  0.296463  1
  S  S12  1  0.250000  0.216752  0.237755  1
  S  S13  1  0.250000  0.715063  0.263563  1
  S  S14  1  0.750000  0.783085  0.763432  1
  S  S15  1  0.750000  0.284582  0.734831  1
  S  S16  1  0.250000  0.257149  0.973761  1
  S  S17  1  0.250000  0.755585  0.525021  1
  S  S18  1  0.750000  0.743087  0.024881  1
  S  S19  1  0.750000  0.244141  0.475074  1
  S  S20  1  0.250000  0.469644  0.386367  1
  S  S21  1  0.250000  0.970238  0.116022  1
  S  S22  1  0.750000  0.529183  0.615890  1
  S  S23  1  0.750000  0.030002  0.882597  1
  S  S24  1  0.250000  0.035603  0.617958  1
  S  S25  1  0.250000  0.534628  0.881282  1
  S  S26  1  0.750000  0.965211  0.382312  1
  S  S27  1  0.750000  0.465224  0.118921  1
