# generated using pymatgen
data_Y3Th3(Al3Ru)8
_symmetry_space_group_name_H-M   'P 1'
_cell_length_a   8.90242000
_cell_length_b   8.90242011
_cell_length_c   9.58019700
_cell_angle_alpha   90.00000000
_cell_angle_beta   90.00000000
_cell_angle_gamma   119.99999960
_symmetry_Int_Tables_number   1
_chemical_formula_structural   Y3Th3(Al3Ru)8
_chemical_formula_sum   'Y3 Th3 Al24 Ru8'
_cell_volume   657.53857741
_cell_formula_units_Z   1
loop_
 _symmetry_equiv_pos_site_id
 _symmetry_equiv_pos_as_xyz
  1  'x, y, z'
loop_
 _atom_site_type_symbol
 _atom_site_label
 _atom_site_symmetry_multiplicity
 _atom_site_fract_x
 _atom_site_fract_y
 _atom_site_fract_z
 _atom_site_occupancy
  Y  Y0  1  0.806604  0.193396  0.750000  1
  Y  Y1  1  0.806604  0.613207  0.750000  1
  Y  Y2  1  0.386793  0.193396  0.750000  1
  Th  Th3  1  0.195716  0.804284  0.250000  1
  Th  Th4  1  0.195716  0.391431  0.250000  1
  Th  Th5  1  0.608569  0.804284  0.250000  1
  Al  Al6  1  0.564990  0.435010  0.250000  1
  Al  Al7  1  0.564990  0.129980  0.250000  1
  Al  Al8  1  0.870020  0.435010  0.250000  1
  Al  Al9  1  0.441047  0.558953  0.750000  1
  Al  Al10  1  0.441047  0.882093  0.750000  1
  Al  Al11  1  0.117907  0.558953  0.750000  1
  Al  Al12  1  0.326544  0.163272  0.426538  1
  Al  Al13  1  0.836728  0.163272  0.426538  1
  Al  Al14  1  0.836728  0.673456  0.426538  1
  Al  Al15  1  0.676927  0.838464  0.582288  1
  Al  Al16  1  0.161536  0.838464  0.582288  1
  Al  Al17  1  0.161536  0.323073  0.582288  1
  Al  Al18  1  0.676927  0.838464  0.917712  1
  Al  Al19  1  0.161536  0.838464  0.917712  1
  Al  Al20  1  0.161536  0.323073  0.917712  1
  Al  Al21  1  0.326544  0.163272  0.073462  1
  Al  Al22  1  0.836728  0.163272  0.073462  1
  Al  Al23  1  0.836728  0.673456  0.073462  1
  Al  Al24  1  0.666667  0.333333  0.518450  1
  Al  Al25  1  0.333333  0.666667  0.495259  1
  Al  Al26  1  0.333333  0.666667  0.004741  1
  Al  Al27  1  0.666667  0.333333  0.981550  1
  Al  Al28  1  0.000000  0.000000  0.250000  1
  Al  Al29  1  0.000000  0.000000  0.750000  1
  Ru  Ru30  1  0.000000  0.000000  0.501698  1
  Ru  Ru31  1  0.000000  0.000000  0.998302  1
  Ru  Ru32  1  0.499676  0.500324  0.498122  1
  Ru  Ru33  1  0.499676  0.999353  0.498122  1
  Ru  Ru34  1  0.000647  0.500324  0.498122  1
  Ru  Ru35  1  0.499676  0.500324  0.001878  1
  Ru  Ru36  1  0.499676  0.999353  0.001878  1
  Ru  Ru37  1  0.000647  0.500324  0.001878  1
