# generated using pymatgen
data_DyEr4(Hg2Pt)2
_symmetry_space_group_name_H-M   'P 1'
_cell_length_a   3.62807900
_cell_length_b   7.91342900
_cell_length_c   18.19249800
_cell_angle_alpha   90.00000000
_cell_angle_beta   90.00000000
_cell_angle_gamma   90.00000000
_symmetry_Int_Tables_number   1
_chemical_formula_structural   DyEr4(Hg2Pt)2
_chemical_formula_sum   'Dy2 Er8 Hg8 Pt4'
_cell_volume   522.31654291
_cell_formula_units_Z   2
loop_
 _symmetry_equiv_pos_site_id
 _symmetry_equiv_pos_as_xyz
  1  'x, y, z'
loop_
 _atom_site_type_symbol
 _atom_site_label
 _atom_site_symmetry_multiplicity
 _atom_site_fract_x
 _atom_site_fract_y
 _atom_site_fract_z
 _atom_site_occupancy
  Dy  Dy0  1  0.000000  0.000000  0.000000  1
  Dy  Dy1  1  0.000000  0.500000  0.500000  1
  Er  Er2  1  0.000000  0.113843  0.414257  1
  Er  Er3  1  0.000000  0.886157  0.585743  1
  Er  Er4  1  0.000000  0.386157  0.914257  1
  Er  Er5  1  0.000000  0.613843  0.085743  1
  Er  Er6  1  0.000000  0.239983  0.218160  1
  Er  Er7  1  0.000000  0.760017  0.781840  1
  Er  Er8  1  0.000000  0.260017  0.718160  1
  Er  Er9  1  0.000000  0.739983  0.281840  1
  Hg  Hg10  1  0.500000  0.424286  0.353711  1
  Hg  Hg11  1  0.500000  0.575714  0.646289  1
  Hg  Hg12  1  0.500000  0.075714  0.853711  1
  Hg  Hg13  1  0.500000  0.924286  0.146289  1
  Hg  Hg14  1  0.500000  0.290088  0.064457  1
  Hg  Hg15  1  0.500000  0.709912  0.935543  1
  Hg  Hg16  1  0.500000  0.209912  0.564457  1
  Hg  Hg17  1  0.500000  0.790088  0.435543  1
  Pt  Pt18  1  0.500000  0.026748  0.303785  1
  Pt  Pt19  1  0.500000  0.973252  0.696215  1
  Pt  Pt20  1  0.500000  0.473252  0.803785  1
  Pt  Pt21  1  0.500000  0.526748  0.196215  1
