# generated using pymatgen
data_NdYNi6(BPt)2
_symmetry_space_group_name_H-M   'P 1'
_cell_length_a   5.13613700
_cell_length_b   5.13613715
_cell_length_c   7.15438900
_cell_angle_alpha   90.00000000
_cell_angle_beta   90.00000000
_cell_angle_gamma   120.00000550
_symmetry_Int_Tables_number   1
_chemical_formula_structural   NdYNi6(BPt)2
_chemical_formula_sum   'Nd1 Y1 Ni6 B2 Pt2'
_cell_volume   163.44677995
_cell_formula_units_Z   1
loop_
 _symmetry_equiv_pos_site_id
 _symmetry_equiv_pos_as_xyz
  1  'x, y, z'
loop_
 _atom_site_type_symbol
 _atom_site_label
 _atom_site_symmetry_multiplicity
 _atom_site_fract_x
 _atom_site_fract_y
 _atom_site_fract_z
 _atom_site_occupancy
  Nd  Nd0  1  0.000000  0.000000  0.000000  1
  Y  Y1  1  0.000000  0.000000  0.500000  1
  Ni  Ni2  1  0.500000  0.000000  0.306520  1
  Ni  Ni3  1  0.500000  0.500000  0.306520  1
  Ni  Ni4  1  0.000000  0.500000  0.306520  1
  Ni  Ni5  1  0.500000  0.000000  0.693480  1
  Ni  Ni6  1  0.500000  0.500000  0.693480  1
  Ni  Ni7  1  0.000000  0.500000  0.693480  1
  B  B8  1  0.666667  0.333333  0.500000  1
  B  B9  1  0.333333  0.666667  0.500000  1
  Pt  Pt10  1  0.333333  0.666667  0.000000  1
  Pt  Pt11  1  0.666667  0.333333  0.000000  1
