# generated using pymatgen
data_Yb2SmIO7
_symmetry_space_group_name_H-M   'P 1'
_cell_length_a   6.37032100
_cell_length_b   6.37032212
_cell_length_c   7.57350800
_cell_angle_alpha   90.00000000
_cell_angle_beta   90.00000000
_cell_angle_gamma   110.16694230
_symmetry_Int_Tables_number   1
_chemical_formula_structural   Yb2SmIO7
_chemical_formula_sum   'Yb4 Sm2 I2 O14'
_cell_volume   288.49810054
_cell_formula_units_Z   2
loop_
 _symmetry_equiv_pos_site_id
 _symmetry_equiv_pos_as_xyz
  1  'x, y, z'
loop_
 _atom_site_type_symbol
 _atom_site_label
 _atom_site_symmetry_multiplicity
 _atom_site_fract_x
 _atom_site_fract_y
 _atom_site_fract_z
 _atom_site_occupancy
  Yb  Yb0  1  0.470034  0.002130  0.250084  1
  Yb  Yb1  1  0.997870  0.529966  0.249916  1
  Yb  Yb2  1  0.529966  0.997870  0.750084  1
  Yb  Yb3  1  0.002130  0.470034  0.749916  1
  Sm  Sm4  1  0.500026  0.500026  0.000000  1
  Sm  Sm5  1  0.499974  0.499974  0.500000  1
  I  I6  1  0.999965  0.999965  0.500000  1
  I  I7  1  0.000035  0.000035  0.000000  1
  O  O8  1  0.940651  0.059349  0.750000  1
  O  O9  1  0.635918  0.364082  0.750000  1
  O  O10  1  0.306100  0.063369  0.530385  1
  O  O11  1  0.936631  0.693900  0.969615  1
  O  O12  1  0.630360  0.369640  0.250000  1
  O  O13  1  0.936498  0.693713  0.530220  1
  O  O14  1  0.306287  0.063502  0.969780  1
  O  O15  1  0.063502  0.306287  0.030220  1
  O  O16  1  0.693713  0.936498  0.469780  1
  O  O17  1  0.369640  0.630360  0.750000  1
  O  O18  1  0.693900  0.936631  0.030385  1
  O  O19  1  0.063369  0.306100  0.469615  1
  O  O20  1  0.364082  0.635918  0.250000  1
  O  O21  1  0.059349  0.940651  0.250000  1
