# generated using pymatgen
data_Er3ThZn4Ir3Pd
_symmetry_space_group_name_H-M   'P 1'
_cell_length_a   4.03236900
_cell_length_b   7.01696250
_cell_length_c   8.26595013
_cell_angle_alpha   90.25248775
_cell_angle_beta   90.00000000
_cell_angle_gamma   90.00000000
_symmetry_Int_Tables_number   1
_chemical_formula_structural   Er3ThZn4Ir3Pd
_chemical_formula_sum   'Er3 Th1 Zn4 Ir3 Pd1'
_cell_volume   233.88263971
_cell_formula_units_Z   1
loop_
 _symmetry_equiv_pos_site_id
 _symmetry_equiv_pos_as_xyz
  1  'x, y, z'
loop_
 _atom_site_type_symbol
 _atom_site_label
 _atom_site_symmetry_multiplicity
 _atom_site_fract_x
 _atom_site_fract_y
 _atom_site_fract_z
 _atom_site_occupancy
  Er  Er0  1  0.250000  0.543608  0.184691  1
  Er  Er1  1  0.750000  0.958175  0.684455  1
  Er  Er2  1  0.750000  0.442472  0.814897  1
  Th  Th3  1  0.250000  0.046255  0.316965  1
  Zn  Zn4  1  0.250000  0.629722  0.564240  1
  Zn  Zn5  1  0.250000  0.135279  0.932794  1
  Zn  Zn6  1  0.750000  0.379240  0.439327  1
  Zn  Zn7  1  0.750000  0.860724  0.058721  1
  Ir  Ir8  1  0.250000  0.250198  0.624686  1
  Ir  Ir9  1  0.750000  0.755906  0.376881  1
  Ir  Ir10  1  0.750000  0.250064  0.126058  1
  Pd  Pd11  1  0.250000  0.748355  0.876284  1
