# generated using pymatgen
data_CeAl7Cu5
_symmetry_space_group_name_H-M   'P 1'
_cell_length_a   6.71943612
_cell_length_b   6.71943542
_cell_length_c   6.71943616
_cell_angle_alpha   134.97405583
_cell_angle_beta   99.00064306
_cell_angle_gamma   97.86085934
_symmetry_Int_Tables_number   1
_chemical_formula_structural   CeAl7Cu5
_chemical_formula_sum   'Ce1 Al7 Cu5'
_cell_volume   198.25573905
_cell_formula_units_Z   1
loop_
 _symmetry_equiv_pos_site_id
 _symmetry_equiv_pos_as_xyz
  1  'x, y, z'
loop_
 _atom_site_type_symbol
 _atom_site_label
 _atom_site_symmetry_multiplicity
 _atom_site_fract_x
 _atom_site_fract_y
 _atom_site_fract_z
 _atom_site_occupancy
  Ce  Ce0  1  0.000199  0.000000  0.000199  1
  Al  Al1  1  0.350099  0.000000  0.350099  1
  Al  Al2  1  0.653698  0.000000  0.653698  1
  Al  Al3  1  0.658346  0.650933  0.007413  1
  Al  Al4  1  0.356479  0.349067  0.007413  1
  Al  Al5  1  0.226667  0.500000  0.726667  1
  Al  Al6  1  0.206048  0.712526  0.493521  1
  Al  Al7  1  0.780995  0.287474  0.493521  1
  Cu  Cu8  1  0.496053  0.996472  0.996810  1
  Cu  Cu9  1  0.496053  0.499244  0.499581  1
  Cu  Cu10  1  0.000337  0.500756  0.996810  1
  Cu  Cu11  1  0.000337  0.003528  0.499581  1
  Cu  Cu12  1  0.774687  0.500000  0.274687  1
