# generated using pymatgen
data_Hf4BeAl7
_symmetry_space_group_name_H-M   'P 1'
_cell_length_a   5.24417700
_cell_length_b   5.18590362
_cell_length_c   8.57913600
_cell_angle_alpha   90.00000000
_cell_angle_beta   90.00000000
_cell_angle_gamma   120.37240801
_symmetry_Int_Tables_number   1
_chemical_formula_structural   Hf4BeAl7
_chemical_formula_sum   'Hf4 Be1 Al7'
_cell_volume   201.29544974
_cell_formula_units_Z   1
loop_
 _symmetry_equiv_pos_site_id
 _symmetry_equiv_pos_as_xyz
  1  'x, y, z'
loop_
 _atom_site_type_symbol
 _atom_site_label
 _atom_site_symmetry_multiplicity
 _atom_site_fract_x
 _atom_site_fract_y
 _atom_site_fract_z
 _atom_site_occupancy
  Hf  Hf0  1  0.334513  0.669026  0.435621  1
  Hf  Hf1  1  0.665701  0.331399  0.933224  1
  Hf  Hf2  1  0.665701  0.331399  0.566776  1
  Hf  Hf3  1  0.334513  0.669026  0.064379  1
  Be  Be4  1  0.167286  0.334574  0.750000  1
  Al  Al5  1  0.830757  0.173212  0.250000  1
  Al  Al6  1  0.342455  0.173212  0.250000  1
  Al  Al7  1  0.645624  0.810670  0.750000  1
  Al  Al8  1  0.008181  0.016362  0.990447  1
  Al  Al9  1  0.008181  0.016362  0.509553  1
  Al  Al10  1  0.832044  0.664087  0.250000  1
  Al  Al11  1  0.165045  0.810670  0.750000  1
