# generated using pymatgen
data_IrRh(Se2Br)6
_symmetry_space_group_name_H-M   'P 1'
_cell_length_a   9.37408675
_cell_length_b   9.37408610
_cell_length_c   9.37408717
_cell_angle_alpha   109.91995434
_cell_angle_beta   109.91995205
_cell_angle_gamma   109.91995268
_symmetry_Int_Tables_number   1
_chemical_formula_structural   IrRh(Se2Br)6
_chemical_formula_sum   'Ir1 Rh1 Se12 Br6'
_cell_volume   623.35311526
_cell_formula_units_Z   1
loop_
 _symmetry_equiv_pos_site_id
 _symmetry_equiv_pos_as_xyz
  1  'x, y, z'
loop_
 _atom_site_type_symbol
 _atom_site_label
 _atom_site_symmetry_multiplicity
 _atom_site_fract_x
 _atom_site_fract_y
 _atom_site_fract_z
 _atom_site_occupancy
  Ir  Ir0  1  0.250000  0.250000  0.250000  1
  Rh  Rh1  1  0.750000  0.750000  0.750000  1
  Se  Se2  1  0.935541  0.158528  0.166203  1
  Se  Se3  1  0.166203  0.935541  0.158528  1
  Se  Se4  1  0.158528  0.166203  0.935541  1
  Se  Se5  1  0.667286  0.658710  0.434782  1
  Se  Se6  1  0.434782  0.667286  0.658710  1
  Se  Se7  1  0.658710  0.434782  0.667286  1
  Se  Se8  1  0.065218  0.841290  0.832714  1
  Se  Se9  1  0.832714  0.065218  0.841290  1
  Se  Se10  1  0.841290  0.832714  0.065218  1
  Se  Se11  1  0.333797  0.341472  0.564459  1
  Se  Se12  1  0.564459  0.333797  0.341472  1
  Se  Se13  1  0.341472  0.564459  0.333797  1
  Br  Br14  1  0.004217  0.495783  0.250000  1
  Br  Br15  1  0.250000  0.004217  0.495783  1
  Br  Br16  1  0.495783  0.250000  0.004217  1
  Br  Br17  1  0.750000  0.995347  0.504653  1
  Br  Br18  1  0.504653  0.750000  0.995347  1
  Br  Br19  1  0.995347  0.504653  0.750000  1
