# generated using pymatgen
data_Dy6Ho4BiPb5
_symmetry_space_group_name_H-M   'P 1'
_cell_length_a   9.08150900
_cell_length_b   9.07761718
_cell_length_c   6.55993800
_cell_angle_alpha   90.00000000
_cell_angle_beta   90.00000000
_cell_angle_gamma   120.01418684
_symmetry_Int_Tables_number   1
_chemical_formula_structural   Dy6Ho4BiPb5
_chemical_formula_sum   'Dy6 Ho4 Bi1 Pb5'
_cell_volume   468.27195130
_cell_formula_units_Z   1
loop_
 _symmetry_equiv_pos_site_id
 _symmetry_equiv_pos_as_xyz
  1  'x, y, z'
loop_
 _atom_site_type_symbol
 _atom_site_label
 _atom_site_symmetry_multiplicity
 _atom_site_fract_x
 _atom_site_fract_y
 _atom_site_fract_z
 _atom_site_occupancy
  Dy  Dy0  1  0.236692  0.000000  0.250000  1
  Dy  Dy1  1  0.237770  0.238386  0.750000  1
  Dy  Dy2  1  0.999384  0.761614  0.750000  1
  Dy  Dy3  1  0.003101  0.239849  0.250000  1
  Dy  Dy4  1  0.763252  0.760151  0.250000  1
  Dy  Dy5  1  0.762108  0.000000  0.750000  1
  Ho  Ho6  1  0.331741  0.664669  0.000447  1
  Ho  Ho7  1  0.667073  0.335331  0.499553  1
  Ho  Ho8  1  0.667073  0.335331  0.000447  1
  Ho  Ho9  1  0.331741  0.664669  0.499553  1
  Bi  Bi10  1  0.605979  0.000000  0.250000  1
  Pb  Pb11  1  0.605081  0.605917  0.750000  1
  Pb  Pb12  1  0.999164  0.394083  0.750000  1
  Pb  Pb13  1  0.000054  0.604766  0.250000  1
  Pb  Pb14  1  0.395288  0.395234  0.250000  1
  Pb  Pb15  1  0.394499  0.000000  0.750000  1
