# generated using pymatgen
data_NdPuO5
_symmetry_space_group_name_H-M   'P 1'
_cell_length_a   13.41504900
_cell_length_b   5.40050498
_cell_length_c   6.88387161
_cell_angle_alpha   62.91335580
_cell_angle_beta   90.00000000
_cell_angle_gamma   90.00000000
_symmetry_Int_Tables_number   1
_chemical_formula_structural   NdPuO5
_chemical_formula_sum   'Nd4 Pu4 O20'
_cell_volume   444.02254597
_cell_formula_units_Z   4
loop_
 _symmetry_equiv_pos_site_id
 _symmetry_equiv_pos_as_xyz
  1  'x, y, z'
loop_
 _atom_site_type_symbol
 _atom_site_label
 _atom_site_symmetry_multiplicity
 _atom_site_fract_x
 _atom_site_fract_y
 _atom_site_fract_z
 _atom_site_occupancy
  Nd  Nd0  1  0.949784  0.616015  0.730902  1
  Nd  Nd1  1  0.449784  0.383985  0.769098  1
  Nd  Nd2  1  0.050216  0.383985  0.269098  1
  Nd  Nd3  1  0.550216  0.616015  0.230902  1
  Pu  Pu4  1  0.652853  0.844796  0.712492  1
  Pu  Pu5  1  0.152853  0.155204  0.787508  1
  Pu  Pu6  1  0.347147  0.155204  0.287508  1
  Pu  Pu7  1  0.847147  0.844796  0.212492  1
  O  O8  1  0.773413  0.758048  0.597402  1
  O  O9  1  0.273413  0.241952  0.902598  1
  O  O10  1  0.226587  0.241952  0.402598  1
  O  O11  1  0.726587  0.758048  0.097402  1
  O  O12  1  0.337541  0.792509  0.512368  1
  O  O13  1  0.837541  0.207491  0.987632  1
  O  O14  1  0.662459  0.207491  0.487632  1
  O  O15  1  0.162459  0.792509  0.012368  1
  O  O16  1  0.543331  0.962864  0.842183  1
  O  O17  1  0.043331  0.037136  0.657817  1
  O  O18  1  0.456669  0.037136  0.157817  1
  O  O19  1  0.956669  0.962864  0.342183  1
  O  O20  1  0.561594  0.710485  0.527014  1
  O  O21  1  0.061594  0.289515  0.972986  1
  O  O22  1  0.438406  0.289515  0.472986  1
  O  O23  1  0.938406  0.710485  0.027014  1
  O  O24  1  0.617225  0.483261  0.936326  1
  O  O25  1  0.117225  0.516739  0.563674  1
  O  O26  1  0.382775  0.516739  0.063674  1
  O  O27  1  0.882775  0.483261  0.436326  1
