# generated using pymatgen
data_Dy9Y3InCo4Ni
_symmetry_space_group_name_H-M   'P 1'
_cell_length_a   8.27500521
_cell_length_b   8.26511021
_cell_length_c   8.26510993
_cell_angle_alpha   106.99332276
_cell_angle_beta   110.67180397
_cell_angle_gamma   110.72475503
_symmetry_Int_Tables_number   1
_chemical_formula_structural   Dy9Y3InCo4Ni
_chemical_formula_sum   'Dy9 Y3 In1 Co4 Ni1'
_cell_volume   434.83181414
_cell_formula_units_Z   1
loop_
 _symmetry_equiv_pos_site_id
 _symmetry_equiv_pos_as_xyz
  1  'x, y, z'
loop_
 _atom_site_type_symbol
 _atom_site_label
 _atom_site_symmetry_multiplicity
 _atom_site_fract_x
 _atom_site_fract_y
 _atom_site_fract_z
 _atom_site_occupancy
  Dy  Dy0  1  0.518574  0.705422  0.813149  1
  Dy  Dy1  1  0.305151  0.619614  0.315148  1
  Dy  Dy2  1  0.305151  0.990005  0.685537  1
  Dy  Dy3  1  0.695209  0.380654  0.685538  1
  Dy  Dy4  1  0.695209  0.009671  0.314555  1
  Dy  Dy5  1  0.195272  0.210011  0.404843  1
  Dy  Dy6  1  0.805303  0.790632  0.596603  1
  Dy  Dy7  1  0.195272  0.790430  0.985261  1
  Dy  Dy8  1  0.805303  0.208700  0.014672  1
  Y  Y9  1  0.481989  0.294293  0.187697  1
  Y  Y10  1  0.105536  0.293841  0.811695  1
  Y  Y11  1  0.894483  0.706285  0.188199  1
  In  In12  1  0.999612  0.499931  0.499682  1
  Co  Co13  1  0.499057  0.613211  0.111270  1
  Co  Co14  1  0.499057  0.387787  0.885844  1
  Co  Co15  1  0.378546  0.999855  0.378691  1
  Co  Co16  1  0.621369  0.000216  0.621154  1
  Ni  Ni17  1  0.999905  0.999444  0.000462  1
