# generated using pymatgen
data_Pr8ZnCu(Si6Ag)2
_symmetry_space_group_name_H-M   'P 1'
_cell_length_a   8.26635200
_cell_length_b   8.26635401
_cell_length_c   8.70404000
_cell_angle_alpha   90.00000000
_cell_angle_beta   90.00000000
_cell_angle_gamma   120.00000795
_symmetry_Int_Tables_number   1
_chemical_formula_structural   Pr8ZnCu(Si6Ag)2
_chemical_formula_sum   'Pr8 Zn1 Cu1 Si12 Ag2'
_cell_volume   515.08555425
_cell_formula_units_Z   1
loop_
 _symmetry_equiv_pos_site_id
 _symmetry_equiv_pos_as_xyz
  1  'x, y, z'
loop_
 _atom_site_type_symbol
 _atom_site_label
 _atom_site_symmetry_multiplicity
 _atom_site_fract_x
 _atom_site_fract_y
 _atom_site_fract_z
 _atom_site_occupancy
  Pr  Pr0  1  0.499620  0.500380  0.753905  1
  Pr  Pr1  1  0.500122  0.499878  0.245984  1
  Pr  Pr2  1  0.000761  0.500380  0.753905  1
  Pr  Pr3  1  0.999755  0.499878  0.245984  1
  Pr  Pr4  1  0.499620  0.999239  0.753905  1
  Pr  Pr5  1  0.500122  0.000245  0.245984  1
  Pr  Pr6  1  0.000000  0.000000  0.751821  1
  Pr  Pr7  1  0.000000  0.000000  0.248515  1
  Zn  Zn8  1  0.666667  0.333333  0.996793  1
  Cu  Cu9  1  0.333333  0.666667  0.001625  1
  Si  Si10  1  0.835152  0.164848  0.001030  1
  Si  Si11  1  0.170591  0.829409  0.999382  1
  Si  Si12  1  0.329696  0.164848  0.001030  1
  Si  Si13  1  0.163169  0.836831  0.499655  1
  Si  Si14  1  0.658819  0.829409  0.999382  1
  Si  Si15  1  0.836740  0.163260  0.500510  1
  Si  Si16  1  0.835152  0.670304  0.001030  1
  Si  Si17  1  0.673662  0.836831  0.499655  1
  Si  Si18  1  0.170591  0.341181  0.999382  1
  Si  Si19  1  0.326520  0.163260  0.500510  1
  Si  Si20  1  0.163169  0.326338  0.499655  1
  Si  Si21  1  0.836740  0.673480  0.500510  1
  Ag  Ag22  1  0.333333  0.666667  0.499254  1
  Ag  Ag23  1  0.666667  0.333333  0.500595  1
