# generated using pymatgen
data_Zr3TcMo2P3
_symmetry_space_group_name_H-M   'P 1'
_cell_length_a   6.94057893
_cell_length_b   6.91033641
_cell_length_c   3.45555500
_cell_angle_alpha   90.00000000
_cell_angle_beta   90.00000000
_cell_angle_gamma   119.85595311
_symmetry_Int_Tables_number   1
_chemical_formula_structural   Zr3TcMo2P3
_chemical_formula_sum   'Zr3 Tc1 Mo2 P3'
_cell_volume   143.73809507
_cell_formula_units_Z   1
loop_
 _symmetry_equiv_pos_site_id
 _symmetry_equiv_pos_as_xyz
  1  'x, y, z'
loop_
 _atom_site_type_symbol
 _atom_site_label
 _atom_site_symmetry_multiplicity
 _atom_site_fract_x
 _atom_site_fract_y
 _atom_site_fract_z
 _atom_site_occupancy
  Zr  Zr0  1  0.405426  0.403939  0.500000  1
  Zr  Zr1  1  0.594574  0.998513  0.500000  1
  Zr  Zr2  1  0.000000  0.595777  0.500000  1
  Tc  Tc3  1  0.000000  0.251311  0.000000  1
  Mo  Mo4  1  0.250221  0.000705  0.000000  1
  Mo  Mo5  1  0.749779  0.750484  0.000000  1
  P  P6  1  0.666933  0.333087  0.000000  1
  P  P7  1  0.333067  0.666155  0.000000  1
  P  P8  1  0.000000  0.000028  0.500000  1
