# generated using pymatgen
data_Tm3LuPd2(PtO7)2
_symmetry_space_group_name_H-M   'P 1'
_cell_length_a   7.18629751
_cell_length_b   7.17618855
_cell_length_c   7.18810353
_cell_angle_alpha   60.05481094
_cell_angle_beta   60.06808969
_cell_angle_gamma   60.04651547
_symmetry_Int_Tables_number   1
_chemical_formula_structural   Tm3LuPd2(PtO7)2
_chemical_formula_sum   'Tm3 Lu1 Pd2 Pt2 O14'
_cell_volume   262.45438221
_cell_formula_units_Z   1
loop_
 _symmetry_equiv_pos_site_id
 _symmetry_equiv_pos_as_xyz
  1  'x, y, z'
loop_
 _atom_site_type_symbol
 _atom_site_label
 _atom_site_symmetry_multiplicity
 _atom_site_fract_x
 _atom_site_fract_y
 _atom_site_fract_z
 _atom_site_occupancy
  Tm  Tm0  1  0.624992  0.624999  0.125011  1
  Tm  Tm1  1  0.624994  0.624999  0.624997  1
  Tm  Tm2  1  0.624994  0.125010  0.624997  1
  Lu  Lu3  1  0.125007  0.625002  0.624988  1
  Pd  Pd4  1  0.624997  0.125000  0.125003  1
  Pd  Pd5  1  0.125000  0.124998  0.625003  1
  Pt  Pt6  1  0.125000  0.125003  0.125006  1
  Pt  Pt7  1  0.125000  0.624991  0.125006  1
  O  O8  1  0.032498  0.469705  0.467340  1
  O  O9  1  0.782842  0.780561  0.218169  1
  O  O10  1  0.782842  0.218428  0.218169  1
  O  O11  1  0.467872  0.032132  0.467864  1
  O  O12  1  0.752799  0.748949  0.749302  1
  O  O13  1  0.031737  0.469161  0.029941  1
  O  O14  1  0.032498  0.030457  0.467340  1
  O  O15  1  0.218293  0.780808  0.220092  1
  O  O16  1  0.217535  0.219565  0.782633  1
  O  O17  1  0.782097  0.217901  0.782101  1
  O  O18  1  0.497218  0.501048  0.500685  1
  O  O19  1  0.467124  0.031606  0.031860  1
  O  O20  1  0.467124  0.469410  0.031860  1
  O  O21  1  0.217535  0.780268  0.782633  1
