# generated using pymatgen
data_DyHo3Ir7Ru
_symmetry_space_group_name_H-M   'P 1'
_cell_length_a   5.34160100
_cell_length_b   5.35885749
_cell_length_c   8.71474100
_cell_angle_alpha   90.00025621
_cell_angle_beta   90.00124016
_cell_angle_gamma   120.10749346
_symmetry_Int_Tables_number   1
_chemical_formula_structural   DyHo3Ir7Ru
_chemical_formula_sum   'Dy1 Ho3 Ir7 Ru1'
_cell_volume   215.80292741
_cell_formula_units_Z   1
loop_
 _symmetry_equiv_pos_site_id
 _symmetry_equiv_pos_as_xyz
  1  'x, y, z'
loop_
 _atom_site_type_symbol
 _atom_site_label
 _atom_site_symmetry_multiplicity
 _atom_site_fract_x
 _atom_site_fract_y
 _atom_site_fract_z
 _atom_site_occupancy
  Dy  Dy0  1  0.666865  0.333416  0.567551  1
  Ho  Ho1  1  0.333355  0.666695  0.433304  1
  Ho  Ho2  1  0.333356  0.666695  0.066643  1
  Ho  Ho3  1  0.666852  0.333411  0.932486  1
  Ir  Ir4  1  0.002727  0.001362  0.499015  1
  Ir  Ir5  1  0.002773  0.001386  0.000885  1
  Ir  Ir6  1  0.169713  0.338909  0.750100  1
  Ir  Ir7  1  0.169704  0.830757  0.750098  1
  Ir  Ir8  1  0.659642  0.829801  0.750104  1
  Ir  Ir9  1  0.827443  0.659109  0.249937  1
  Ir  Ir10  1  0.827453  0.168384  0.249937  1
  Ru  Ru11  1  0.340118  0.170075  0.249940  1
