# generated using pymatgen
data_Dy2Al2Ga7Ir2Pt
_symmetry_space_group_name_H-M   'P 1'
_cell_length_a   7.61070110
_cell_length_b   7.61069965
_cell_length_c   9.49179000
_cell_angle_alpha   90.00000000
_cell_angle_beta   90.00000000
_cell_angle_gamma   119.95953241
_symmetry_Int_Tables_number   1
_chemical_formula_structural   Dy2Al2Ga7Ir2Pt
_chemical_formula_sum   'Dy4 Al4 Ga14 Ir4 Pt2'
_cell_volume   476.32673015
_cell_formula_units_Z   2
loop_
 _symmetry_equiv_pos_site_id
 _symmetry_equiv_pos_as_xyz
  1  'x, y, z'
loop_
 _atom_site_type_symbol
 _atom_site_label
 _atom_site_symmetry_multiplicity
 _atom_site_fract_x
 _atom_site_fract_y
 _atom_site_fract_z
 _atom_site_occupancy
  Dy  Dy0  1  0.000093  0.669254  0.750000  1
  Dy  Dy1  1  0.999907  0.330746  0.250000  1
  Dy  Dy2  1  0.669254  0.000093  0.750000  1
  Dy  Dy3  1  0.330746  0.999907  0.250000  1
  Al  Al4  1  0.335248  0.335248  0.056898  1
  Al  Al5  1  0.664752  0.664752  0.943102  1
  Al  Al6  1  0.664752  0.664752  0.556898  1
  Al  Al7  1  0.335248  0.335248  0.443102  1
  Ga  Ga8  1  0.129932  0.129932  0.750000  1
  Ga  Ga9  1  0.870068  0.870068  0.250000  1
  Ga  Ga10  1  0.999239  0.337688  0.580648  1
  Ga  Ga11  1  0.000761  0.662312  0.419352  1
  Ga  Ga12  1  0.000761  0.662312  0.080648  1
  Ga  Ga13  1  0.337688  0.999239  0.919352  1
  Ga  Ga14  1  0.999239  0.337688  0.919352  1
  Ga  Ga15  1  0.662312  0.000761  0.080648  1
  Ga  Ga16  1  0.662312  0.000761  0.419352  1
  Ga  Ga17  1  0.337688  0.999239  0.580648  1
  Ga  Ga18  1  0.347003  0.550667  0.750000  1
  Ga  Ga19  1  0.652997  0.449333  0.250000  1
  Ga  Ga20  1  0.550667  0.347003  0.750000  1
  Ga  Ga21  1  0.449333  0.652997  0.250000  1
  Ir  Ir22  1  0.669380  0.330620  0.500000  1
  Ir  Ir23  1  0.330620  0.669380  0.500000  1
  Ir  Ir24  1  0.330620  0.669380  0.000000  1
  Ir  Ir25  1  0.669380  0.330620  0.000000  1
  Pt  Pt26  1  0.000000  0.000000  0.500000  1
  Pt  Pt27  1  0.000000  0.000000  0.000000  1
