# generated using pymatgen
data_Hf5Nb5(CuSn3)2
_symmetry_space_group_name_H-M   'P 1'
_cell_length_a   8.45172300
_cell_length_b   8.44476188
_cell_length_c   5.68363800
_cell_angle_alpha   90.00000000
_cell_angle_beta   90.00000000
_cell_angle_gamma   120.02726785
_symmetry_Int_Tables_number   1
_chemical_formula_structural   Hf5Nb5(CuSn3)2
_chemical_formula_sum   'Hf5 Nb5 Cu2 Sn6'
_cell_volume   351.21277758
_cell_formula_units_Z   1
loop_
 _symmetry_equiv_pos_site_id
 _symmetry_equiv_pos_as_xyz
  1  'x, y, z'
loop_
 _atom_site_type_symbol
 _atom_site_label
 _atom_site_symmetry_multiplicity
 _atom_site_fract_x
 _atom_site_fract_y
 _atom_site_fract_z
 _atom_site_occupancy
  Hf  Hf0  1  0.261294  0.264183  0.750000  1
  Hf  Hf1  1  0.997110  0.735817  0.750000  1
  Hf  Hf2  1  0.997040  0.267560  0.250000  1
  Hf  Hf3  1  0.729480  0.732440  0.250000  1
  Hf  Hf4  1  0.739107  0.000000  0.750000  1
  Nb  Nb5  1  0.333495  0.666544  0.999894  1
  Nb  Nb6  1  0.666952  0.333456  0.500106  1
  Nb  Nb7  1  0.666952  0.333456  0.999894  1
  Nb  Nb8  1  0.333495  0.666544  0.500106  1
  Nb  Nb9  1  0.270951  0.000000  0.250000  1
  Cu  Cu10  1  0.005290  0.000000  0.012083  1
  Cu  Cu11  1  0.005290  0.000000  0.487917  1
  Sn  Sn12  1  0.608168  0.000000  0.250000  1
  Sn  Sn13  1  0.609189  0.609699  0.750000  1
  Sn  Sn14  1  0.999490  0.390301  0.750000  1
  Sn  Sn15  1  0.001955  0.616328  0.250000  1
  Sn  Sn16  1  0.385627  0.383672  0.250000  1
  Sn  Sn17  1  0.389117  0.000000  0.750000  1
