# generated using pymatgen
data_Tb3Ho4Sn23Ru6
_symmetry_space_group_name_H-M   'P 1'
_cell_length_a   9.85012599
_cell_length_b   9.85992274
_cell_length_c   10.12127700
_cell_angle_alpha   90.00000000
_cell_angle_beta   89.95538548
_cell_angle_gamma   120.03290519
_symmetry_Int_Tables_number   1
_chemical_formula_structural   Tb3Ho4Sn23Ru6
_chemical_formula_sum   'Tb3 Ho4 Sn23 Ru6'
_cell_volume   851.01451480
_cell_formula_units_Z   1
loop_
 _symmetry_equiv_pos_site_id
 _symmetry_equiv_pos_as_xyz
  1  'x, y, z'
loop_
 _atom_site_type_symbol
 _atom_site_label
 _atom_site_symmetry_multiplicity
 _atom_site_fract_x
 _atom_site_fract_y
 _atom_site_fract_z
 _atom_site_occupancy
  Tb  Tb0  1  0.000000  0.000000  0.000000  1
  Tb  Tb1  1  0.033050  0.516524  0.302587  1
  Tb  Tb2  1  0.966950  0.483476  0.697413  1
  Ho  Ho3  1  0.484545  0.515259  0.302006  1
  Ho  Ho4  1  0.515455  0.484741  0.697994  1
  Ho  Ho5  1  0.484545  0.969286  0.302006  1
  Ho  Ho6  1  0.515455  0.030714  0.697994  1
  Sn  Sn7  1  0.348792  0.000222  0.000198  1
  Sn  Sn8  1  0.651208  0.999778  0.999802  1
  Sn  Sn9  1  0.000000  0.348366  0.000000  1
  Sn  Sn10  1  0.000000  0.651634  0.000000  1
  Sn  Sn11  1  0.651208  0.651430  0.999802  1
  Sn  Sn12  1  0.348792  0.348570  0.000198  1
  Sn  Sn13  1  0.332728  0.666365  0.823778  1
  Sn  Sn14  1  0.667272  0.333635  0.176222  1
  Sn  Sn15  1  0.000000  0.000000  0.500000  1
  Sn  Sn16  1  0.778970  0.220359  0.460961  1
  Sn  Sn17  1  0.221030  0.779641  0.539039  1
  Sn  Sn18  1  0.778970  0.558610  0.460961  1
  Sn  Sn19  1  0.221030  0.441390  0.539039  1
  Sn  Sn20  1  0.441788  0.220894  0.461409  1
  Sn  Sn21  1  0.558212  0.779106  0.538591  1
  Sn  Sn22  1  0.335629  0.667816  0.127766  1
  Sn  Sn23  1  0.664371  0.332184  0.872234  1
  Sn  Sn24  1  0.118089  0.882152  0.275781  1
  Sn  Sn25  1  0.881911  0.117848  0.724219  1
  Sn  Sn26  1  0.118089  0.235938  0.275781  1
  Sn  Sn27  1  0.881911  0.764062  0.724219  1
  Sn  Sn28  1  0.762383  0.881192  0.275185  1
  Sn  Sn29  1  0.237617  0.118808  0.724815  1
  Ru  Ru30  1  0.829514  0.169338  0.201978  1
  Ru  Ru31  1  0.170486  0.830662  0.798022  1
  Ru  Ru32  1  0.829514  0.660176  0.201978  1
  Ru  Ru33  1  0.170486  0.339824  0.798022  1
  Ru  Ru34  1  0.340460  0.170231  0.202475  1
  Ru  Ru35  1  0.659540  0.829769  0.797525  1
