# generated using pymatgen
data_CeGdNpRu3
_symmetry_space_group_name_H-M   'P 1'
_cell_length_a   5.27170394
_cell_length_b   5.27170392
_cell_length_c   5.27170400
_cell_angle_alpha   67.95979975
_cell_angle_beta   67.95979984
_cell_angle_gamma   67.95979902
_symmetry_Int_Tables_number   1
_chemical_formula_structural   CeGdNpRu3
_chemical_formula_sum   'Ce1 Gd1 Np1 Ru3'
_cell_volume   121.09806813
_cell_formula_units_Z   1
loop_
 _symmetry_equiv_pos_site_id
 _symmetry_equiv_pos_as_xyz
  1  'x, y, z'
loop_
 _atom_site_type_symbol
 _atom_site_label
 _atom_site_symmetry_multiplicity
 _atom_site_fract_x
 _atom_site_fract_y
 _atom_site_fract_z
 _atom_site_occupancy
  Ce  Ce0  1  0.371265  0.371265  0.371265  1
  Gd  Gd1  1  0.622364  0.622364  0.622364  1
  Np  Np2  1  0.001044  0.001044  0.001044  1
  Ru  Ru3  1  0.002362  0.500603  0.002362  1
  Ru  Ru4  1  0.500603  0.002362  0.002362  1
  Ru  Ru5  1  0.002362  0.002362  0.500603  1
