# generated using pymatgen
data_Dy16HoLu3Pt16
_symmetry_space_group_name_H-M   'P 1'
_cell_length_a   7.45292202
_cell_length_b   7.55871602
_cell_length_c   14.71898000
_cell_angle_alpha   90.00000000
_cell_angle_beta   90.00000000
_cell_angle_gamma   90.00883962
_symmetry_Int_Tables_number   1
_chemical_formula_structural   Dy16HoLu3Pt16
_chemical_formula_sum   'Dy16 Ho1 Lu3 Pt16'
_cell_volume   829.18667956
_cell_formula_units_Z   1
loop_
 _symmetry_equiv_pos_site_id
 _symmetry_equiv_pos_as_xyz
  1  'x, y, z'
loop_
 _atom_site_type_symbol
 _atom_site_label
 _atom_site_symmetry_multiplicity
 _atom_site_fract_x
 _atom_site_fract_y
 _atom_site_fract_z
 _atom_site_occupancy
  Dy  Dy0  1  0.656907  0.168020  0.622778  1
  Dy  Dy1  1  0.156832  0.331895  0.877264  1
  Dy  Dy2  1  0.342713  0.831702  0.122525  1
  Dy  Dy3  1  0.843321  0.667604  0.377479  1
  Dy  Dy4  1  0.342713  0.831702  0.377475  1
  Dy  Dy5  1  0.843321  0.667604  0.122521  1
  Dy  Dy6  1  0.656907  0.168020  0.877222  1
  Dy  Dy7  1  0.156832  0.331895  0.622736  1
  Dy  Dy8  1  0.501946  0.680046  0.593366  1
  Dy  Dy9  1  0.001808  0.820024  0.906636  1
  Dy  Dy10  1  0.497881  0.320333  0.093082  1
  Dy  Dy11  1  0.998413  0.180202  0.406951  1
  Dy  Dy12  1  0.497881  0.320333  0.406918  1
  Dy  Dy13  1  0.998413  0.180202  0.093049  1
  Dy  Dy14  1  0.501946  0.680046  0.906634  1
  Dy  Dy15  1  0.001808  0.820024  0.593364  1
  Ho  Ho16  1  0.681114  0.012592  0.250000  1
  Lu  Lu17  1  0.818610  0.512837  0.750000  1
  Lu  Lu18  1  0.318566  0.987169  0.750000  1
  Lu  Lu19  1  0.181457  0.487048  0.250000  1
  Pt  Pt20  1  0.683470  0.967952  0.458203  1
  Pt  Pt21  1  0.183508  0.532087  0.042104  1
  Pt  Pt22  1  0.316549  0.031989  0.957851  1
  Pt  Pt23  1  0.816570  0.467990  0.542184  1
  Pt  Pt24  1  0.316549  0.031989  0.542149  1
  Pt  Pt25  1  0.816570  0.467990  0.957816  1
  Pt  Pt26  1  0.683470  0.967952  0.041797  1
  Pt  Pt27  1  0.183508  0.532087  0.457896  1
  Pt  Pt28  1  0.454968  0.387850  0.750000  1
  Pt  Pt29  1  0.954981  0.112023  0.750000  1
  Pt  Pt30  1  0.544765  0.611481  0.250000  1
  Pt  Pt31  1  0.046406  0.887341  0.250000  1
  Pt  Pt32  1  0.682180  0.855453  0.750000  1
  Pt  Pt33  1  0.182317  0.644451  0.750000  1
  Pt  Pt34  1  0.316429  0.145087  0.250000  1
  Pt  Pt35  1  0.818373  0.356980  0.250000  1
