# generated using pymatgen
data_AcSiNi4
_symmetry_space_group_name_H-M   'P 1'
_cell_length_a   5.00833992
_cell_length_b   5.00834045
_cell_length_c   3.97092400
_cell_angle_alpha   90.00000000
_cell_angle_beta   90.00000000
_cell_angle_gamma   114.84031160
_symmetry_Int_Tables_number   1
_chemical_formula_structural   AcSiNi4
_chemical_formula_sum   'Ac1 Si1 Ni4'
_cell_volume   90.38935800
_cell_formula_units_Z   1
loop_
 _symmetry_equiv_pos_site_id
 _symmetry_equiv_pos_as_xyz
  1  'x, y, z'
loop_
 _atom_site_type_symbol
 _atom_site_label
 _atom_site_symmetry_multiplicity
 _atom_site_fract_x
 _atom_site_fract_y
 _atom_site_fract_z
 _atom_site_occupancy
  Ac  Ac0  1  0.000000  0.000000  0.000000  1
  Si  Si1  1  0.500000  0.500000  0.500000  1
  Ni  Ni2  1  0.346260  0.653740  0.000000  1
  Ni  Ni3  1  0.653740  0.346260  0.000000  1
  Ni  Ni4  1  0.500000  0.000000  0.500000  1
  Ni  Ni5  1  0.000000  0.500000  0.500000  1
