# generated using pymatgen
data_Dy6Ni20P13
_symmetry_space_group_name_H-M   'P 1'
_cell_length_a   12.67590900
_cell_length_b   12.67590820
_cell_length_c   3.73846900
_cell_angle_alpha   90.00000000
_cell_angle_beta   90.00000000
_cell_angle_gamma   120.00000469
_symmetry_Int_Tables_number   1
_chemical_formula_structural   Dy6Ni20P13
_chemical_formula_sum   'Dy6 Ni20 P13'
_cell_volume   520.21466757
_cell_formula_units_Z   1
loop_
 _symmetry_equiv_pos_site_id
 _symmetry_equiv_pos_as_xyz
  1  'x, y, z'
loop_
 _atom_site_type_symbol
 _atom_site_label
 _atom_site_symmetry_multiplicity
 _atom_site_fract_x
 _atom_site_fract_y
 _atom_site_fract_z
 _atom_site_occupancy
  Dy  Dy0  1  0.188246  0.470193  0.000000  1
  Dy  Dy1  1  0.529807  0.718053  0.000000  1
  Dy  Dy2  1  0.281947  0.811754  0.000000  1
  Dy  Dy3  1  0.718464  0.187875  0.500000  1
  Dy  Dy4  1  0.812125  0.530589  0.500000  1
  Dy  Dy5  1  0.469411  0.281536  0.500000  1
  Ni  Ni6  1  0.091156  0.195482  0.000000  1
  Ni  Ni7  1  0.804518  0.895676  0.000000  1
  Ni  Ni8  1  0.104324  0.908844  0.000000  1
  Ni  Ni9  1  0.333333  0.666667  0.500000  1
  Ni  Ni10  1  0.920938  0.073228  0.500000  1
  Ni  Ni11  1  0.926772  0.847709  0.500000  1
  Ni  Ni12  1  0.152291  0.079062  0.500000  1
  Ni  Ni13  1  0.666667  0.333333  0.000000  1
  Ni  Ni14  1  0.416652  0.438124  0.000000  1
  Ni  Ni15  1  0.561876  0.978528  0.000000  1
  Ni  Ni16  1  0.021472  0.583348  0.000000  1
  Ni  Ni17  1  0.246821  0.317560  0.500000  1
  Ni  Ni18  1  0.682440  0.929262  0.500000  1
  Ni  Ni19  1  0.070738  0.753179  0.500000  1
  Ni  Ni20  1  0.434659  0.021743  0.500000  1
  Ni  Ni21  1  0.978257  0.412917  0.500000  1
  Ni  Ni22  1  0.587083  0.565341  0.500000  1
  Ni  Ni23  1  0.921573  0.241844  0.000000  1
  Ni  Ni24  1  0.758156  0.679728  0.000000  1
  Ni  Ni25  1  0.320272  0.078427  0.000000  1
  P  P26  1  0.386747  0.524078  0.500000  1
  P  P27  1  0.475922  0.862669  0.500000  1
  P  P28  1  0.137331  0.613253  0.500000  1
  P  P29  1  0.046912  0.279259  0.500000  1
  P  P30  1  0.720741  0.767653  0.500000  1
  P  P31  1  0.232347  0.953088  0.500000  1
  P  P32  1  0.523241  0.137688  0.000000  1
  P  P33  1  0.862312  0.385554  0.000000  1
  P  P34  1  0.614446  0.476759  0.000000  1
  P  P35  1  0.765353  0.048194  0.000000  1
  P  P36  1  0.951806  0.717160  0.000000  1
  P  P37  1  0.282840  0.234647  0.000000  1
  P  P38  1  0.000000  0.000000  0.000000  1
