# generated using pymatgen
data_Cs4Pm4SeS7
_symmetry_space_group_name_H-M   'P 1'
_cell_length_a   8.49235449
_cell_length_b   8.48794199
_cell_length_c   7.35390576
_cell_angle_alpha   90.04746320
_cell_angle_beta   98.30561545
_cell_angle_gamma   104.36812353
_symmetry_Int_Tables_number   1
_chemical_formula_structural   Cs4Pm4SeS7
_chemical_formula_sum   'Cs4 Pm4 Se1 S7'
_cell_volume   507.75038730
_cell_formula_units_Z   1
loop_
 _symmetry_equiv_pos_site_id
 _symmetry_equiv_pos_as_xyz
  1  'x, y, z'
loop_
 _atom_site_type_symbol
 _atom_site_label
 _atom_site_symmetry_multiplicity
 _atom_site_fract_x
 _atom_site_fract_y
 _atom_site_fract_z
 _atom_site_occupancy
  Cs  Cs0  1  0.004979  0.786638  0.998475  1
  Cs  Cs1  1  0.995079  0.029946  0.497114  1
  Cs  Cs2  1  0.002075  0.529753  0.510557  1
  Cs  Cs3  1  0.004172  0.276563  0.995905  1
  Pm  Pm4  1  0.496667  0.659441  0.251791  1
  Pm  Pm5  1  0.495487  0.151877  0.251505  1
  Pm  Pm6  1  0.499888  0.906551  0.751833  1
  Pm  Pm7  1  0.497878  0.406227  0.743156  1
  Se  Se8  1  0.698310  0.455591  0.116811  1
  S  S9  1  0.312248  0.860050  0.388122  1
  S  S10  1  0.681503  0.200194  0.612173  1
  S  S11  1  0.317118  0.610028  0.887283  1
  S  S12  1  0.681705  0.951773  0.114132  1
  S  S13  1  0.313972  0.360288  0.383325  1
  S  S14  1  0.682705  0.703702  0.613238  1
  S  S15  1  0.316214  0.111376  0.884578  1
