# generated using pymatgen
data_Tb3YCS3
_symmetry_space_group_name_H-M   'P 1'
_cell_length_a   6.75117505
_cell_length_b   6.75117546
_cell_length_c   6.74118682
_cell_angle_alpha   79.73425437
_cell_angle_beta   79.73425401
_cell_angle_gamma   32.72521227
_symmetry_Int_Tables_number   1
_chemical_formula_structural   Tb3YCS3
_chemical_formula_sum   'Tb3 Y1 C1 S3'
_cell_volume   163.21355296
_cell_formula_units_Z   1
loop_
 _symmetry_equiv_pos_site_id
 _symmetry_equiv_pos_as_xyz
  1  'x, y, z'
loop_
 _atom_site_type_symbol
 _atom_site_label
 _atom_site_symmetry_multiplicity
 _atom_site_fract_x
 _atom_site_fract_y
 _atom_site_fract_z
 _atom_site_occupancy
  Tb  Tb0  1  0.233951  0.233951  0.231867  1
  Tb  Tb1  1  0.508895  0.508895  0.468046  1
  Tb  Tb2  1  0.741230  0.741230  0.781404  1
  Y  Y3  1  0.015884  0.015884  0.018464  1
  C  C4  1  0.624992  0.624992  0.124805  1
  S  S5  1  0.868924  0.868924  0.376615  1
  S  S6  1  0.124753  0.124753  0.625525  1
  S  S7  1  0.381370  0.381370  0.873274  1
