# generated using pymatgen
data_Cs2VNiSe4
_symmetry_space_group_name_H-M   'P 1'
_cell_length_a   14.81079396
_cell_length_b   13.22067168
_cell_length_c   7.78599610
_cell_angle_alpha   85.52911533
_cell_angle_beta   62.86336500
_cell_angle_gamma   31.60752220
_symmetry_Int_Tables_number   1
_chemical_formula_structural   Cs2VNiSe4
_chemical_formula_sum   'Cs4 V2 Ni2 Se8'
_cell_volume   530.59173019
_cell_formula_units_Z   2
loop_
 _symmetry_equiv_pos_site_id
 _symmetry_equiv_pos_as_xyz
  1  'x, y, z'
loop_
 _atom_site_type_symbol
 _atom_site_label
 _atom_site_symmetry_multiplicity
 _atom_site_fract_x
 _atom_site_fract_y
 _atom_site_fract_z
 _atom_site_occupancy
  Cs  Cs0  1  0.822772  0.822772  0.177228  1
  Cs  Cs1  1  0.427228  0.427228  0.072772  1
  Cs  Cs2  1  0.177228  0.177228  0.822772  1
  Cs  Cs3  1  0.072772  0.072772  0.427228  1
  V  V4  1  0.000000  0.000000  0.000000  1
  V  V5  1  0.250000  0.250000  0.250000  1
  Ni  Ni6  1  0.500000  0.500000  0.500000  1
  Ni  Ni7  1  0.750000  0.750000  0.750000  1
  Se  Se8  1  0.532489  0.864654  0.147099  1
  Se  Se9  1  0.864654  0.532489  0.455758  1
  Se  Se10  1  0.794242  0.102901  0.385346  1
  Se  Se11  1  0.102901  0.794242  0.717511  1
  Se  Se12  1  0.147099  0.455758  0.532489  1
  Se  Se13  1  0.455758  0.147099  0.864654  1
  Se  Se14  1  0.385346  0.717511  0.794242  1
  Se  Se15  1  0.717511  0.385346  0.102901  1
