# generated using pymatgen
data_NiSn16Pd3
_symmetry_space_group_name_H-M   'P 1'
_cell_length_a   12.72010018
_cell_length_b   12.72010037
_cell_length_c   12.71815259
_cell_angle_alpha   150.85041659
_cell_angle_beta   150.85041793
_cell_angle_gamma   41.71754480
_symmetry_Int_Tables_number   1
_chemical_formula_structural   NiSn16Pd3
_chemical_formula_sum   'Ni1 Sn16 Pd3'
_cell_volume   487.07700580
_cell_formula_units_Z   1
loop_
 _symmetry_equiv_pos_site_id
 _symmetry_equiv_pos_as_xyz
  1  'x, y, z'
loop_
 _atom_site_type_symbol
 _atom_site_label
 _atom_site_symmetry_multiplicity
 _atom_site_fract_x
 _atom_site_fract_y
 _atom_site_fract_z
 _atom_site_occupancy
  Ni  Ni0  1  0.500000  0.000000  0.500000  1
  Sn  Sn1  1  0.986553  0.486614  0.844499  1
  Sn  Sn2  1  0.357945  0.857885  0.844499  1
  Sn  Sn3  1  0.013386  0.513447  0.155501  1
  Sn  Sn4  1  0.266069  0.617684  0.009942  1
  Sn  Sn5  1  0.118591  0.106986  0.351016  1
  Sn  Sn6  1  0.858198  0.013546  0.499976  1
  Sn  Sn7  1  0.513570  0.358222  0.500024  1
  Sn  Sn8  1  0.141778  0.986430  0.499976  1
  Sn  Sn9  1  0.486454  0.641802  0.500024  1
  Sn  Sn10  1  0.732425  0.744031  0.351016  1
  Sn  Sn11  1  0.393014  0.381409  0.648984  1
  Sn  Sn12  1  0.755969  0.767575  0.648984  1
  Sn  Sn13  1  0.642115  0.142055  0.155501  1
  Sn  Sn14  1  0.882316  0.233931  0.990058  1
  Sn  Sn15  1  0.243872  0.892258  0.009942  1
  Sn  Sn16  1  0.607742  0.256128  0.990058  1
  Pd  Pd17  1  0.750000  0.750000  0.000000  1
  Pd  Pd18  1  0.250000  0.250000  0.000000  1
  Pd  Pd19  1  0.000000  0.500000  0.500000  1
