# generated using pymatgen
data_InAs(SeO3)4
_symmetry_space_group_name_H-M   'P 1'
_cell_length_a   7.04117288
_cell_length_b   5.16486149
_cell_length_c   9.26601000
_cell_angle_alpha   56.62004613
_cell_angle_beta   86.55973376
_cell_angle_gamma   88.88268855
_symmetry_Int_Tables_number   1
_chemical_formula_structural   InAs(SeO3)4
_chemical_formula_sum   'In1 As1 Se4 O12'
_cell_volume   280.84292799
_cell_formula_units_Z   1
loop_
 _symmetry_equiv_pos_site_id
 _symmetry_equiv_pos_as_xyz
  1  'x, y, z'
loop_
 _atom_site_type_symbol
 _atom_site_label
 _atom_site_symmetry_multiplicity
 _atom_site_fract_x
 _atom_site_fract_y
 _atom_site_fract_z
 _atom_site_occupancy
  In  In0  1  0.000000  0.000000  0.000000  1
  As  As1  1  0.500000  0.000000  0.500000  1
  Se  Se2  1  0.811102  0.325417  0.196771  1
  Se  Se3  1  0.671055  0.316266  0.687104  1
  Se  Se4  1  0.188898  0.674583  0.803229  1
  Se  Se5  1  0.328945  0.683734  0.312896  1
  O  O6  1  0.820896  0.327308  0.010946  1
  O  O7  1  0.659951  0.285989  0.500650  1
  O  O8  1  0.179104  0.672692  0.989054  1
  O  O9  1  0.340049  0.714011  0.499350  1
  O  O10  1  0.571370  0.169160  0.270183  1
  O  O11  1  0.898322  0.212661  0.732493  1
  O  O12  1  0.428630  0.830840  0.729817  1
  O  O13  1  0.101678  0.787339  0.267507  1
  O  O14  1  0.754539  0.702788  0.111043  1
  O  O15  1  0.709569  0.725261  0.566466  1
  O  O16  1  0.245461  0.297212  0.888957  1
  O  O17  1  0.290431  0.274739  0.433534  1
