# generated using pymatgen
data_TmZrSiPt8
_symmetry_space_group_name_H-M   'P 1'
_cell_length_a   4.02609000
_cell_length_b   4.02609000
_cell_length_c   11.16173900
_cell_angle_alpha   90.00000000
_cell_angle_beta   90.00000000
_cell_angle_gamma   90.00000000
_symmetry_Int_Tables_number   1
_chemical_formula_structural   TmZrSiPt8
_chemical_formula_sum   'Tm1 Zr1 Si1 Pt8'
_cell_volume   180.92509983
_cell_formula_units_Z   1
loop_
 _symmetry_equiv_pos_site_id
 _symmetry_equiv_pos_as_xyz
  1  'x, y, z'
loop_
 _atom_site_type_symbol
 _atom_site_label
 _atom_site_symmetry_multiplicity
 _atom_site_fract_x
 _atom_site_fract_y
 _atom_site_fract_z
 _atom_site_occupancy
  Tm  Tm0  1  0.500000  0.500000  0.186340  1
  Zr  Zr1  1  0.500000  0.500000  0.814799  1
  Si  Si2  1  0.000000  0.000000  0.500381  1
  Pt  Pt3  1  0.500000  0.000000  0.995236  1
  Pt  Pt4  1  0.000000  0.500000  0.995236  1
  Pt  Pt5  1  0.500000  0.000000  0.632583  1
  Pt  Pt6  1  0.000000  0.500000  0.632583  1
  Pt  Pt7  1  0.500000  0.000000  0.372433  1
  Pt  Pt8  1  0.000000  0.500000  0.372433  1
  Pt  Pt9  1  0.000000  0.000000  0.817251  1
  Pt  Pt10  1  0.000000  0.000000  0.180722  1
