# generated using pymatgen
data_Tm3Lu7Si5Ge
_symmetry_space_group_name_H-M   'P 1'
_cell_length_a   8.27839857
_cell_length_b   8.27449000
_cell_length_c   6.19032000
_cell_angle_alpha   90.00000000
_cell_angle_beta   90.00000000
_cell_angle_gamma   119.95643412
_symmetry_Int_Tables_number   1
_chemical_formula_structural   Tm3Lu7Si5Ge
_chemical_formula_sum   'Tm3 Lu7 Si5 Ge1'
_cell_volume   367.38530948
_cell_formula_units_Z   1
loop_
 _symmetry_equiv_pos_site_id
 _symmetry_equiv_pos_as_xyz
  1  'x, y, z'
loop_
 _atom_site_type_symbol
 _atom_site_label
 _atom_site_symmetry_multiplicity
 _atom_site_fract_x
 _atom_site_fract_y
 _atom_site_fract_z
 _atom_site_occupancy
  Tm  Tm0  1  0.998771  0.242114  0.250000  1
  Tm  Tm1  1  0.757223  0.999793  0.750000  1
  Tm  Tm2  1  0.999951  0.757597  0.750000  1
  Lu  Lu3  1  0.667449  0.333158  0.500697  1
  Lu  Lu4  1  0.333233  0.667687  0.500680  1
  Lu  Lu5  1  0.333233  0.667687  0.999320  1
  Lu  Lu6  1  0.667449  0.333158  0.999303  1
  Lu  Lu7  1  0.758337  0.758233  0.250000  1
  Lu  Lu8  1  0.242239  0.998647  0.250000  1
  Lu  Lu9  1  0.242510  0.242336  0.750000  1
  Si  Si10  1  0.605452  0.999614  0.250000  1
  Si  Si11  1  0.999949  0.606221  0.250000  1
  Si  Si12  1  0.605560  0.605537  0.750000  1
  Si  Si13  1  0.394195  0.000399  0.750000  1
  Si  Si14  1  0.000424  0.394133  0.750000  1
  Ge  Ge15  1  0.394025  0.393686  0.250000  1
