# generated using pymatgen
data_CeDy3Ti3AlIr4
_symmetry_space_group_name_H-M   'P 1'
_cell_length_a   6.96875135
_cell_length_b   4.34985600
_cell_length_c   7.97082453
_cell_angle_alpha   90.00000000
_cell_angle_beta   93.29245893
_cell_angle_gamma   90.00000000
_symmetry_Int_Tables_number   1
_chemical_formula_structural   CeDy3Ti3AlIr4
_chemical_formula_sum   'Ce1 Dy3 Ti3 Al1 Ir4'
_cell_volume   241.22129897
_cell_formula_units_Z   1
loop_
 _symmetry_equiv_pos_site_id
 _symmetry_equiv_pos_as_xyz
  1  'x, y, z'
loop_
 _atom_site_type_symbol
 _atom_site_label
 _atom_site_symmetry_multiplicity
 _atom_site_fract_x
 _atom_site_fract_y
 _atom_site_fract_z
 _atom_site_occupancy
  Ce  Ce0  1  0.525147  0.750000  0.691631  1
  Dy  Dy1  1  0.980727  0.250000  0.172418  1
  Dy  Dy2  1  0.469990  0.250000  0.313605  1
  Dy  Dy3  1  0.029317  0.750000  0.823503  1
  Ti  Ti4  1  0.873029  0.250000  0.565606  1
  Ti  Ti5  1  0.137024  0.750000  0.429107  1
  Ti  Ti6  1  0.628682  0.750000  0.064705  1
  Al  Al7  1  0.352002  0.250000  0.935959  1
  Ir  Ir8  1  0.724410  0.250000  0.885324  1
  Ir  Ir9  1  0.227945  0.250000  0.599512  1
  Ir  Ir10  1  0.273208  0.750000  0.119020  1
  Ir  Ir11  1  0.778519  0.750000  0.399609  1
