# generated using pymatgen
data_DyYPa3O10
_symmetry_space_group_name_H-M   'P 1'
_cell_length_a   6.61920457
_cell_length_b   6.61920423
_cell_length_c   6.63853128
_cell_angle_alpha   99.72095144
_cell_angle_beta   99.47710188
_cell_angle_gamma   131.72245788
_symmetry_Int_Tables_number   1
_chemical_formula_structural   DyYPa3O10
_chemical_formula_sum   'Dy1 Y1 Pa3 O10'
_cell_volume   198.22316345
_cell_formula_units_Z   1
loop_
 _symmetry_equiv_pos_site_id
 _symmetry_equiv_pos_as_xyz
  1  'x, y, z'
loop_
 _atom_site_type_symbol
 _atom_site_label
 _atom_site_symmetry_multiplicity
 _atom_site_fract_x
 _atom_site_fract_y
 _atom_site_fract_z
 _atom_site_occupancy
  Dy  Dy0  1  0.398955  0.201836  0.600791  1
  Y  Y1  1  0.000986  0.998060  0.999046  1
  Pa  Pa2  1  0.795889  0.400698  0.196586  1
  Pa  Pa3  1  0.199763  0.600080  0.799844  1
  Pa  Pa4  1  0.604333  0.799388  0.403721  1
  O  O5  1  0.755092  0.250442  0.497072  1
  O  O6  1  0.153790  0.458856  0.103531  1
  O  O7  1  0.543573  0.652581  0.697123  1
  O  O8  1  0.941225  0.840562  0.300372  1
  O  O9  1  0.355574  0.046745  0.901908  1
  O  O10  1  0.855162  0.546333  0.901908  1
  O  O11  1  0.246630  0.741980  0.497072  1
  O  O12  1  0.644676  0.949742  0.103531  1
  O  O13  1  0.044543  0.153551  0.697123  1
  O  O14  1  0.459809  0.359146  0.300372  1
