# generated using pymatgen
data_NpB4Rh
_symmetry_space_group_name_H-M   'P 1'
_cell_length_a   3.49288400
_cell_length_b   6.01388000
_cell_length_c   11.66144400
_cell_angle_alpha   90.00000000
_cell_angle_beta   90.00000000
_cell_angle_gamma   90.00000000
_symmetry_Int_Tables_number   1
_chemical_formula_structural   NpB4Rh
_chemical_formula_sum   'Np4 B16 Rh4'
_cell_volume   244.95778813
_cell_formula_units_Z   4
loop_
 _symmetry_equiv_pos_site_id
 _symmetry_equiv_pos_as_xyz
  1  'x, y, z'
loop_
 _atom_site_type_symbol
 _atom_site_label
 _atom_site_symmetry_multiplicity
 _atom_site_fract_x
 _atom_site_fract_y
 _atom_site_fract_z
 _atom_site_occupancy
  Np  Np0  1  0.000000  0.129340  0.649838  1
  Np  Np1  1  0.000000  0.870660  0.350162  1
  Np  Np2  1  0.000000  0.629340  0.850162  1
  Np  Np3  1  0.000000  0.370660  0.149838  1
  B  B4  1  0.500000  0.789694  0.687814  1
  B  B5  1  0.500000  0.210306  0.312186  1
  B  B6  1  0.500000  0.289694  0.812186  1
  B  B7  1  0.500000  0.710306  0.187814  1
  B  B8  1  0.500000  0.867860  0.533004  1
  B  B9  1  0.500000  0.132140  0.466996  1
  B  B10  1  0.500000  0.367860  0.966996  1
  B  B11  1  0.500000  0.632140  0.033004  1
  B  B12  1  0.500000  0.026194  0.192190  1
  B  B13  1  0.500000  0.973806  0.807810  1
  B  B14  1  0.500000  0.526194  0.307810  1
  B  B15  1  0.500000  0.473806  0.692190  1
  B  B16  1  0.500000  0.115984  0.047043  1
  B  B17  1  0.500000  0.884016  0.952957  1
  B  B18  1  0.500000  0.615984  0.452957  1
  B  B19  1  0.500000  0.384016  0.547043  1
  Rh  Rh20  1  0.000000  0.638409  0.591534  1
  Rh  Rh21  1  0.000000  0.361591  0.408466  1
  Rh  Rh22  1  0.000000  0.138409  0.908466  1
  Rh  Rh23  1  0.000000  0.861591  0.091534  1
