# generated using pymatgen
data_Nb5Co16Si7Ru
_symmetry_space_group_name_H-M   'P 1'
_cell_length_a   7.88567498
_cell_length_b   7.88167886
_cell_length_c   7.88567501
_cell_angle_alpha   60.01676702
_cell_angle_beta   59.96648475
_cell_angle_gamma   60.01676319
_symmetry_Int_Tables_number   1
_chemical_formula_structural   Nb5Co16Si7Ru
_chemical_formula_sum   'Nb5 Co16 Si7 Ru1'
_cell_volume   346.56229538
_cell_formula_units_Z   1
loop_
 _symmetry_equiv_pos_site_id
 _symmetry_equiv_pos_as_xyz
  1  'x, y, z'
loop_
 _atom_site_type_symbol
 _atom_site_label
 _atom_site_symmetry_multiplicity
 _atom_site_fract_x
 _atom_site_fract_y
 _atom_site_fract_z
 _atom_site_occupancy
  Nb  Nb0  1  0.204335  0.795665  0.801672  1
  Nb  Nb1  1  0.801672  0.198328  0.204335  1
  Nb  Nb2  1  0.801672  0.795665  0.204335  1
  Nb  Nb3  1  0.204335  0.198328  0.801672  1
  Nb  Nb4  1  0.793815  0.206185  0.793815  1
  Co  Co5  1  0.166033  0.173685  0.166033  1
  Co  Co6  1  0.505752  0.833967  0.826315  1
  Co  Co7  1  0.832658  0.496359  0.832658  1
  Co  Co8  1  0.826315  0.833967  0.505752  1
  Co  Co9  1  0.166033  0.494248  0.166033  1
  Co  Co10  1  0.161674  0.167342  0.503641  1
  Co  Co11  1  0.503641  0.167342  0.161674  1
  Co  Co12  1  0.832658  0.838326  0.832658  1
  Co  Co13  1  0.381526  0.382544  0.381526  1
  Co  Co14  1  0.145596  0.618474  0.617456  1
  Co  Co15  1  0.619162  0.144247  0.619162  1
  Co  Co16  1  0.617456  0.618474  0.145596  1
  Co  Co17  1  0.381526  0.854404  0.381526  1
  Co  Co18  1  0.382571  0.380838  0.855753  1
  Co  Co19  1  0.855753  0.380838  0.382571  1
  Co  Co20  1  0.619162  0.617429  0.619162  1
  Si  Si21  1  0.501623  0.498377  0.501623  1
  Si  Si22  1  0.997003  0.502997  0.997003  1
  Si  Si23  1  0.493651  0.992139  0.007861  1
  Si  Si24  1  0.007861  0.506349  0.493651  1
  Si  Si25  1  0.497003  0.002997  0.497003  1
  Si  Si26  1  0.007861  0.992139  0.493651  1
  Si  Si27  1  0.493651  0.506349  0.007861  1
  Ru  Ru28  1  0.198003  0.801997  0.198003  1
