# generated using pymatgen
data_Ho8B24MoIr3
_symmetry_space_group_name_H-M   'P 1'
_cell_length_a   3.64947300
_cell_length_b   9.18236682
_cell_length_c   11.53057356
_cell_angle_alpha   89.79379247
_cell_angle_beta   90.00000000
_cell_angle_gamma   90.00000000
_symmetry_Int_Tables_number   1
_chemical_formula_structural   Ho8B24MoIr3
_chemical_formula_sum   'Ho8 B24 Mo1 Ir3'
_cell_volume   386.39623944
_cell_formula_units_Z   1
loop_
 _symmetry_equiv_pos_site_id
 _symmetry_equiv_pos_as_xyz
  1  'x, y, z'
loop_
 _atom_site_type_symbol
 _atom_site_label
 _atom_site_symmetry_multiplicity
 _atom_site_fract_x
 _atom_site_fract_y
 _atom_site_fract_z
 _atom_site_occupancy
  Ho  Ho0  1  0.500000  0.324271  0.412289  1
  Ho  Ho1  1  0.500000  0.677764  0.583045  1
  Ho  Ho2  1  0.500000  0.177810  0.914447  1
  Ho  Ho3  1  0.500000  0.818591  0.090680  1
  Ho  Ho4  1  0.500000  0.446774  0.125455  1
  Ho  Ho5  1  0.500000  0.555607  0.872957  1
  Ho  Ho6  1  0.500000  0.055934  0.626083  1
  Ho  Ho7  1  0.500000  0.944189  0.375333  1
  B  B8  1  0.000000  0.112157  0.469846  1
  B  B9  1  0.000000  0.890577  0.531917  1
  B  B10  1  0.000000  0.388051  0.968604  1
  B  B11  1  0.000000  0.611252  0.028574  1
  B  B12  1  0.000000  0.133108  0.315144  1
  B  B13  1  0.000000  0.867477  0.684278  1
  B  B14  1  0.000000  0.366456  0.815837  1
  B  B15  1  0.000000  0.632843  0.183898  1
  B  B16  1  0.000000  0.052818  0.066502  1
  B  B17  1  0.000000  0.946641  0.933677  1
  B  B18  1  0.000000  0.446496  0.567300  1
  B  B19  1  0.000000  0.551709  0.435370  1
  B  B20  1  0.000000  0.480596  0.286158  1
  B  B21  1  0.000000  0.516743  0.713368  1
  B  B22  1  0.000000  0.017452  0.787263  1
  B  B23  1  0.000000  0.982784  0.213104  1
  B  B24  1  0.000000  0.249157  0.078855  1
  B  B25  1  0.000000  0.750477  0.920767  1
  B  B26  1  0.000000  0.251430  0.579036  1
  B  B27  1  0.000000  0.749537  0.422129  1
  B  B28  1  0.000000  0.292447  0.233081  1
  B  B29  1  0.000000  0.707881  0.765227  1
  B  B30  1  0.000000  0.206504  0.734435  1
  B  B31  1  0.000000  0.795076  0.265045  1
  Mo  Mo32  1  0.500000  0.637999  0.321164  1
  Ir  Ir33  1  0.500000  0.138275  0.177759  1
  Ir  Ir34  1  0.500000  0.862505  0.821949  1
  Ir  Ir35  1  0.500000  0.360614  0.679426  1
