# generated using pymatgen
data_La3Tb3Ce2(CdRu)2
_symmetry_space_group_name_H-M   'P 1'
_cell_length_a   9.81740997
_cell_length_b   9.81740917
_cell_length_c   9.81741000
_cell_angle_alpha   60.00000396
_cell_angle_beta   60.00000663
_cell_angle_gamma   59.99999785
_symmetry_Int_Tables_number   1
_chemical_formula_structural   La3Tb3Ce2(CdRu)2
_chemical_formula_sum   'La6 Tb6 Ce4 Cd4 Ru4'
_cell_volume   669.07650212
_cell_formula_units_Z   2
loop_
 _symmetry_equiv_pos_site_id
 _symmetry_equiv_pos_as_xyz
  1  'x, y, z'
loop_
 _atom_site_type_symbol
 _atom_site_label
 _atom_site_symmetry_multiplicity
 _atom_site_fract_x
 _atom_site_fract_y
 _atom_site_fract_z
 _atom_site_occupancy
  La  La0  1  0.555147  0.555147  0.944853  1
  La  La1  1  0.944853  0.555147  0.944853  1
  La  La2  1  0.555147  0.944853  0.944853  1
  La  La3  1  0.944853  0.944853  0.555147  1
  La  La4  1  0.555147  0.944853  0.555147  1
  La  La5  1  0.944853  0.555147  0.555147  1
  Tb  Tb6  1  0.186484  0.186484  0.813516  1
  Tb  Tb7  1  0.813516  0.186484  0.813516  1
  Tb  Tb8  1  0.186483  0.813517  0.813516  1
  Tb  Tb9  1  0.813516  0.813517  0.186484  1
  Tb  Tb10  1  0.186483  0.813516  0.186483  1
  Tb  Tb11  1  0.813516  0.186484  0.186484  1
  Ce  Ce12  1  0.344806  0.344806  0.965583  1
  Ce  Ce13  1  0.344806  0.965583  0.344806  1
  Ce  Ce14  1  0.965583  0.344806  0.344806  1
  Ce  Ce15  1  0.344806  0.344806  0.344806  1
  Cd  Cd16  1  0.578599  0.578599  0.264204  1
  Cd  Cd17  1  0.578599  0.264204  0.578599  1
  Cd  Cd18  1  0.264204  0.578599  0.578599  1
  Cd  Cd19  1  0.578599  0.578599  0.578599  1
  Ru  Ru20  1  0.144640  0.144640  0.566078  1
  Ru  Ru21  1  0.144640  0.566078  0.144640  1
  Ru  Ru22  1  0.566078  0.144640  0.144640  1
  Ru  Ru23  1  0.144640  0.144640  0.144640  1
