# generated using pymatgen
data_Zr2Sc3Bi3Au
_symmetry_space_group_name_H-M   'P 1'
_cell_length_a   8.91955400
_cell_length_b   8.91955456
_cell_length_c   6.04424400
_cell_angle_alpha   90.00000000
_cell_angle_beta   90.00000000
_cell_angle_gamma   119.99999793
_symmetry_Int_Tables_number   1
_chemical_formula_structural   Zr2Sc3Bi3Au
_chemical_formula_sum   'Zr4 Sc6 Bi6 Au2'
_cell_volume   416.44622942
_cell_formula_units_Z   2
loop_
 _symmetry_equiv_pos_site_id
 _symmetry_equiv_pos_as_xyz
  1  'x, y, z'
loop_
 _atom_site_type_symbol
 _atom_site_label
 _atom_site_symmetry_multiplicity
 _atom_site_fract_x
 _atom_site_fract_y
 _atom_site_fract_z
 _atom_site_occupancy
  Zr  Zr0  1  0.333333  0.666667  0.500000  1
  Zr  Zr1  1  0.666667  0.333333  0.500000  1
  Zr  Zr2  1  0.666667  0.333333  0.000000  1
  Zr  Zr3  1  0.333333  0.666667  0.000000  1
  Sc  Sc4  1  0.724823  0.000000  0.250000  1
  Sc  Sc5  1  0.000000  0.724823  0.250000  1
  Sc  Sc6  1  0.275177  0.275177  0.250000  1
  Sc  Sc7  1  0.275177  0.000000  0.750000  1
  Sc  Sc8  1  0.000000  0.275177  0.750000  1
  Sc  Sc9  1  0.724823  0.724823  0.750000  1
  Bi  Bi10  1  0.380045  0.000000  0.250000  1
  Bi  Bi11  1  0.000000  0.380045  0.250000  1
  Bi  Bi12  1  0.619955  0.619955  0.250000  1
  Bi  Bi13  1  0.619955  0.000000  0.750000  1
  Bi  Bi14  1  0.000000  0.619955  0.750000  1
  Bi  Bi15  1  0.380045  0.380045  0.750000  1
  Au  Au16  1  0.000000  0.000000  0.500000  1
  Au  Au17  1  0.000000  0.000000  0.000000  1
