# generated using pymatgen
data_Bi6SbWO14
_symmetry_space_group_name_H-M   'P 1'
_cell_length_a   6.69216516
_cell_length_b   7.05808210
_cell_length_c   7.68578942
_cell_angle_alpha   106.11634278
_cell_angle_beta   89.78246325
_cell_angle_gamma   103.28814161
_symmetry_Int_Tables_number   1
_chemical_formula_structural   Bi6SbWO14
_chemical_formula_sum   'Bi6 Sb1 W1 O14'
_cell_volume   338.72500923
_cell_formula_units_Z   1
loop_
 _symmetry_equiv_pos_site_id
 _symmetry_equiv_pos_as_xyz
  1  'x, y, z'
loop_
 _atom_site_type_symbol
 _atom_site_label
 _atom_site_symmetry_multiplicity
 _atom_site_fract_x
 _atom_site_fract_y
 _atom_site_fract_z
 _atom_site_occupancy
  Bi  Bi0  1  0.517806  0.009978  0.748107  1
  Bi  Bi1  1  0.482194  0.990022  0.251893  1
  Bi  Bi2  1  0.266599  0.505420  0.872809  1
  Bi  Bi3  1  0.733401  0.494580  0.127191  1
  Bi  Bi4  1  0.743553  0.545147  0.632022  1
  Bi  Bi5  1  0.256447  0.454853  0.367978  1
  Sb  Sb6  1  0.000000  0.000000  0.000000  1
  W  W7  1  0.000000  0.000000  0.500000  1
  O  O8  1  0.469177  0.633092  0.182440  1
  O  O9  1  0.530823  0.366908  0.817560  1
  O  O10  1  0.280468  0.948809  0.947141  1
  O  O11  1  0.719532  0.051191  0.052859  1
  O  O12  1  0.269430  0.947994  0.527436  1
  O  O13  1  0.730570  0.052006  0.472564  1
  O  O14  1  0.533476  0.341918  0.358235  1
  O  O15  1  0.466524  0.658082  0.641765  1
  O  O16  1  0.894318  0.700517  0.966039  1
  O  O17  1  0.105682  0.299483  0.033961  1
  O  O18  1  0.108468  0.306925  0.609669  1
  O  O19  1  0.891532  0.693075  0.390331  1
  O  O20  1  0.904248  0.924553  0.731915  1
  O  O21  1  0.095752  0.075447  0.268085  1
