# generated using pymatgen
data_TbZnCu2AgPt
_symmetry_space_group_name_H-M   'P 1'
_cell_length_a   5.20446809
_cell_length_b   5.18417913
_cell_length_c   5.21490617
_cell_angle_alpha   59.15585958
_cell_angle_beta   60.06617322
_cell_angle_gamma   59.87045193
_symmetry_Int_Tables_number   1
_chemical_formula_structural   TbZnCu2AgPt
_chemical_formula_sum   'Tb1 Zn1 Cu2 Ag1 Pt1'
_cell_volume   98.79438647
_cell_formula_units_Z   1
loop_
 _symmetry_equiv_pos_site_id
 _symmetry_equiv_pos_as_xyz
  1  'x, y, z'
loop_
 _atom_site_type_symbol
 _atom_site_label
 _atom_site_symmetry_multiplicity
 _atom_site_fract_x
 _atom_site_fract_y
 _atom_site_fract_z
 _atom_site_occupancy
  Tb  Tb0  1  0.001754  0.992171  0.004322  1
  Zn  Zn1  1  0.623360  0.133053  0.620225  1
  Cu  Cu2  1  0.128877  0.626582  0.620801  1
  Cu  Cu3  1  0.623739  0.626582  0.620801  1
  Ag  Ag4  1  0.246892  0.243686  0.262530  1
  Pt  Pt5  1  0.625377  0.627924  0.121321  1
