# generated using pymatgen
data_HoErSn(AsRh2)6
_symmetry_space_group_name_H-M   'P 1'
_cell_length_a   10.08507600
_cell_length_b   10.08507462
_cell_length_c   3.92708400
_cell_angle_alpha   90.00000000
_cell_angle_beta   90.00000000
_cell_angle_gamma   119.99999796
_symmetry_Int_Tables_number   1
_chemical_formula_structural   HoErSn(AsRh2)6
_chemical_formula_sum   'Ho1 Er1 Sn1 As6 Rh12'
_cell_volume   345.90681845
_cell_formula_units_Z   1
loop_
 _symmetry_equiv_pos_site_id
 _symmetry_equiv_pos_as_xyz
  1  'x, y, z'
loop_
 _atom_site_type_symbol
 _atom_site_label
 _atom_site_symmetry_multiplicity
 _atom_site_fract_x
 _atom_site_fract_y
 _atom_site_fract_z
 _atom_site_occupancy
  Ho  Ho0  1  0.666667  0.333333  0.750660  1
  Er  Er1  1  0.333333  0.666667  0.246929  1
  Sn  Sn2  1  0.000000  0.000000  0.616600  1
  As  As3  1  0.288727  0.881862  0.746949  1
  As  As4  1  0.118138  0.406865  0.746949  1
  As  As5  1  0.593135  0.711273  0.746949  1
  As  As6  1  0.710352  0.115951  0.251826  1
  As  As7  1  0.884049  0.594401  0.251826  1
  As  As8  1  0.405599  0.289648  0.251826  1
  Rh  Rh9  1  0.069189  0.619017  0.748540  1
  Rh  Rh10  1  0.380983  0.450173  0.748540  1
  Rh  Rh11  1  0.549827  0.930811  0.748540  1
  Rh  Rh12  1  0.935060  0.385723  0.250568  1
  Rh  Rh13  1  0.614277  0.549337  0.250568  1
  Rh  Rh14  1  0.450663  0.064940  0.250568  1
  Rh  Rh15  1  0.289300  0.126782  0.754088  1
  Rh  Rh16  1  0.873218  0.162519  0.754088  1
  Rh  Rh17  1  0.837481  0.710700  0.754088  1
  Rh  Rh18  1  0.729289  0.879490  0.244509  1
  Rh  Rh19  1  0.120510  0.849800  0.244509  1
  Rh  Rh20  1  0.150200  0.270711  0.244509  1
