# generated using pymatgen
data_LiScAl2(B4Ru5)2
_symmetry_space_group_name_H-M   'P 1'
_cell_length_a   2.95271100
_cell_length_b   8.29230001
_cell_length_c   10.07366948
_cell_angle_alpha   89.34461476
_cell_angle_beta   90.00000000
_cell_angle_gamma   90.00000000
_symmetry_Int_Tables_number   1
_chemical_formula_structural   LiScAl2(B4Ru5)2
_chemical_formula_sum   'Li1 Sc1 Al2 B8 Ru10'
_cell_volume   246.63529843
_cell_formula_units_Z   1
loop_
 _symmetry_equiv_pos_site_id
 _symmetry_equiv_pos_as_xyz
  1  'x, y, z'
loop_
 _atom_site_type_symbol
 _atom_site_label
 _atom_site_symmetry_multiplicity
 _atom_site_fract_x
 _atom_site_fract_y
 _atom_site_fract_z
 _atom_site_occupancy
  Li  Li0  1  0.500000  0.632439  0.705410  1
  Sc  Sc1  1  0.500000  0.351032  0.325506  1
  Al  Al2  1  0.500000  0.855616  0.157965  1
  Al  Al3  1  0.500000  0.128938  0.793185  1
  B  B4  1  0.500000  0.954981  0.584693  1
  B  B5  1  0.500000  0.040273  0.409598  1
  B  B6  1  0.500000  0.849016  0.889061  1
  B  B7  1  0.500000  0.152384  0.100256  1
  B  B8  1  0.500000  0.654856  0.405672  1
  B  B9  1  0.500000  0.359120  0.609444  1
  B  B10  1  0.500000  0.460606  0.916116  1
  B  B11  1  0.500000  0.545447  0.096072  1
  Ru  Ru12  1  0.000000  0.658857  0.954017  1
  Ru  Ru13  1  0.000000  0.349110  0.059979  1
  Ru  Ru14  1  0.000000  0.848130  0.452781  1
  Ru  Ru15  1  0.000000  0.162429  0.543955  1
  Ru  Ru16  1  0.000000  0.010241  0.987567  1
  Ru  Ru17  1  0.000000  0.374320  0.772520  1
  Ru  Ru18  1  0.000000  0.625720  0.240162  1
  Ru  Ru19  1  0.000000  0.509102  0.508704  1
  Ru  Ru20  1  0.000000  0.889327  0.731963  1
  Ru  Ru21  1  0.000000  0.088057  0.255371  1
