# generated using pymatgen
data_Dy4Ga6CoAg
_symmetry_space_group_name_H-M   'P 1'
_cell_length_a   7.03781800
_cell_length_b   8.87894481
_cell_length_c   8.87894500
_cell_angle_alpha   119.99999698
_cell_angle_beta   90.00000000
_cell_angle_gamma   90.00000000
_symmetry_Int_Tables_number   1
_chemical_formula_structural   Dy4Ga6CoAg
_chemical_formula_sum   'Dy8 Ga12 Co2 Ag2'
_cell_volume   480.49779492
_cell_formula_units_Z   2
loop_
 _symmetry_equiv_pos_site_id
 _symmetry_equiv_pos_as_xyz
  1  'x, y, z'
loop_
 _atom_site_type_symbol
 _atom_site_label
 _atom_site_symmetry_multiplicity
 _atom_site_fract_x
 _atom_site_fract_y
 _atom_site_fract_z
 _atom_site_occupancy
  Dy  Dy0  1  0.743606  0.000000  0.000000  1
  Dy  Dy1  1  0.256394  0.000000  0.000000  1
  Dy  Dy2  1  0.739585  0.477921  0.522079  1
  Dy  Dy3  1  0.260415  0.522079  0.477921  1
  Dy  Dy4  1  0.739585  0.044158  0.522079  1
  Dy  Dy5  1  0.260415  0.955842  0.477921  1
  Dy  Dy6  1  0.739585  0.477921  0.955842  1
  Dy  Dy7  1  0.260415  0.522079  0.044158  1
  Ga  Ga8  1  0.954613  0.835343  0.164657  1
  Ga  Ga9  1  0.045387  0.164657  0.835343  1
  Ga  Ga10  1  0.954613  0.329315  0.164657  1
  Ga  Ga11  1  0.454986  0.173092  0.826908  1
  Ga  Ga12  1  0.045387  0.670685  0.835343  1
  Ga  Ga13  1  0.545014  0.826908  0.173092  1
  Ga  Ga14  1  0.954613  0.835343  0.670685  1
  Ga  Ga15  1  0.454986  0.653815  0.826908  1
  Ga  Ga16  1  0.045387  0.164657  0.329315  1
  Ga  Ga17  1  0.545014  0.346185  0.173092  1
  Ga  Ga18  1  0.454986  0.173092  0.346185  1
  Ga  Ga19  1  0.545014  0.826908  0.653815  1
  Co  Co20  1  0.486856  0.333333  0.666667  1
  Co  Co21  1  0.513144  0.666667  0.333333  1
  Ag  Ag22  1  0.942406  0.666667  0.333333  1
  Ag  Ag23  1  0.057594  0.333333  0.666667  1
