# generated using pymatgen
data_Ga5Cu2Ni5(Mo3N)4
_symmetry_space_group_name_H-M   'P 1'
_cell_length_a   7.92709700
_cell_length_b   7.93589684
_cell_length_c   7.93414995
_cell_angle_alpha   60.04208140
_cell_angle_beta   59.94094013
_cell_angle_gamma   59.99771887
_symmetry_Int_Tables_number   1
_chemical_formula_structural   Ga5Cu2Ni5(Mo3N)4
_chemical_formula_sum   'Ga5 Cu2 Ni5 Mo12 N4'
_cell_volume   352.88377569
_cell_formula_units_Z   1
loop_
 _symmetry_equiv_pos_site_id
 _symmetry_equiv_pos_as_xyz
  1  'x, y, z'
loop_
 _atom_site_type_symbol
 _atom_site_label
 _atom_site_symmetry_multiplicity
 _atom_site_fract_x
 _atom_site_fract_y
 _atom_site_fract_z
 _atom_site_occupancy
  Ga  Ga0  1  0.004892  0.331080  0.331929  1
  Ga  Ga1  1  0.133532  0.118180  0.634215  1
  Ga  Ga2  1  0.128802  0.113399  0.116518  1
  Ga  Ga3  1  0.623106  0.125951  0.128059  1
  Ga  Ga4  1  0.131519  0.637555  0.118784  1
  Cu  Cu5  1  0.915754  0.918518  0.917696  1
  Cu  Cu6  1  0.328796  0.333613  0.002933  1
  Ni  Ni7  1  0.911775  0.914498  0.258351  1
  Ni  Ni8  1  0.264747  0.911733  0.910597  1
  Ni  Ni9  1  0.327770  0.001756  0.333849  1
  Ni  Ni10  1  0.913191  0.255855  0.914700  1
  Ni  Ni11  1  0.328248  0.336099  0.333919  1
  Mo  Mo12  1  0.310826  0.689225  0.687138  1
  Mo  Mo13  1  0.559000  0.556414  0.942624  1
  Mo  Mo14  1  0.310831  0.687855  0.312883  1
  Mo  Mo15  1  0.310251  0.311782  0.687765  1
  Mo  Mo16  1  0.686734  0.309603  0.310291  1
  Mo  Mo17  1  0.942749  0.943933  0.555124  1
  Mo  Mo18  1  0.939473  0.557967  0.941899  1
  Mo  Mo19  1  0.942165  0.556771  0.556972  1
  Mo  Mo20  1  0.556856  0.942070  0.943204  1
  Mo  Mo21  1  0.686316  0.692369  0.310683  1
  Mo  Mo22  1  0.688237  0.310081  0.691324  1
  Mo  Mo23  1  0.556245  0.945050  0.553137  1
  N  N24  1  0.625098  0.122262  0.626925  1
  N  N25  1  0.624164  0.625291  0.125693  1
  N  N26  1  0.123742  0.625252  0.626133  1
  N  N27  1  0.625177  0.625840  0.626657  1
