# generated using pymatgen
data_YTmLu2(NiAs)4
_symmetry_space_group_name_H-M   'P 1'
_cell_length_a   4.01405900
_cell_length_b   4.01405783
_cell_length_c   15.28389700
_cell_angle_alpha   90.00000000
_cell_angle_beta   90.00000000
_cell_angle_gamma   120.00000143
_symmetry_Int_Tables_number   1
_chemical_formula_structural   YTmLu2(NiAs)4
_chemical_formula_sum   'Y1 Tm1 Lu2 Ni4 As4'
_cell_volume   213.27114666
_cell_formula_units_Z   1
loop_
 _symmetry_equiv_pos_site_id
 _symmetry_equiv_pos_as_xyz
  1  'x, y, z'
loop_
 _atom_site_type_symbol
 _atom_site_label
 _atom_site_symmetry_multiplicity
 _atom_site_fract_x
 _atom_site_fract_y
 _atom_site_fract_z
 _atom_site_occupancy
  Y  Y0  1  0.000000  0.000000  0.000000  1
  Tm  Tm1  1  0.000000  0.000000  0.500000  1
  Lu  Lu2  1  0.000000  0.000000  0.252553  1
  Lu  Lu3  1  0.000000  0.000000  0.747447  1
  Ni  Ni4  1  0.333333  0.666667  0.144626  1
  Ni  Ni5  1  0.666667  0.333333  0.855374  1
  Ni  Ni6  1  0.666667  0.333333  0.630930  1
  Ni  Ni7  1  0.333333  0.666667  0.369070  1
  As  As8  1  0.333333  0.666667  0.618735  1
  As  As9  1  0.666667  0.333333  0.381265  1
  As  As10  1  0.666667  0.333333  0.123036  1
  As  As11  1  0.333333  0.666667  0.876964  1
