# generated using pymatgen
data_YbPa2(AlPt)3
_symmetry_space_group_name_H-M   'P 1'
_cell_length_a   7.15483014
_cell_length_b   7.18369919
_cell_length_c   4.05444100
_cell_angle_alpha   90.00000000
_cell_angle_beta   90.00000000
_cell_angle_gamma   120.13356560
_symmetry_Int_Tables_number   1
_chemical_formula_structural   YbPa2(AlPt)3
_chemical_formula_sum   'Yb1 Pa2 Al3 Pt3'
_cell_volume   180.22830303
_cell_formula_units_Z   1
loop_
 _symmetry_equiv_pos_site_id
 _symmetry_equiv_pos_as_xyz
  1  'x, y, z'
loop_
 _atom_site_type_symbol
 _atom_site_label
 _atom_site_symmetry_multiplicity
 _atom_site_fract_x
 _atom_site_fract_y
 _atom_site_fract_z
 _atom_site_occupancy
  Yb  Yb0  1  0.000000  0.584699  0.500000  1
  Pa  Pa1  1  0.422131  0.419987  0.500000  1
  Pa  Pa2  1  0.577869  0.997856  0.500000  1
  Al  Al3  1  0.768433  0.761653  0.000000  1
  Al  Al4  1  0.231567  0.993221  0.000000  1
  Al  Al5  1  0.000000  0.244459  0.000000  1
  Pt  Pt6  1  0.648396  0.317342  0.000000  1
  Pt  Pt7  1  0.351604  0.668947  0.000000  1
  Pt  Pt8  1  0.000000  0.011835  0.500000  1
