# generated using pymatgen
data_Sc2Nb4Re5Si6Mo
_symmetry_space_group_name_H-M   'P 1'
_cell_length_a   7.67002319
_cell_length_b   7.66745990
_cell_length_c   7.66745922
_cell_angle_alpha   126.17338049
_cell_angle_beta   128.01423324
_cell_angle_gamma   78.09878645
_symmetry_Int_Tables_number   1
_chemical_formula_structural   Sc2Nb4Re5Si6Mo
_chemical_formula_sum   'Sc2 Nb4 Re5 Si6 Mo1'
_cell_volume   277.87204333
_cell_formula_units_Z   1
loop_
 _symmetry_equiv_pos_site_id
 _symmetry_equiv_pos_as_xyz
  1  'x, y, z'
loop_
 _atom_site_type_symbol
 _atom_site_label
 _atom_site_symmetry_multiplicity
 _atom_site_fract_x
 _atom_site_fract_y
 _atom_site_fract_z
 _atom_site_occupancy
  Sc  Sc0  1  0.548082  0.089428  0.041327  1
  Sc  Sc1  1  0.451918  0.493245  0.541345  1
  Nb  Nb2  1  0.947673  0.491675  0.042767  1
  Nb  Nb3  1  0.052327  0.095094  0.544002  1
  Nb  Nb4  1  0.748553  0.904389  0.654160  1
  Nb  Nb5  1  0.251447  0.905607  0.155836  1
  Re  Re6  1  0.000000  0.239801  0.239801  1
  Re  Re7  1  0.116389  0.753443  0.615474  1
  Re  Re8  1  0.883611  0.499084  0.637053  1
  Re  Re9  1  0.638366  0.755223  0.137404  1
  Re  Re10  1  0.361634  0.499038  0.116857  1
  Si  Si11  1  0.745274  0.495119  0.249490  1
  Si  Si12  1  0.254726  0.504216  0.749844  1
  Si  Si13  1  0.329087  0.825696  0.490719  1
  Si  Si14  1  0.670913  0.161632  0.496609  1
  Si  Si15  1  0.835614  0.828365  0.997966  1
  Si  Si16  1  0.164386  0.162352  0.992750  1
  Mo  Mo17  1  0.500000  0.238794  0.738794  1
