# generated using pymatgen
data_TmU7(B6W)4
_symmetry_space_group_name_H-M   'P 1'
_cell_length_a   3.68069800
_cell_length_b   9.28608529
_cell_length_c   11.38408736
_cell_angle_alpha   89.97117457
_cell_angle_beta   90.00000000
_cell_angle_gamma   90.00000000
_symmetry_Int_Tables_number   1
_chemical_formula_structural   TmU7(B6W)4
_chemical_formula_sum   'Tm1 U7 B24 W4'
_cell_volume   389.09980974
_cell_formula_units_Z   1
loop_
 _symmetry_equiv_pos_site_id
 _symmetry_equiv_pos_as_xyz
  1  'x, y, z'
loop_
 _atom_site_type_symbol
 _atom_site_label
 _atom_site_symmetry_multiplicity
 _atom_site_fract_x
 _atom_site_fract_y
 _atom_site_fract_z
 _atom_site_occupancy
  Tm  Tm0  1  0.000000  0.334915  0.407997  1
  U  U1  1  0.000000  0.664331  0.592004  1
  U  U2  1  0.000000  0.834241  0.092789  1
  U  U3  1  0.000000  0.165521  0.907518  1
  U  U4  1  0.000000  0.956905  0.394799  1
  U  U5  1  0.000000  0.044847  0.604569  1
  U  U6  1  0.000000  0.456136  0.105187  1
  U  U7  1  0.000000  0.543731  0.894992  1
  B  B8  1  0.500000  0.551719  0.433586  1
  B  B9  1  0.500000  0.451086  0.568407  1
  B  B10  1  0.500000  0.049596  0.066624  1
  B  B11  1  0.500000  0.950102  0.933128  1
  B  B12  1  0.500000  0.742839  0.424819  1
  B  B13  1  0.500000  0.256032  0.576075  1
  B  B14  1  0.500000  0.243944  0.075855  1
  B  B15  1  0.500000  0.756277  0.924453  1
  B  B16  1  0.500000  0.803593  0.272903  1
  B  B17  1  0.500000  0.196344  0.727290  1
  B  B18  1  0.500000  0.303061  0.225607  1
  B  B19  1  0.500000  0.696149  0.772391  1
  B  B20  1  0.500000  0.643950  0.187702  1
  B  B21  1  0.500000  0.355333  0.812757  1
  B  B22  1  0.500000  0.143609  0.312125  1
  B  B23  1  0.500000  0.855420  0.687284  1
  B  B24  1  0.500000  0.985626  0.218339  1
  B  B25  1  0.500000  0.014515  0.781289  1
  B  B26  1  0.500000  0.486588  0.280737  1
  B  B27  1  0.500000  0.515137  0.718081  1
  B  B28  1  0.500000  0.642111  0.039439  1
  B  B29  1  0.500000  0.358218  0.960777  1
  B  B30  1  0.500000  0.139395  0.461189  1
  B  B31  1  0.500000  0.857761  0.539604  1
  W  W32  1  0.000000  0.647466  0.319428  1
  W  W33  1  0.000000  0.355202  0.682127  1
  W  W34  1  0.000000  0.143330  0.177764  1
  W  W35  1  0.000000  0.854972  0.820363  1
