# generated using pymatgen
data_Dy4Zr3VF28
_symmetry_space_group_name_H-M   'P 1'
_cell_length_a   5.68385332
_cell_length_b   9.04616593
_cell_length_c   12.12847242
_cell_angle_alpha   62.65864153
_cell_angle_beta   90.02941064
_cell_angle_gamma   89.98418146
_symmetry_Int_Tables_number   1
_chemical_formula_structural   Dy4Zr3VF28
_chemical_formula_sum   'Dy4 Zr3 V1 F28'
_cell_volume   553.94439163
_cell_formula_units_Z   1
loop_
 _symmetry_equiv_pos_site_id
 _symmetry_equiv_pos_as_xyz
  1  'x, y, z'
loop_
 _atom_site_type_symbol
 _atom_site_label
 _atom_site_symmetry_multiplicity
 _atom_site_fract_x
 _atom_site_fract_y
 _atom_site_fract_z
 _atom_site_occupancy
  Dy  Dy0  1  0.757528  0.816014  0.766403  1
  Dy  Dy1  1  0.256938  0.187348  0.725839  1
  Dy  Dy2  1  0.243240  0.188108  0.240457  1
  Dy  Dy3  1  0.743768  0.818014  0.266508  1
  Zr  Zr4  1  0.756240  0.273708  0.955340  1
  Zr  Zr5  1  0.254990  0.726400  0.543051  1
  Zr  Zr6  1  0.245369  0.727144  0.045190  1
  V  V7  1  0.743152  0.273598  0.454667  1
  F  F8  1  0.462392  0.707469  0.919556  1
  F  F9  1  0.947462  0.286464  0.574536  1
  F  F10  1  0.536985  0.290170  0.081851  1
  F  F11  1  0.037135  0.708892  0.417007  1
  F  F12  1  0.466640  0.278197  0.545124  1
  F  F13  1  0.945488  0.724366  0.951512  1
  F  F14  1  0.554284  0.717162  0.451572  1
  F  F15  1  0.051865  0.274969  0.052152  1
  F  F16  1  0.776337  0.526529  0.858296  1
  F  F17  1  0.266048  0.474165  0.638557  1
  F  F18  1  0.223208  0.474560  0.143720  1
  F  F19  1  0.731817  0.501650  0.366961  1
  F  F20  1  0.757136  0.021065  0.058771  1
  F  F21  1  0.261219  0.978183  0.444520  1
  F  F22  1  0.242314  0.977438  0.939794  1
  F  F23  1  0.741233  0.045094  0.545797  1
  F  F24  1  0.974015  0.737348  0.643336  1
  F  F25  1  0.482084  0.268055  0.848592  1
  F  F26  1  0.007306  0.267049  0.360422  1
  F  F27  1  0.521923  0.727752  0.152529  1
  F  F28  1  0.036314  0.746213  0.176011  1
  F  F29  1  0.543308  0.255841  0.333089  1
  F  F30  1  0.967014  0.252531  0.825262  1
  F  F31  1  0.465436  0.749085  0.672142  1
  F  F32  1  0.425341  0.974185  0.237357  1
  F  F33  1  0.926218  0.027912  0.268870  1
  F  F34  1  0.572466  0.026259  0.764890  1
  F  F35  1  0.075788  0.971064  0.730320  1
