# generated using pymatgen
data_TbTm17Lu2(CoSb2)4
_symmetry_space_group_name_H-M   'P 1'
_cell_length_a   7.73839844
_cell_length_b   8.71933923
_cell_length_c   12.03183632
_cell_angle_alpha   89.97349748
_cell_angle_beta   90.03458557
_cell_angle_gamma   90.00165874
_symmetry_Int_Tables_number   1
_chemical_formula_structural   TbTm17Lu2(CoSb2)4
_chemical_formula_sum   'Tb1 Tm17 Lu2 Co4 Sb8'
_cell_volume   811.83253358
_cell_formula_units_Z   1
loop_
 _symmetry_equiv_pos_site_id
 _symmetry_equiv_pos_as_xyz
  1  'x, y, z'
loop_
 _atom_site_type_symbol
 _atom_site_label
 _atom_site_symmetry_multiplicity
 _atom_site_fract_x
 _atom_site_fract_y
 _atom_site_fract_z
 _atom_site_occupancy
  Tb  Tb0  1  0.877090  0.749816  0.806656  1
  Tm  Tm1  1  0.155521  0.749854  0.203900  1
  Tm  Tm2  1  0.655529  0.250147  0.296165  1
  Tm  Tm3  1  0.844260  0.250051  0.796109  1
  Tm  Tm4  1  0.345099  0.749949  0.703551  1
  Tm  Tm5  1  0.448288  0.749889  0.997737  1
  Tm  Tm6  1  0.948777  0.250112  0.501712  1
  Tm  Tm7  1  0.551070  0.250190  0.002503  1
  Tm  Tm8  1  0.052153  0.749802  0.497819  1
  Tm  Tm9  1  0.620573  0.749925  0.308888  1
  Tm  Tm10  1  0.120818  0.250078  0.191625  1
  Tm  Tm11  1  0.379152  0.250185  0.690968  1
  Tm  Tm12  1  0.823701  0.963959  0.066263  1
  Tm  Tm13  1  0.323539  0.037020  0.434630  1
  Tm  Tm14  1  0.176896  0.461108  0.935536  1
  Tm  Tm15  1  0.676329  0.537010  0.564897  1
  Tm  Tm16  1  0.177133  0.038865  0.935483  1
  Tm  Tm17  1  0.676595  0.963022  0.564947  1
  Lu  Lu18  1  0.824534  0.536091  0.066195  1
  Lu  Lu19  1  0.324373  0.462904  0.434726  1
  Co  Co20  1  0.431825  0.749727  0.490736  1
  Co  Co21  1  0.931554  0.250279  0.009565  1
  Co  Co22  1  0.567415  0.250303  0.508641  1
  Co  Co23  1  0.067580  0.749703  0.991542  1
  Sb  Sb24  1  0.930478  0.991479  0.327987  1
  Sb  Sb25  1  0.430509  0.008244  0.172155  1
  Sb  Sb26  1  0.071397  0.490326  0.671444  1
  Sb  Sb27  1  0.567382  0.507257  0.828017  1
  Sb  Sb28  1  0.071480  0.009684  0.671456  1
  Sb  Sb29  1  0.567467  0.992730  0.828013  1
  Sb  Sb30  1  0.930722  0.508484  0.327984  1
  Sb  Sb31  1  0.430756  0.491808  0.172149  1
