# generated using pymatgen
data_Ce12Si12AgIr3
_symmetry_space_group_name_H-M   'P 1'
_cell_length_a   4.32166900
_cell_length_b   10.45004496
_cell_length_c   12.80149200
_cell_angle_alpha   90.10324167
_cell_angle_beta   90.00000000
_cell_angle_gamma   90.00000000
_symmetry_Int_Tables_number   1
_chemical_formula_structural   Ce12Si12AgIr3
_chemical_formula_sum   'Ce12 Si12 Ag1 Ir3'
_cell_volume   578.13537538
_cell_formula_units_Z   1
loop_
 _symmetry_equiv_pos_site_id
 _symmetry_equiv_pos_as_xyz
  1  'x, y, z'
loop_
 _atom_site_type_symbol
 _atom_site_label
 _atom_site_symmetry_multiplicity
 _atom_site_fract_x
 _atom_site_fract_y
 _atom_site_fract_z
 _atom_site_occupancy
  Ce  Ce0  1  0.250000  0.901915  0.028038  1
  Ce  Ce1  1  0.250000  0.603533  0.524566  1
  Ce  Ce2  1  0.750000  0.095586  0.975595  1
  Ce  Ce3  1  0.750000  0.402536  0.470851  1
  Ce  Ce4  1  0.250000  0.915523  0.592046  1
  Ce  Ce5  1  0.250000  0.585430  0.094381  1
  Ce  Ce6  1  0.750000  0.083256  0.403417  1
  Ce  Ce7  1  0.750000  0.414249  0.908409  1
  Ce  Ce8  1  0.250000  0.671522  0.807206  1
  Ce  Ce9  1  0.250000  0.837936  0.305149  1
  Ce  Ce10  1  0.750000  0.337100  0.194340  1
  Ce  Ce11  1  0.750000  0.153942  0.695326  1
  Si  Si12  1  0.250000  0.996092  0.810590  1
  Si  Si13  1  0.250000  0.501963  0.310785  1
  Si  Si14  1  0.750000  0.000538  0.189067  1
  Si  Si15  1  0.750000  0.515432  0.688642  1
  Si  Si16  1  0.250000  0.227527  0.852322  1
  Si  Si17  1  0.250000  0.261757  0.340971  1
  Si  Si18  1  0.750000  0.763891  0.157160  1
  Si  Si19  1  0.750000  0.742945  0.655710  1
  Si  Si20  1  0.250000  0.204359  0.532231  1
  Si  Si21  1  0.250000  0.282353  0.043180  1
  Si  Si22  1  0.750000  0.785154  0.457368  1
  Si  Si23  1  0.750000  0.715994  0.960779  1
  Ag  Ag24  1  0.250000  0.381884  0.690689  1
  Ir  Ir25  1  0.250000  0.115814  0.187555  1
  Ir  Ir26  1  0.750000  0.618268  0.310997  1
  Ir  Ir27  1  0.750000  0.883499  0.812628  1
