# generated using pymatgen
data_Er7Lu(MoI4)2
_symmetry_space_group_name_H-M   'P 1'
_cell_length_a   11.31636221
_cell_length_b   11.31055974
_cell_length_c   5.94084934
_cell_angle_alpha   90.37410590
_cell_angle_beta   90.41298537
_cell_angle_gamma   90.01749287
_symmetry_Int_Tables_number   1
_chemical_formula_structural   Er7Lu(MoI4)2
_chemical_formula_sum   'Er7 Lu1 Mo2 I8'
_cell_volume   760.35938350
_cell_formula_units_Z   1
loop_
 _symmetry_equiv_pos_site_id
 _symmetry_equiv_pos_as_xyz
  1  'x, y, z'
loop_
 _atom_site_type_symbol
 _atom_site_label
 _atom_site_symmetry_multiplicity
 _atom_site_fract_x
 _atom_site_fract_y
 _atom_site_fract_z
 _atom_site_occupancy
  Er  Er0  1  0.795132  0.084141  0.997315  1
  Er  Er1  1  0.084860  0.795231  0.497642  1
  Er  Er2  1  0.916028  0.204764  0.502551  1
  Er  Er3  1  0.795295  0.915770  0.496441  1
  Er  Er4  1  0.205340  0.083574  0.503694  1
  Er  Er5  1  0.084506  0.204907  0.003539  1
  Er  Er6  1  0.916012  0.794857  0.996481  1
  Lu  Lu7  1  0.200964  0.917335  0.002945  1
  Mo  Mo8  1  0.999792  0.000224  0.249784  1
  Mo  Mo9  1  0.000276  0.999748  0.750312  1
  I  I10  1  0.359559  0.848803  0.494994  1
  I  I11  1  0.640419  0.151268  0.504276  1
  I  I12  1  0.152337  0.641454  0.004284  1
  I  I13  1  0.848864  0.359636  0.995649  1
  I  I14  1  0.359457  0.150149  0.012225  1
  I  I15  1  0.640756  0.848321  0.987917  1
  I  I16  1  0.848633  0.640421  0.487848  1
  I  I17  1  0.151770  0.359398  0.512103  1
