# generated using pymatgen
data_Y3In3Ag2Ru
_symmetry_space_group_name_H-M   'P 1'
_cell_length_a   7.99287000
_cell_length_b   7.99287033
_cell_length_c   3.75456300
_cell_angle_alpha   90.00000000
_cell_angle_beta   90.00000000
_cell_angle_gamma   119.99998927
_symmetry_Int_Tables_number   1
_chemical_formula_structural   Y3In3Ag2Ru
_chemical_formula_sum   'Y3 In3 Ag2 Ru1'
_cell_volume   207.72826380
_cell_formula_units_Z   1
loop_
 _symmetry_equiv_pos_site_id
 _symmetry_equiv_pos_as_xyz
  1  'x, y, z'
loop_
 _atom_site_type_symbol
 _atom_site_label
 _atom_site_symmetry_multiplicity
 _atom_site_fract_x
 _atom_site_fract_y
 _atom_site_fract_z
 _atom_site_occupancy
  Y  Y0  1  0.578999  0.609697  0.000000  1
  Y  Y1  1  0.390303  0.969302  0.000000  1
  Y  Y2  1  0.030698  0.421001  0.000000  1
  In  In3  1  0.000912  0.728046  0.500000  1
  In  In4  1  0.271954  0.272866  0.500000  1
  In  In5  1  0.727134  0.999088  0.500000  1
  Ag  Ag6  1  0.000000  0.000000  0.000000  1
  Ag  Ag7  1  0.666667  0.333333  0.500000  1
  Ru  Ru8  1  0.333333  0.666667  0.500000  1
