# generated using pymatgen
data_U4Mn4Re(Si3Ru)2
_symmetry_space_group_name_H-M   'P 1'
_cell_length_a   6.96625951
_cell_length_b   6.97075404
_cell_length_c   6.97075486
_cell_angle_alpha   109.49993346
_cell_angle_beta   109.46992432
_cell_angle_gamma   109.46992763
_symmetry_Int_Tables_number   1
_chemical_formula_structural   U4Mn4Re(Si3Ru)2
_chemical_formula_sum   'U4 Mn4 Re1 Si6 Ru2'
_cell_volume   260.49368679
_cell_formula_units_Z   1
loop_
 _symmetry_equiv_pos_site_id
 _symmetry_equiv_pos_as_xyz
  1  'x, y, z'
loop_
 _atom_site_type_symbol
 _atom_site_label
 _atom_site_symmetry_multiplicity
 _atom_site_fract_x
 _atom_site_fract_y
 _atom_site_fract_z
 _atom_site_occupancy
  U  U0  1  0.500000  0.496579  0.503421  1
  U  U1  1  0.000000  0.008391  0.502852  1
  U  U2  1  0.500000  0.996579  0.003421  1
  U  U3  1  0.000000  0.497148  0.991609  1
  Mn  Mn4  1  0.751363  0.249883  0.501480  1
  Mn  Mn5  1  0.500000  0.251827  0.748173  1
  Mn  Mn6  1  0.500000  0.751827  0.248173  1
  Mn  Mn7  1  0.248637  0.498520  0.750117  1
  Re  Re8  1  0.000000  0.999915  0.000085  1
  Si  Si9  1  0.318131  0.320952  0.997179  1
  Si  Si10  1  0.000000  0.315394  0.320443  1
  Si  Si11  1  0.000000  0.679557  0.684606  1
  Si  Si12  1  0.681869  0.002821  0.679048  1
  Si  Si13  1  0.323824  0.002567  0.321258  1
  Si  Si14  1  0.676176  0.678742  0.997433  1
  Ru  Ru15  1  0.747954  0.498627  0.249326  1
  Ru  Ru16  1  0.252046  0.750674  0.501373  1
