# generated using pymatgen
data_Rb7Ac4TlI20
_symmetry_space_group_name_H-M   'P 1'
_cell_length_a   9.50845504
_cell_length_b   10.32166437
_cell_length_c   15.10002300
_cell_angle_alpha   90.04220442
_cell_angle_beta   90.00530870
_cell_angle_gamma   90.14612688
_symmetry_Int_Tables_number   1
_chemical_formula_structural   Rb7Ac4TlI20
_chemical_formula_sum   'Rb7 Ac4 Tl1 I20'
_cell_volume   1481.95756129
_cell_formula_units_Z   1
loop_
 _symmetry_equiv_pos_site_id
 _symmetry_equiv_pos_as_xyz
  1  'x, y, z'
loop_
 _atom_site_type_symbol
 _atom_site_label
 _atom_site_symmetry_multiplicity
 _atom_site_fract_x
 _atom_site_fract_y
 _atom_site_fract_z
 _atom_site_occupancy
  Rb  Rb0  1  0.947254  0.003297  0.826835  1
  Rb  Rb1  1  0.052806  0.996704  0.173036  1
  Rb  Rb2  1  0.447042  0.996479  0.673011  1
  Rb  Rb3  1  0.052842  0.503351  0.173087  1
  Rb  Rb4  1  0.552792  0.003381  0.327161  1
  Rb  Rb5  1  0.947169  0.496694  0.826755  1
  Rb  Rb6  1  0.552746  0.496664  0.327196  1
  Ac  Ac7  1  0.921363  0.749431  0.505980  1
  Ac  Ac8  1  0.078712  0.250812  0.494586  1
  Ac  Ac9  1  0.421248  0.250254  0.994137  1
  Ac  Ac10  1  0.578397  0.749755  0.005373  1
  Tl  Tl11  1  0.449262  0.502069  0.673488  1
  I  I12  1  0.132140  0.748821  0.681033  1
  I  I13  1  0.869336  0.249901  0.318768  1
  I  I14  1  0.629220  0.252208  0.817441  1
  I  I15  1  0.369358  0.749914  0.181159  1
  I  I16  1  0.833081  0.045341  0.579256  1
  I  I17  1  0.167160  0.954924  0.420905  1
  I  I18  1  0.333058  0.954405  0.920821  1
  I  I19  1  0.166599  0.545714  0.420727  1
  I  I20  1  0.666952  0.045722  0.078981  1
  I  I21  1  0.831814  0.454366  0.579409  1
  I  I22  1  0.666915  0.454613  0.079154  1
  I  I23  1  0.333598  0.545140  0.919582  1
  I  I24  1  0.568359  0.747531  0.508342  1
  I  I25  1  0.431140  0.252552  0.494737  1
  I  I26  1  0.069309  0.249934  0.993088  1
  I  I27  1  0.930425  0.750158  0.006697  1
  I  I28  1  0.664138  0.747488  0.791441  1
  I  I29  1  0.333940  0.249961  0.207667  1
  I  I30  1  0.168167  0.252317  0.707584  1
  I  I31  1  0.833657  0.750094  0.292564  1
