# generated using pymatgen
data_Tb4Ho3Tm(ReB6)4
_symmetry_space_group_name_H-M   'P 1'
_cell_length_a   3.68037900
_cell_length_b   9.16665402
_cell_length_c   11.56134402
_cell_angle_alpha   90.00698160
_cell_angle_beta   90.00000000
_cell_angle_gamma   90.00000000
_symmetry_Int_Tables_number   1
_chemical_formula_structural   Tb4Ho3Tm(ReB6)4
_chemical_formula_sum   'Tb4 Ho3 Tm1 Re4 B24'
_cell_volume   390.04229655
_cell_formula_units_Z   1
loop_
 _symmetry_equiv_pos_site_id
 _symmetry_equiv_pos_as_xyz
  1  'x, y, z'
loop_
 _atom_site_type_symbol
 _atom_site_label
 _atom_site_symmetry_multiplicity
 _atom_site_fract_x
 _atom_site_fract_y
 _atom_site_fract_z
 _atom_site_occupancy
  Tb  Tb0  1  0.000000  0.323477  0.414021  1
  Tb  Tb1  1  0.000000  0.676504  0.586158  1
  Tb  Tb2  1  0.000000  0.823315  0.085919  1
  Tb  Tb3  1  0.000000  0.176657  0.913954  1
  Ho  Ho4  1  0.000000  0.943208  0.369976  1
  Ho  Ho5  1  0.000000  0.056807  0.630140  1
  Ho  Ho6  1  0.000000  0.443337  0.129668  1
  Tm  Tm7  1  0.000000  0.556892  0.869732  1
  Re  Re8  1  0.000000  0.638905  0.320356  1
  Re  Re9  1  0.000000  0.361503  0.680039  1
  Re  Re10  1  0.000000  0.139024  0.179475  1
  Re  Re11  1  0.000000  0.860295  0.820525  1
  B  B12  1  0.500000  0.553634  0.432503  1
  B  B13  1  0.500000  0.446411  0.567688  1
  B  B14  1  0.500000  0.053601  0.067481  1
  B  B15  1  0.500000  0.946153  0.932439  1
  B  B16  1  0.500000  0.749497  0.418078  1
  B  B17  1  0.500000  0.250589  0.582000  1
  B  B18  1  0.500000  0.249554  0.081895  1
  B  B19  1  0.500000  0.749768  0.918057  1
  B  B20  1  0.500000  0.792179  0.265516  1
  B  B21  1  0.500000  0.208053  0.734544  1
  B  B22  1  0.500000  0.292232  0.234439  1
  B  B23  1  0.500000  0.707244  0.765711  1
  B  B24  1  0.500000  0.630657  0.185531  1
  B  B25  1  0.500000  0.369864  0.814709  1
  B  B26  1  0.500000  0.130708  0.314396  1
  B  B27  1  0.500000  0.869130  0.685721  1
  B  B28  1  0.500000  0.982599  0.212209  1
  B  B29  1  0.500000  0.017307  0.787847  1
  B  B30  1  0.500000  0.482569  0.287752  1
  B  B31  1  0.500000  0.517735  0.712637  1
  B  B32  1  0.500000  0.598924  0.026896  1
  B  B33  1  0.500000  0.401656  0.971935  1
  B  B34  1  0.500000  0.099144  0.472428  1
  B  B35  1  0.500000  0.900870  0.527625  1
