# generated using pymatgen
data_Sm3Be2(PPd5)4
_symmetry_space_group_name_H-M   'P 1'
_cell_length_a   8.71283126
_cell_length_b   8.62685448
_cell_length_c   8.62685476
_cell_angle_alpha   60.66046099
_cell_angle_beta   59.66977119
_cell_angle_gamma   59.66977166
_symmetry_Int_Tables_number   1
_chemical_formula_structural   Sm3Be2(PPd5)4
_chemical_formula_sum   'Sm3 Be2 P4 Pd20'
_cell_volume   458.41848868
_cell_formula_units_Z   1
loop_
 _symmetry_equiv_pos_site_id
 _symmetry_equiv_pos_as_xyz
  1  'x, y, z'
loop_
 _atom_site_type_symbol
 _atom_site_label
 _atom_site_symmetry_multiplicity
 _atom_site_fract_x
 _atom_site_fract_y
 _atom_site_fract_z
 _atom_site_occupancy
  Sm  Sm0  1  0.250000  0.250000  0.250000  1
  Sm  Sm1  1  0.750000  0.750000  0.750000  1
  Sm  Sm2  1  0.000000  0.000000  0.000000  1
  Be  Be3  1  0.733082  0.266918  0.266918  1
  Be  Be4  1  0.266918  0.733082  0.733082  1
  P  P5  1  0.266574  0.733426  0.266574  1
  P  P6  1  0.733426  0.266574  0.733426  1
  P  P7  1  0.266574  0.266574  0.733426  1
  P  P8  1  0.733426  0.733426  0.266574  1
  Pd  Pd9  1  0.389066  0.383202  0.383202  1
  Pd  Pd10  1  0.610934  0.616798  0.616798  1
  Pd  Pd11  1  0.383202  0.389066  0.844529  1
  Pd  Pd12  1  0.383202  0.844529  0.389066  1
  Pd  Pd13  1  0.616798  0.610934  0.155471  1
  Pd  Pd14  1  0.616798  0.155471  0.610934  1
  Pd  Pd15  1  0.844529  0.383202  0.383202  1
  Pd  Pd16  1  0.155471  0.616798  0.616798  1
  Pd  Pd17  1  0.345112  0.000000  0.000000  1
  Pd  Pd18  1  0.654888  0.000000  0.000000  1
  Pd  Pd19  1  0.000000  0.345112  0.654888  1
  Pd  Pd20  1  0.000000  0.654888  0.345112  1
  Pd  Pd21  1  0.997056  0.344311  0.002944  1
  Pd  Pd22  1  0.655689  0.002944  0.344311  1
  Pd  Pd23  1  0.002944  0.655689  0.997056  1
  Pd  Pd24  1  0.344311  0.997056  0.655689  1
  Pd  Pd25  1  0.997056  0.002944  0.344311  1
  Pd  Pd26  1  0.002944  0.997056  0.655689  1
  Pd  Pd27  1  0.655689  0.344311  0.002944  1
  Pd  Pd28  1  0.344311  0.655689  0.997056  1
