# generated using pymatgen
data_CaLaYbUO6
_symmetry_space_group_name_H-M   'P 1'
_cell_length_a   6.86599477
_cell_length_b   6.84538173
_cell_length_c   6.80576700
_cell_angle_alpha   91.72326418
_cell_angle_beta   91.60084462
_cell_angle_gamma   91.05129525
_symmetry_Int_Tables_number   1
_chemical_formula_structural   CaLaYbUO6
_chemical_formula_sum   'Ca2 La2 Yb2 U2 O12'
_cell_volume   319.54507069
_cell_formula_units_Z   2
loop_
 _symmetry_equiv_pos_site_id
 _symmetry_equiv_pos_as_xyz
  1  'x, y, z'
loop_
 _atom_site_type_symbol
 _atom_site_label
 _atom_site_symmetry_multiplicity
 _atom_site_fract_x
 _atom_site_fract_y
 _atom_site_fract_z
 _atom_site_occupancy
  Ca  Ca0  1  0.065426  0.555987  0.250213  1
  Ca  Ca1  1  0.445961  0.751884  0.941845  1
  La  La2  1  0.939629  0.444182  0.750740  1
  La  La3  1  0.746065  0.941879  0.441212  1
  Yb  Yb4  1  0.551076  0.251431  0.059455  1
  Yb  Yb5  1  0.253691  0.061150  0.560013  1
  U  U6  1  0.008216  0.000659  0.004843  1
  U  U7  1  0.491058  0.498949  0.497184  1
  O  O8  1  0.298137  0.067178  0.923677  1
  O  O9  1  0.068988  0.919535  0.305112  1
  O  O10  1  0.921948  0.297266  0.068940  1
  O  O11  1  0.707861  0.940149  0.076877  1
  O  O12  1  0.942851  0.082241  0.699514  1
  O  O13  1  0.082875  0.700391  0.936433  1
  O  O14  1  0.194826  0.402215  0.533477  1
  O  O15  1  0.411670  0.540108  0.200887  1
  O  O16  1  0.459230  0.801414  0.592228  1
  O  O17  1  0.585570  0.455607  0.796459  1
  O  O18  1  0.795606  0.588888  0.457871  1
  O  O19  1  0.529317  0.198889  0.403017  1
