# generated using pymatgen
data_SrY3(Pt2O7)2
_symmetry_space_group_name_H-M   'P 1'
_cell_length_a   7.33170407
_cell_length_b   7.34419180
_cell_length_c   7.33170400
_cell_angle_alpha   60.05623169
_cell_angle_beta   60.00000032
_cell_angle_gamma   60.05622898
_symmetry_Int_Tables_number   1
_chemical_formula_structural   SrY3(Pt2O7)2
_chemical_formula_sum   'Sr1 Y3 Pt4 O14'
_cell_volume   279.38781287
_cell_formula_units_Z   1
loop_
 _symmetry_equiv_pos_site_id
 _symmetry_equiv_pos_as_xyz
  1  'x, y, z'
loop_
 _atom_site_type_symbol
 _atom_site_label
 _atom_site_symmetry_multiplicity
 _atom_site_fract_x
 _atom_site_fract_y
 _atom_site_fract_z
 _atom_site_occupancy
  Sr  Sr0  1  0.125000  0.625000  0.125000  1
  Y  Y1  1  0.125000  0.125000  0.625000  1
  Y  Y2  1  0.625000  0.125000  0.125000  1
  Y  Y3  1  0.125000  0.125000  0.125000  1
  Pt  Pt4  1  0.625000  0.625000  0.625000  1
  Pt  Pt5  1  0.125000  0.625000  0.625000  1
  Pt  Pt6  1  0.625000  0.625000  0.125000  1
  Pt  Pt7  1  0.625000  0.125000  0.625000  1
  O  O8  1  0.291979  0.720984  0.695058  1
  O  O9  1  0.537299  0.963689  0.961714  1
  O  O10  1  0.695058  0.720984  0.291979  1
  O  O11  1  0.288286  0.286311  0.712701  1
  O  O12  1  0.992662  0.022013  0.992662  1
  O  O13  1  0.291979  0.720984  0.291979  1
  O  O14  1  0.712701  0.286311  0.712701  1
  O  O15  1  0.958021  0.529016  0.958021  1
  O  O16  1  0.554942  0.529016  0.958021  1
  O  O17  1  0.961714  0.963689  0.537299  1
  O  O18  1  0.257338  0.227987  0.257338  1
  O  O19  1  0.537299  0.963689  0.537299  1
  O  O20  1  0.712701  0.286311  0.288286  1
  O  O21  1  0.958021  0.529016  0.554942  1
