# generated using pymatgen
data_TbThGa5Ir3
_symmetry_space_group_name_H-M   'P 1'
_cell_length_a   8.68607918
_cell_length_b   8.61058450
_cell_length_c   8.61058406
_cell_angle_alpha   140.92952060
_cell_angle_beta   108.74850653
_cell_angle_gamma   84.27639606
_symmetry_Int_Tables_number   1
_chemical_formula_structural   TbThGa5Ir3
_chemical_formula_sum   'Tb2 Th2 Ga10 Ir6'
_cell_volume   372.05792192
_cell_formula_units_Z   2
loop_
 _symmetry_equiv_pos_site_id
 _symmetry_equiv_pos_as_xyz
  1  'x, y, z'
loop_
 _atom_site_type_symbol
 _atom_site_label
 _atom_site_symmetry_multiplicity
 _atom_site_fract_x
 _atom_site_fract_y
 _atom_site_fract_z
 _atom_site_occupancy
  Tb  Tb0  1  0.133625  0.858837  0.274788  1
  Tb  Tb1  1  0.866375  0.141163  0.725212  1
  Th  Th2  1  0.413260  0.640582  0.772679  1
  Th  Th3  1  0.586740  0.359418  0.227321  1
  Ga  Ga4  1  0.744689  0.915486  0.829205  1
  Ga  Ga5  1  0.255311  0.084514  0.170795  1
  Ga  Ga6  1  0.914229  0.589882  0.324347  1
  Ga  Ga7  1  0.085771  0.410118  0.675653  1
  Ga  Ga8  1  0.198483  0.954467  0.745326  1
  Ga  Ga9  1  0.801517  0.546843  0.755984  1
  Ga  Ga10  1  0.801517  0.045533  0.254674  1
  Ga  Ga11  1  0.198483  0.453157  0.244016  1
  Ga  Ga12  1  0.500000  0.755754  0.255754  1
  Ga  Ga13  1  0.500000  0.244246  0.744246  1
  Ir  Ir14  1  0.000000  0.748832  0.748832  1
  Ir  Ir15  1  0.000000  0.251168  0.251168  1
  Ir  Ir16  1  0.446932  0.846197  0.600734  1
  Ir  Ir17  1  0.553068  0.153803  0.399266  1
  Ir  Ir18  1  0.739073  0.648309  0.090764  1
  Ir  Ir19  1  0.260927  0.351691  0.909236  1
