# generated using pymatgen
data_CaU2(AlIr)3
_symmetry_space_group_name_H-M   'P 1'
_cell_length_a   7.07953315
_cell_length_b   7.07721686
_cell_length_c   4.03717400
_cell_angle_alpha   90.00000000
_cell_angle_beta   90.00000000
_cell_angle_gamma   121.61520288
_symmetry_Int_Tables_number   1
_chemical_formula_structural   CaU2(AlIr)3
_chemical_formula_sum   'Ca1 U2 Al3 Ir3'
_cell_volume   172.25588060
_cell_formula_units_Z   1
loop_
 _symmetry_equiv_pos_site_id
 _symmetry_equiv_pos_as_xyz
  1  'x, y, z'
loop_
 _atom_site_type_symbol
 _atom_site_label
 _atom_site_symmetry_multiplicity
 _atom_site_fract_x
 _atom_site_fract_y
 _atom_site_fract_z
 _atom_site_occupancy
  Ca  Ca0  1  0.418376  0.418630  0.500000  1
  U  U1  1  0.580075  0.002412  0.500000  1
  U  U2  1  0.002209  0.579700  0.500000  1
  Al  Al3  1  0.748827  0.749078  0.000000  1
  Al  Al4  1  0.233514  0.009505  0.000000  1
  Al  Al5  1  0.009733  0.233462  0.000000  1
  Ir  Ir6  1  0.702084  0.328731  0.000000  1
  Ir  Ir7  1  0.327706  0.701590  0.000000  1
  Ir  Ir8  1  0.977476  0.976892  0.500000  1
