# generated using pymatgen
data_TbU7(PbS5)4
_symmetry_space_group_name_H-M   'P 1'
_cell_length_a   7.51943577
_cell_length_b   8.21038548
_cell_length_c   11.79278324
_cell_angle_alpha   90.00055999
_cell_angle_beta   90.02017430
_cell_angle_gamma   89.77233810
_symmetry_Int_Tables_number   1
_chemical_formula_structural   TbU7(PbS5)4
_chemical_formula_sum   'Tb1 U7 Pb4 S20'
_cell_volume   728.05076569
_cell_formula_units_Z   1
loop_
 _symmetry_equiv_pos_site_id
 _symmetry_equiv_pos_as_xyz
  1  'x, y, z'
loop_
 _atom_site_type_symbol
 _atom_site_label
 _atom_site_symmetry_multiplicity
 _atom_site_fract_x
 _atom_site_fract_y
 _atom_site_fract_z
 _atom_site_occupancy
  Tb  Tb0  1  0.020475  0.499826  0.319026  1
  U  U1  1  0.517630  0.501730  0.181579  1
  U  U2  1  0.982228  0.502795  0.681479  1
  U  U3  1  0.482036  0.498554  0.820359  1
  U  U4  1  0.069922  0.743871  0.006039  1
  U  U5  1  0.571763  0.254886  0.495037  1
  U  U6  1  0.927801  0.255074  0.993306  1
  U  U7  1  0.427075  0.743097  0.504411  1
  Pb  Pb8  1  0.007262  0.990641  0.319270  1
  Pb  Pb9  1  0.514962  0.011640  0.178849  1
  Pb  Pb10  1  0.992373  0.013463  0.673520  1
  Pb  Pb11  1  0.489356  0.988722  0.823923  1
  S  S12  1  0.164546  0.453943  0.094798  1
  S  S13  1  0.659536  0.542825  0.401575  1
  S  S14  1  0.837252  0.545929  0.900944  1
  S  S15  1  0.337692  0.454133  0.600406  1
  S  S16  1  0.450060  0.716021  0.001164  1
  S  S17  1  0.946955  0.282215  0.502096  1
  S  S18  1  0.551579  0.285589  0.999148  1
  S  S19  1  0.050489  0.719522  0.505105  1
  S  S20  1  0.341672  0.275871  0.313943  1
  S  S21  1  0.833317  0.723739  0.181944  1
  S  S22  1  0.658846  0.719946  0.686188  1
  S  S23  1  0.161696  0.279467  0.814664  1
  S  S24  1  0.658450  0.961901  0.413200  1
  S  S25  1  0.159390  0.036892  0.085415  1
  S  S26  1  0.344617  0.035063  0.589490  1
  S  S27  1  0.841276  0.963110  0.911887  1
  S  S28  1  0.305949  0.731369  0.283233  1
  S  S29  1  0.806982  0.268871  0.213679  1
  S  S30  1  0.692522  0.271508  0.716870  1
  S  S31  1  0.194289  0.727787  0.787453  1
