# generated using pymatgen
data_ZrSc3Re24W
_symmetry_space_group_name_H-M   'P 1'
_cell_length_a   8.44242096
_cell_length_b   8.44242001
_cell_length_c   8.44241900
_cell_angle_alpha   109.46308669
_cell_angle_beta   109.46309161
_cell_angle_gamma   109.46309825
_symmetry_Int_Tables_number   1
_chemical_formula_structural   ZrSc3Re24W
_chemical_formula_sum   'Zr1 Sc3 Re24 W1'
_cell_volume   463.35046267
_cell_formula_units_Z   1
loop_
 _symmetry_equiv_pos_site_id
 _symmetry_equiv_pos_as_xyz
  1  'x, y, z'
loop_
 _atom_site_type_symbol
 _atom_site_label
 _atom_site_symmetry_multiplicity
 _atom_site_fract_x
 _atom_site_fract_y
 _atom_site_fract_z
 _atom_site_occupancy
  Zr  Zr0  1  0.001266  0.001266  0.001266  1
  Sc  Sc1  1  0.630325  0.000200  0.000200  1
  Sc  Sc2  1  0.000200  0.630325  0.000200  1
  Sc  Sc3  1  0.000200  0.000200  0.630325  1
  Re  Re4  1  0.394303  0.675865  0.995917  1
  Re  Re5  1  0.721878  0.323471  0.323471  1
  Re  Re6  1  0.394303  0.995917  0.675865  1
  Re  Re7  1  0.675865  0.394303  0.995917  1
  Re  Re8  1  0.995917  0.394303  0.675865  1
  Re  Re9  1  0.323471  0.721878  0.323471  1
  Re  Re10  1  0.323471  0.323471  0.721878  1
  Re  Re11  1  0.995917  0.675865  0.394303  1
  Re  Re12  1  0.675865  0.995917  0.394303  1
  Re  Re13  1  0.595892  0.595892  0.280841  1
  Re  Re14  1  0.280841  0.595892  0.595892  1
  Re  Re15  1  0.595892  0.280841  0.595892  1
  Re  Re16  1  0.378349  0.195545  0.001468  1
  Re  Re17  1  0.186688  0.809882  0.809882  1
  Re  Re18  1  0.378349  0.001468  0.195545  1
  Re  Re19  1  0.195545  0.378349  0.001468  1
  Re  Re20  1  0.001468  0.378349  0.195545  1
  Re  Re21  1  0.809882  0.186688  0.809882  1
  Re  Re22  1  0.809882  0.809882  0.186688  1
  Re  Re23  1  0.001468  0.195545  0.378349  1
  Re  Re24  1  0.195545  0.001468  0.378349  1
  Re  Re25  1  0.623312  0.623312  0.817070  1
  Re  Re26  1  0.817070  0.623312  0.623312  1
  Re  Re27  1  0.623312  0.817070  0.623312  1
  W  W28  1  0.373525  0.373525  0.373525  1
