# generated using pymatgen
data_Ce4ThMo2C7
_symmetry_space_group_name_H-M   'P 1'
_cell_length_a   8.59636200
_cell_length_b   8.59636176
_cell_length_c   3.50383400
_cell_angle_alpha   90.00000000
_cell_angle_beta   90.00000000
_cell_angle_gamma   125.41739784
_symmetry_Int_Tables_number   1
_chemical_formula_structural   Ce4ThMo2C7
_chemical_formula_sum   'Ce4 Th1 Mo2 C7'
_cell_volume   211.01088395
_cell_formula_units_Z   1
loop_
 _symmetry_equiv_pos_site_id
 _symmetry_equiv_pos_as_xyz
  1  'x, y, z'
loop_
 _atom_site_type_symbol
 _atom_site_label
 _atom_site_symmetry_multiplicity
 _atom_site_fract_x
 _atom_site_fract_y
 _atom_site_fract_z
 _atom_site_occupancy
  Ce  Ce0  1  0.319379  0.056497  0.500000  1
  Ce  Ce1  1  0.680621  0.943503  0.500000  1
  Ce  Ce2  1  0.056497  0.319379  0.500000  1
  Ce  Ce3  1  0.943503  0.680621  0.500000  1
  Th  Th4  1  0.500000  0.500000  0.000000  1
  Mo  Mo5  1  0.288221  0.711779  0.000000  1
  Mo  Mo6  1  0.711779  0.288221  0.000000  1
  C  C7  1  0.173382  0.173382  0.000000  1
  C  C8  1  0.826618  0.826618  0.000000  1
  C  C9  1  0.000000  0.000000  0.000000  1
  C  C10  1  0.371493  0.628507  0.500000  1
  C  C11  1  0.628507  0.371493  0.500000  1
  C  C12  1  0.500000  0.000000  0.000000  1
  C  C13  1  0.000000  0.500000  0.000000  1
