# generated using pymatgen
data_TbLu11(TcIr)2
_symmetry_space_group_name_H-M   'P 1'
_cell_length_a   6.17925222
_cell_length_b   7.30881663
_cell_length_c   8.90188200
_cell_angle_alpha   90.00000000
_cell_angle_beta   90.00000000
_cell_angle_gamma   90.13142677
_symmetry_Int_Tables_number   1
_chemical_formula_structural   TbLu11(TcIr)2
_chemical_formula_sum   'Tb1 Lu11 Tc2 Ir2'
_cell_volume   402.03482925
_cell_formula_units_Z   1
loop_
 _symmetry_equiv_pos_site_id
 _symmetry_equiv_pos_as_xyz
  1  'x, y, z'
loop_
 _atom_site_type_symbol
 _atom_site_label
 _atom_site_symmetry_multiplicity
 _atom_site_fract_x
 _atom_site_fract_y
 _atom_site_fract_z
 _atom_site_occupancy
  Tb  Tb0  1  0.369362  0.961066  0.750000  1
  Lu  Lu1  1  0.333274  0.673802  0.065140  1
  Lu  Lu2  1  0.164859  0.178409  0.434125  1
  Lu  Lu3  1  0.666064  0.325227  0.559297  1
  Lu  Lu4  1  0.837801  0.823090  0.940583  1
  Lu  Lu5  1  0.666064  0.325227  0.940703  1
  Lu  Lu6  1  0.837801  0.823090  0.559417  1
  Lu  Lu7  1  0.333274  0.673802  0.434860  1
  Lu  Lu8  1  0.164859  0.178409  0.065875  1
  Lu  Lu9  1  0.875540  0.540354  0.250000  1
  Lu  Lu10  1  0.623746  0.037436  0.250000  1
  Lu  Lu11  1  0.130546  0.460110  0.750000  1
  Tc  Tc12  1  0.036961  0.884021  0.250000  1
  Tc  Tc13  1  0.465210  0.383623  0.250000  1
  Ir  Ir14  1  0.951030  0.118771  0.750000  1
  Ir  Ir15  1  0.543608  0.613562  0.750000  1
