# generated using pymatgen
data_Ho2Th(SnRh)3
_symmetry_space_group_name_H-M   'P 1'
_cell_length_a   7.47060849
_cell_length_b   7.57332985
_cell_length_c   4.00260100
_cell_angle_alpha   90.00000000
_cell_angle_beta   90.00000000
_cell_angle_gamma   120.45589546
_symmetry_Int_Tables_number   1
_chemical_formula_structural   Ho2Th(SnRh)3
_chemical_formula_sum   'Ho2 Th1 Sn3 Rh3'
_cell_volume   195.21010094
_cell_formula_units_Z   1
loop_
 _symmetry_equiv_pos_site_id
 _symmetry_equiv_pos_as_xyz
  1  'x, y, z'
loop_
 _atom_site_type_symbol
 _atom_site_label
 _atom_site_symmetry_multiplicity
 _atom_site_fract_x
 _atom_site_fract_y
 _atom_site_fract_z
 _atom_site_occupancy
  Ho  Ho0  1  0.407374  0.407432  0.500000  1
  Ho  Ho1  1  0.592626  0.000058  0.500000  1
  Th  Th2  1  0.000000  0.585054  0.500000  1
  Sn  Sn3  1  0.734723  0.745707  0.000000  1
  Sn  Sn4  1  0.265277  0.010984  0.000000  1
  Sn  Sn5  1  0.000000  0.244871  0.000000  1
  Rh  Rh6  1  0.680114  0.345964  0.000000  1
  Rh  Rh7  1  0.319886  0.665851  0.000000  1
  Rh  Rh8  1  0.000000  0.994078  0.500000  1
