# generated using pymatgen
data_Ce(YOs)2
_symmetry_space_group_name_H-M   'P 1'
_cell_length_a   5.84301079
_cell_length_b   5.84301066
_cell_length_c   5.84301240
_cell_angle_alpha   136.52562922
_cell_angle_beta   119.91640871
_cell_angle_gamma   77.03132746
_symmetry_Int_Tables_number   1
_chemical_formula_structural   Ce(YOs)2
_chemical_formula_sum   'Ce1 Y2 Os2'
_cell_volume   115.75781578
_cell_formula_units_Z   1
loop_
 _symmetry_equiv_pos_site_id
 _symmetry_equiv_pos_as_xyz
  1  'x, y, z'
loop_
 _atom_site_type_symbol
 _atom_site_label
 _atom_site_symmetry_multiplicity
 _atom_site_fract_x
 _atom_site_fract_y
 _atom_site_fract_z
 _atom_site_occupancy
  Ce  Ce0  1  0.000000  0.000000  0.000000  1
  Y  Y1  1  0.695330  0.195330  0.500000  1
  Y  Y2  1  0.304671  0.804670  0.500000  1
  Os  Os3  1  0.730674  0.500000  0.230674  1
  Os  Os4  1  0.269326  0.500000  0.769326  1
