# generated using pymatgen
data_Ba2PrFeO5
_symmetry_space_group_name_H-M   'P 1'
_cell_length_a   6.30756000
_cell_length_b   8.00655988
_cell_length_c   13.06630901
_cell_angle_alpha   91.48104218
_cell_angle_beta   90.00000000
_cell_angle_gamma   90.00000000
_symmetry_Int_Tables_number   1
_chemical_formula_structural   Ba2PrFeO5
_chemical_formula_sum   'Ba8 Pr4 Fe4 O20'
_cell_volume   659.65242400
_cell_formula_units_Z   4
loop_
 _symmetry_equiv_pos_site_id
 _symmetry_equiv_pos_as_xyz
  1  'x, y, z'
loop_
 _atom_site_type_symbol
 _atom_site_label
 _atom_site_symmetry_multiplicity
 _atom_site_fract_x
 _atom_site_fract_y
 _atom_site_fract_z
 _atom_site_occupancy
  Ba  Ba0  1  0.772199  0.477049  0.339002  1
  Ba  Ba1  1  0.727801  0.977049  0.839002  1
  Ba  Ba2  1  0.227801  0.522951  0.660998  1
  Ba  Ba3  1  0.272199  0.022951  0.160998  1
  Ba  Ba4  1  0.766665  0.991553  0.377252  1
  Ba  Ba5  1  0.733335  0.491553  0.877252  1
  Ba  Ba6  1  0.233335  0.008447  0.622748  1
  Ba  Ba7  1  0.266665  0.508447  0.122748  1
  Pr  Pr8  1  0.747020  0.273377  0.623589  1
  Pr  Pr9  1  0.752980  0.773377  0.123589  1
  Pr  Pr10  1  0.252980  0.726623  0.376411  1
  Pr  Pr11  1  0.247020  0.226623  0.876411  1
  Fe  Fe12  1  0.728794  0.743457  0.583397  1
  Fe  Fe13  1  0.771206  0.243457  0.083397  1
  Fe  Fe14  1  0.271206  0.256543  0.416603  1
  Fe  Fe15  1  0.228794  0.756543  0.916603  1
  O  O16  1  0.776746  0.970073  0.628980  1
  O  O17  1  0.723254  0.470073  0.128980  1
  O  O18  1  0.223254  0.029927  0.371020  1
  O  O19  1  0.276746  0.529927  0.871020  1
  O  O20  1  0.721850  0.071938  0.179407  1
  O  O21  1  0.778150  0.571938  0.679407  1
  O  O22  1  0.278150  0.928062  0.820593  1
  O  O23  1  0.221850  0.428062  0.320593  1
  O  O24  1  0.560981  0.743993  0.279557  1
  O  O25  1  0.939019  0.243993  0.779557  1
  O  O26  1  0.439019  0.256007  0.720443  1
  O  O27  1  0.060981  0.756007  0.220443  1
  O  O28  1  0.577249  0.214665  0.971448  1
  O  O29  1  0.922751  0.714665  0.471448  1
  O  O30  1  0.422751  0.785335  0.028552  1
  O  O31  1  0.077249  0.285335  0.528552  1
  O  O32  1  0.060754  0.234881  0.038471  1
  O  O33  1  0.439246  0.734881  0.538471  1
  O  O34  1  0.939246  0.765119  0.961529  1
  O  O35  1  0.560754  0.265119  0.461529  1
