# generated using pymatgen
data_HfNb3(SiRh)4
_symmetry_space_group_name_H-M   'P 1'
_cell_length_a   3.81049800
_cell_length_b   6.46387688
_cell_length_c   7.39789053
_cell_angle_alpha   90.30591042
_cell_angle_beta   90.00000000
_cell_angle_gamma   90.00000000
_symmetry_Int_Tables_number   1
_chemical_formula_structural   HfNb3(SiRh)4
_chemical_formula_sum   'Hf1 Nb3 Si4 Rh4'
_cell_volume   182.21181096
_cell_formula_units_Z   1
loop_
 _symmetry_equiv_pos_site_id
 _symmetry_equiv_pos_as_xyz
  1  'x, y, z'
loop_
 _atom_site_type_symbol
 _atom_site_label
 _atom_site_symmetry_multiplicity
 _atom_site_fract_x
 _atom_site_fract_y
 _atom_site_fract_z
 _atom_site_occupancy
  Hf  Hf0  1  0.750000  0.974839  0.678272  1
  Nb  Nb1  1  0.250000  0.524020  0.175575  1
  Nb  Nb2  1  0.750000  0.473208  0.827424  1
  Nb  Nb3  1  0.250000  0.026270  0.320771  1
  Si  Si4  1  0.250000  0.761903  0.881936  1
  Si  Si5  1  0.750000  0.230560  0.124267  1
  Si  Si6  1  0.250000  0.275177  0.620154  1
  Si  Si7  1  0.750000  0.730016  0.372994  1
  Rh  Rh8  1  0.750000  0.853952  0.062420  1
  Rh  Rh9  1  0.250000  0.145161  0.934481  1
  Rh  Rh10  1  0.750000  0.355104  0.438321  1
  Rh  Rh11  1  0.250000  0.649790  0.563385  1
