# generated using pymatgen
data_Rb2LiV(ZnAs2)2
_symmetry_space_group_name_H-M   'P 1'
_cell_length_a   7.80764664
_cell_length_b   7.80764706
_cell_length_c   5.87811600
_cell_angle_alpha   90.00000000
_cell_angle_beta   90.00000000
_cell_angle_gamma   135.75951209
_symmetry_Int_Tables_number   1
_chemical_formula_structural   Rb2LiV(ZnAs2)2
_chemical_formula_sum   'Rb2 Li1 V1 Zn2 As4'
_cell_volume   249.99393782
_cell_formula_units_Z   1
loop_
 _symmetry_equiv_pos_site_id
 _symmetry_equiv_pos_as_xyz
  1  'x, y, z'
loop_
 _atom_site_type_symbol
 _atom_site_label
 _atom_site_symmetry_multiplicity
 _atom_site_fract_x
 _atom_site_fract_y
 _atom_site_fract_z
 _atom_site_occupancy
  Rb  Rb0  1  0.500000  0.000000  0.253873  1
  Rb  Rb1  1  0.000000  0.500000  0.746127  1
  Li  Li2  1  0.500000  0.500000  0.500000  1
  V  V3  1  0.000000  0.000000  0.000000  1
  Zn  Zn4  1  0.500000  0.500000  0.000000  1
  Zn  Zn5  1  0.000000  0.000000  0.500000  1
  As  As6  1  0.668866  0.869035  0.769385  1
  As  As7  1  0.130965  0.331134  0.230615  1
  As  As8  1  0.869035  0.668866  0.230615  1
  As  As9  1  0.331134  0.130965  0.769385  1
