# generated using pymatgen
data_Dy5ErSi24OsRu7
_symmetry_space_group_name_H-M   'P 1'
_cell_length_a   10.11710201
_cell_length_b   10.11710305
_cell_length_c   8.15266002
_cell_angle_alpha   90.00031159
_cell_angle_beta   90.00031880
_cell_angle_gamma   132.52087309
_symmetry_Int_Tables_number   1
_chemical_formula_structural   Dy5ErSi24OsRu7
_chemical_formula_sum   'Dy5 Er1 Si24 Os1 Ru7'
_cell_volume   615.03168218
_cell_formula_units_Z   1
loop_
 _symmetry_equiv_pos_site_id
 _symmetry_equiv_pos_as_xyz
  1  'x, y, z'
loop_
 _atom_site_type_symbol
 _atom_site_label
 _atom_site_symmetry_multiplicity
 _atom_site_fract_x
 _atom_site_fract_y
 _atom_site_fract_z
 _atom_site_occupancy
  Dy  Dy0  1  0.000042  0.999958  0.000000  1
  Dy  Dy1  1  0.502314  0.002379  0.750217  1
  Dy  Dy2  1  0.997621  0.497686  0.249783  1
  Dy  Dy3  1  0.497763  0.997437  0.249682  1
  Dy  Dy4  1  0.002563  0.502237  0.750318  1
  Er  Er5  1  0.499944  0.500056  0.500000  1
  Si  Si6  1  0.795604  0.204396  0.500000  1
  Si  Si7  1  0.294979  0.705021  0.000000  1
  Si  Si8  1  0.205001  0.794999  0.500000  1
  Si  Si9  1  0.705158  0.294842  0.000000  1
  Si  Si10  1  0.332207  0.332436  0.833563  1
  Si  Si11  1  0.667564  0.667793  0.166437  1
  Si  Si12  1  0.167045  0.166796  0.332696  1
  Si  Si13  1  0.833204  0.832955  0.667304  1
  Si  Si14  1  0.121961  0.887759  0.728772  1
  Si  Si15  1  0.112241  0.878039  0.271228  1
  Si  Si16  1  0.612145  0.378100  0.227181  1
  Si  Si17  1  0.621900  0.387855  0.772819  1
  Si  Si18  1  0.877230  0.111222  0.270661  1
  Si  Si19  1  0.888778  0.122770  0.729339  1
  Si  Si20  1  0.387645  0.622225  0.771875  1
  Si  Si21  1  0.377775  0.612355  0.228125  1
  Si  Si22  1  0.343981  0.110809  0.505197  1
  Si  Si23  1  0.889191  0.656019  0.494803  1
  Si  Si24  1  0.387896  0.154290  0.004787  1
  Si  Si25  1  0.845710  0.612104  0.995213  1
  Si  Si26  1  0.654107  0.887807  0.493676  1
  Si  Si27  1  0.112193  0.345893  0.506324  1
  Si  Si28  1  0.611854  0.845400  0.995261  1
  Si  Si29  1  0.154600  0.388146  0.004739  1
  Os  Os30  1  0.669021  0.330979  0.500000  1
  Ru  Ru31  1  0.169342  0.830658  0.000000  1
  Ru  Ru32  1  0.330934  0.669066  0.500000  1
  Ru  Ru33  1  0.830696  0.169304  0.000000  1
  Ru  Ru34  1  0.127755  0.127952  0.626470  1
  Ru  Ru35  1  0.872048  0.872245  0.373530  1
  Ru  Ru36  1  0.374394  0.374405  0.128361  1
  Ru  Ru37  1  0.625595  0.625606  0.871639  1
