# generated using pymatgen
data_Pr10CoRhAu4
_symmetry_space_group_name_H-M   'P 1'
_cell_length_a   8.75332011
_cell_length_b   8.44471600
_cell_length_c   12.29576140
_cell_angle_alpha   90.00000000
_cell_angle_beta   89.27892133
_cell_angle_gamma   90.00000000
_symmetry_Int_Tables_number   1
_chemical_formula_structural   Pr10CoRhAu4
_chemical_formula_sum   'Pr20 Co2 Rh2 Au8'
_cell_volume   908.82212699
_cell_formula_units_Z   2
loop_
 _symmetry_equiv_pos_site_id
 _symmetry_equiv_pos_as_xyz
  1  'x, y, z'
loop_
 _atom_site_type_symbol
 _atom_site_label
 _atom_site_symmetry_multiplicity
 _atom_site_fract_x
 _atom_site_fract_y
 _atom_site_fract_z
 _atom_site_occupancy
  Pr  Pr0  1  0.846086  0.750000  0.791988  1
  Pr  Pr1  1  0.153914  0.250000  0.208012  1
  Pr  Pr2  1  0.335259  0.250000  0.718297  1
  Pr  Pr3  1  0.664741  0.750000  0.281703  1
  Pr  Pr4  1  0.376914  0.750000  0.703715  1
  Pr  Pr5  1  0.623086  0.250000  0.296285  1
  Pr  Pr6  1  0.884121  0.250000  0.801804  1
  Pr  Pr7  1  0.115879  0.750000  0.198196  1
  Pr  Pr8  1  0.952778  0.750000  0.493517  1
  Pr  Pr9  1  0.047222  0.250000  0.506483  1
  Pr  Pr10  1  0.460294  0.250000  0.008583  1
  Pr  Pr11  1  0.539706  0.750000  0.991417  1
  Pr  Pr12  1  0.678709  0.037866  0.580680  1
  Pr  Pr13  1  0.321291  0.962134  0.419320  1
  Pr  Pr14  1  0.172975  0.966024  0.929211  1
  Pr  Pr15  1  0.321291  0.537866  0.419320  1
  Pr  Pr16  1  0.827025  0.033976  0.070789  1
  Pr  Pr17  1  0.678709  0.462134  0.580680  1
  Pr  Pr18  1  0.827025  0.466024  0.070789  1
  Pr  Pr19  1  0.172975  0.533976  0.929211  1
  Co  Co20  1  0.058958  0.250000  0.991230  1
  Co  Co21  1  0.941042  0.750000  0.008770  1
  Rh  Rh22  1  0.560459  0.750000  0.505568  1
  Rh  Rh23  1  0.439541  0.250000  0.494432  1
  Au  Au24  1  0.577611  0.475212  0.828083  1
  Au  Au25  1  0.422389  0.524788  0.171917  1
  Au  Au26  1  0.078436  0.524490  0.672540  1
  Au  Au27  1  0.422389  0.975212  0.171917  1
  Au  Au28  1  0.921564  0.475510  0.327460  1
  Au  Au29  1  0.577611  0.024788  0.828083  1
  Au  Au30  1  0.921564  0.024490  0.327460  1
  Au  Au31  1  0.078436  0.975510  0.672540  1
