# generated using pymatgen
data_Tb10IrRu2Pt3
_symmetry_space_group_name_H-M   'P 1'
_cell_length_a   10.99997800
_cell_length_b   10.99128400
_cell_length_c   6.46398200
_cell_angle_alpha   90.00000000
_cell_angle_beta   89.99989053
_cell_angle_gamma   90.00000000
_symmetry_Int_Tables_number   1
_chemical_formula_structural   Tb10IrRu2Pt3
_chemical_formula_sum   'Tb20 Ir2 Ru4 Pt6'
_cell_volume   781.52051822
_cell_formula_units_Z   2
loop_
 _symmetry_equiv_pos_site_id
 _symmetry_equiv_pos_as_xyz
  1  'x, y, z'
loop_
 _atom_site_type_symbol
 _atom_site_label
 _atom_site_symmetry_multiplicity
 _atom_site_fract_x
 _atom_site_fract_y
 _atom_site_fract_z
 _atom_site_occupancy
  Tb  Tb0  1  0.296802  0.089359  0.374995  1
  Tb  Tb1  1  0.296802  0.910641  0.874995  1
  Tb  Tb2  1  0.702869  0.086396  0.874397  1
  Tb  Tb3  1  0.702869  0.913604  0.374397  1
  Tb  Tb4  1  0.583470  0.794711  0.874818  1
  Tb  Tb5  1  0.583470  0.205289  0.374818  1
  Tb  Tb6  1  0.411675  0.794967  0.379557  1
  Tb  Tb7  1  0.411675  0.205033  0.879557  1
  Tb  Tb8  1  0.206971  0.414561  0.621573  1
  Tb  Tb9  1  0.206971  0.585439  0.121573  1
  Tb  Tb10  1  0.796893  0.413251  0.124263  1
  Tb  Tb11  1  0.796893  0.586749  0.624263  1
  Tb  Tb12  1  0.914364  0.702762  0.124470  1
  Tb  Tb13  1  0.914364  0.297238  0.624470  1
  Tb  Tb14  1  0.090207  0.703100  0.625808  1
  Tb  Tb15  1  0.090207  0.296900  0.125808  1
  Tb  Tb16  1  0.000008  0.999657  0.499845  1
  Tb  Tb17  1  0.000008  0.000343  0.999845  1
  Tb  Tb18  1  0.496913  0.499648  0.000135  1
  Tb  Tb19  1  0.496913  0.500352  0.500135  1
  Ir  Ir20  1  0.347427  0.346572  0.250075  1
  Ir  Ir21  1  0.347427  0.653428  0.750075  1
  Ru  Ru22  1  0.500635  0.999829  0.124644  1
  Ru  Ru23  1  0.500635  0.000171  0.624644  1
  Ru  Ru24  1  0.999152  0.500291  0.875379  1
  Ru  Ru25  1  0.999152  0.499709  0.375379  1
  Pt  Pt26  1  0.846239  0.152912  0.250430  1
  Pt  Pt27  1  0.846239  0.847088  0.750430  1
  Pt  Pt28  1  0.152446  0.153232  0.749479  1
  Pt  Pt29  1  0.152446  0.846768  0.249479  1
  Pt  Pt30  1  0.653929  0.346744  0.750131  1
  Pt  Pt31  1  0.653929  0.653256  0.250131  1
