# generated using pymatgen
data_Hf4Ta4SiAs3
_symmetry_space_group_name_H-M   'P 1'
_cell_length_a   3.58833200
_cell_length_b   7.02192327
_cell_length_c   8.55249226
_cell_angle_alpha   90.02134138
_cell_angle_beta   90.00000000
_cell_angle_gamma   90.00000000
_symmetry_Int_Tables_number   1
_chemical_formula_structural   Hf4Ta4SiAs3
_chemical_formula_sum   'Hf4 Ta4 Si1 As3'
_cell_volume   215.49706376
_cell_formula_units_Z   1
loop_
 _symmetry_equiv_pos_site_id
 _symmetry_equiv_pos_as_xyz
  1  'x, y, z'
loop_
 _atom_site_type_symbol
 _atom_site_label
 _atom_site_symmetry_multiplicity
 _atom_site_fract_x
 _atom_site_fract_y
 _atom_site_fract_z
 _atom_site_occupancy
  Hf  Hf0  1  0.250000  0.039879  0.661275  1
  Hf  Hf1  1  0.250000  0.537115  0.833818  1
  Hf  Hf2  1  0.750000  0.458451  0.169480  1
  Hf  Hf3  1  0.750000  0.969246  0.334878  1
  Ta  Ta4  1  0.750000  0.860136  0.939705  1
  Ta  Ta5  1  0.250000  0.634748  0.438899  1
  Ta  Ta6  1  0.750000  0.361217  0.558436  1
  Ta  Ta7  1  0.250000  0.137470  0.062262  1
  Si  Si8  1  0.250000  0.260709  0.357055  1
  As  As9  1  0.250000  0.759474  0.146029  1
  As  As10  1  0.750000  0.742409  0.643022  1
  As  As11  1  0.750000  0.239145  0.855142  1
