# generated using pymatgen
data_Yb4Ga(TcO4)3
_symmetry_space_group_name_H-M   'P 1'
_cell_length_a   5.32870351
_cell_length_b   5.57745741
_cell_length_c   7.64889285
_cell_angle_alpha   89.78262355
_cell_angle_beta   90.14028600
_cell_angle_gamma   89.93953687
_symmetry_Int_Tables_number   1
_chemical_formula_structural   Yb4Ga(TcO4)3
_chemical_formula_sum   'Yb4 Ga1 Tc3 O12'
_cell_volume   227.32736775
_cell_formula_units_Z   1
loop_
 _symmetry_equiv_pos_site_id
 _symmetry_equiv_pos_as_xyz
  1  'x, y, z'
loop_
 _atom_site_type_symbol
 _atom_site_label
 _atom_site_symmetry_multiplicity
 _atom_site_fract_x
 _atom_site_fract_y
 _atom_site_fract_z
 _atom_site_occupancy
  Yb  Yb0  1  0.017509  0.439875  0.255548  1
  Yb  Yb1  1  0.982491  0.560125  0.744452  1
  Yb  Yb2  1  0.517591  0.066729  0.742813  1
  Yb  Yb3  1  0.482409  0.933271  0.257187  1
  Ga  Ga4  1  0.500000  0.500000  0.500000  1
  Tc  Tc5  1  0.000000  0.000000  0.000000  1
  Tc  Tc6  1  0.500000  0.500000  0.000000  1
  Tc  Tc7  1  0.000000  0.000000  0.500000  1
  O  O8  1  0.304982  0.202044  0.049121  1
  O  O9  1  0.695018  0.797956  0.950879  1
  O  O10  1  0.801973  0.298948  0.950503  1
  O  O11  1  0.697714  0.799533  0.549323  1
  O  O12  1  0.198027  0.701052  0.049497  1
  O  O13  1  0.302286  0.200467  0.450677  1
  O  O14  1  0.197414  0.701870  0.449245  1
  O  O15  1  0.802586  0.298130  0.550755  1
  O  O16  1  0.598604  0.528848  0.251291  1
  O  O17  1  0.401396  0.471152  0.748709  1
  O  O18  1  0.094541  0.972603  0.748516  1
  O  O19  1  0.905459  0.027397  0.251484  1
