# generated using pymatgen
data_Sr4CePr(IrO6)2
_symmetry_space_group_name_H-M   'P 1'
_cell_length_a   5.87944987
_cell_length_b   5.99015739
_cell_length_c   8.35237121
_cell_angle_alpha   90.05390694
_cell_angle_beta   90.61727413
_cell_angle_gamma   90.12744293
_symmetry_Int_Tables_number   1
_chemical_formula_structural   Sr4CePr(IrO6)2
_chemical_formula_sum   'Sr4 Ce1 Pr1 Ir2 O12'
_cell_volume   294.14280685
_cell_formula_units_Z   1
loop_
 _symmetry_equiv_pos_site_id
 _symmetry_equiv_pos_as_xyz
  1  'x, y, z'
loop_
 _atom_site_type_symbol
 _atom_site_label
 _atom_site_symmetry_multiplicity
 _atom_site_fract_x
 _atom_site_fract_y
 _atom_site_fract_z
 _atom_site_occupancy
  Sr  Sr0  1  0.487759  0.543390  0.252925  1
  Sr  Sr1  1  0.012738  0.044057  0.251012  1
  Sr  Sr2  1  0.512240  0.456611  0.747074  1
  Sr  Sr3  1  0.987263  0.955943  0.748988  1
  Ce  Ce4  1  0.000001  0.500000  0.499999  1
  Pr  Pr5  1  0.500001  0.000000  0.000001  1
  Ir  Ir6  1  0.500000  0.000000  0.500000  1
  Ir  Ir7  1  0.000000  0.500000  0.000000  1
  O  O8  1  0.584594  0.975563  0.272474  1
  O  O9  1  0.919783  0.476787  0.236039  1
  O  O10  1  0.415407  0.024437  0.727526  1
  O  O11  1  0.080218  0.523212  0.763962  1
  O  O12  1  0.180636  0.774042  0.046029  1
  O  O13  1  0.300967  0.273705  0.455223  1
  O  O14  1  0.819363  0.225959  0.953970  1
  O  O15  1  0.699035  0.726294  0.544778  1
  O  O16  1  0.274624  0.313760  0.044328  1
  O  O17  1  0.226690  0.795943  0.458106  1
  O  O18  1  0.725375  0.686239  0.955672  1
  O  O19  1  0.773311  0.204058  0.541894  1
