# generated using pymatgen
data_Nd6CoP12Rh17
_symmetry_space_group_name_H-M   'P 1'
_cell_length_a   3.94071400
_cell_length_b   11.26551300
_cell_length_c   12.92393100
_cell_angle_alpha   90.00000000
_cell_angle_beta   90.00000000
_cell_angle_gamma   90.00000000
_symmetry_Int_Tables_number   1
_chemical_formula_structural   Nd6CoP12Rh17
_chemical_formula_sum   'Nd6 Co1 P12 Rh17'
_cell_volume   573.74712263
_cell_formula_units_Z   1
loop_
 _symmetry_equiv_pos_site_id
 _symmetry_equiv_pos_as_xyz
  1  'x, y, z'
loop_
 _atom_site_type_symbol
 _atom_site_label
 _atom_site_symmetry_multiplicity
 _atom_site_fract_x
 _atom_site_fract_y
 _atom_site_fract_z
 _atom_site_occupancy
  Nd  Nd0  1  0.000000  0.500000  0.519660  1
  Nd  Nd1  1  0.500000  0.000000  0.479517  1
  Nd  Nd2  1  0.500000  0.818037  0.203348  1
  Nd  Nd3  1  0.500000  0.181963  0.203348  1
  Nd  Nd4  1  0.000000  0.687224  0.797105  1
  Nd  Nd5  1  0.000000  0.312776  0.797105  1
  Co  Co6  1  0.500000  0.000000  0.019010  1
  P  P7  1  0.500000  0.500000  0.881798  1
  P  P8  1  0.000000  0.000000  0.116911  1
  P  P9  1  0.500000  0.500000  0.346228  1
  P  P10  1  0.000000  0.000000  0.652244  1
  P  P11  1  0.500000  0.312908  0.617667  1
  P  P12  1  0.500000  0.687092  0.617667  1
  P  P13  1  0.000000  0.186916  0.382380  1
  P  P14  1  0.000000  0.813084  0.382380  1
  P  P15  1  0.500000  0.856109  0.896934  1
  P  P16  1  0.500000  0.143891  0.896934  1
  P  P17  1  0.000000  0.654547  0.105593  1
  P  P18  1  0.000000  0.345453  0.105593  1
  Rh  Rh19  1  0.500000  0.500000  0.166779  1
  Rh  Rh20  1  0.000000  0.000000  0.831416  1
  Rh  Rh21  1  0.500000  0.500000  0.703072  1
  Rh  Rh22  1  0.000000  0.000000  0.297208  1
  Rh  Rh23  1  0.000000  0.500000  0.982627  1
  Rh  Rh24  1  0.500000  0.331952  0.995650  1
  Rh  Rh25  1  0.500000  0.668048  0.995650  1
  Rh  Rh26  1  0.000000  0.160367  0.004228  1
  Rh  Rh27  1  0.000000  0.839633  0.004228  1
  Rh  Rh28  1  0.500000  0.293018  0.429990  1
  Rh  Rh29  1  0.500000  0.706982  0.429990  1
  Rh  Rh30  1  0.000000  0.206985  0.569594  1
  Rh  Rh31  1  0.000000  0.793015  0.569594  1
  Rh  Rh32  1  0.500000  0.875452  0.711311  1
  Rh  Rh33  1  0.500000  0.124548  0.711311  1
  Rh  Rh34  1  0.000000  0.625564  0.287965  1
  Rh  Rh35  1  0.000000  0.374436  0.287965  1
