# generated using pymatgen
data_TbYB6Ir5Rh4
_symmetry_space_group_name_H-M   'P 1'
_cell_length_a   5.62153600
_cell_length_b   5.63220708
_cell_length_c   8.62674200
_cell_angle_alpha   90.00000000
_cell_angle_beta   90.00000000
_cell_angle_gamma   119.93734513
_symmetry_Int_Tables_number   1
_chemical_formula_structural   TbYB6Ir5Rh4
_chemical_formula_sum   'Tb1 Y1 B6 Ir5 Rh4'
_cell_volume   236.69271902
_cell_formula_units_Z   1
loop_
 _symmetry_equiv_pos_site_id
 _symmetry_equiv_pos_as_xyz
  1  'x, y, z'
loop_
 _atom_site_type_symbol
 _atom_site_label
 _atom_site_symmetry_multiplicity
 _atom_site_fract_x
 _atom_site_fract_y
 _atom_site_fract_z
 _atom_site_occupancy
  Tb  Tb0  1  0.000000  0.000000  0.701487  1
  Y  Y1  1  0.000000  0.000000  0.298536  1
  B  B2  1  0.666241  0.332480  0.000063  1
  B  B3  1  0.333759  0.667520  0.000063  1
  B  B4  1  0.666414  0.332826  0.667938  1
  B  B5  1  0.333586  0.667174  0.667938  1
  B  B6  1  0.333586  0.667174  0.332036  1
  B  B7  1  0.666414  0.332826  0.332036  1
  Ir  Ir8  1  0.500000  0.000000  0.836506  1
  Ir  Ir9  1  0.500000  0.000000  0.163518  1
  Ir  Ir10  1  0.500000  0.500000  0.499975  1
  Ir  Ir11  1  0.500000  0.000000  0.499962  1
  Ir  Ir12  1  0.000000  0.500000  0.499975  1
  Rh  Rh13  1  0.500000  0.500000  0.836738  1
  Rh  Rh14  1  0.000000  0.500000  0.836738  1
  Rh  Rh15  1  0.500000  0.500000  0.163245  1
  Rh  Rh16  1  0.000000  0.500000  0.163245  1
