# generated using pymatgen
data_K3Rb5(BeBr4)4
_symmetry_space_group_name_H-M   'P 1'
_cell_length_a   7.38505900
_cell_length_b   9.81865520
_cell_length_c   12.88613200
_cell_angle_alpha   89.84018570
_cell_angle_beta   90.00000000
_cell_angle_gamma   90.00000000
_symmetry_Int_Tables_number   1
_chemical_formula_structural   K3Rb5(BeBr4)4
_chemical_formula_sum   'K3 Rb5 Be4 Br16'
_cell_volume   934.38716592
_cell_formula_units_Z   1
loop_
 _symmetry_equiv_pos_site_id
 _symmetry_equiv_pos_as_xyz
  1  'x, y, z'
loop_
 _atom_site_type_symbol
 _atom_site_label
 _atom_site_symmetry_multiplicity
 _atom_site_fract_x
 _atom_site_fract_y
 _atom_site_fract_z
 _atom_site_occupancy
  K  K0  1  0.250000  0.523661  0.336040  1
  K  K1  1  0.250000  0.023814  0.164188  1
  K  K2  1  0.750000  0.476261  0.663778  1
  Rb  Rb3  1  0.750000  0.975814  0.833011  1
  Rb  Rb4  1  0.250000  0.862845  0.601416  1
  Rb  Rb5  1  0.250000  0.362823  0.898388  1
  Rb  Rb6  1  0.750000  0.137066  0.397635  1
  Rb  Rb7  1  0.750000  0.636393  0.101979  1
  Be  Be8  1  0.250000  0.260752  0.577428  1
  Be  Be9  1  0.250000  0.758168  0.921933  1
  Be  Be10  1  0.750000  0.739963  0.421131  1
  Be  Be11  1  0.750000  0.241470  0.079220  1
  Br  Br12  1  0.250000  0.483869  0.597052  1
  Br  Br13  1  0.250000  0.981880  0.902558  1
  Br  Br14  1  0.750000  0.516701  0.402361  1
  Br  Br15  1  0.750000  0.018492  0.101129  1
  Br  Br16  1  0.250000  0.199515  0.412844  1
  Br  Br17  1  0.250000  0.699685  0.087387  1
  Br  Br18  1  0.750000  0.799936  0.586081  1
  Br  Br19  1  0.750000  0.306754  0.915032  1
  Br  Br20  1  0.495341  0.178460  0.650495  1
  Br  Br21  1  0.006264  0.673409  0.848806  1
  Br  Br22  1  0.995840  0.822427  0.348609  1
  Br  Br23  1  0.503614  0.322774  0.151796  1
  Br  Br24  1  0.504160  0.822427  0.348609  1
  Br  Br25  1  0.996386  0.322774  0.151796  1
  Br  Br26  1  0.004659  0.178460  0.650495  1
  Br  Br27  1  0.493736  0.673409  0.848806  1
