# generated using pymatgen
data_Lu2(PaTc)3
_symmetry_space_group_name_H-M   'P 1'
_cell_length_a   7.94077600
_cell_length_b   7.94077486
_cell_length_c   6.54472600
_cell_angle_alpha   90.00000000
_cell_angle_beta   90.00000000
_cell_angle_gamma   119.99999643
_symmetry_Int_Tables_number   1
_chemical_formula_structural   Lu2(PaTc)3
_chemical_formula_sum   'Lu4 Pa6 Tc6'
_cell_volume   357.39456564
_cell_formula_units_Z   2
loop_
 _symmetry_equiv_pos_site_id
 _symmetry_equiv_pos_as_xyz
  1  'x, y, z'
loop_
 _atom_site_type_symbol
 _atom_site_label
 _atom_site_symmetry_multiplicity
 _atom_site_fract_x
 _atom_site_fract_y
 _atom_site_fract_z
 _atom_site_occupancy
  Lu  Lu0  1  0.666667  0.333333  0.000000  1
  Lu  Lu1  1  0.333333  0.666666  0.000000  1
  Lu  Lu2  1  0.666667  0.333333  0.500001  1
  Lu  Lu3  1  0.333333  0.666666  0.500001  1
  Pa  Pa4  1  0.240023  0.000000  0.250000  1
  Pa  Pa5  1  0.000000  0.240024  0.250000  1
  Pa  Pa6  1  0.759977  0.759977  0.250000  1
  Pa  Pa7  1  0.759977  0.000000  0.750000  1
  Pa  Pa8  1  0.240023  0.240024  0.750000  1
  Pa  Pa9  1  0.000000  0.759977  0.750000  1
  Tc  Tc10  1  0.636824  0.000000  0.250000  1
  Tc  Tc11  1  0.363175  0.363175  0.250000  1
  Tc  Tc12  1  0.000000  0.636824  0.250000  1
  Tc  Tc13  1  0.363176  0.000000  0.750000  1
  Tc  Tc14  1  0.000000  0.363175  0.750000  1
  Tc  Tc15  1  0.636825  0.636824  0.750000  1
