# generated using pymatgen
data_Sr2ReNiN4
_symmetry_space_group_name_H-M   'P 1'
_cell_length_a   5.86882400
_cell_length_b   6.27961504
_cell_length_c   7.34796893
_cell_angle_alpha   68.40507889
_cell_angle_beta   90.00000000
_cell_angle_gamma   90.00000000
_symmetry_Int_Tables_number   1
_chemical_formula_structural   Sr2ReNiN4
_chemical_formula_sum   'Sr4 Re2 Ni2 N8'
_cell_volume   251.79390708
_cell_formula_units_Z   2
loop_
 _symmetry_equiv_pos_site_id
 _symmetry_equiv_pos_as_xyz
  1  'x, y, z'
loop_
 _atom_site_type_symbol
 _atom_site_label
 _atom_site_symmetry_multiplicity
 _atom_site_fract_x
 _atom_site_fract_y
 _atom_site_fract_z
 _atom_site_occupancy
  Sr  Sr0  1  0.250000  0.268912  0.054215  1
  Sr  Sr1  1  0.750000  0.731088  0.945785  1
  Sr  Sr2  1  0.750000  0.830199  0.414165  1
  Sr  Sr3  1  0.250000  0.169801  0.585835  1
  Re  Re4  1  0.250000  0.707970  0.210040  1
  Re  Re5  1  0.750000  0.292030  0.789960  1
  Ni  Ni6  1  0.750000  0.348765  0.383504  1
  Ni  Ni7  1  0.250000  0.651235  0.616496  1
  N  N8  1  0.502429  0.485376  0.744746  1
  N  N9  1  0.002429  0.514624  0.255254  1
  N  N10  1  0.497571  0.514624  0.255254  1
  N  N11  1  0.997571  0.485376  0.744746  1
  N  N12  1  0.750000  0.109384  0.629782  1
  N  N13  1  0.250000  0.890616  0.370218  1
  N  N14  1  0.750000  0.098174  0.043942  1
  N  N15  1  0.250000  0.901826  0.956058  1
