# generated using pymatgen
data_Th4Al24Pd7Rh2
_symmetry_space_group_name_H-M   'P 1'
_cell_length_a   7.62021331
_cell_length_b   7.62090614
_cell_length_c   13.29192131
_cell_angle_alpha   84.62129144
_cell_angle_beta   100.98045689
_cell_angle_gamma   119.84179461
_symmetry_Int_Tables_number   1
_chemical_formula_structural   Th4Al24Pd7Rh2
_chemical_formula_sum   'Th4 Al24 Pd7 Rh2'
_cell_volume   657.29040615
_cell_formula_units_Z   1
loop_
 _symmetry_equiv_pos_site_id
 _symmetry_equiv_pos_as_xyz
  1  'x, y, z'
loop_
 _atom_site_type_symbol
 _atom_site_label
 _atom_site_symmetry_multiplicity
 _atom_site_fract_x
 _atom_site_fract_y
 _atom_site_fract_z
 _atom_site_occupancy
  Th  Th0  1  0.436731  0.831470  0.806043  1
  Th  Th1  1  0.562871  0.167937  0.193088  1
  Th  Th2  1  0.767472  0.502581  0.805886  1
  Th  Th3  1  0.231630  0.497614  0.193587  1
  Al  Al4  1  0.478464  0.169170  0.946386  1
  Al  Al5  1  0.520888  0.830597  0.052576  1
  Al  Al6  1  0.024851  0.169186  0.560931  1
  Al  Al7  1  0.979648  0.834529  0.441447  1
  Al  Al8  1  0.353114  0.830008  0.558474  1
  Al  Al9  1  0.647780  0.166559  0.443121  1
  Al  Al10  1  0.622317  0.834200  0.336129  1
  Al  Al11  1  0.377333  0.167773  0.662794  1
  Al  Al12  1  0.057213  0.489474  0.662570  1
  Al  Al13  1  0.945543  0.510767  0.336420  1
  Al  Al14  1  0.729706  0.841608  0.660286  1
  Al  Al15  1  0.266801  0.156071  0.337942  1
  Al  Al16  1  0.150860  0.496340  0.946805  1
  Al  Al17  1  0.848660  0.503358  0.052233  1
  Al  Al18  1  0.817518  0.832321  0.957021  1
  Al  Al19  1  0.182338  0.167816  0.042242  1
  Al  Al20  1  0.313462  0.499067  0.445072  1
  Al  Al21  1  0.684347  0.501350  0.558519  1
  Al  Al22  1  0.099149  0.836498  0.183812  1
  Al  Al23  1  0.900583  0.163259  0.816156  1
  Al  Al24  1  0.304202  0.366608  0.814679  1
  Al  Al25  1  0.695445  0.633545  0.183407  1
  Al  Al26  1  0.100830  0.962926  0.815978  1
  Al  Al27  1  0.898503  0.036650  0.184121  1
  Pd  Pd28  1  0.612936  0.492351  0.361988  1
  Pd  Pd29  1  0.172769  0.828842  0.000140  1
  Pd  Pd30  1  0.827587  0.171129  0.000956  1
  Pd  Pd31  1  0.294129  0.833887  0.362327  1
  Pd  Pd32  1  0.705968  0.167104  0.637530  1
  Pd  Pd33  1  0.047537  0.825801  0.638117  1
  Pd  Pd34  1  0.952174  0.173867  0.361990  1
  Rh  Rh35  1  0.388777  0.507947  0.639175  1
  Rh  Rh36  1  0.499864  0.499790  0.000051  1
