# generated using pymatgen
data_Dy5Ho3Sc12Si15P
_symmetry_space_group_name_H-M   'P 1'
_cell_length_a   7.07404705
_cell_length_b   7.35825419
_cell_length_c   13.94343913
_cell_angle_alpha   89.99077891
_cell_angle_beta   90.01230714
_cell_angle_gamma   90.12576199
_symmetry_Int_Tables_number   1
_chemical_formula_structural   Dy5Ho3Sc12Si15P
_chemical_formula_sum   'Dy5 Ho3 Sc12 Si15 P1'
_cell_volume   725.79099077
_cell_formula_units_Z   1
loop_
 _symmetry_equiv_pos_site_id
 _symmetry_equiv_pos_as_xyz
  1  'x, y, z'
loop_
 _atom_site_type_symbol
 _atom_site_label
 _atom_site_symmetry_multiplicity
 _atom_site_fract_x
 _atom_site_fract_y
 _atom_site_fract_z
 _atom_site_occupancy
  Dy  Dy0  1  0.010559  0.175208  0.096543  1
  Dy  Dy1  1  0.990442  0.826626  0.900729  1
  Dy  Dy2  1  0.489430  0.675504  0.903835  1
  Dy  Dy3  1  0.990414  0.826604  0.599151  1
  Dy  Dy4  1  0.511445  0.324400  0.096247  1
  Ho  Ho5  1  0.010675  0.175338  0.403402  1
  Ho  Ho6  1  0.511488  0.324179  0.403693  1
  Ho  Ho7  1  0.489400  0.675683  0.596249  1
  Sc  Sc8  1  0.159818  0.502129  0.749966  1
  Sc  Sc9  1  0.838949  0.497356  0.250075  1
  Sc  Sc10  1  0.339343  0.002502  0.250092  1
  Sc  Sc11  1  0.662339  0.999072  0.749944  1
  Sc  Sc12  1  0.327514  0.173791  0.627123  1
  Sc  Sc13  1  0.668209  0.823423  0.375380  1
  Sc  Sc14  1  0.168262  0.677082  0.375234  1
  Sc  Sc15  1  0.668268  0.823460  0.124714  1
  Sc  Sc16  1  0.832794  0.322357  0.626355  1
  Sc  Sc17  1  0.327469  0.173626  0.872787  1
  Sc  Sc18  1  0.832806  0.322376  0.873569  1
  Sc  Sc19  1  0.168235  0.677123  0.124867  1
  Si  Si20  1  0.965320  0.883912  0.250093  1
  Si  Si21  1  0.466146  0.615267  0.250086  1
  Si  Si22  1  0.531723  0.383001  0.749905  1
  Si  Si23  1  0.295019  0.864381  0.749866  1
  Si  Si24  1  0.714446  0.126574  0.250225  1
  Si  Si25  1  0.214825  0.373124  0.250230  1
  Si  Si26  1  0.786406  0.628281  0.749885  1
  Si  Si27  1  0.158157  0.463765  0.539869  1
  Si  Si28  1  0.841660  0.535223  0.461259  1
  Si  Si29  1  0.340209  0.965469  0.460691  1
  Si  Si30  1  0.842052  0.535599  0.038650  1
  Si  Si31  1  0.659369  0.036454  0.540150  1
  Si  Si32  1  0.157766  0.463833  0.960093  1
  Si  Si33  1  0.659443  0.036464  0.959817  1
  Si  Si34  1  0.340374  0.965272  0.039258  1
  P  P35  1  0.029227  0.125541  0.749969  1
