# generated using pymatgen
data_Y3LuAu5
_symmetry_space_group_name_H-M   'P 1'
_cell_length_a   7.99666768
_cell_length_b   7.99666696
_cell_length_c   7.99666667
_cell_angle_alpha   66.16979251
_cell_angle_beta   66.16978912
_cell_angle_gamma   66.16978035
_symmetry_Int_Tables_number   1
_chemical_formula_structural   Y3LuAu5
_chemical_formula_sum   'Y6 Lu2 Au10'
_cell_volume   409.78776575
_cell_formula_units_Z   2
loop_
 _symmetry_equiv_pos_site_id
 _symmetry_equiv_pos_as_xyz
  1  'x, y, z'
loop_
 _atom_site_type_symbol
 _atom_site_label
 _atom_site_symmetry_multiplicity
 _atom_site_fract_x
 _atom_site_fract_y
 _atom_site_fract_z
 _atom_site_occupancy
  Y  Y0  1  0.892347  0.189071  0.618350  1
  Y  Y1  1  0.618350  0.892347  0.189071  1
  Y  Y2  1  0.189071  0.618350  0.892347  1
  Y  Y3  1  0.107653  0.810929  0.381650  1
  Y  Y4  1  0.381650  0.107653  0.810929  1
  Y  Y5  1  0.810929  0.381650  0.107653  1
  Lu  Lu6  1  0.659483  0.659483  0.659483  1
  Lu  Lu7  1  0.340517  0.340517  0.340517  1
  Au  Au8  1  0.000000  0.000000  0.000000  1
  Au  Au9  1  0.500000  0.500000  0.500000  1
  Au  Au10  1  0.809966  0.809966  0.809966  1
  Au  Au11  1  0.190034  0.190034  0.190034  1
  Au  Au12  1  0.936757  0.550787  0.315293  1
  Au  Au13  1  0.315293  0.936757  0.550787  1
  Au  Au14  1  0.550787  0.315293  0.936757  1
  Au  Au15  1  0.063243  0.449213  0.684707  1
  Au  Au16  1  0.684707  0.063243  0.449213  1
  Au  Au17  1  0.449213  0.684707  0.063243  1
