# generated using pymatgen
data_HfSc2Nb2Si3
_symmetry_space_group_name_H-M   'P 1'
_cell_length_a   7.81736286
_cell_length_b   7.81736302
_cell_length_c   5.40640300
_cell_angle_alpha   90.00000000
_cell_angle_beta   90.00000000
_cell_angle_gamma   120.00609547
_symmetry_Int_Tables_number   1
_chemical_formula_structural   HfSc2Nb2Si3
_chemical_formula_sum   'Hf2 Sc4 Nb4 Si6'
_cell_volume   286.10992230
_cell_formula_units_Z   2
loop_
 _symmetry_equiv_pos_site_id
 _symmetry_equiv_pos_as_xyz
  1  'x, y, z'
loop_
 _atom_site_type_symbol
 _atom_site_label
 _atom_site_symmetry_multiplicity
 _atom_site_fract_x
 _atom_site_fract_y
 _atom_site_fract_z
 _atom_site_occupancy
  Hf  Hf0  1  0.747537  0.998280  0.000000  1
  Hf  Hf1  1  0.998280  0.747537  0.000000  1
  Sc  Sc2  1  0.752143  0.752143  0.500000  1
  Sc  Sc3  1  0.249619  0.000283  0.500000  1
  Sc  Sc4  1  0.000283  0.249619  0.500000  1
  Sc  Sc5  1  0.248785  0.248785  0.000000  1
  Nb  Nb6  1  0.667833  0.333847  0.249594  1
  Nb  Nb7  1  0.333847  0.667833  0.249594  1
  Nb  Nb8  1  0.333847  0.667833  0.750406  1
  Nb  Nb9  1  0.667833  0.333847  0.750406  1
  Si  Si10  1  0.398086  0.398086  0.500000  1
  Si  Si11  1  0.603897  0.000158  0.500000  1
  Si  Si12  1  0.000158  0.603897  0.500000  1
  Si  Si13  1  0.604337  0.604337  0.000000  1
  Si  Si14  1  0.393517  0.999992  0.000000  1
  Si  Si15  1  0.999992  0.393517  0.000000  1
