# generated using pymatgen
data_Nd13Pa7Ir15Rh
_symmetry_space_group_name_H-M   'P 1'
_cell_length_a   7.63179998
_cell_length_b   7.67135598
_cell_length_c   14.59198836
_cell_angle_alpha   89.94748132
_cell_angle_beta   89.61027762
_cell_angle_gamma   90.25868252
_symmetry_Int_Tables_number   1
_chemical_formula_structural   Nd13Pa7Ir15Rh
_chemical_formula_sum   'Nd13 Pa7 Ir15 Rh1'
_cell_volume   854.27741032
_cell_formula_units_Z   1
loop_
 _symmetry_equiv_pos_site_id
 _symmetry_equiv_pos_as_xyz
  1  'x, y, z'
loop_
 _atom_site_type_symbol
 _atom_site_label
 _atom_site_symmetry_multiplicity
 _atom_site_fract_x
 _atom_site_fract_y
 _atom_site_fract_z
 _atom_site_occupancy
  Nd  Nd0  1  0.161733  0.336926  0.619806  1
  Nd  Nd1  1  0.509787  0.679187  0.593368  1
  Nd  Nd2  1  0.007267  0.824733  0.906976  1
  Nd  Nd3  1  0.494366  0.325271  0.092683  1
  Nd  Nd4  1  0.991346  0.178354  0.408077  1
  Nd  Nd5  1  0.487078  0.322004  0.408906  1
  Nd  Nd6  1  0.994708  0.176630  0.092395  1
  Nd  Nd7  1  0.508354  0.679442  0.906211  1
  Nd  Nd8  1  0.009479  0.819797  0.588264  1
  Nd  Nd9  1  0.820636  0.519566  0.749052  1
  Nd  Nd10  1  0.309985  0.979898  0.749753  1
  Nd  Nd11  1  0.187666  0.478072  0.248331  1
  Nd  Nd12  1  0.687100  0.023558  0.249323  1
  Pa  Pa13  1  0.662986  0.153631  0.622795  1
  Pa  Pa14  1  0.158307  0.343111  0.880862  1
  Pa  Pa15  1  0.341255  0.843126  0.119960  1
  Pa  Pa16  1  0.837549  0.658469  0.376559  1
  Pa  Pa17  1  0.339308  0.842812  0.375355  1
  Pa  Pa18  1  0.842797  0.659986  0.120182  1
  Pa  Pa19  1  0.656815  0.159170  0.880733  1
  Ir  Ir20  1  0.690606  0.945778  0.462348  1
  Ir  Ir21  1  0.179936  0.550522  0.039485  1
  Ir  Ir22  1  0.320339  0.050726  0.963863  1
  Ir  Ir23  1  0.798860  0.444624  0.533943  1
  Ir  Ir24  1  0.332133  0.029162  0.533644  1
  Ir  Ir25  1  0.820438  0.455987  0.966418  1
  Ir  Ir26  1  0.679961  0.953234  0.037334  1
  Ir  Ir27  1  0.165781  0.560015  0.451803  1
  Ir  Ir28  1  0.464808  0.353161  0.757295  1
  Ir  Ir29  1  0.950573  0.142349  0.764258  1
  Ir  Ir30  1  0.542727  0.651359  0.248707  1
  Ir  Ir31  1  0.040612  0.854345  0.244609  1
  Ir  Ir32  1  0.691782  0.889405  0.747091  1
  Ir  Ir33  1  0.206385  0.610144  0.760470  1
  Ir  Ir34  1  0.305056  0.108548  0.248390  1
  Rh  Rh35  1  0.801479  0.396899  0.250748  1
