# generated using pymatgen
data_Hf18MnRe8Si
_symmetry_space_group_name_H-M   'P 1'
_cell_length_a   8.54759700
_cell_length_b   8.54759713
_cell_length_c   8.62483500
_cell_angle_alpha   90.00000000
_cell_angle_beta   90.00000000
_cell_angle_gamma   120.00000338
_symmetry_Int_Tables_number   1
_chemical_formula_structural   Hf18MnRe8Si
_chemical_formula_sum   'Hf18 Mn1 Re8 Si1'
_cell_volume   545.71952776
_cell_formula_units_Z   1
loop_
 _symmetry_equiv_pos_site_id
 _symmetry_equiv_pos_as_xyz
  1  'x, y, z'
loop_
 _atom_site_type_symbol
 _atom_site_label
 _atom_site_symmetry_multiplicity
 _atom_site_fract_x
 _atom_site_fract_y
 _atom_site_fract_z
 _atom_site_occupancy
  Hf  Hf0  1  0.201780  0.798220  0.443954  1
  Hf  Hf1  1  0.201780  0.403561  0.443954  1
  Hf  Hf2  1  0.596439  0.798220  0.443954  1
  Hf  Hf3  1  0.806445  0.193555  0.547382  1
  Hf  Hf4  1  0.806445  0.612889  0.547382  1
  Hf  Hf5  1  0.387111  0.193555  0.547382  1
  Hf  Hf6  1  0.806445  0.193555  0.952618  1
  Hf  Hf7  1  0.806445  0.612889  0.952618  1
  Hf  Hf8  1  0.387111  0.193555  0.952618  1
  Hf  Hf9  1  0.201780  0.798220  0.056046  1
  Hf  Hf10  1  0.201780  0.403561  0.056046  1
  Hf  Hf11  1  0.596439  0.798220  0.056046  1
  Hf  Hf12  1  0.538942  0.461058  0.250000  1
  Hf  Hf13  1  0.538942  0.077882  0.250000  1
  Hf  Hf14  1  0.922118  0.461058  0.250000  1
  Hf  Hf15  1  0.461249  0.538751  0.750000  1
  Hf  Hf16  1  0.461249  0.922499  0.750000  1
  Hf  Hf17  1  0.077501  0.538751  0.750000  1
  Mn  Mn18  1  0.333333  0.666667  0.250000  1
  Re  Re19  1  0.889292  0.110708  0.250000  1
  Re  Re20  1  0.889292  0.778582  0.250000  1
  Re  Re21  1  0.221418  0.110708  0.250000  1
  Re  Re22  1  0.110008  0.889992  0.750000  1
  Re  Re23  1  0.110008  0.220016  0.750000  1
  Re  Re24  1  0.779984  0.889992  0.750000  1
  Re  Re25  1  0.000000  0.000000  0.498053  1
  Re  Re26  1  0.000000  0.000000  0.001947  1
  Si  Si27  1  0.666667  0.333333  0.750000  1
