# generated using pymatgen
data_Tb11In9NiPd3
_symmetry_space_group_name_H-M   'P 1'
_cell_length_a   13.23040399
_cell_length_b   13.24449654
_cell_length_c   3.68512800
_cell_angle_alpha   90.00000000
_cell_angle_beta   90.00000000
_cell_angle_gamma   112.54654606
_symmetry_Int_Tables_number   1
_chemical_formula_structural   Tb11In9NiPd3
_chemical_formula_sum   'Tb11 In9 Ni1 Pd3'
_cell_volume   596.38975620
_cell_formula_units_Z   1
loop_
 _symmetry_equiv_pos_site_id
 _symmetry_equiv_pos_as_xyz
  1  'x, y, z'
loop_
 _atom_site_type_symbol
 _atom_site_label
 _atom_site_symmetry_multiplicity
 _atom_site_fract_x
 _atom_site_fract_y
 _atom_site_fract_z
 _atom_site_occupancy
  Tb  Tb0  1  0.417133  0.080689  0.000000  1
  Tb  Tb1  1  0.584333  0.927983  0.000000  1
  Tb  Tb2  1  0.073042  0.414663  0.000000  1
  Tb  Tb3  1  0.926802  0.584734  0.000000  1
  Tb  Tb4  1  0.160630  0.841229  0.000000  1
  Tb  Tb5  1  0.839474  0.159640  0.000000  1
  Tb  Tb6  1  0.372109  0.628043  0.000000  1
  Tb  Tb7  1  0.621333  0.367043  0.000000  1
  Tb  Tb8  1  0.314113  0.305787  0.000000  1
  Tb  Tb9  1  0.691008  0.691006  0.000000  1
  Tb  Tb10  1  0.000778  0.000163  0.000000  1
  In  In11  1  0.366352  0.844428  0.500000  1
  In  In12  1  0.632641  0.157967  0.500000  1
  In  In13  1  0.842262  0.367153  0.500000  1
  In  In14  1  0.156790  0.633194  0.500000  1
  In  In15  1  0.218507  0.075095  0.500000  1
  In  In16  1  0.783261  0.926435  0.500000  1
  In  In17  1  0.075035  0.217311  0.500000  1
  In  In18  1  0.926080  0.783008  0.500000  1
  In  In19  1  0.499536  0.498109  0.500000  1
  Ni  Ni20  1  0.448425  0.245163  0.500000  1
  Pd  Pd21  1  0.550766  0.753419  0.500000  1
  Pd  Pd22  1  0.247747  0.448571  0.500000  1
  Pd  Pd23  1  0.751845  0.549167  0.500000  1
