# generated using pymatgen
data_Cs3Li(HfTe5)2
_symmetry_space_group_name_H-M   'P 1'
_cell_length_a   10.25205147
_cell_length_b   11.32648474
_cell_length_c   11.54939830
_cell_angle_alpha   88.75291916
_cell_angle_beta   90.08230782
_cell_angle_gamma   78.13472733
_symmetry_Int_Tables_number   1
_chemical_formula_structural   Cs3Li(HfTe5)2
_chemical_formula_sum   'Cs6 Li2 Hf4 Te20'
_cell_volume   1312.12339578
_cell_formula_units_Z   2
loop_
 _symmetry_equiv_pos_site_id
 _symmetry_equiv_pos_as_xyz
  1  'x, y, z'
loop_
 _atom_site_type_symbol
 _atom_site_label
 _atom_site_symmetry_multiplicity
 _atom_site_fract_x
 _atom_site_fract_y
 _atom_site_fract_z
 _atom_site_occupancy
  Cs  Cs0  1  0.881636  0.893017  0.258675  1
  Cs  Cs1  1  0.118364  0.106983  0.741325  1
  Cs  Cs2  1  0.447855  0.765921  0.386766  1
  Cs  Cs3  1  0.552145  0.234079  0.613234  1
  Cs  Cs4  1  0.299118  0.626943  0.896590  1
  Cs  Cs5  1  0.700882  0.373057  0.103410  1
  Li  Li6  1  0.911691  0.365814  0.561399  1
  Li  Li7  1  0.088309  0.634186  0.438601  1
  Hf  Hf8  1  0.113905  0.372936  0.363998  1
  Hf  Hf9  1  0.886095  0.627064  0.636002  1
  Hf  Hf10  1  0.309116  0.157821  0.141815  1
  Hf  Hf11  1  0.690884  0.842179  0.858185  1
  Te  Te12  1  0.846203  0.559168  0.402041  1
  Te  Te13  1  0.153797  0.440832  0.597959  1
  Te  Te14  1  0.935095  0.203725  0.395573  1
  Te  Te15  1  0.064905  0.796275  0.604427  1
  Te  Te16  1  0.193735  0.578803  0.232126  1
  Te  Te17  1  0.806265  0.421197  0.767874  1
  Te  Te18  1  0.217669  0.114547  0.387272  1
  Te  Te19  1  0.782331  0.885453  0.612728  1
  Te  Te20  1  0.080998  0.360216  0.109305  1
  Te  Te21  1  0.919002  0.639784  0.890695  1
  Te  Te22  1  0.392902  0.352007  0.288660  1
  Te  Te23  1  0.607098  0.647993  0.711340  1
  Te  Te24  1  0.046713  0.121469  0.065877  1
  Te  Te25  1  0.953287  0.878531  0.934123  1
  Te  Te26  1  0.525214  0.088721  0.305410  1
  Te  Te27  1  0.474786  0.911279  0.694590  1
  Te  Te28  1  0.331851  0.914370  0.069030  1
  Te  Te29  1  0.668149  0.085630  0.930970  1
  Te  Te30  1  0.410791  0.244188  0.932395  1
  Te  Te31  1  0.589209  0.755812  0.067605  1
