# generated using pymatgen
data_Nd5NiOsO12
_symmetry_space_group_name_H-M   'P 1'
_cell_length_a   7.07306589
_cell_length_b   7.07306592
_cell_length_c   7.61257200
_cell_angle_alpha   74.37991183
_cell_angle_beta   74.37991177
_cell_angle_gamma   50.67146038
_symmetry_Int_Tables_number   1
_chemical_formula_structural   Nd5NiOsO12
_chemical_formula_sum   'Nd5 Ni1 Os1 O12'
_cell_volume   281.21558048
_cell_formula_units_Z   1
loop_
 _symmetry_equiv_pos_site_id
 _symmetry_equiv_pos_as_xyz
  1  'x, y, z'
loop_
 _atom_site_type_symbol
 _atom_site_label
 _atom_site_symmetry_multiplicity
 _atom_site_fract_x
 _atom_site_fract_y
 _atom_site_fract_z
 _atom_site_occupancy
  Nd  Nd0  1  0.326621  0.285066  0.356163  1
  Nd  Nd1  1  0.714934  0.673379  0.643837  1
  Nd  Nd2  1  0.693403  0.687416  0.167297  1
  Nd  Nd3  1  0.312584  0.306597  0.832703  1
  Nd  Nd4  1  0.016133  0.983867  0.500000  1
  Ni  Ni5  1  0.739740  0.260260  0.000000  1
  Os  Os6  1  0.228750  0.771250  0.000000  1
  O  O7  1  0.108022  0.589838  0.570384  1
  O  O8  1  0.006784  0.992841  0.174356  1
  O  O9  1  0.410162  0.891978  0.429616  1
  O  O10  1  0.468806  0.532835  0.177371  1
  O  O11  1  0.101068  0.593364  0.079371  1
  O  O12  1  0.918529  0.395040  0.418359  1
  O  O13  1  0.007159  0.993216  0.825644  1
  O  O14  1  0.604960  0.081470  0.581641  1
  O  O15  1  0.467165  0.531194  0.822629  1
  O  O16  1  0.566173  0.097629  0.080381  1
  O  O17  1  0.406636  0.898932  0.920629  1
  O  O18  1  0.902371  0.433827  0.919619  1
