# generated using pymatgen
data_Dy6Be(P3Rh5)4
_symmetry_space_group_name_H-M   'P 1'
_cell_length_a   13.33319700
_cell_length_b   13.33319648
_cell_length_c   3.91261000
_cell_angle_alpha   90.00000000
_cell_angle_beta   90.00000000
_cell_angle_gamma   119.99999882
_symmetry_Int_Tables_number   1
_chemical_formula_structural   Dy6Be(P3Rh5)4
_chemical_formula_sum   'Dy6 Be1 P12 Rh20'
_cell_volume   602.37338127
_cell_formula_units_Z   1
loop_
 _symmetry_equiv_pos_site_id
 _symmetry_equiv_pos_as_xyz
  1  'x, y, z'
loop_
 _atom_site_type_symbol
 _atom_site_label
 _atom_site_symmetry_multiplicity
 _atom_site_fract_x
 _atom_site_fract_y
 _atom_site_fract_z
 _atom_site_occupancy
  Dy  Dy0  1  0.530413  0.717558  0.247943  1
  Dy  Dy1  1  0.282442  0.812854  0.247943  1
  Dy  Dy2  1  0.187146  0.469587  0.247943  1
  Dy  Dy3  1  0.469587  0.282442  0.752057  1
  Dy  Dy4  1  0.717558  0.187146  0.752057  1
  Dy  Dy5  1  0.812854  0.530413  0.752057  1
  Be  Be6  1  0.000000  0.000000  0.000000  1
  P  P7  1  0.526018  0.139220  0.250861  1
  P  P8  1  0.860780  0.386799  0.250861  1
  P  P9  1  0.613201  0.473982  0.250861  1
  P  P10  1  0.947410  0.719478  0.252382  1
  P  P11  1  0.280522  0.227931  0.252382  1
  P  P12  1  0.772069  0.052590  0.252382  1
  P  P13  1  0.386799  0.526018  0.749139  1
  P  P14  1  0.473982  0.860780  0.749139  1
  P  P15  1  0.139220  0.613201  0.749139  1
  P  P16  1  0.719478  0.772069  0.747618  1
  P  P17  1  0.227931  0.947410  0.747618  1
  P  P18  1  0.052590  0.280522  0.747618  1
  Rh  Rh19  1  0.333333  0.666667  0.752293  1
  Rh  Rh20  1  0.922256  0.249948  0.252327  1
  Rh  Rh21  1  0.750052  0.672308  0.252327  1
  Rh  Rh22  1  0.327692  0.077744  0.252327  1
  Rh  Rh23  1  0.438049  0.023342  0.750582  1
  Rh  Rh24  1  0.976658  0.414708  0.750582  1
  Rh  Rh25  1  0.585292  0.561951  0.750582  1
  Rh  Rh26  1  0.666667  0.333333  0.247707  1
  Rh  Rh27  1  0.092144  0.189940  0.244275  1
  Rh  Rh28  1  0.810060  0.902204  0.244275  1
  Rh  Rh29  1  0.097796  0.907856  0.244275  1
  Rh  Rh30  1  0.023342  0.585292  0.249418  1
  Rh  Rh31  1  0.414708  0.438049  0.249418  1
  Rh  Rh32  1  0.561951  0.976658  0.249418  1
  Rh  Rh33  1  0.672308  0.922256  0.747673  1
  Rh  Rh34  1  0.077744  0.750052  0.747673  1
  Rh  Rh35  1  0.249948  0.327692  0.747673  1
  Rh  Rh36  1  0.907856  0.810060  0.755725  1
  Rh  Rh37  1  0.189940  0.097796  0.755725  1
  Rh  Rh38  1  0.902204  0.092144  0.755725  1
