# generated using pymatgen
data_TbDy2PaPt4
_symmetry_space_group_name_H-M   'P 1'
_cell_length_a   4.55072900
_cell_length_b   5.61613346
_cell_length_c   7.00658504
_cell_angle_alpha   91.24457651
_cell_angle_beta   90.00000000
_cell_angle_gamma   90.00000000
_symmetry_Int_Tables_number   1
_chemical_formula_structural   TbDy2PaPt4
_chemical_formula_sum   'Tb1 Dy2 Pa1 Pt4'
_cell_volume   179.02856198
_cell_formula_units_Z   1
loop_
 _symmetry_equiv_pos_site_id
 _symmetry_equiv_pos_as_xyz
  1  'x, y, z'
loop_
 _atom_site_type_symbol
 _atom_site_label
 _atom_site_symmetry_multiplicity
 _atom_site_fract_x
 _atom_site_fract_y
 _atom_site_fract_z
 _atom_site_occupancy
  Tb  Tb0  1  0.250000  0.142149  0.185227  1
  Dy  Dy1  1  0.750000  0.644619  0.315498  1
  Dy  Dy2  1  0.750000  0.854850  0.819447  1
  Pa  Pa3  1  0.250000  0.356367  0.682860  1
  Pt  Pt4  1  0.250000  0.838257  0.550799  1
  Pt  Pt5  1  0.250000  0.650938  0.036557  1
  Pt  Pt6  1  0.750000  0.170086  0.466281  1
  Pt  Pt7  1  0.750000  0.342732  0.943329  1
