# generated using pymatgen
data_CaPr3Os6O19
_symmetry_space_group_name_H-M   'P 1'
_cell_length_a   7.90183508
_cell_length_b   7.90183636
_cell_length_c   7.93897300
_cell_angle_alpha   109.56645714
_cell_angle_beta   109.56646043
_cell_angle_gamma   109.37581352
_symmetry_Int_Tables_number   1
_chemical_formula_structural   CaPr3Os6O19
_chemical_formula_sum   'Ca1 Pr3 Os6 O19'
_cell_volume   381.14184185
_cell_formula_units_Z   1
loop_
 _symmetry_equiv_pos_site_id
 _symmetry_equiv_pos_as_xyz
  1  'x, y, z'
loop_
 _atom_site_type_symbol
 _atom_site_label
 _atom_site_symmetry_multiplicity
 _atom_site_fract_x
 _atom_site_fract_y
 _atom_site_fract_z
 _atom_site_occupancy
  Ca  Ca0  1  0.000000  0.000000  0.294624  1
  Pr  Pr1  1  0.998808  0.306172  0.000092  1
  Pr  Pr2  1  0.693828  0.692636  0.693921  1
  Pr  Pr3  1  0.307364  0.001192  0.001285  1
  Os  Os4  1  0.364321  0.500457  0.863446  1
  Os  Os5  1  0.863591  0.360088  0.500116  1
  Os  Os6  1  0.496496  0.136409  0.636526  1
  Os  Os7  1  0.136136  0.635679  0.499124  1
  Os  Os8  1  0.499543  0.863864  0.362987  1
  Os  Os9  1  0.639912  0.503504  0.140029  1
  O  O10  1  0.322884  0.000076  0.323415  1
  O  O11  1  0.325683  0.325430  0.001809  1
  O  O12  1  0.999745  0.674317  0.676126  1
  O  O13  1  0.677191  0.677116  0.000530  1
  O  O14  1  0.999924  0.322809  0.323338  1
  O  O15  1  0.674570  0.000255  0.676379  1
  O  O16  1  0.000000  0.000000  0.986548  1
  O  O17  1  0.348190  0.288029  0.631352  1
  O  O18  1  0.061629  0.345710  0.717371  1
  O  O19  1  0.719315  0.370668  0.659856  1
  O  O20  1  0.373227  0.660170  0.720304  1
  O  O21  1  0.284081  0.938371  0.655741  1
  O  O22  1  0.629332  0.348646  0.289187  1
  O  O23  1  0.286941  0.626773  0.347076  1
  O  O24  1  0.711971  0.060160  0.343322  1
  O  O25  1  0.939840  0.651810  0.283161  1
  O  O26  1  0.654290  0.715919  0.371659  1
  O  O27  1  0.651354  0.280685  0.940541  1
  O  O28  1  0.339830  0.713059  0.060134  1
