# generated using pymatgen
data_Pr9NdSi5Sn
_symmetry_space_group_name_H-M   'P 1'
_cell_length_a   7.91921462
_cell_length_b   7.91921527
_cell_length_c   9.08035572
_cell_angle_alpha   115.85296740
_cell_angle_beta   115.85296313
_cell_angle_gamma   89.99999608
_symmetry_Int_Tables_number   1
_chemical_formula_structural   Pr9NdSi5Sn
_chemical_formula_sum   'Pr9 Nd1 Si5 Sn1'
_cell_volume   448.28799541
_cell_formula_units_Z   1
loop_
 _symmetry_equiv_pos_site_id
 _symmetry_equiv_pos_as_xyz
  1  'x, y, z'
loop_
 _atom_site_type_symbol
 _atom_site_label
 _atom_site_symmetry_multiplicity
 _atom_site_fract_x
 _atom_site_fract_y
 _atom_site_fract_z
 _atom_site_occupancy
  Pr  Pr0  1  0.996486  0.996486  0.992971  1
  Pr  Pr1  1  0.971770  0.825631  0.285595  1
  Pr  Pr2  1  0.313825  0.459965  0.285595  1
  Pr  Pr3  1  0.825631  0.313825  0.285595  1
  Pr  Pr4  1  0.459965  0.971770  0.285595  1
  Pr  Pr5  1  0.040113  0.186258  0.714405  1
  Pr  Pr6  1  0.674292  0.528147  0.714405  1
  Pr  Pr7  1  0.186258  0.674292  0.714405  1
  Pr  Pr8  1  0.528147  0.040113  0.714405  1
  Nd  Nd9  1  0.503531  0.503531  0.007063  1
  Si  Si10  1  0.250067  0.250067  0.500133  1
  Si  Si11  1  0.614494  0.885238  0.000010  1
  Si  Si12  1  0.385516  0.114772  0.000010  1
  Si  Si13  1  0.885238  0.385516  0.000010  1
  Si  Si14  1  0.114772  0.614494  0.000010  1
  Sn  Sn15  1  0.749896  0.749896  0.499792  1
