# generated using pymatgen
data_FeNi(BW)6
_symmetry_space_group_name_H-M   'P 1'
_cell_length_a   4.53935703
_cell_length_b   4.53935725
_cell_length_c   10.81015655
_cell_angle_alpha   89.90167067
_cell_angle_beta   90.09833076
_cell_angle_gamma   138.89286613
_symmetry_Int_Tables_number   1
_chemical_formula_structural   FeNi(BW)6
_chemical_formula_sum   'Fe1 Ni1 B6 W6'
_cell_volume   146.45199200
_cell_formula_units_Z   1
loop_
 _symmetry_equiv_pos_site_id
 _symmetry_equiv_pos_as_xyz
  1  'x, y, z'
loop_
 _atom_site_type_symbol
 _atom_site_label
 _atom_site_symmetry_multiplicity
 _atom_site_fract_x
 _atom_site_fract_y
 _atom_site_fract_z
 _atom_site_occupancy
  Fe  Fe0  1  0.500000  0.500000  0.500000  1
  Ni  Ni1  1  0.500000  0.500000  0.000000  1
  B  B2  1  0.086333  0.913667  0.397981  1
  B  B3  1  0.913667  0.086333  0.602019  1
  B  B4  1  0.088613  0.911387  0.104486  1
  B  B5  1  0.911387  0.088613  0.895514  1
  B  B6  1  0.208885  0.791115  0.250283  1
  B  B7  1  0.791115  0.208885  0.749717  1
  W  W8  1  0.789425  0.210575  0.394034  1
  W  W9  1  0.210575  0.789425  0.605966  1
  W  W10  1  0.788345  0.211655  0.107849  1
  W  W11  1  0.211655  0.788345  0.892151  1
  W  W12  1  0.503044  0.496956  0.250997  1
  W  W13  1  0.496956  0.503044  0.749003  1
