# generated using pymatgen
data_Tm4MgCu2Bi
_symmetry_space_group_name_H-M   'P 1'
_cell_length_a   8.53325860
_cell_length_b   8.53325825
_cell_length_c   8.53325864
_cell_angle_alpha   127.32581762
_cell_angle_beta   127.32581836
_cell_angle_gamma   77.71975046
_symmetry_Int_Tables_number   1
_chemical_formula_structural   Tm4MgCu2Bi
_chemical_formula_sum   'Tm8 Mg2 Cu4 Bi2'
_cell_volume   380.93339156
_cell_formula_units_Z   2
loop_
 _symmetry_equiv_pos_site_id
 _symmetry_equiv_pos_as_xyz
  1  'x, y, z'
loop_
 _atom_site_type_symbol
 _atom_site_label
 _atom_site_symmetry_multiplicity
 _atom_site_fract_x
 _atom_site_fract_y
 _atom_site_fract_z
 _atom_site_occupancy
  Tm  Tm0  1  0.795832  0.295832  0.823530  1
  Tm  Tm1  1  0.204168  0.704168  0.176470  1
  Tm  Tm2  1  0.472303  0.972303  0.176470  1
  Tm  Tm3  1  0.295832  0.472303  0.500000  1
  Tm  Tm4  1  0.027697  0.204168  0.500000  1
  Tm  Tm5  1  0.527697  0.027697  0.823530  1
  Tm  Tm6  1  0.704168  0.527697  0.500000  1
  Tm  Tm7  1  0.972303  0.795832  0.500000  1
  Mg  Mg8  1  0.000000  0.000000  0.000000  1
  Mg  Mg9  1  0.500000  0.500000  0.000000  1
  Cu  Cu10  1  0.125538  0.625538  0.751076  1
  Cu  Cu11  1  0.874462  0.374462  0.248924  1
  Cu  Cu12  1  0.625538  0.874462  0.500000  1
  Cu  Cu13  1  0.374462  0.125538  0.500000  1
  Bi  Bi14  1  0.250000  0.250000  0.000000  1
  Bi  Bi15  1  0.750000  0.750000  0.000000  1
