# generated using pymatgen
data_Th2Al16Ir9
_symmetry_space_group_name_H-M   'P 1'
_cell_length_a   11.09605503
_cell_length_b   11.10226818
_cell_length_c   11.10226700
_cell_angle_alpha   158.25751143
_cell_angle_beta   117.80611289
_cell_angle_gamma   66.71535699
_symmetry_Int_Tables_number   1
_chemical_formula_structural   Th2Al16Ir9
_chemical_formula_sum   'Th2 Al16 Ir9'
_cell_volume   445.12118341
_cell_formula_units_Z   1
loop_
 _symmetry_equiv_pos_site_id
 _symmetry_equiv_pos_as_xyz
  1  'x, y, z'
loop_
 _atom_site_type_symbol
 _atom_site_label
 _atom_site_symmetry_multiplicity
 _atom_site_fract_x
 _atom_site_fract_y
 _atom_site_fract_z
 _atom_site_occupancy
  Th  Th0  1  0.231149  0.231783  0.999367  1
  Th  Th1  1  0.769454  0.768334  0.001120  1
  Al  Al2  1  0.274072  0.398429  0.875644  1
  Al  Al3  1  0.088816  0.916026  0.172791  1
  Al  Al4  1  0.510327  0.203550  0.306779  1
  Al  Al5  1  0.257803  0.084307  0.173496  1
  Al  Al6  1  0.917783  0.417819  0.499964  1
  Al  Al7  1  0.724718  0.601087  0.123632  1
  Al  Al8  1  0.897287  0.203144  0.694143  1
  Al  Al9  1  0.490621  0.796820  0.693799  1
  Al  Al10  1  0.380496  0.999848  0.380648  1
  Al  Al11  1  0.618767  0.999714  0.619055  1
  Al  Al12  1  0.477746  0.601254  0.876492  1
  Al  Al13  1  0.102013  0.796580  0.305434  1
  Al  Al14  1  0.910802  0.083792  0.827009  1
  Al  Al15  1  0.743612  0.916079  0.827533  1
  Al  Al16  1  0.521800  0.398517  0.123283  1
  Al  Al17  1  0.083396  0.582895  0.500502  1
  Ir  Ir18  1  0.787438  0.499903  0.287535  1
  Ir  Ir19  1  0.017542  0.338264  0.679279  1
  Ir  Ir20  1  0.620196  0.120145  0.500052  1
  Ir  Ir21  1  0.212021  0.500041  0.711980  1
  Ir  Ir22  1  0.379008  0.879410  0.499598  1
  Ir  Ir23  1  0.000795  0.000300  0.000496  1
  Ir  Ir24  1  0.658381  0.338457  0.319922  1
  Ir  Ir25  1  0.342529  0.661901  0.680629  1
  Ir  Ir26  1  0.981426  0.661602  0.319823  1
