# generated using pymatgen
data_Ti6CrRe5P6
_symmetry_space_group_name_H-M   'P 1'
_cell_length_a   7.35426876
_cell_length_b   7.34424932
_cell_length_c   7.35657363
_cell_angle_alpha   127.19425804
_cell_angle_beta   125.09376760
_cell_angle_gamma   79.75397971
_symmetry_Int_Tables_number   1
_chemical_formula_structural   Ti6CrRe5P6
_chemical_formula_sum   'Ti6 Cr1 Re5 P6'
_cell_volume   250.04933285
_cell_formula_units_Z   1
loop_
 _symmetry_equiv_pos_site_id
 _symmetry_equiv_pos_as_xyz
  1  'x, y, z'
loop_
 _atom_site_type_symbol
 _atom_site_label
 _atom_site_symmetry_multiplicity
 _atom_site_fract_x
 _atom_site_fract_y
 _atom_site_fract_z
 _atom_site_occupancy
  Ti  Ti0  1  0.464584  0.252672  0.294340  1
  Ti  Ti1  1  0.541309  0.828086  0.794039  1
  Ti  Ti2  1  0.746535  0.651733  0.404547  1
  Ti  Ti3  1  0.254037  0.659908  0.904733  1
  Ti  Ti4  1  0.045805  0.837557  0.283320  1
  Ti  Ti5  1  0.940600  0.237418  0.788376  1
  Cr  Cr6  1  0.660720  0.500748  0.906422  1
  Re  Re7  1  0.341082  0.246071  0.842018  1
  Re  Re8  1  0.900740  0.243433  0.399339  1
  Re  Re9  1  0.099424  0.501710  0.345014  1
  Re  Re10  1  0.004238  0.991670  0.996927  1
  Re  Re11  1  0.494053  0.991893  0.486406  1
  P  P12  1  0.831911  0.573927  0.747785  1
  P  P13  1  0.165338  0.914273  0.743203  1
  P  P14  1  0.668959  0.903217  0.240748  1
  P  P15  1  0.329008  0.576159  0.240666  1
  P  P16  1  0.284613  0.292234  0.520604  1
  P  P17  1  0.727045  0.237687  0.001914  1
