# generated using pymatgen
data_Sm5Tl2BiS
_symmetry_space_group_name_H-M   'P 1'
_cell_length_a   9.36929000
_cell_length_b   9.38941052
_cell_length_c   6.83616400
_cell_angle_alpha   90.00000000
_cell_angle_beta   90.00000000
_cell_angle_gamma   120.07106321
_symmetry_Int_Tables_number   1
_chemical_formula_structural   Sm5Tl2BiS
_chemical_formula_sum   'Sm10 Tl4 Bi2 S2'
_cell_volume   520.44720236
_cell_formula_units_Z   2
loop_
 _symmetry_equiv_pos_site_id
 _symmetry_equiv_pos_as_xyz
  1  'x, y, z'
loop_
 _atom_site_type_symbol
 _atom_site_label
 _atom_site_symmetry_multiplicity
 _atom_site_fract_x
 _atom_site_fract_y
 _atom_site_fract_z
 _atom_site_occupancy
  Sm  Sm0  1  0.669247  0.336454  0.004657  1
  Sm  Sm1  1  0.330753  0.667208  0.004657  1
  Sm  Sm2  1  0.330753  0.667208  0.495343  1
  Sm  Sm3  1  0.669247  0.336454  0.495343  1
  Sm  Sm4  1  0.760701  0.756026  0.750000  1
  Sm  Sm5  1  0.239299  0.995326  0.750000  1
  Sm  Sm6  1  0.000000  0.243282  0.750000  1
  Sm  Sm7  1  0.242802  0.241119  0.250000  1
  Sm  Sm8  1  0.757198  0.998318  0.250000  1
  Sm  Sm9  1  0.000000  0.757049  0.250000  1
  Tl  Tl10  1  0.000000  0.599684  0.750000  1
  Tl  Tl11  1  0.602541  0.604118  0.250000  1
  Tl  Tl12  1  0.397459  0.001578  0.250000  1
  Tl  Tl13  1  0.000000  0.397994  0.250000  1
  Bi  Bi14  1  0.396643  0.396238  0.750000  1
  Bi  Bi15  1  0.603357  0.999595  0.750000  1
  S  S16  1  0.000000  0.001174  0.998087  1
  S  S17  1  0.000000  0.001174  0.501913  1
