# generated using pymatgen
data_Nd5SiSe4
_symmetry_space_group_name_H-M   'P 1'
_cell_length_a   7.38388532
_cell_length_b   7.38388471
_cell_length_c   7.38388504
_cell_angle_alpha   99.39164529
_cell_angle_beta   99.39164947
_cell_angle_gamma   132.34829711
_symmetry_Int_Tables_number   1
_chemical_formula_structural   Nd5SiSe4
_chemical_formula_sum   'Nd5 Si1 Se4'
_cell_volume   272.17736898
_cell_formula_units_Z   1
loop_
 _symmetry_equiv_pos_site_id
 _symmetry_equiv_pos_as_xyz
  1  'x, y, z'
loop_
 _atom_site_type_symbol
 _atom_site_label
 _atom_site_symmetry_multiplicity
 _atom_site_fract_x
 _atom_site_fract_y
 _atom_site_fract_z
 _atom_site_occupancy
  Nd  Nd0  1  0.404912  0.789498  0.194409  1
  Nd  Nd1  1  0.000000  0.000000  0.000000  1
  Nd  Nd2  1  0.595088  0.210502  0.805591  1
  Nd  Nd3  1  0.210502  0.404912  0.615414  1
  Nd  Nd4  1  0.789498  0.595088  0.384586  1
  Si  Si5  1  0.500000  0.500000  0.000000  1
  Se  Se6  1  0.098247  0.698227  0.796473  1
  Se  Se7  1  0.698227  0.901753  0.599979  1
  Se  Se8  1  0.301773  0.098247  0.400021  1
  Se  Se9  1  0.901753  0.301773  0.203527  1
