# generated using pymatgen
data_Zr9(CuP2)2
_symmetry_space_group_name_H-M   'P 1'
_cell_length_a   12.13646200
_cell_length_b   12.13646200
_cell_length_c   3.69421800
_cell_angle_alpha   90.00000000
_cell_angle_beta   90.00000000
_cell_angle_gamma   90.00000000
_symmetry_Int_Tables_number   1
_chemical_formula_structural   Zr9(CuP2)2
_chemical_formula_sum   'Zr18 Cu4 P8'
_cell_volume   544.13507432
_cell_formula_units_Z   2
loop_
 _symmetry_equiv_pos_site_id
 _symmetry_equiv_pos_as_xyz
  1  'x, y, z'
loop_
 _atom_site_type_symbol
 _atom_site_label
 _atom_site_symmetry_multiplicity
 _atom_site_fract_x
 _atom_site_fract_y
 _atom_site_fract_z
 _atom_site_occupancy
  Zr  Zr0  1  0.000000  0.000000  0.000000  1
  Zr  Zr1  1  0.500000  0.500000  0.000000  1
  Zr  Zr2  1  0.100362  0.180131  0.500000  1
  Zr  Zr3  1  0.180131  0.899638  0.500000  1
  Zr  Zr4  1  0.819869  0.100362  0.500000  1
  Zr  Zr5  1  0.899638  0.819869  0.500000  1
  Zr  Zr6  1  0.399638  0.680131  0.500000  1
  Zr  Zr7  1  0.600362  0.319869  0.500000  1
  Zr  Zr8  1  0.680131  0.600362  0.500000  1
  Zr  Zr9  1  0.319869  0.399638  0.500000  1
  Zr  Zr10  1  0.095504  0.404496  0.000000  1
  Zr  Zr11  1  0.404496  0.904496  0.000000  1
  Zr  Zr12  1  0.595504  0.095504  0.000000  1
  Zr  Zr13  1  0.904496  0.595504  0.000000  1
  Zr  Zr14  1  0.381871  0.118129  0.500000  1
  Zr  Zr15  1  0.118129  0.618129  0.500000  1
  Zr  Zr16  1  0.881871  0.381871  0.500000  1
  Zr  Zr17  1  0.618129  0.881871  0.500000  1
  Cu  Cu18  1  0.254650  0.245350  0.000000  1
  Cu  Cu19  1  0.245350  0.745350  0.000000  1
  Cu  Cu20  1  0.754650  0.254650  0.000000  1
  Cu  Cu21  1  0.745350  0.754650  0.000000  1
  P  P22  1  0.224491  0.054228  0.000000  1
  P  P23  1  0.054228  0.775509  0.000000  1
  P  P24  1  0.945772  0.224491  0.000000  1
  P  P25  1  0.775509  0.945772  0.000000  1
  P  P26  1  0.275509  0.554228  0.000000  1
  P  P27  1  0.724491  0.445772  0.000000  1
  P  P28  1  0.554228  0.724491  0.000000  1
  P  P29  1  0.445772  0.275509  0.000000  1
