# generated using pymatgen
data_Ca20Ga8BiPb3
_symmetry_space_group_name_H-M   'P 1'
_cell_length_a   8.14649100
_cell_length_b   8.14649100
_cell_length_c   14.79064000
_cell_angle_alpha   90.00000000
_cell_angle_beta   90.00000000
_cell_angle_gamma   90.00000000
_symmetry_Int_Tables_number   1
_chemical_formula_structural   Ca20Ga8BiPb3
_chemical_formula_sum   'Ca20 Ga8 Bi1 Pb3'
_cell_volume   981.58549172
_cell_formula_units_Z   1
loop_
 _symmetry_equiv_pos_site_id
 _symmetry_equiv_pos_as_xyz
  1  'x, y, z'
loop_
 _atom_site_type_symbol
 _atom_site_label
 _atom_site_symmetry_multiplicity
 _atom_site_fract_x
 _atom_site_fract_y
 _atom_site_fract_z
 _atom_site_occupancy
  Ca  Ca0  1  0.674233  0.178558  0.113476  1
  Ca  Ca1  1  0.178269  0.676802  0.614009  1
  Ca  Ca2  1  0.325767  0.821442  0.113476  1
  Ca  Ca3  1  0.821731  0.323198  0.614009  1
  Ca  Ca4  1  0.821442  0.674233  0.113476  1
  Ca  Ca5  1  0.323198  0.178269  0.614009  1
  Ca  Ca6  1  0.178558  0.325767  0.113476  1
  Ca  Ca7  1  0.676802  0.821731  0.614009  1
  Ca  Ca8  1  0.821442  0.325767  0.886524  1
  Ca  Ca9  1  0.323198  0.821731  0.385991  1
  Ca  Ca10  1  0.178558  0.674233  0.886524  1
  Ca  Ca11  1  0.676802  0.178269  0.385991  1
  Ca  Ca12  1  0.674233  0.821442  0.886524  1
  Ca  Ca13  1  0.178269  0.323198  0.385991  1
  Ca  Ca14  1  0.325767  0.178558  0.886524  1
  Ca  Ca15  1  0.821731  0.676802  0.385991  1
  Ca  Ca16  1  0.500000  0.500000  0.750734  1
  Ca  Ca17  1  0.000000  0.000000  0.252468  1
  Ca  Ca18  1  0.000000  0.000000  0.747532  1
  Ca  Ca19  1  0.500000  0.500000  0.249266  1
  Ga  Ga20  1  0.612869  0.111552  0.751314  1
  Ga  Ga21  1  0.111552  0.612869  0.248686  1
  Ga  Ga22  1  0.888448  0.387131  0.248686  1
  Ga  Ga23  1  0.387131  0.888448  0.751314  1
  Ga  Ga24  1  0.888448  0.612869  0.751314  1
  Ga  Ga25  1  0.387131  0.111552  0.248686  1
  Ga  Ga26  1  0.111552  0.387131  0.751314  1
  Ga  Ga27  1  0.612869  0.888448  0.248686  1
  Bi  Bi28  1  0.000000  0.000000  0.000000  1
  Pb  Pb29  1  0.500000  0.500000  0.500000  1
  Pb  Pb30  1  0.500000  0.500000  0.000000  1
  Pb  Pb31  1  0.000000  0.000000  0.500000  1
