# generated using pymatgen
data_Dy5Er3Lu8(Ga3Co)2
_symmetry_space_group_name_H-M   'P 1'
_cell_length_a   9.84008800
_cell_length_b   9.84008871
_cell_length_c   6.91609300
_cell_angle_alpha   90.00000000
_cell_angle_beta   90.00000000
_cell_angle_gamma   119.99999762
_symmetry_Int_Tables_number   1
_chemical_formula_structural   Dy5Er3Lu8(Ga3Co)2
_chemical_formula_sum   'Dy5 Er3 Lu8 Ga6 Co2'
_cell_volume   579.94854415
_cell_formula_units_Z   1
loop_
 _symmetry_equiv_pos_site_id
 _symmetry_equiv_pos_as_xyz
  1  'x, y, z'
loop_
 _atom_site_type_symbol
 _atom_site_label
 _atom_site_symmetry_multiplicity
 _atom_site_fract_x
 _atom_site_fract_y
 _atom_site_fract_z
 _atom_site_occupancy
  Dy  Dy0  1  0.535701  0.464299  0.708466  1
  Dy  Dy1  1  0.928599  0.464299  0.708466  1
  Dy  Dy2  1  0.535701  0.071401  0.708466  1
  Dy  Dy3  1  0.000000  0.000000  0.231586  1
  Dy  Dy4  1  0.000000  0.000000  0.731647  1
  Er  Er5  1  0.463922  0.536078  0.208471  1
  Er  Er6  1  0.072155  0.536078  0.208471  1
  Er  Er7  1  0.463922  0.927845  0.208471  1
  Lu  Lu8  1  0.173944  0.826056  0.512370  1
  Lu  Lu9  1  0.652113  0.826056  0.512370  1
  Lu  Lu10  1  0.173944  0.347887  0.512370  1
  Lu  Lu11  1  0.826138  0.173862  0.012972  1
  Lu  Lu12  1  0.347724  0.173862  0.012972  1
  Lu  Lu13  1  0.826138  0.652276  0.012972  1
  Lu  Lu14  1  0.333333  0.666667  0.826050  1
  Lu  Lu15  1  0.666667  0.333333  0.325484  1
  Ga  Ga16  1  0.163901  0.836099  0.956934  1
  Ga  Ga17  1  0.672197  0.836099  0.956934  1
  Ga  Ga18  1  0.163901  0.327803  0.956934  1
  Ga  Ga19  1  0.836309  0.163691  0.456155  1
  Ga  Ga20  1  0.327381  0.163691  0.456155  1
  Ga  Ga21  1  0.836309  0.672619  0.456155  1
  Co  Co22  1  0.333333  0.666667  0.446667  1
  Co  Co23  1  0.666667  0.333333  0.947293  1
