# generated using pymatgen
data_Yb(EuAu)4
_symmetry_space_group_name_H-M   'P 1'
_cell_length_a   8.02674300
_cell_length_b   8.16776100
_cell_length_c   15.62126500
_cell_angle_alpha   90.00000000
_cell_angle_beta   90.00000000
_cell_angle_gamma   90.00000000
_symmetry_Int_Tables_number   1
_chemical_formula_structural   Yb(EuAu)4
_chemical_formula_sum   'Yb4 Eu16 Au16'
_cell_volume   1024.13823197
_cell_formula_units_Z   4
loop_
 _symmetry_equiv_pos_site_id
 _symmetry_equiv_pos_as_xyz
  1  'x, y, z'
loop_
 _atom_site_type_symbol
 _atom_site_label
 _atom_site_symmetry_multiplicity
 _atom_site_fract_x
 _atom_site_fract_y
 _atom_site_fract_z
 _atom_site_occupancy
  Yb  Yb0  1  0.206008  0.492446  0.250000  1
  Yb  Yb1  1  0.793992  0.507554  0.750000  1
  Yb  Yb2  1  0.293992  0.992446  0.750000  1
  Yb  Yb3  1  0.706008  0.007554  0.250000  1
  Eu  Eu4  1  0.028824  0.174148  0.399202  1
  Eu  Eu5  1  0.868927  0.663069  0.379343  1
  Eu  Eu6  1  0.528824  0.325852  0.100798  1
  Eu  Eu7  1  0.131073  0.336931  0.620657  1
  Eu  Eu8  1  0.368927  0.836931  0.379343  1
  Eu  Eu9  1  0.131073  0.336931  0.879343  1
  Eu  Eu10  1  0.368927  0.836931  0.120657  1
  Eu  Eu11  1  0.528824  0.325852  0.399202  1
  Eu  Eu12  1  0.971176  0.825852  0.899202  1
  Eu  Eu13  1  0.971176  0.825852  0.600798  1
  Eu  Eu14  1  0.471176  0.674148  0.600798  1
  Eu  Eu15  1  0.631073  0.163069  0.620657  1
  Eu  Eu16  1  0.631073  0.163069  0.879343  1
  Eu  Eu17  1  0.868927  0.663069  0.120657  1
  Eu  Eu18  1  0.471176  0.674148  0.899202  1
  Eu  Eu19  1  0.028824  0.174148  0.100798  1
  Au  Au20  1  0.832260  0.360668  0.250000  1
  Au  Au21  1  0.431318  0.381435  0.750000  1
  Au  Au22  1  0.667740  0.860668  0.750000  1
  Au  Au23  1  0.795264  0.475936  0.547620  1
  Au  Au24  1  0.704736  0.975936  0.047620  1
  Au  Au25  1  0.795264  0.475936  0.952380  1
  Au  Au26  1  0.204736  0.524064  0.452380  1
  Au  Au27  1  0.204736  0.524064  0.047620  1
  Au  Au28  1  0.167740  0.639332  0.750000  1
  Au  Au29  1  0.332260  0.139332  0.250000  1
  Au  Au30  1  0.568682  0.618565  0.250000  1
  Au  Au31  1  0.068682  0.881435  0.250000  1
  Au  Au32  1  0.295264  0.024064  0.952380  1
  Au  Au33  1  0.931318  0.118565  0.750000  1
  Au  Au34  1  0.704736  0.975936  0.452380  1
  Au  Au35  1  0.295264  0.024064  0.547620  1
