# generated using pymatgen
data_AcPa2Al7Cu2
_symmetry_space_group_name_H-M   'P 1'
_cell_length_a   9.21728966
_cell_length_b   9.21729004
_cell_length_c   9.21728982
_cell_angle_alpha   35.01929503
_cell_angle_beta   35.01928912
_cell_angle_gamma   35.01929246
_symmetry_Int_Tables_number   1
_chemical_formula_structural   AcPa2Al7Cu2
_chemical_formula_sum   'Ac1 Pa2 Al7 Cu2'
_cell_volume   230.25953030
_cell_formula_units_Z   1
loop_
 _symmetry_equiv_pos_site_id
 _symmetry_equiv_pos_as_xyz
  1  'x, y, z'
loop_
 _atom_site_type_symbol
 _atom_site_label
 _atom_site_symmetry_multiplicity
 _atom_site_fract_x
 _atom_site_fract_y
 _atom_site_fract_z
 _atom_site_occupancy
  Ac  Ac0  1  0.000000  0.000000  0.000000  1
  Pa  Pa1  1  0.854153  0.854153  0.854153  1
  Pa  Pa2  1  0.145847  0.145847  0.145847  1
  Al  Al3  1  0.415884  0.415884  0.925951  1
  Al  Al4  1  0.925951  0.415884  0.415884  1
  Al  Al5  1  0.415884  0.925951  0.415884  1
  Al  Al6  1  0.500000  0.500000  0.500000  1
  Al  Al7  1  0.584116  0.074049  0.584116  1
  Al  Al8  1  0.074049  0.584116  0.584116  1
  Al  Al9  1  0.584116  0.584116  0.074049  1
  Cu  Cu10  1  0.664249  0.664249  0.664249  1
  Cu  Cu11  1  0.335751  0.335751  0.335751  1
