# generated using pymatgen
data_Ho4Re5Ru3
_symmetry_space_group_name_H-M   'P 1'
_cell_length_a   5.32368759
_cell_length_b   5.20522574
_cell_length_c   9.11913600
_cell_angle_alpha   90.00000000
_cell_angle_beta   90.00000000
_cell_angle_gamma   119.16249719
_symmetry_Int_Tables_number   1
_chemical_formula_structural   Ho4Re5Ru3
_chemical_formula_sum   'Ho4 Re5 Ru3'
_cell_volume   220.66835105
_cell_formula_units_Z   1
loop_
 _symmetry_equiv_pos_site_id
 _symmetry_equiv_pos_as_xyz
  1  'x, y, z'
loop_
 _atom_site_type_symbol
 _atom_site_label
 _atom_site_symmetry_multiplicity
 _atom_site_fract_x
 _atom_site_fract_y
 _atom_site_fract_z
 _atom_site_occupancy
  Ho  Ho0  1  0.669213  0.334773  0.562935  1
  Ho  Ho1  1  0.329395  0.664702  0.435797  1
  Ho  Ho2  1  0.329395  0.664702  0.064203  1
  Ho  Ho3  1  0.669213  0.334773  0.937065  1
  Re  Re4  1  0.171165  0.341181  0.750000  1
  Re  Re5  1  0.171095  0.830807  0.750000  1
  Re  Re6  1  0.657161  0.828038  0.750000  1
  Re  Re7  1  0.835323  0.662405  0.250000  1
  Re  Re8  1  0.835301  0.173005  0.250000  1
  Ru  Ru9  1  0.991341  0.995355  0.498246  1
  Ru  Ru10  1  0.991341  0.995355  0.001754  1
  Ru  Ru11  1  0.350057  0.174904  0.250000  1
