# generated using pymatgen
data_Zr6Ta4Al12FeCo6
_symmetry_space_group_name_H-M   'P 1'
_cell_length_a   8.62971799
_cell_length_b   8.62971780
_cell_length_c   8.62971800
_cell_angle_alpha   59.99999924
_cell_angle_beta   59.99999995
_cell_angle_gamma   59.99999926
_symmetry_Int_Tables_number   1
_chemical_formula_structural   Zr6Ta4Al12FeCo6
_chemical_formula_sum   'Zr6 Ta4 Al12 Fe1 Co6'
_cell_volume   454.43816645
_cell_formula_units_Z   1
loop_
 _symmetry_equiv_pos_site_id
 _symmetry_equiv_pos_as_xyz
  1  'x, y, z'
loop_
 _atom_site_type_symbol
 _atom_site_label
 _atom_site_symmetry_multiplicity
 _atom_site_fract_x
 _atom_site_fract_y
 _atom_site_fract_z
 _atom_site_occupancy
  Zr  Zr0  1  0.692145  0.307855  0.307855  1
  Zr  Zr1  1  0.692145  0.307855  0.692145  1
  Zr  Zr2  1  0.692145  0.692145  0.307855  1
  Zr  Zr3  1  0.307855  0.692145  0.692145  1
  Zr  Zr4  1  0.307855  0.692145  0.307855  1
  Zr  Zr5  1  0.307855  0.307855  0.692145  1
  Ta  Ta6  1  0.644405  0.118532  0.118532  1
  Ta  Ta7  1  0.118532  0.644405  0.118532  1
  Ta  Ta8  1  0.118532  0.118532  0.644405  1
  Ta  Ta9  1  0.118532  0.118532  0.118532  1
  Al  Al10  1  0.362041  0.879320  0.879320  1
  Al  Al11  1  0.879320  0.362041  0.879320  1
  Al  Al12  1  0.879320  0.879320  0.362041  1
  Al  Al13  1  0.879320  0.879320  0.879320  1
  Al  Al14  1  0.992420  0.335860  0.335860  1
  Al  Al15  1  0.335860  0.992420  0.335860  1
  Al  Al16  1  0.335860  0.335860  0.992420  1
  Al  Al17  1  0.335860  0.335860  0.335860  1
  Al  Al18  1  0.003514  0.665495  0.665495  1
  Al  Al19  1  0.665495  0.003514  0.665495  1
  Al  Al20  1  0.665495  0.665495  0.003514  1
  Al  Al21  1  0.665495  0.665495  0.665495  1
  Fe  Fe22  1  0.000000  0.000000  0.000000  1
  Co  Co23  1  0.495574  0.004426  0.004426  1
  Co  Co24  1  0.495574  0.004426  0.495574  1
  Co  Co25  1  0.495574  0.495574  0.004426  1
  Co  Co26  1  0.004426  0.495574  0.495574  1
  Co  Co27  1  0.004426  0.495574  0.004426  1
  Co  Co28  1  0.004426  0.004426  0.495574  1
