# generated using pymatgen
data_Ta2Al5V8
_symmetry_space_group_name_H-M   'P 1'
_cell_length_a   9.52032700
_cell_length_b   9.52032700
_cell_length_c   4.82737000
_cell_angle_alpha   89.99959361
_cell_angle_beta   89.99959361
_cell_angle_gamma   90.00353873
_symmetry_Int_Tables_number   1
_chemical_formula_structural   Ta2Al5V8
_chemical_formula_sum   'Ta4 Al10 V16'
_cell_volume   437.53652973
_cell_formula_units_Z   2
loop_
 _symmetry_equiv_pos_site_id
 _symmetry_equiv_pos_as_xyz
  1  'x, y, z'
loop_
 _atom_site_type_symbol
 _atom_site_label
 _atom_site_symmetry_multiplicity
 _atom_site_fract_x
 _atom_site_fract_y
 _atom_site_fract_z
 _atom_site_occupancy
  Ta  Ta0  1  0.392689  0.392689  0.999747  1
  Ta  Ta1  1  0.607302  0.607302  0.999731  1
  Ta  Ta2  1  0.892702  0.107204  0.500260  1
  Ta  Ta3  1  0.107204  0.892702  0.500260  1
  Al  Al4  1  0.999992  0.999992  0.999737  1
  Al  Al5  1  0.733163  0.065404  0.999747  1
  Al  Al6  1  0.934594  0.266803  0.999762  1
  Al  Al7  1  0.065404  0.733163  0.999747  1
  Al  Al8  1  0.266803  0.934594  0.999762  1
  Al  Al9  1  0.434489  0.233153  0.500238  1
  Al  Al10  1  0.233153  0.434489  0.500238  1
  Al  Al11  1  0.499997  0.499997  0.500278  1
  Al  Al12  1  0.766846  0.565566  0.500254  1
  Al  Al13  1  0.565566  0.766846  0.500254  1
  V  V14  1  0.467407  0.121698  0.999800  1
  V  V15  1  0.121698  0.467407  0.999800  1
  V  V16  1  0.878325  0.532654  0.999791  1
  V  V17  1  0.532654  0.878325  0.999791  1
  V  V18  1  0.681795  0.318164  0.244735  1
  V  V19  1  0.318164  0.681795  0.244735  1
  V  V20  1  0.181812  0.181812  0.255287  1
  V  V21  1  0.818185  0.818185  0.255314  1
  V  V22  1  0.621761  0.032548  0.500209  1
  V  V23  1  0.967468  0.378324  0.500201  1
  V  V24  1  0.032548  0.621761  0.500209  1
  V  V25  1  0.378324  0.967468  0.500201  1
  V  V26  1  0.181776  0.181776  0.744796  1
  V  V27  1  0.818222  0.818222  0.744780  1
  V  V28  1  0.681760  0.318202  0.755174  1
  V  V29  1  0.318202  0.681760  0.755174  1
