# generated using pymatgen
data_Dy2ScPa(Co4P3)2
_symmetry_space_group_name_H-M   'P 1'
_cell_length_a   3.73222800
_cell_length_b   10.67569700
_cell_length_c   12.28989400
_cell_angle_alpha   90.00000000
_cell_angle_beta   90.00000000
_cell_angle_gamma   90.00000000
_symmetry_Int_Tables_number   1
_chemical_formula_structural   Dy2ScPa(Co4P3)2
_chemical_formula_sum   'Dy4 Sc2 Pa2 Co16 P12'
_cell_volume   489.68019890
_cell_formula_units_Z   2
loop_
 _symmetry_equiv_pos_site_id
 _symmetry_equiv_pos_as_xyz
  1  'x, y, z'
loop_
 _atom_site_type_symbol
 _atom_site_label
 _atom_site_symmetry_multiplicity
 _atom_site_fract_x
 _atom_site_fract_y
 _atom_site_fract_z
 _atom_site_occupancy
  Dy  Dy0  1  0.500000  0.819328  0.204437  1
  Dy  Dy1  1  0.500000  0.180672  0.204437  1
  Dy  Dy2  1  0.000000  0.680672  0.795563  1
  Dy  Dy3  1  0.000000  0.319328  0.795563  1
  Sc  Sc4  1  0.500000  0.500000  0.155706  1
  Sc  Sc5  1  0.000000  0.000000  0.844294  1
  Pa  Pa6  1  0.000000  0.500000  0.534112  1
  Pa  Pa7  1  0.500000  0.000000  0.465888  1
  Co  Co8  1  0.500000  0.500000  0.695776  1
  Co  Co9  1  0.000000  0.000000  0.304224  1
  Co  Co10  1  0.000000  0.500000  0.985988  1
  Co  Co11  1  0.500000  0.000000  0.014012  1
  Co  Co12  1  0.500000  0.332336  0.993351  1
  Co  Co13  1  0.500000  0.667664  0.993351  1
  Co  Co14  1  0.000000  0.167664  0.006649  1
  Co  Co15  1  0.000000  0.832336  0.006649  1
  Co  Co16  1  0.500000  0.297882  0.434691  1
  Co  Co17  1  0.500000  0.702118  0.434691  1
  Co  Co18  1  0.000000  0.202118  0.565309  1
  Co  Co19  1  0.000000  0.797882  0.565309  1
  Co  Co20  1  0.500000  0.878867  0.702840  1
  Co  Co21  1  0.500000  0.121133  0.702840  1
  Co  Co22  1  0.000000  0.621133  0.297160  1
  Co  Co23  1  0.000000  0.378867  0.297160  1
  P  P24  1  0.500000  0.500000  0.880876  1
  P  P25  1  0.000000  0.000000  0.119124  1
  P  P26  1  0.500000  0.500000  0.359683  1
  P  P27  1  0.000000  0.000000  0.640317  1
  P  P28  1  0.500000  0.306271  0.616840  1
  P  P29  1  0.500000  0.693729  0.616840  1
  P  P30  1  0.000000  0.193729  0.383160  1
  P  P31  1  0.000000  0.806271  0.383160  1
  P  P32  1  0.500000  0.840012  0.894253  1
  P  P33  1  0.500000  0.159988  0.894253  1
  P  P34  1  0.000000  0.659988  0.105747  1
  P  P35  1  0.000000  0.340012  0.105747  1
