# generated using pymatgen
data_Tb2DyCuRu2
_symmetry_space_group_name_H-M   'P 1'
_cell_length_a   3.40166300
_cell_length_b   3.40166300
_cell_length_c   10.51735700
_cell_angle_alpha   90.00000000
_cell_angle_beta   90.00000000
_cell_angle_gamma   90.00000000
_symmetry_Int_Tables_number   1
_chemical_formula_structural   Tb2DyCuRu2
_chemical_formula_sum   'Tb2 Dy1 Cu1 Ru2'
_cell_volume   121.69961049
_cell_formula_units_Z   1
loop_
 _symmetry_equiv_pos_site_id
 _symmetry_equiv_pos_as_xyz
  1  'x, y, z'
loop_
 _atom_site_type_symbol
 _atom_site_label
 _atom_site_symmetry_multiplicity
 _atom_site_fract_x
 _atom_site_fract_y
 _atom_site_fract_z
 _atom_site_occupancy
  Tb  Tb0  1  0.500000  0.500000  0.323688  1
  Tb  Tb1  1  0.500000  0.500000  0.676312  1
  Dy  Dy2  1  0.500000  0.500000  0.000000  1
  Cu  Cu3  1  0.000000  0.000000  0.500000  1
  Ru  Ru4  1  0.000000  0.000000  0.167384  1
  Ru  Ru5  1  0.000000  0.000000  0.832616  1
