# generated using pymatgen
data_Tb6Dy3Er11Bi12
_symmetry_space_group_name_H-M   'P 1'
_cell_length_a   8.24826705
_cell_length_b   9.48812783
_cell_length_c   12.02752008
_cell_angle_alpha   89.97430726
_cell_angle_beta   90.01268480
_cell_angle_gamma   90.00260598
_symmetry_Int_Tables_number   1
_chemical_formula_structural   Tb6Dy3Er11Bi12
_chemical_formula_sum   'Tb6 Dy3 Er11 Bi12'
_cell_volume   941.28096561
_cell_formula_units_Z   1
loop_
 _symmetry_equiv_pos_site_id
 _symmetry_equiv_pos_as_xyz
  1  'x, y, z'
loop_
 _atom_site_type_symbol
 _atom_site_label
 _atom_site_symmetry_multiplicity
 _atom_site_fract_x
 _atom_site_fract_y
 _atom_site_fract_z
 _atom_site_occupancy
  Tb  Tb0  1  0.693208  0.936328  0.058777  1
  Tb  Tb1  1  0.193145  0.563700  0.441266  1
  Tb  Tb2  1  0.312649  0.250078  0.218837  1
  Tb  Tb3  1  0.812646  0.249944  0.281194  1
  Tb  Tb4  1  0.687355  0.749795  0.781017  1
  Tb  Tb5  1  0.187567  0.750201  0.718870  1
  Dy  Dy6  1  0.352947  0.750000  0.215925  1
  Dy  Dy7  1  0.852988  0.749987  0.283986  1
  Dy  Dy8  1  0.647379  0.249748  0.784082  1
  Er  Er9  1  0.147490  0.250263  0.716247  1
  Er  Er10  1  0.693198  0.564853  0.058911  1
  Er  Er11  1  0.193155  0.935065  0.441063  1
  Er  Er12  1  0.306920  0.065226  0.941131  1
  Er  Er13  1  0.807086  0.434819  0.558752  1
  Er  Er14  1  0.306463  0.434940  0.940898  1
  Er  Er15  1  0.806618  0.065027  0.558977  1
  Er  Er16  1  0.475652  0.249770  0.488329  1
  Er  Er17  1  0.975840  0.250207  0.011416  1
  Er  Er18  1  0.524945  0.750276  0.511971  1
  Er  Er19  1  0.025090  0.749725  0.988033  1
  Bi  Bi20  1  0.406523  0.749408  0.957387  1
  Bi  Bi21  1  0.906437  0.750603  0.542513  1
  Bi  Bi22  1  0.592359  0.251773  0.042009  1
  Bi  Bi23  1  0.092571  0.248234  0.458666  1
  Bi  Bi24  1  0.564889  0.995098  0.326128  1
  Bi  Bi25  1  0.064889  0.504937  0.173867  1
  Bi  Bi26  1  0.434532  0.494775  0.674296  1
  Bi  Bi27  1  0.935034  0.005417  0.825584  1
  Bi  Bi28  1  0.434487  0.005274  0.674019  1
  Bi  Bi29  1  0.935003  0.494540  0.825861  1
  Bi  Bi30  1  0.565464  0.504978  0.325811  1
  Bi  Bi31  1  0.065473  0.995010  0.174176  1
