# generated using pymatgen
data_Ca4PaAlIr4
_symmetry_space_group_name_H-M   'P 1'
_cell_length_a   5.81474098
_cell_length_b   5.81474108
_cell_length_c   7.85273744
_cell_angle_alpha   80.45813769
_cell_angle_beta   80.45813554
_cell_angle_gamma   61.69174930
_symmetry_Int_Tables_number   1
_chemical_formula_structural   Ca4PaAlIr4
_chemical_formula_sum   'Ca4 Pa1 Al1 Ir4'
_cell_volume   229.35933586
_cell_formula_units_Z   1
loop_
 _symmetry_equiv_pos_site_id
 _symmetry_equiv_pos_as_xyz
  1  'x, y, z'
loop_
 _atom_site_type_symbol
 _atom_site_label
 _atom_site_symmetry_multiplicity
 _atom_site_fract_x
 _atom_site_fract_y
 _atom_site_fract_z
 _atom_site_occupancy
  Ca  Ca0  1  0.982090  0.726476  0.131725  1
  Ca  Ca1  1  0.273524  0.017910  0.368275  1
  Ca  Ca2  1  0.022123  0.279892  0.843928  1
  Ca  Ca3  1  0.720108  0.977877  0.656072  1
  Pa  Pa4  1  0.606699  0.393301  0.250000  1
  Al  Al5  1  0.418352  0.581648  0.750000  1
  Ir  Ir6  1  0.487891  0.776267  0.994791  1
  Ir  Ir7  1  0.223733  0.512109  0.505209  1
  Ir  Ir8  1  0.493786  0.228306  0.007635  1
  Ir  Ir9  1  0.771694  0.506214  0.492365  1
