# generated using pymatgen
data_Yb3Pr(Mo2C3)2
_symmetry_space_group_name_H-M   'P 1'
_cell_length_a   6.59614500
_cell_length_b   5.94160309
_cell_length_c   11.96835532
_cell_angle_alpha   66.74381895
_cell_angle_beta   90.00000000
_cell_angle_gamma   90.00000000
_symmetry_Int_Tables_number   1
_chemical_formula_structural   Yb3Pr(Mo2C3)2
_chemical_formula_sum   'Yb6 Pr2 Mo8 C12'
_cell_volume   430.94813417
_cell_formula_units_Z   2
loop_
 _symmetry_equiv_pos_site_id
 _symmetry_equiv_pos_as_xyz
  1  'x, y, z'
loop_
 _atom_site_type_symbol
 _atom_site_label
 _atom_site_symmetry_multiplicity
 _atom_site_fract_x
 _atom_site_fract_y
 _atom_site_fract_z
 _atom_site_occupancy
  Yb  Yb0  1  0.796274  0.673073  0.902346  1
  Yb  Yb1  1  0.296274  0.326927  0.597654  1
  Yb  Yb2  1  0.202765  0.308604  0.087340  1
  Yb  Yb3  1  0.702765  0.691396  0.412660  1
  Yb  Yb4  1  0.991845  0.731676  0.636546  1
  Yb  Yb5  1  0.491845  0.268324  0.863454  1
  Pr  Pr6  1  0.002505  0.275811  0.364034  1
  Pr  Pr7  1  0.502505  0.724189  0.135966  1
  Mo  Mo8  1  0.989610  0.825718  0.118086  1
  Mo  Mo9  1  0.489610  0.174282  0.381914  1
  Mo  Mo10  1  0.009748  0.181652  0.874354  1
  Mo  Mo11  1  0.509748  0.818348  0.625646  1
  Mo  Mo12  1  0.761936  0.181402  0.658206  1
  Mo  Mo13  1  0.236652  0.817075  0.343247  1
  Mo  Mo14  1  0.736652  0.182925  0.156753  1
  Mo  Mo15  1  0.261936  0.818598  0.841794  1
  C  C16  1  0.642264  0.505520  0.652765  1
  C  C17  1  0.142264  0.494480  0.847235  1
  C  C18  1  0.364204  0.491563  0.359190  1
  C  C19  1  0.864204  0.508437  0.140810  1
  C  C20  1  0.216304  0.929879  0.985560  1
  C  C21  1  0.716304  0.070121  0.514440  1
  C  C22  1  0.789016  0.097590  0.007401  1
  C  C23  1  0.289016  0.902410  0.492599  1
  C  C24  1  0.472541  0.039954  0.243922  1
  C  C25  1  0.024336  0.033654  0.742273  1
  C  C26  1  0.972541  0.960046  0.256078  1
  C  C27  1  0.524336  0.966346  0.757727  1
