# generated using pymatgen
data_LaNd5(SiPd5)2
_symmetry_space_group_name_H-M   'P 1'
_cell_length_a   8.44542155
_cell_length_b   8.44542244
_cell_length_c   8.44542349
_cell_angle_alpha   127.24372291
_cell_angle_beta   126.30535414
_cell_angle_gamma   78.62116389
_symmetry_Int_Tables_number   1
_chemical_formula_structural   LaNd5(SiPd5)2
_chemical_formula_sum   'La1 Nd5 Si2 Pd10'
_cell_volume   374.06544527
_cell_formula_units_Z   1
loop_
 _symmetry_equiv_pos_site_id
 _symmetry_equiv_pos_as_xyz
  1  'x, y, z'
loop_
 _atom_site_type_symbol
 _atom_site_label
 _atom_site_symmetry_multiplicity
 _atom_site_fract_x
 _atom_site_fract_y
 _atom_site_fract_z
 _atom_site_occupancy
  La  La0  1  0.615230  0.750000  0.865230  1
  Nd  Nd1  1  0.821146  0.049308  0.771838  1
  Nd  Nd2  1  0.222528  0.450692  0.771838  1
  Nd  Nd3  1  0.179581  0.951077  0.228503  1
  Nd  Nd4  1  0.387056  0.250000  0.137056  1
  Nd  Nd5  1  0.777427  0.548923  0.228503  1
  Si  Si6  1  0.210056  0.750000  0.460056  1
  Si  Si7  1  0.788583  0.250000  0.538583  1
  Pd  Pd8  1  0.829223  0.591329  0.636807  1
  Pd  Pd9  1  0.545479  0.307584  0.636807  1
  Pd  Pd10  1  0.453835  0.091272  0.761469  1
  Pd  Pd11  1  0.829223  0.192416  0.237895  1
  Pd  Pd12  1  0.170197  0.408728  0.362563  1
  Pd  Pd13  1  0.453835  0.692366  0.362563  1
  Pd  Pd14  1  0.545479  0.908671  0.237895  1
  Pd  Pd15  1  0.170197  0.807634  0.761469  1
  Pd  Pd16  1  0.000463  0.000521  0.500984  1
  Pd  Pd17  1  0.000463  0.499479  0.999942  1
