# generated using pymatgen
data_AcGe3Pd
_symmetry_space_group_name_H-M   'P 1'
_cell_length_a   5.97792419
_cell_length_b   5.97792483
_cell_length_c   5.97792428
_cell_angle_alpha   134.25009085
_cell_angle_beta   134.25010106
_cell_angle_gamma   66.69764550
_symmetry_Int_Tables_number   1
_chemical_formula_structural   AcGe3Pd
_chemical_formula_sum   'Ac1 Ge3 Pd1'
_cell_volume   107.85755721
_cell_formula_units_Z   1
loop_
 _symmetry_equiv_pos_site_id
 _symmetry_equiv_pos_as_xyz
  1  'x, y, z'
loop_
 _atom_site_type_symbol
 _atom_site_label
 _atom_site_symmetry_multiplicity
 _atom_site_fract_x
 _atom_site_fract_y
 _atom_site_fract_z
 _atom_site_occupancy
  Ac  Ac0  1  0.002539  0.002539  0.000000  1
  Ge  Ge1  1  0.259076  0.759076  0.500000  1
  Ge  Ge2  1  0.759076  0.259076  0.500000  1
  Ge  Ge3  1  0.399750  0.399750  0.000000  1
  Pd  Pd4  1  0.652559  0.652559  0.000000  1
