# generated using pymatgen
data_Lu3Zn3RuAu2
_symmetry_space_group_name_H-M   'P 1'
_cell_length_a   7.35301500
_cell_length_b   7.35301370
_cell_length_c   3.78144500
_cell_angle_alpha   90.00000000
_cell_angle_beta   90.00000000
_cell_angle_gamma   120.00001033
_symmetry_Int_Tables_number   1
_chemical_formula_structural   Lu3Zn3RuAu2
_chemical_formula_sum   'Lu3 Zn3 Ru1 Au2'
_cell_volume   177.05948714
_cell_formula_units_Z   1
loop_
 _symmetry_equiv_pos_site_id
 _symmetry_equiv_pos_as_xyz
  1  'x, y, z'
loop_
 _atom_site_type_symbol
 _atom_site_label
 _atom_site_symmetry_multiplicity
 _atom_site_fract_x
 _atom_site_fract_y
 _atom_site_fract_z
 _atom_site_occupancy
  Lu  Lu0  1  0.580742  0.975928  0.000000  1
  Lu  Lu1  1  0.024072  0.604814  0.000000  1
  Lu  Lu2  1  0.395186  0.419258  0.000000  1
  Zn  Zn3  1  0.259313  0.987658  0.500000  1
  Zn  Zn4  1  0.012342  0.271655  0.500000  1
  Zn  Zn5  1  0.728345  0.740687  0.500000  1
  Ru  Ru6  1  0.333333  0.666667  0.500000  1
  Au  Au7  1  0.666667  0.333333  0.500000  1
  Au  Au8  1  0.000000  0.000000  0.000000  1
