# generated using pymatgen
data_Er15Th5(Bi2Os)4
_symmetry_space_group_name_H-M   'P 1'
_cell_length_a   8.18607707
_cell_length_b   8.87343856
_cell_length_c   12.55202900
_cell_angle_alpha   90.29002378
_cell_angle_beta   89.99227991
_cell_angle_gamma   89.96271762
_symmetry_Int_Tables_number   1
_chemical_formula_structural   Er15Th5(Bi2Os)4
_chemical_formula_sum   'Er15 Th5 Bi8 Os4'
_cell_volume   911.75058372
_cell_formula_units_Z   1
loop_
 _symmetry_equiv_pos_site_id
 _symmetry_equiv_pos_as_xyz
  1  'x, y, z'
loop_
 _atom_site_type_symbol
 _atom_site_label
 _atom_site_symmetry_multiplicity
 _atom_site_fract_x
 _atom_site_fract_y
 _atom_site_fract_z
 _atom_site_occupancy
  Er  Er0  1  0.837095  0.748069  0.795165  1
  Er  Er1  1  0.163894  0.252559  0.205459  1
  Er  Er2  1  0.336403  0.252115  0.705281  1
  Er  Er3  1  0.664928  0.750049  0.292629  1
  Er  Er4  1  0.381868  0.749011  0.699018  1
  Er  Er5  1  0.623104  0.252572  0.301472  1
  Er  Er6  1  0.880035  0.254817  0.803078  1
  Er  Er7  1  0.122868  0.744688  0.196257  1
  Er  Er8  1  0.943574  0.745897  0.500301  1
  Er  Er9  1  0.049339  0.252011  0.499692  1
  Er  Er10  1  0.444775  0.253327  0.999743  1
  Er  Er11  1  0.555325  0.747095  0.000286  1
  Er  Er12  1  0.677120  0.453114  0.568467  1
  Er  Er13  1  0.828215  0.455840  0.063814  1
  Er  Er14  1  0.171502  0.544436  0.935099  1
  Th  Th15  1  0.682091  0.043368  0.563938  1
  Th  Th16  1  0.315331  0.956111  0.436892  1
  Th  Th17  1  0.182274  0.957258  0.935685  1
  Th  Th18  1  0.323778  0.543082  0.437913  1
  Th  Th19  1  0.817745  0.042737  0.063789  1
  Bi  Bi20  1  0.567587  0.488458  0.826970  1
  Bi  Bi21  1  0.434802  0.511059  0.172970  1
  Bi  Bi22  1  0.069408  0.512306  0.674293  1
  Bi  Bi23  1  0.426956  0.987091  0.173852  1
  Bi  Bi24  1  0.929012  0.487766  0.324874  1
  Bi  Bi25  1  0.573614  0.013946  0.826522  1
  Bi  Bi26  1  0.928649  0.012291  0.326011  1
  Bi  Bi27  1  0.072043  0.986957  0.673298  1
  Os  Os28  1  0.571411  0.755894  0.511123  1
  Os  Os29  1  0.424926  0.246047  0.485569  1
  Os  Os30  1  0.072715  0.240870  0.988575  1
  Os  Os31  1  0.927615  0.759162  0.011966  1
