# generated using pymatgen
data_Tm3LuScSb3
_symmetry_space_group_name_H-M   'P 1'
_cell_length_a   7.88194700
_cell_length_b   9.10750500
_cell_length_c   11.60687600
_cell_angle_alpha   90.00000000
_cell_angle_beta   90.00000000
_cell_angle_gamma   90.00000000
_symmetry_Int_Tables_number   1
_chemical_formula_structural   Tm3LuScSb3
_chemical_formula_sum   'Tm12 Lu4 Sc4 Sb12'
_cell_volume   833.19810464
_cell_formula_units_Z   4
loop_
 _symmetry_equiv_pos_site_id
 _symmetry_equiv_pos_as_xyz
  1  'x, y, z'
loop_
 _atom_site_type_symbol
 _atom_site_label
 _atom_site_symmetry_multiplicity
 _atom_site_fract_x
 _atom_site_fract_y
 _atom_site_fract_z
 _atom_site_occupancy
  Tm  Tm0  1  0.196889  0.562202  0.440048  1
  Tm  Tm1  1  0.696889  0.937798  0.059952  1
  Tm  Tm2  1  0.803111  0.062202  0.559952  1
  Tm  Tm3  1  0.303111  0.437798  0.940048  1
  Tm  Tm4  1  0.185163  0.750000  0.720589  1
  Tm  Tm5  1  0.685163  0.750000  0.779411  1
  Tm  Tm6  1  0.814837  0.250000  0.279411  1
  Tm  Tm7  1  0.314837  0.250000  0.220589  1
  Tm  Tm8  1  0.855460  0.750119  0.284887  1
  Tm  Tm9  1  0.355460  0.749881  0.215113  1
  Tm  Tm10  1  0.144540  0.250119  0.715113  1
  Tm  Tm11  1  0.644540  0.249881  0.784887  1
  Lu  Lu12  1  0.803257  0.437535  0.560067  1
  Lu  Lu13  1  0.303257  0.062465  0.939933  1
  Lu  Lu14  1  0.196743  0.937535  0.439933  1
  Lu  Lu15  1  0.696743  0.562465  0.060067  1
  Sc  Sc16  1  0.028096  0.749933  0.988728  1
  Sc  Sc17  1  0.528096  0.750067  0.511272  1
  Sc  Sc18  1  0.971904  0.249933  0.011272  1
  Sc  Sc19  1  0.471904  0.250067  0.488728  1
  Sb  Sb20  1  0.933080  0.496373  0.830734  1
  Sb  Sb21  1  0.433080  0.003627  0.669266  1
  Sb  Sb22  1  0.066920  0.996373  0.169266  1
  Sb  Sb23  1  0.566920  0.503627  0.330734  1
  Sb  Sb24  1  0.066800  0.503542  0.169290  1
  Sb  Sb25  1  0.566800  0.996458  0.330710  1
  Sb  Sb26  1  0.933200  0.003542  0.830710  1
  Sb  Sb27  1  0.433200  0.496458  0.669290  1
  Sb  Sb28  1  0.906849  0.749610  0.541198  1
  Sb  Sb29  1  0.406849  0.750390  0.958802  1
  Sb  Sb30  1  0.093151  0.249610  0.458802  1
  Sb  Sb31  1  0.593151  0.250390  0.041198  1
