# generated using pymatgen
data_Rb2Ge(TeO4)3
_symmetry_space_group_name_H-M   'P 1'
_cell_length_a   7.08298075
_cell_length_b   7.08298069
_cell_length_c   7.08298053
_cell_angle_alpha   61.72273187
_cell_angle_beta   61.72273588
_cell_angle_gamma   61.72273611
_symmetry_Int_Tables_number   1
_chemical_formula_structural   Rb2Ge(TeO4)3
_chemical_formula_sum   'Rb2 Ge1 Te3 O12'
_cell_volume   260.96709578
_cell_formula_units_Z   1
loop_
 _symmetry_equiv_pos_site_id
 _symmetry_equiv_pos_as_xyz
  1  'x, y, z'
loop_
 _atom_site_type_symbol
 _atom_site_label
 _atom_site_symmetry_multiplicity
 _atom_site_fract_x
 _atom_site_fract_y
 _atom_site_fract_z
 _atom_site_occupancy
  Rb  Rb0  1  0.370272  0.370272  0.370272  1
  Rb  Rb1  1  0.629728  0.629728  0.629728  1
  Ge  Ge2  1  0.000000  0.000000  0.000000  1
  Te  Te3  1  0.500000  0.000000  0.000000  1
  Te  Te4  1  0.000000  0.000000  0.500000  1
  Te  Te5  1  0.000000  0.500000  0.000000  1
  O  O6  1  0.930540  0.327512  0.327512  1
  O  O7  1  0.317474  0.929342  0.929342  1
  O  O8  1  0.327512  0.327512  0.930540  1
  O  O9  1  0.929342  0.929342  0.317474  1
  O  O10  1  0.929342  0.317474  0.929342  1
  O  O11  1  0.327512  0.930540  0.327512  1
  O  O12  1  0.069460  0.672488  0.672488  1
  O  O13  1  0.682526  0.070658  0.070658  1
  O  O14  1  0.672488  0.672488  0.069460  1
  O  O15  1  0.070658  0.070658  0.682526  1
  O  O16  1  0.070658  0.682526  0.070658  1
  O  O17  1  0.672488  0.069460  0.672488  1
