# generated using pymatgen
data_Nd2Sc3Si4
_symmetry_space_group_name_H-M   'P 1'
_cell_length_a   7.22009900
_cell_length_b   7.50611400
_cell_length_c   14.19273500
_cell_angle_alpha   90.00000000
_cell_angle_beta   90.00000000
_cell_angle_gamma   90.00000000
_symmetry_Int_Tables_number   1
_chemical_formula_structural   Nd2Sc3Si4
_chemical_formula_sum   'Nd8 Sc12 Si16'
_cell_volume   769.17365798
_cell_formula_units_Z   4
loop_
 _symmetry_equiv_pos_site_id
 _symmetry_equiv_pos_as_xyz
  1  'x, y, z'
loop_
 _atom_site_type_symbol
 _atom_site_label
 _atom_site_symmetry_multiplicity
 _atom_site_fract_x
 _atom_site_fract_y
 _atom_site_fract_z
 _atom_site_occupancy
  Nd  Nd0  1  0.011512  0.173138  0.097345  1
  Nd  Nd1  1  0.988488  0.826862  0.902655  1
  Nd  Nd2  1  0.488488  0.673138  0.902655  1
  Nd  Nd3  1  0.988488  0.826862  0.597345  1
  Nd  Nd4  1  0.511512  0.326862  0.097345  1
  Nd  Nd5  1  0.011512  0.173138  0.402655  1
  Nd  Nd6  1  0.511512  0.326862  0.402655  1
  Nd  Nd7  1  0.488488  0.673138  0.597345  1
  Sc  Sc8  1  0.160035  0.500433  0.750000  1
  Sc  Sc9  1  0.839965  0.499567  0.250000  1
  Sc  Sc10  1  0.339965  0.000433  0.250000  1
  Sc  Sc11  1  0.660035  0.999567  0.750000  1
  Sc  Sc12  1  0.329949  0.175898  0.625684  1
  Sc  Sc13  1  0.670051  0.824102  0.374316  1
  Sc  Sc14  1  0.170051  0.675898  0.374316  1
  Sc  Sc15  1  0.670051  0.824102  0.125684  1
  Sc  Sc16  1  0.829949  0.324102  0.625684  1
  Sc  Sc17  1  0.329949  0.175898  0.874316  1
  Sc  Sc18  1  0.829949  0.324102  0.874316  1
  Sc  Sc19  1  0.170051  0.675898  0.125684  1
  Si  Si20  1  0.033992  0.123392  0.750000  1
  Si  Si21  1  0.966008  0.876608  0.250000  1
  Si  Si22  1  0.466008  0.623392  0.250000  1
  Si  Si23  1  0.533992  0.376608  0.750000  1
  Si  Si24  1  0.287325  0.881362  0.750000  1
  Si  Si25  1  0.712675  0.118638  0.250000  1
  Si  Si26  1  0.212675  0.381362  0.250000  1
  Si  Si27  1  0.787325  0.618638  0.750000  1
  Si  Si28  1  0.153028  0.463073  0.539299  1
  Si  Si29  1  0.846972  0.536927  0.460701  1
  Si  Si30  1  0.346972  0.963073  0.460701  1
  Si  Si31  1  0.846972  0.536927  0.039299  1
  Si  Si32  1  0.653028  0.036927  0.539299  1
  Si  Si33  1  0.153028  0.463073  0.960701  1
  Si  Si34  1  0.653028  0.036927  0.960701  1
  Si  Si35  1  0.346972  0.963073  0.039299  1
