# generated using pymatgen
data_HoLu4Zr3(Ni4As3)4
_symmetry_space_group_name_H-M   'P 1'
_cell_length_a   12.73043200
_cell_length_b   12.73048523
_cell_length_c   3.88817200
_cell_angle_alpha   90.00000000
_cell_angle_beta   90.00000000
_cell_angle_gamma   119.99995598
_symmetry_Int_Tables_number   1
_chemical_formula_structural   HoLu4Zr3(Ni4As3)4
_chemical_formula_sum   'Ho1 Lu4 Zr3 Ni16 As12'
_cell_volume   545.71311556
_cell_formula_units_Z   1
loop_
 _symmetry_equiv_pos_site_id
 _symmetry_equiv_pos_as_xyz
  1  'x, y, z'
loop_
 _atom_site_type_symbol
 _atom_site_label
 _atom_site_symmetry_multiplicity
 _atom_site_fract_x
 _atom_site_fract_y
 _atom_site_fract_z
 _atom_site_occupancy
  Ho  Ho0  1  0.666671  0.333340  0.000000  1
  Lu  Lu1  1  0.333351  0.666677  0.000000  1
  Lu  Lu2  1  0.182170  0.000025  0.500000  1
  Lu  Lu3  1  0.999997  0.182160  0.500000  1
  Lu  Lu4  1  0.817861  0.817854  0.500000  1
  Zr  Zr5  1  0.561345  0.999825  0.000000  1
  Zr  Zr6  1  0.438484  0.438660  0.000000  1
  Zr  Zr7  1  0.000179  0.561522  0.000000  1
  Ni  Ni8  1  0.000002  0.000001  0.000000  1
  Ni  Ni9  1  0.807955  0.182407  0.000000  1
  Ni  Ni10  1  0.374461  0.192047  0.000000  1
  Ni  Ni11  1  0.192122  0.374713  0.000000  1
  Ni  Ni12  1  0.817588  0.625541  0.000000  1
  Ni  Ni13  1  0.182590  0.807883  0.000000  1
  Ni  Ni14  1  0.625284  0.817407  0.000000  1
  Ni  Ni15  1  0.724043  0.999922  0.500000  1
  Ni  Ni16  1  0.482036  0.121536  0.500000  1
  Ni  Ni17  1  0.275886  0.275963  0.500000  1
  Ni  Ni18  1  0.878467  0.360506  0.500000  1
  Ni  Ni19  1  0.122093  0.482519  0.500000  1
  Ni  Ni20  1  0.639506  0.517968  0.500000  1
  Ni  Ni21  1  0.517484  0.639576  0.500000  1
  Ni  Ni22  1  0.000074  0.724118  0.500000  1
  Ni  Ni23  1  0.360429  0.877910  0.500000  1
  As  As24  1  0.353252  0.000090  0.000000  1
  As  As25  1  0.823113  0.999974  0.000000  1
  As  As26  1  0.176866  0.176893  0.000000  1
  As  As27  1  0.999914  0.353163  0.000000  1
  As  As28  1  0.646844  0.646754  0.000000  1
  As  As29  1  0.000027  0.823138  0.000000  1
  As  As30  1  0.692075  0.172374  0.500000  1
  As  As31  1  0.480300  0.307929  0.500000  1
  As  As32  1  0.308039  0.481182  0.500000  1
  As  As33  1  0.827632  0.519705  0.500000  1
  As  As34  1  0.173147  0.691967  0.500000  1
  As  As35  1  0.518820  0.826860  0.500000  1
