# generated using pymatgen
data_Cd3RuRh3PbO14
_symmetry_space_group_name_H-M   'P 1'
_cell_length_a   7.27672566
_cell_length_b   7.23089039
_cell_length_c   7.23088900
_cell_angle_alpha   59.99999262
_cell_angle_beta   60.20814035
_cell_angle_gamma   60.20814126
_symmetry_Int_Tables_number   1
_chemical_formula_structural   Cd3RuRh3PbO14
_chemical_formula_sum   'Cd3 Ru1 Rh3 Pb1 O14'
_cell_volume   269.87560148
_cell_formula_units_Z   1
loop_
 _symmetry_equiv_pos_site_id
 _symmetry_equiv_pos_as_xyz
  1  'x, y, z'
loop_
 _atom_site_type_symbol
 _atom_site_label
 _atom_site_symmetry_multiplicity
 _atom_site_fract_x
 _atom_site_fract_y
 _atom_site_fract_z
 _atom_site_occupancy
  Cd  Cd0  1  0.125000  0.625000  0.125000  1
  Cd  Cd1  1  0.125000  0.125000  0.625000  1
  Cd  Cd2  1  0.125000  0.125000  0.125000  1
  Ru  Ru3  1  0.125000  0.625000  0.625000  1
  Rh  Rh4  1  0.625000  0.125000  0.625000  1
  Rh  Rh5  1  0.625000  0.625000  0.125000  1
  Rh  Rh6  1  0.625000  0.625000  0.625000  1
  Pb  Pb7  1  0.625000  0.125000  0.125000  1
  O  O8  1  0.707391  0.708539  0.292035  1
  O  O9  1  0.944931  0.557131  0.557131  1
  O  O10  1  0.542609  0.957965  0.957965  1
  O  O11  1  0.944931  0.940807  0.557131  1
  O  O12  1  0.944931  0.557131  0.940807  1
  O  O13  1  0.542609  0.957965  0.541461  1
  O  O14  1  0.305069  0.692869  0.309193  1
  O  O15  1  0.305069  0.692869  0.692869  1
  O  O16  1  0.707391  0.292035  0.292035  1
  O  O17  1  0.707391  0.292035  0.708539  1
  O  O18  1  0.542609  0.541461  0.957965  1
  O  O19  1  0.305069  0.309193  0.692869  1
  O  O20  1  0.239617  0.253461  0.253461  1
  O  O21  1  0.010383  0.996539  0.996539  1
