# generated using pymatgen
data_Nd7Y(GaBr6)2
_symmetry_space_group_name_H-M   'P 1'
_cell_length_a   4.19520500
_cell_length_b   13.84780202
_cell_length_c   14.57768100
_cell_angle_alpha   90.43983681
_cell_angle_beta   90.00000000
_cell_angle_gamma   90.00000000
_symmetry_Int_Tables_number   1
_chemical_formula_structural   Nd7Y(GaBr6)2
_chemical_formula_sum   'Nd7 Y1 Ga2 Br12'
_cell_volume   846.85621557
_cell_formula_units_Z   1
loop_
 _symmetry_equiv_pos_site_id
 _symmetry_equiv_pos_as_xyz
  1  'x, y, z'
loop_
 _atom_site_type_symbol
 _atom_site_label
 _atom_site_symmetry_multiplicity
 _atom_site_fract_x
 _atom_site_fract_y
 _atom_site_fract_z
 _atom_site_occupancy
  Nd  Nd0  1  0.500000  0.119584  0.338900  1
  Nd  Nd1  1  0.500000  0.881571  0.661757  1
  Nd  Nd2  1  0.500000  0.618619  0.160706  1
  Nd  Nd3  1  0.000000  0.124666  0.583351  1
  Nd  Nd4  1  0.000000  0.877379  0.418513  1
  Nd  Nd5  1  0.000000  0.622332  0.917641  1
  Nd  Nd6  1  0.000000  0.376258  0.080409  1
  Y  Y7  1  0.500000  0.381463  0.839347  1
  Ga  Ga8  1  0.500000  0.001257  0.500779  1
  Ga  Ga9  1  0.500000  0.498672  0.998041  1
  Br  Br10  1  0.500000  0.243095  0.163310  1
  Br  Br11  1  0.500000  0.755416  0.834924  1
  Br  Br12  1  0.500000  0.743414  0.335707  1
  Br  Br13  1  0.500000  0.258870  0.670519  1
  Br  Br14  1  0.000000  0.254162  0.412991  1
  Br  Br15  1  0.000000  0.746903  0.588036  1
  Br  Br16  1  0.000000  0.752731  0.088123  1
  Br  Br17  1  0.000000  0.252338  0.904508  1
  Br  Br18  1  0.000000  0.000504  0.244574  1
  Br  Br19  1  0.000000  0.000076  0.756425  1
  Br  Br20  1  0.000000  0.500583  0.254679  1
  Br  Br21  1  0.000000  0.490104  0.746761  1
