# generated using pymatgen
data_Tb2PaTc2
_symmetry_space_group_name_H-M   'P 1'
_cell_length_a   5.94735936
_cell_length_b   5.94735822
_cell_length_c   5.94735947
_cell_angle_alpha   137.90700500
_cell_angle_beta   122.27183684
_cell_angle_gamma   73.97869077
_symmetry_Int_Tables_number   1
_chemical_formula_structural   Tb2PaTc2
_chemical_formula_sum   'Tb2 Pa1 Tc2'
_cell_volume   116.51867224
_cell_formula_units_Z   1
loop_
 _symmetry_equiv_pos_site_id
 _symmetry_equiv_pos_as_xyz
  1  'x, y, z'
loop_
 _atom_site_type_symbol
 _atom_site_label
 _atom_site_symmetry_multiplicity
 _atom_site_fract_x
 _atom_site_fract_y
 _atom_site_fract_z
 _atom_site_occupancy
  Tb  Tb0  1  0.302931  0.802931  0.500000  1
  Tb  Tb1  1  0.697069  0.197069  0.500000  1
  Pa  Pa2  1  0.000000  0.000000  0.000000  1
  Tc  Tc3  1  0.254194  0.500000  0.754194  1
  Tc  Tc4  1  0.745806  0.500000  0.245806  1
