# generated using pymatgen
data_Hf3Zr3(GaN)2
_symmetry_space_group_name_H-M   'P 1'
_cell_length_a   5.94235378
_cell_length_b   5.94235227
_cell_length_c   8.77382645
_cell_angle_alpha   89.96469814
_cell_angle_beta   90.03530324
_cell_angle_gamma   146.78214237
_symmetry_Int_Tables_number   1
_chemical_formula_structural   Hf3Zr3(GaN)2
_chemical_formula_sum   'Hf3 Zr3 Ga2 N2'
_cell_volume   169.72542224
_cell_formula_units_Z   1
loop_
 _symmetry_equiv_pos_site_id
 _symmetry_equiv_pos_as_xyz
  1  'x, y, z'
loop_
 _atom_site_type_symbol
 _atom_site_label
 _atom_site_symmetry_multiplicity
 _atom_site_fract_x
 _atom_site_fract_y
 _atom_site_fract_z
 _atom_site_occupancy
  Hf  Hf0  1  0.050279  0.949720  0.250142  1
  Hf  Hf1  1  0.950045  0.049954  0.749773  1
  Hf  Hf2  1  0.626200  0.373798  0.952178  1
  Zr  Zr3  1  0.372441  0.627557  0.048339  1
  Zr  Zr4  1  0.372036  0.627962  0.451570  1
  Zr  Zr5  1  0.627126  0.372872  0.549019  1
  Ga  Ga6  1  0.744243  0.255756  0.249091  1
  Ga  Ga7  1  0.254480  0.745519  0.751749  1
  N  N8  1  0.003495  0.996505  0.998239  1
  N  N9  1  0.999648  0.000352  0.499905  1
