# generated using pymatgen
data_HoLu4(In2Cu)2
_symmetry_space_group_name_H-M   'P 1'
_cell_length_a   3.59644000
_cell_length_b   7.94528300
_cell_length_c   17.76052100
_cell_angle_alpha   90.00000000
_cell_angle_beta   90.00000000
_cell_angle_gamma   90.00000000
_symmetry_Int_Tables_number   1
_chemical_formula_structural   HoLu4(In2Cu)2
_chemical_formula_sum   'Ho2 Lu8 In8 Cu4'
_cell_volume   507.50215604
_cell_formula_units_Z   2
loop_
 _symmetry_equiv_pos_site_id
 _symmetry_equiv_pos_as_xyz
  1  'x, y, z'
loop_
 _atom_site_type_symbol
 _atom_site_label
 _atom_site_symmetry_multiplicity
 _atom_site_fract_x
 _atom_site_fract_y
 _atom_site_fract_z
 _atom_site_occupancy
  Ho  Ho0  1  0.000000  0.500000  0.500000  1
  Ho  Ho1  1  0.000000  0.000000  0.000000  1
  Lu  Lu2  1  0.000000  0.740606  0.279788  1
  Lu  Lu3  1  0.000000  0.259394  0.720212  1
  Lu  Lu4  1  0.000000  0.759394  0.779788  1
  Lu  Lu5  1  0.000000  0.240606  0.220212  1
  Lu  Lu6  1  0.000000  0.618424  0.084069  1
  Lu  Lu7  1  0.000000  0.381576  0.915931  1
  Lu  Lu8  1  0.000000  0.881576  0.584069  1
  Lu  Lu9  1  0.000000  0.118424  0.415931  1
  In  In10  1  0.500000  0.705257  0.932000  1
  In  In11  1  0.500000  0.294743  0.068000  1
  In  In12  1  0.500000  0.794743  0.432000  1
  In  In13  1  0.500000  0.205257  0.568000  1
  In  In14  1  0.500000  0.578779  0.650547  1
  In  In15  1  0.500000  0.421221  0.349453  1
  In  In16  1  0.500000  0.921221  0.150547  1
  In  In17  1  0.500000  0.078779  0.849453  1
  Cu  Cu18  1  0.500000  0.524507  0.196567  1
  Cu  Cu19  1  0.500000  0.475493  0.803433  1
  Cu  Cu20  1  0.500000  0.975493  0.696567  1
  Cu  Cu21  1  0.500000  0.024507  0.303433  1
