# generated using pymatgen
data_Lu3Al3SnPt2
_symmetry_space_group_name_H-M   'P 1'
_cell_length_a   7.07266400
_cell_length_b   7.07266476
_cell_length_c   4.18650300
_cell_angle_alpha   90.00000000
_cell_angle_beta   90.00000000
_cell_angle_gamma   120.00000579
_symmetry_Int_Tables_number   1
_chemical_formula_structural   Lu3Al3SnPt2
_chemical_formula_sum   'Lu3 Al3 Sn1 Pt2'
_cell_volume   181.36275870
_cell_formula_units_Z   1
loop_
 _symmetry_equiv_pos_site_id
 _symmetry_equiv_pos_as_xyz
  1  'x, y, z'
loop_
 _atom_site_type_symbol
 _atom_site_label
 _atom_site_symmetry_multiplicity
 _atom_site_fract_x
 _atom_site_fract_y
 _atom_site_fract_z
 _atom_site_occupancy
  Lu  Lu0  1  0.595964  0.017775  0.500000  1
  Lu  Lu1  1  0.421809  0.404036  0.500000  1
  Lu  Lu2  1  0.982225  0.578191  0.500000  1
  Al  Al3  1  0.776009  0.755429  0.000000  1
  Al  Al4  1  0.979418  0.223991  0.000000  1
  Al  Al5  1  0.244571  0.020582  0.000000  1
  Sn  Sn6  1  0.333333  0.666667  0.000000  1
  Pt  Pt7  1  0.666667  0.333333  0.000000  1
  Pt  Pt8  1  0.000000  0.000000  0.500000  1
