# generated using pymatgen
data_K8Tl10Pt
_symmetry_space_group_name_H-M   'P 1'
_cell_length_a   10.47830500
_cell_length_b   10.47830500
_cell_length_c   14.17355200
_cell_angle_alpha   90.00000000
_cell_angle_beta   90.00000000
_cell_angle_gamma   90.00000000
_symmetry_Int_Tables_number   1
_chemical_formula_structural   K8Tl10Pt
_chemical_formula_sum   'K16 Tl20 Pt2'
_cell_volume   1556.18337969
_cell_formula_units_Z   2
loop_
 _symmetry_equiv_pos_site_id
 _symmetry_equiv_pos_as_xyz
  1  'x, y, z'
loop_
 _atom_site_type_symbol
 _atom_site_label
 _atom_site_symmetry_multiplicity
 _atom_site_fract_x
 _atom_site_fract_y
 _atom_site_fract_z
 _atom_site_occupancy
  K  K0  1  0.703921  0.072975  0.144917  1
  K  K1  1  0.296079  0.927025  0.144917  1
  K  K2  1  0.296079  0.072975  0.855083  1
  K  K3  1  0.703921  0.927025  0.855083  1
  K  K4  1  0.796079  0.427025  0.355083  1
  K  K5  1  0.203921  0.572975  0.355083  1
  K  K6  1  0.203921  0.427025  0.644917  1
  K  K7  1  0.796079  0.572975  0.644917  1
  K  K8  1  0.072975  0.703921  0.855083  1
  K  K9  1  0.927025  0.296079  0.855083  1
  K  K10  1  0.072975  0.296079  0.144917  1
  K  K11  1  0.927025  0.703921  0.144917  1
  K  K12  1  0.427025  0.796079  0.644917  1
  K  K13  1  0.572975  0.203921  0.644917  1
  K  K14  1  0.427025  0.203921  0.355083  1
  K  K15  1  0.572975  0.796079  0.355083  1
  Tl  Tl16  1  0.760831  0.095334  0.410469  1
  Tl  Tl17  1  0.239169  0.904666  0.410469  1
  Tl  Tl18  1  0.239169  0.095334  0.589531  1
  Tl  Tl19  1  0.760831  0.904666  0.589531  1
  Tl  Tl20  1  0.739169  0.404666  0.089531  1
  Tl  Tl21  1  0.260831  0.595334  0.089531  1
  Tl  Tl22  1  0.260831  0.404666  0.910469  1
  Tl  Tl23  1  0.739169  0.595334  0.910469  1
  Tl  Tl24  1  0.095334  0.760831  0.589531  1
  Tl  Tl25  1  0.904666  0.239169  0.589531  1
  Tl  Tl26  1  0.095334  0.239169  0.410469  1
  Tl  Tl27  1  0.904666  0.760831  0.410469  1
  Tl  Tl28  1  0.404666  0.739169  0.910469  1
  Tl  Tl29  1  0.595334  0.260831  0.910469  1
  Tl  Tl30  1  0.404666  0.260831  0.089531  1
  Tl  Tl31  1  0.595334  0.739169  0.089531  1
  Tl  Tl32  1  0.500000  0.500000  0.209801  1
  Tl  Tl33  1  0.500000  0.500000  0.790199  1
  Tl  Tl34  1  0.000000  0.000000  0.290199  1
  Tl  Tl35  1  0.000000  0.000000  0.709801  1
  Pt  Pt36  1  0.500000  0.500000  0.000000  1
  Pt  Pt37  1  0.000000  0.000000  0.500000  1
