# generated using pymatgen
data_Pr6Ho10Cd4TcPd3
_symmetry_space_group_name_H-M   'P 1'
_cell_length_a   9.83124777
_cell_length_b   9.83124817
_cell_length_c   9.83124686
_cell_angle_alpha   59.42006830
_cell_angle_beta   59.42006581
_cell_angle_gamma   59.42006972
_symmetry_Int_Tables_number   1
_chemical_formula_structural   Pr6Ho10Cd4TcPd3
_chemical_formula_sum   'Pr6 Ho10 Cd4 Tc1 Pd3'
_cell_volume   663.04344509
_cell_formula_units_Z   1
loop_
 _symmetry_equiv_pos_site_id
 _symmetry_equiv_pos_as_xyz
  1  'x, y, z'
loop_
 _atom_site_type_symbol
 _atom_site_label
 _atom_site_symmetry_multiplicity
 _atom_site_fract_x
 _atom_site_fract_y
 _atom_site_fract_z
 _atom_site_occupancy
  Pr  Pr0  1  0.936429  0.562303  0.562303  1
  Pr  Pr1  1  0.553379  0.940488  0.940488  1
  Pr  Pr2  1  0.562303  0.936429  0.562303  1
  Pr  Pr3  1  0.940488  0.553379  0.940488  1
  Pr  Pr4  1  0.562303  0.562303  0.936429  1
  Pr  Pr5  1  0.940488  0.940488  0.553379  1
  Ho  Ho6  1  0.352883  0.352883  0.352883  1
  Ho  Ho7  1  0.348402  0.348402  0.952237  1
  Ho  Ho8  1  0.348402  0.952237  0.348402  1
  Ho  Ho9  1  0.952237  0.348402  0.348402  1
  Ho  Ho10  1  0.819801  0.184834  0.184834  1
  Ho  Ho11  1  0.183563  0.812697  0.812697  1
  Ho  Ho12  1  0.184834  0.819801  0.184834  1
  Ho  Ho13  1  0.812697  0.183563  0.812697  1
  Ho  Ho14  1  0.184834  0.184834  0.819801  1
  Ho  Ho15  1  0.812697  0.812697  0.183563  1
  Cd  Cd16  1  0.578640  0.578640  0.578640  1
  Cd  Cd17  1  0.579296  0.579296  0.260519  1
  Cd  Cd18  1  0.579296  0.260519  0.579296  1
  Cd  Cd19  1  0.260519  0.579296  0.579296  1
  Tc  Tc20  1  0.144120  0.144120  0.144120  1
  Pd  Pd21  1  0.145560  0.145560  0.571272  1
  Pd  Pd22  1  0.145560  0.571272  0.145560  1
  Pd  Pd23  1  0.571272  0.145560  0.145560  1
