# generated using pymatgen
data_La13Pr3Cd4CoPd3
_symmetry_space_group_name_H-M   'P 1'
_cell_length_a   10.15066902
_cell_length_b   10.15394258
_cell_length_c   10.15223873
_cell_angle_alpha   59.89469768
_cell_angle_beta   59.94585850
_cell_angle_gamma   59.87426859
_symmetry_Int_Tables_number   1
_chemical_formula_structural   La13Pr3Cd4CoPd3
_chemical_formula_sum   'La13 Pr3 Cd4 Co1 Pd3'
_cell_volume   738.30917744
_cell_formula_units_Z   1
loop_
 _symmetry_equiv_pos_site_id
 _symmetry_equiv_pos_as_xyz
  1  'x, y, z'
loop_
 _atom_site_type_symbol
 _atom_site_label
 _atom_site_symmetry_multiplicity
 _atom_site_fract_x
 _atom_site_fract_y
 _atom_site_fract_z
 _atom_site_occupancy
  La  La0  1  0.350725  0.351713  0.351196  1
  La  La1  1  0.343827  0.343669  0.953655  1
  La  La2  1  0.343314  0.954960  0.342712  1
  La  La3  1  0.954372  0.343681  0.343106  1
  La  La4  1  0.821389  0.191057  0.190072  1
  La  La5  1  0.193319  0.804712  0.805564  1
  La  La6  1  0.189719  0.822157  0.189442  1
  La  La7  1  0.806179  0.192837  0.806266  1
  La  La8  1  0.189147  0.190658  0.822564  1
  La  La9  1  0.806557  0.805732  0.192704  1
  La  La10  1  0.938182  0.564077  0.564765  1
  La  La11  1  0.562858  0.933188  0.934550  1
  La  La12  1  0.562937  0.938667  0.563502  1
  Pr  Pr13  1  0.933840  0.563132  0.934834  1
  Pr  Pr14  1  0.562550  0.561648  0.939501  1
  Pr  Pr15  1  0.936154  0.935421  0.561988  1
  Cd  Cd16  1  0.579753  0.578958  0.580097  1
  Cd  Cd17  1  0.580853  0.579959  0.259639  1
  Cd  Cd18  1  0.581508  0.260511  0.579865  1
  Cd  Cd19  1  0.259860  0.581459  0.580626  1
  Co  Co20  1  0.142613  0.141763  0.143574  1
  Pd  Pd21  1  0.143750  0.143682  0.572471  1
  Pd  Pd22  1  0.144296  0.571975  0.143491  1
  Pd  Pd23  1  0.572296  0.144383  0.143815  1
