# generated using pymatgen
data_Tc2IrRu4Rh
_symmetry_space_group_name_H-M   'P 1'
_cell_length_a   5.49599100
_cell_length_b   5.48107655
_cell_length_c   4.33562300
_cell_angle_alpha   90.00000000
_cell_angle_beta   90.00000000
_cell_angle_gamma   120.09005952
_symmetry_Int_Tables_number   1
_chemical_formula_structural   Tc2IrRu4Rh
_chemical_formula_sum   'Tc2 Ir1 Ru4 Rh1'
_cell_volume   113.00539723
_cell_formula_units_Z   1
loop_
 _symmetry_equiv_pos_site_id
 _symmetry_equiv_pos_as_xyz
  1  'x, y, z'
loop_
 _atom_site_type_symbol
 _atom_site_label
 _atom_site_symmetry_multiplicity
 _atom_site_fract_x
 _atom_site_fract_y
 _atom_site_fract_z
 _atom_site_occupancy
  Tc  Tc0  1  0.334879  0.669758  0.750000  1
  Tc  Tc1  1  0.664588  0.329173  0.250000  1
  Ir  Ir2  1  0.833073  0.666144  0.750000  1
  Ru  Ru3  1  0.664091  0.834516  0.250000  1
  Ru  Ru4  1  0.170423  0.834516  0.250000  1
  Ru  Ru5  1  0.334280  0.165952  0.750000  1
  Ru  Ru6  1  0.831673  0.165952  0.750000  1
  Rh  Rh7  1  0.166993  0.333986  0.250000  1
