# generated using pymatgen
data_La4Y2Al24Os7Pd
_symmetry_space_group_name_H-M   'P 1'
_cell_length_a   8.95583533
_cell_length_b   8.95583605
_cell_length_c   9.67575665
_cell_angle_alpha   89.84865677
_cell_angle_beta   90.15132853
_cell_angle_gamma   120.15502294
_symmetry_Int_Tables_number   1
_chemical_formula_structural   La4Y2Al24Os7Pd
_chemical_formula_sum   'La4 Y2 Al24 Os7 Pd1'
_cell_volume   671.03511493
_cell_formula_units_Z   1
loop_
 _symmetry_equiv_pos_site_id
 _symmetry_equiv_pos_as_xyz
  1  'x, y, z'
loop_
 _atom_site_type_symbol
 _atom_site_label
 _atom_site_symmetry_multiplicity
 _atom_site_fract_x
 _atom_site_fract_y
 _atom_site_fract_z
 _atom_site_occupancy
  La  La0  1  0.188778  0.381433  0.251378  1
  La  La1  1  0.811222  0.618567  0.748622  1
  La  La2  1  0.618567  0.811222  0.251378  1
  La  La3  1  0.381433  0.188778  0.748622  1
  Y  Y4  1  0.194584  0.805416  0.253295  1
  Y  Y5  1  0.805416  0.194584  0.746705  1
  Al  Al6  1  0.329289  0.670711  0.010506  1
  Al  Al7  1  0.670711  0.329289  0.989494  1
  Al  Al8  1  0.667277  0.332723  0.509136  1
  Al  Al9  1  0.332723  0.667277  0.490864  1
  Al  Al10  1  0.160118  0.325424  0.576545  1
  Al  Al11  1  0.839882  0.674576  0.423455  1
  Al  Al12  1  0.674576  0.839882  0.576545  1
  Al  Al13  1  0.847249  0.677048  0.079468  1
  Al  Al14  1  0.325424  0.160118  0.423455  1
  Al  Al15  1  0.152751  0.322952  0.920532  1
  Al  Al16  1  0.163265  0.836735  0.572800  1
  Al  Al17  1  0.322952  0.152751  0.079468  1
  Al  Al18  1  0.836735  0.163265  0.427200  1
  Al  Al19  1  0.677048  0.847249  0.920532  1
  Al  Al20  1  0.836812  0.163188  0.072097  1
  Al  Al21  1  0.163188  0.836812  0.927903  1
  Al  Al22  1  0.560677  0.123564  0.249494  1
  Al  Al23  1  0.439323  0.876436  0.750506  1
  Al  Al24  1  0.876436  0.439323  0.249494  1
  Al  Al25  1  0.123564  0.560677  0.750506  1
  Al  Al26  1  0.564988  0.435012  0.252843  1
  Al  Al27  1  0.435012  0.564988  0.747157  1
  Al  Al28  1  0.003464  0.996536  0.250423  1
  Al  Al29  1  0.996536  0.003464  0.749577  1
  Os  Os30  1  0.500000  0.000000  0.000000  1
  Os  Os31  1  0.000000  0.500000  0.000000  1
  Os  Os32  1  0.500000  0.000000  0.500000  1
  Os  Os33  1  0.000000  0.500000  0.500000  1
  Os  Os34  1  0.500000  0.500000  0.500000  1
  Os  Os35  1  0.000000  0.000000  0.000000  1
  Os  Os36  1  0.000000  0.000000  0.500000  1
  Pd  Pd37  1  0.500000  0.500000  0.000000  1
