# generated using pymatgen
data_Ho4Er2LuScO12
_symmetry_space_group_name_H-M   'P 1'
_cell_length_a   6.60207215
_cell_length_b   6.60424920
_cell_length_c   6.60269630
_cell_angle_alpha   92.33283895
_cell_angle_beta   92.31963410
_cell_angle_gamma   92.31596329
_symmetry_Int_Tables_number   1
_chemical_formula_structural   Ho4Er2LuScO12
_chemical_formula_sum   'Ho4 Er2 Lu1 Sc1 O12'
_cell_volume   287.15953088
_cell_formula_units_Z   1
loop_
 _symmetry_equiv_pos_site_id
 _symmetry_equiv_pos_as_xyz
  1  'x, y, z'
loop_
 _atom_site_type_symbol
 _atom_site_label
 _atom_site_symmetry_multiplicity
 _atom_site_fract_x
 _atom_site_fract_y
 _atom_site_fract_z
 _atom_site_occupancy
  Ho  Ho0  1  0.439524  0.744487  0.930494  1
  Ho  Ho1  1  0.255406  0.069478  0.560587  1
  Ho  Ho2  1  0.069241  0.560612  0.255505  1
  Ho  Ho3  1  0.560770  0.255408  0.069446  1
  Er  Er4  1  0.744605  0.930488  0.439518  1
  Er  Er5  1  0.930362  0.439389  0.744495  1
  Lu  Lu6  1  0.999820  0.000013  0.999906  1
  Sc  Sc7  1  0.500258  0.500052  0.500086  1
  O  O8  1  0.594467  0.464200  0.806741  1
  O  O9  1  0.465020  0.807220  0.593113  1
  O  O10  1  0.807125  0.594087  0.464980  1
  O  O11  1  0.406444  0.535723  0.193158  1
  O  O12  1  0.536427  0.192506  0.406587  1
  O  O13  1  0.192537  0.406611  0.536495  1
  O  O14  1  0.068737  0.909385  0.313935  1
  O  O15  1  0.909446  0.314007  0.068666  1
  O  O16  1  0.686286  0.930389  0.091621  1
  O  O17  1  0.090148  0.685542  0.929770  1
  O  O18  1  0.929662  0.090995  0.685584  1
  O  O19  1  0.313714  0.069407  0.909314  1
