# generated using pymatgen
data_Dy5CrSi9(PIr6)3
_symmetry_space_group_name_H-M   'P 1'
_cell_length_a   12.83215692
_cell_length_b   12.84055576
_cell_length_c   3.95312100
_cell_angle_alpha   90.00000000
_cell_angle_beta   90.00000000
_cell_angle_gamma   120.02164632
_symmetry_Int_Tables_number   1
_chemical_formula_structural   Dy5CrSi9(PIr6)3
_chemical_formula_sum   'Dy5 Cr1 Si9 P3 Ir18'
_cell_volume   563.97447884
_cell_formula_units_Z   1
loop_
 _symmetry_equiv_pos_site_id
 _symmetry_equiv_pos_as_xyz
  1  'x, y, z'
loop_
 _atom_site_type_symbol
 _atom_site_label
 _atom_site_symmetry_multiplicity
 _atom_site_fract_x
 _atom_site_fract_y
 _atom_site_fract_z
 _atom_site_occupancy
  Dy  Dy0  1  0.332484  0.665592  0.500000  1
  Dy  Dy1  1  0.667516  0.333107  0.500000  1
  Dy  Dy2  1  0.000000  0.812002  0.000000  1
  Dy  Dy3  1  0.187097  0.186831  0.000000  1
  Dy  Dy4  1  0.812903  0.999734  0.000000  1
  Cr  Cr5  1  0.000000  0.442247  0.500000  1
  Si  Si6  1  0.000000  0.632247  0.500000  1
  Si  Si7  1  0.367598  0.367368  0.500000  1
  Si  Si8  1  0.632402  0.999770  0.500000  1
  Si  Si9  1  0.517865  0.686182  0.000000  1
  Si  Si10  1  0.311775  0.831553  0.000000  1
  Si  Si11  1  0.167858  0.481361  0.000000  1
  Si  Si12  1  0.482135  0.168317  0.000000  1
  Si  Si13  1  0.688225  0.519778  0.000000  1
  Si  Si14  1  0.832142  0.313504  0.000000  1
  P  P15  1  0.000000  0.179579  0.500000  1
  P  P16  1  0.820985  0.821645  0.500000  1
  P  P17  1  0.179015  0.000660  0.500000  1
  Ir  Ir18  1  0.511580  0.871938  0.000000  1
  Ir  Ir19  1  0.126411  0.639451  0.000000  1
  Ir  Ir20  1  0.360467  0.486144  0.000000  1
  Ir  Ir21  1  0.488420  0.360357  0.000000  1
  Ir  Ir22  1  0.873589  0.513041  0.000000  1
  Ir  Ir23  1  0.639533  0.125677  0.000000  1
  Ir  Ir24  1  0.553380  0.553376  0.500000  1
  Ir  Ir25  1  0.446620  0.999995  0.500000  1
  Ir  Ir26  1  0.000000  0.277627  0.000000  1
  Ir  Ir27  1  0.720430  0.722089  0.000000  1
  Ir  Ir28  1  0.279570  0.001659  0.000000  1
  Ir  Ir29  1  0.626605  0.806993  0.500000  1
  Ir  Ir30  1  0.192975  0.822124  0.500000  1
  Ir  Ir31  1  0.179814  0.373831  0.500000  1
  Ir  Ir32  1  0.373395  0.180388  0.500000  1
  Ir  Ir33  1  0.807025  0.629150  0.500000  1
  Ir  Ir34  1  0.820186  0.194016  0.500000  1
  Ir  Ir35  1  0.000000  0.000666  0.500000  1
