# generated using pymatgen
data_Sc3Al9Fe4Si3
_symmetry_space_group_name_H-M   'P 1'
_cell_length_a   8.34066457
_cell_length_b   8.34066560
_cell_length_c   9.12745300
_cell_angle_alpha   90.00000000
_cell_angle_beta   90.00000000
_cell_angle_gamma   120.04236121
_symmetry_Int_Tables_number   1
_chemical_formula_structural   Sc3Al9Fe4Si3
_chemical_formula_sum   'Sc6 Al18 Fe8 Si6'
_cell_volume   549.66244013
_cell_formula_units_Z   2
loop_
 _symmetry_equiv_pos_site_id
 _symmetry_equiv_pos_as_xyz
  1  'x, y, z'
loop_
 _atom_site_type_symbol
 _atom_site_label
 _atom_site_symmetry_multiplicity
 _atom_site_fract_x
 _atom_site_fract_y
 _atom_site_fract_z
 _atom_site_occupancy
  Sc  Sc0  1  0.804378  0.195622  0.750000  1
  Sc  Sc1  1  0.195622  0.804378  0.250000  1
  Sc  Sc2  1  0.394851  0.201123  0.750000  1
  Sc  Sc3  1  0.605149  0.798877  0.250000  1
  Sc  Sc4  1  0.798877  0.605149  0.750000  1
  Sc  Sc5  1  0.201123  0.394851  0.250000  1
  Al  Al6  1  0.837039  0.162961  0.424855  1
  Al  Al7  1  0.162961  0.837039  0.575145  1
  Al  Al8  1  0.327588  0.163483  0.425218  1
  Al  Al9  1  0.162961  0.837039  0.924855  1
  Al  Al10  1  0.672412  0.836517  0.574782  1
  Al  Al11  1  0.837039  0.162961  0.075145  1
  Al  Al12  1  0.836517  0.672412  0.425218  1
  Al  Al13  1  0.672412  0.836517  0.925218  1
  Al  Al14  1  0.163483  0.327588  0.574782  1
  Al  Al15  1  0.327588  0.163483  0.074782  1
  Al  Al16  1  0.163483  0.327588  0.925218  1
  Al  Al17  1  0.836517  0.672412  0.074782  1
  Al  Al18  1  0.117536  0.556943  0.750000  1
  Al  Al19  1  0.882464  0.443057  0.250000  1
  Al  Al20  1  0.443057  0.882464  0.750000  1
  Al  Al21  1  0.556943  0.117536  0.250000  1
  Al  Al22  1  0.000156  0.999844  0.750000  1
  Al  Al23  1  0.999844  0.000156  0.250000  1
  Fe  Fe24  1  0.500000  0.500000  0.000000  1
  Fe  Fe25  1  0.000000  0.500000  0.000000  1
  Fe  Fe26  1  0.500000  0.500000  0.500000  1
  Fe  Fe27  1  0.500000  0.000000  0.000000  1
  Fe  Fe28  1  0.000000  0.500000  0.500000  1
  Fe  Fe29  1  0.500000  0.000000  0.500000  1
  Fe  Fe30  1  0.000000  0.000000  0.000000  1
  Fe  Fe31  1  0.000000  0.000000  0.500000  1
  Si  Si32  1  0.668513  0.331487  0.962074  1
  Si  Si33  1  0.331487  0.668513  0.037926  1
  Si  Si34  1  0.331487  0.668513  0.462074  1
  Si  Si35  1  0.668513  0.331487  0.537926  1
  Si  Si36  1  0.441762  0.558238  0.750000  1
  Si  Si37  1  0.558238  0.441762  0.250000  1
