# generated using pymatgen
data_Sr7TiTc3O19
_symmetry_space_group_name_H-M   'P 1'
_cell_length_a   7.45661346
_cell_length_b   7.45661261
_cell_length_c   10.49998581
_cell_angle_alpha   81.89646314
_cell_angle_beta   81.89646236
_cell_angle_gamma   44.28831001
_symmetry_Int_Tables_number   1
_chemical_formula_structural   Sr7TiTc3O19
_chemical_formula_sum   'Sr7 Ti1 Tc3 O19'
_cell_volume   402.90837527
_cell_formula_units_Z   1
loop_
 _symmetry_equiv_pos_site_id
 _symmetry_equiv_pos_as_xyz
  1  'x, y, z'
loop_
 _atom_site_type_symbol
 _atom_site_label
 _atom_site_symmetry_multiplicity
 _atom_site_fract_x
 _atom_site_fract_y
 _atom_site_fract_z
 _atom_site_occupancy
  Sr  Sr0  1  0.860649  0.860649  0.956694  1
  Sr  Sr1  1  0.420412  0.420412  0.170420  1
  Sr  Sr2  1  0.802514  0.802514  0.576814  1
  Sr  Sr3  1  0.209041  0.209041  0.401947  1
  Sr  Sr4  1  0.581633  0.581633  0.833891  1
  Sr  Sr5  1  0.133008  0.133008  0.056059  1
  Sr  Sr6  1  0.493559  0.493559  0.491347  1
  Ti  Ti7  1  0.956468  0.956468  0.312637  1
  Tc  Tc8  1  0.326418  0.326418  0.786770  1
  Tc  Tc9  1  0.669342  0.669342  0.220021  1
  Tc  Tc10  1  0.037467  0.037467  0.673280  1
  O  O11  1  0.685596  0.174760  0.715509  1
  O  O12  1  0.174760  0.685596  0.715509  1
  O  O13  1  0.398620  0.398620  0.928574  1
  O  O14  1  0.952672  0.952672  0.137945  1
  O  O15  1  0.625987  0.124499  0.377851  1
  O  O16  1  0.124499  0.625987  0.377851  1
  O  O17  1  0.302651  0.302651  0.622159  1
  O  O18  1  0.003212  0.480567  0.850361  1
  O  O19  1  0.480567  0.003212  0.850361  1
  O  O20  1  0.517838  0.994197  0.153027  1
  O  O21  1  0.994197  0.517838  0.153027  1
  O  O22  1  0.698353  0.698353  0.383632  1
  O  O23  1  0.369631  0.884642  0.629580  1
  O  O24  1  0.884642  0.369631  0.629580  1
  O  O25  1  0.046331  0.046331  0.850022  1
  O  O26  1  0.601695  0.601695  0.068737  1
  O  O27  1  0.827138  0.318586  0.284582  1
  O  O28  1  0.318586  0.827138  0.284582  1
  O  O29  1  0.002513  0.002513  0.507232  1
