# generated using pymatgen
data_Li2Ca2Ni10As7
_symmetry_space_group_name_H-M   'P 1'
_cell_length_a   9.48906727
_cell_length_b   9.36961697
_cell_length_c   3.87296400
_cell_angle_alpha   90.00000000
_cell_angle_beta   90.00000000
_cell_angle_gamma   120.04939896
_symmetry_Int_Tables_number   1
_chemical_formula_structural   Li2Ca2Ni10As7
_chemical_formula_sum   'Li2 Ca2 Ni10 As7'
_cell_volume   298.05956123
_cell_formula_units_Z   1
loop_
 _symmetry_equiv_pos_site_id
 _symmetry_equiv_pos_as_xyz
  1  'x, y, z'
loop_
 _atom_site_type_symbol
 _atom_site_label
 _atom_site_symmetry_multiplicity
 _atom_site_fract_x
 _atom_site_fract_y
 _atom_site_fract_z
 _atom_site_occupancy
  Li  Li0  1  0.210638  0.102097  0.499999  1
  Li  Li1  1  0.889546  0.102051  0.499999  1
  Ca  Ca2  1  0.337325  0.665367  0.000000  1
  Ca  Ca3  1  0.666012  0.335491  0.499999  1
  Ni  Ni4  1  0.429623  0.052545  0.000000  1
  Ni  Ni5  1  0.155476  0.279475  0.000000  1
  Ni  Ni6  1  0.949070  0.382050  0.000000  1
  Ni  Ni7  1  0.622962  0.570167  0.000000  1
  Ni  Ni8  1  0.128604  0.839663  0.000000  1
  Ni  Ni9  1  0.715414  0.876804  0.000000  1
  Ni  Ni10  1  0.382186  0.430738  0.499999  1
  Ni  Ni11  1  0.046124  0.617383  0.499999  1
  Ni  Ni12  1  0.896829  0.795715  0.499999  1
  Ni  Ni13  1  0.568216  0.954169  0.499999  1
  As  As14  1  0.993226  0.988245  0.000000  1
  As  As15  1  0.703740  0.117318  0.000000  1
  As  As16  1  0.409587  0.296802  0.000000  1
  As  As17  1  0.883204  0.593830  0.000000  1
  As  As18  1  0.114194  0.406380  0.499999  1
  As  As19  1  0.603067  0.711213  0.499999  1
  As  As20  1  0.294952  0.882498  0.499999  1
