# generated using pymatgen
data_Dy2ZnGa7Ni2
_symmetry_space_group_name_H-M   'P 1'
_cell_length_a   4.13504204
_cell_length_b   6.44143598
_cell_length_c   7.94222105
_cell_angle_alpha   90.37953149
_cell_angle_beta   105.08905991
_cell_angle_gamma   89.99999984
_symmetry_Int_Tables_number   1
_chemical_formula_structural   Dy2ZnGa7Ni2
_chemical_formula_sum   'Dy2 Zn1 Ga7 Ni2'
_cell_volume   204.24747981
_cell_formula_units_Z   1
loop_
 _symmetry_equiv_pos_site_id
 _symmetry_equiv_pos_as_xyz
  1  'x, y, z'
loop_
 _atom_site_type_symbol
 _atom_site_label
 _atom_site_symmetry_multiplicity
 _atom_site_fract_x
 _atom_site_fract_y
 _atom_site_fract_z
 _atom_site_occupancy
  Dy  Dy0  1  0.379651  0.753416  0.759302  1
  Dy  Dy1  1  0.620349  0.246584  0.240698  1
  Zn  Zn2  1  0.000000  0.500000  0.000000  1
  Ga  Ga3  1  0.000000  0.000000  0.000000  1
  Ga  Ga4  1  0.569891  0.744420  0.139784  1
  Ga  Ga5  1  0.430109  0.255580  0.860216  1
  Ga  Ga6  1  0.183224  0.547099  0.366448  1
  Ga  Ga7  1  0.816776  0.452901  0.633552  1
  Ga  Ga8  1  0.185023  0.948158  0.370045  1
  Ga  Ga9  1  0.814977  0.051842  0.629955  1
  Ni  Ni10  1  0.722618  0.750389  0.445238  1
  Ni  Ni11  1  0.277382  0.249611  0.554762  1
