# generated using pymatgen
data_Tb12GaCo4Ir
_symmetry_space_group_name_H-M   'P 1'
_cell_length_a   8.28253944
_cell_length_b   8.28253929
_cell_length_c   8.28253875
_cell_angle_alpha   111.35839270
_cell_angle_beta   110.12615394
_cell_angle_gamma   106.96042522
_symmetry_Int_Tables_number   1
_chemical_formula_structural   Tb12GaCo4Ir
_chemical_formula_sum   'Tb12 Ga1 Co4 Ir1'
_cell_volume   436.71031928
_cell_formula_units_Z   1
loop_
 _symmetry_equiv_pos_site_id
 _symmetry_equiv_pos_as_xyz
  1  'x, y, z'
loop_
 _atom_site_type_symbol
 _atom_site_label
 _atom_site_symmetry_multiplicity
 _atom_site_fract_x
 _atom_site_fract_y
 _atom_site_fract_z
 _atom_site_occupancy
  Tb  Tb0  1  0.038661  0.727665  0.310996  1
  Tb  Tb1  1  0.961339  0.272335  0.689004  1
  Tb  Tb2  1  0.583330  0.272335  0.310996  1
  Tb  Tb3  1  0.416670  0.727665  0.689004  1
  Tb  Tb4  1  0.674366  0.863190  0.188824  1
  Tb  Tb5  1  0.325634  0.514457  0.188824  1
  Tb  Tb6  1  0.325634  0.136810  0.811176  1
  Tb  Tb7  1  0.674366  0.485543  0.811176  1
  Tb  Tb8  1  0.179208  0.218992  0.398201  1
  Tb  Tb9  1  0.820792  0.218992  0.039784  1
  Tb  Tb10  1  0.179208  0.781008  0.960216  1
  Tb  Tb11  1  0.820792  0.781008  0.601799  1
  Ga  Ga12  1  0.500000  0.000000  0.500000  1
  Co  Co13  1  0.655279  0.500000  0.155279  1
  Co  Co14  1  0.344721  0.500000  0.844721  1
  Co  Co15  1  0.886356  0.886356  0.000000  1
  Co  Co16  1  0.113644  0.113644  0.000000  1
  Ir  Ir17  1  0.000000  0.500000  0.500000  1
