# generated using pymatgen
data_Pr2NdSm3OsBr10
_symmetry_space_group_name_H-M   'P 1'
_cell_length_a   7.63668272
_cell_length_b   9.60236772
_cell_length_c   9.46922128
_cell_angle_alpha   107.86582734
_cell_angle_beta   95.79422963
_cell_angle_gamma   106.16191727
_symmetry_Int_Tables_number   1
_chemical_formula_structural   Pr2NdSm3OsBr10
_chemical_formula_sum   'Pr2 Nd1 Sm3 Os1 Br10'
_cell_volume   621.44730011
_cell_formula_units_Z   1
loop_
 _symmetry_equiv_pos_site_id
 _symmetry_equiv_pos_as_xyz
  1  'x, y, z'
loop_
 _atom_site_type_symbol
 _atom_site_label
 _atom_site_symmetry_multiplicity
 _atom_site_fract_x
 _atom_site_fract_y
 _atom_site_fract_z
 _atom_site_occupancy
  Pr  Pr0  1  0.625420  0.548542  0.261391  1
  Pr  Pr1  1  0.374959  0.452220  0.739103  1
  Nd  Nd2  1  0.530550  0.194847  0.403336  1
  Sm  Sm3  1  0.470574  0.802556  0.596317  1
  Sm  Sm4  1  0.134045  0.360405  0.317085  1
  Sm  Sm5  1  0.865688  0.641203  0.683001  1
  Os  Os6  1  0.500275  0.500188  0.500276  1
  Br  Br7  1  0.146287  0.049449  0.228677  1
  Br  Br8  1  0.847533  0.950334  0.769410  1
  Br  Br9  1  0.247676  0.415012  0.050341  1
  Br  Br10  1  0.752627  0.585197  0.949575  1
  Br  Br11  1  0.715510  0.245375  0.153006  1
  Br  Br12  1  0.287540  0.756689  0.843490  1
  Br  Br13  1  0.048612  0.673105  0.418873  1
  Br  Br14  1  0.953835  0.328350  0.582545  1
  Br  Br15  1  0.412795  0.128182  0.672305  1
  Br  Br16  1  0.586074  0.868343  0.331269  1
