# generated using pymatgen
data_Ho3Sc2InBi2
_symmetry_space_group_name_H-M   'P 1'
_cell_length_a   8.87885023
_cell_length_b   8.87884899
_cell_length_c   6.27486400
_cell_angle_alpha   90.00000000
_cell_angle_beta   90.00000000
_cell_angle_gamma   119.57009810
_symmetry_Int_Tables_number   1
_chemical_formula_structural   Ho3Sc2InBi2
_chemical_formula_sum   'Ho6 Sc4 In2 Bi4'
_cell_volume   430.24263993
_cell_formula_units_Z   2
loop_
 _symmetry_equiv_pos_site_id
 _symmetry_equiv_pos_as_xyz
  1  'x, y, z'
loop_
 _atom_site_type_symbol
 _atom_site_label
 _atom_site_symmetry_multiplicity
 _atom_site_fract_x
 _atom_site_fract_y
 _atom_site_fract_z
 _atom_site_occupancy
  Ho  Ho0  1  0.759768  0.759768  0.750000  1
  Ho  Ho1  1  0.234543  0.996938  0.750000  1
  Ho  Ho2  1  0.996938  0.234543  0.750000  1
  Ho  Ho3  1  0.236961  0.236961  0.250000  1
  Ho  Ho4  1  0.764984  0.008487  0.250000  1
  Ho  Ho5  1  0.008487  0.764984  0.250000  1
  Sc  Sc6  1  0.669428  0.329414  0.005027  1
  Sc  Sc7  1  0.329414  0.669428  0.005027  1
  Sc  Sc8  1  0.329414  0.669428  0.494973  1
  Sc  Sc9  1  0.669428  0.329414  0.494973  1
  In  In10  1  0.401348  0.002609  0.250000  1
  In  In11  1  0.002609  0.401348  0.250000  1
  Bi  Bi12  1  0.397352  0.397352  0.750000  1
  Bi  Bi13  1  0.596741  0.997388  0.750000  1
  Bi  Bi14  1  0.997388  0.596741  0.750000  1
  Bi  Bi15  1  0.605197  0.605197  0.250000  1
