# generated using pymatgen
data_YMnCo4As3
_symmetry_space_group_name_H-M   'P 1'
_cell_length_a   3.80713100
_cell_length_b   10.75402000
_cell_length_c   12.32499900
_cell_angle_alpha   90.00000000
_cell_angle_beta   90.00000000
_cell_angle_gamma   90.00000000
_symmetry_Int_Tables_number   1
_chemical_formula_structural   YMnCo4As3
_chemical_formula_sum   'Y4 Mn4 Co16 As12'
_cell_volume   504.60965201
_cell_formula_units_Z   4
loop_
 _symmetry_equiv_pos_site_id
 _symmetry_equiv_pos_as_xyz
  1  'x, y, z'
loop_
 _atom_site_type_symbol
 _atom_site_label
 _atom_site_symmetry_multiplicity
 _atom_site_fract_x
 _atom_site_fract_y
 _atom_site_fract_z
 _atom_site_occupancy
  Y  Y0  1  0.250000  0.579907  0.703809  1
  Y  Y1  1  0.250000  0.920093  0.203809  1
  Y  Y2  1  0.750000  0.420093  0.296191  1
  Y  Y3  1  0.750000  0.079907  0.796191  1
  Mn  Mn4  1  0.250000  0.702581  0.990213  1
  Mn  Mn5  1  0.250000  0.797419  0.490213  1
  Mn  Mn6  1  0.750000  0.297419  0.009787  1
  Mn  Mn7  1  0.750000  0.202581  0.509787  1
  Co  Co8  1  0.250000  0.405571  0.487689  1
  Co  Co9  1  0.250000  0.094429  0.987689  1
  Co  Co10  1  0.750000  0.594429  0.512311  1
  Co  Co11  1  0.750000  0.905571  0.012311  1
  Co  Co12  1  0.250000  0.216866  0.176028  1
  Co  Co13  1  0.250000  0.283134  0.676028  1
  Co  Co14  1  0.750000  0.783134  0.823972  1
  Co  Co15  1  0.750000  0.716866  0.323972  1
  Co  Co16  1  0.250000  0.882628  0.697873  1
  Co  Co17  1  0.250000  0.617372  0.197873  1
  Co  Co18  1  0.750000  0.117372  0.302127  1
  Co  Co19  1  0.750000  0.382628  0.802127  1
  Co  Co20  1  0.250000  0.465677  0.933123  1
  Co  Co21  1  0.250000  0.034323  0.433123  1
  Co  Co22  1  0.750000  0.534323  0.066877  1
  Co  Co23  1  0.750000  0.965677  0.566877  1
  As  As24  1  0.250000  0.418705  0.115645  1
  As  As25  1  0.250000  0.081295  0.615645  1
  As  As26  1  0.750000  0.581295  0.884355  1
  As  As27  1  0.750000  0.918705  0.384355  1
  As  As28  1  0.250000  0.267602  0.865807  1
  As  As29  1  0.250000  0.232398  0.365807  1
  As  As30  1  0.750000  0.732398  0.134193  1
  As  As31  1  0.750000  0.767602  0.634193  1
  As  As32  1  0.250000  0.597773  0.391060  1
  As  As33  1  0.250000  0.902227  0.891060  1
  As  As34  1  0.750000  0.402227  0.608940  1
  As  As35  1  0.750000  0.097773  0.108940  1
