# generated using pymatgen
data_Tb6ErCoI12
_symmetry_space_group_name_H-M   'P 1'
_cell_length_a   9.77674879
_cell_length_b   9.77674751
_cell_length_c   9.77674796
_cell_angle_alpha   106.90170443
_cell_angle_beta   106.90170130
_cell_angle_gamma   106.90170046
_symmetry_Int_Tables_number   1
_chemical_formula_structural   Tb6ErCoI12
_chemical_formula_sum   'Tb6 Er1 Co1 I12'
_cell_volume   780.34514341
_cell_formula_units_Z   1
loop_
 _symmetry_equiv_pos_site_id
 _symmetry_equiv_pos_as_xyz
  1  'x, y, z'
loop_
 _atom_site_type_symbol
 _atom_site_label
 _atom_site_symmetry_multiplicity
 _atom_site_fract_x
 _atom_site_fract_y
 _atom_site_fract_z
 _atom_site_occupancy
  Tb  Tb0  1  0.288642  0.092411  0.021703  1
  Tb  Tb1  1  0.021703  0.288642  0.092411  1
  Tb  Tb2  1  0.092411  0.021703  0.288642  1
  Tb  Tb3  1  0.711358  0.907589  0.978297  1
  Tb  Tb4  1  0.978297  0.711358  0.907589  1
  Tb  Tb5  1  0.907589  0.978297  0.711358  1
  Er  Er6  1  0.500000  0.500000  0.500000  1
  Co  Co7  1  0.000000  0.000000  0.000000  1
  I  I8  1  0.464068  0.164208  0.387516  1
  I  I9  1  0.387516  0.464068  0.164208  1
  I  I10  1  0.164208  0.387516  0.464068  1
  I  I11  1  0.535932  0.835792  0.612484  1
  I  I12  1  0.612484  0.535932  0.835792  1
  I  I13  1  0.835792  0.612484  0.535932  1
  I  I14  1  0.322953  0.775309  0.929637  1
  I  I15  1  0.929637  0.322953  0.775309  1
  I  I16  1  0.775309  0.929637  0.322953  1
  I  I17  1  0.677047  0.224691  0.070363  1
  I  I18  1  0.070363  0.677047  0.224691  1
  I  I19  1  0.224691  0.070363  0.677047  1
