# generated using pymatgen
data_La4Ho6Ga3Sn5
_symmetry_space_group_name_H-M   'P 1'
_cell_length_a   7.84810400
_cell_length_b   8.32409800
_cell_length_c   15.65811200
_cell_angle_alpha   90.00000000
_cell_angle_beta   90.00000000
_cell_angle_gamma   90.00000000
_symmetry_Int_Tables_number   1
_chemical_formula_structural   La4Ho6Ga3Sn5
_chemical_formula_sum   'La8 Ho12 Ga6 Sn10'
_cell_volume   1022.91919745
_cell_formula_units_Z   2
loop_
 _symmetry_equiv_pos_site_id
 _symmetry_equiv_pos_as_xyz
  1  'x, y, z'
loop_
 _atom_site_type_symbol
 _atom_site_label
 _atom_site_symmetry_multiplicity
 _atom_site_fract_x
 _atom_site_fract_y
 _atom_site_fract_z
 _atom_site_occupancy
  La  La0  1  0.502464  0.318065  0.899585  1
  La  La1  1  0.002464  0.181935  0.600415  1
  La  La2  1  0.498062  0.677654  0.405534  1
  La  La3  1  0.998062  0.822346  0.094466  1
  La  La4  1  0.498062  0.677654  0.094466  1
  La  La5  1  0.998062  0.822346  0.405534  1
  La  La6  1  0.502464  0.318065  0.600415  1
  La  La7  1  0.002464  0.181935  0.899585  1
  Ho  Ho8  1  0.339278  0.830308  0.867354  1
  Ho  Ho9  1  0.839278  0.669692  0.632646  1
  Ho  Ho10  1  0.661232  0.172462  0.372109  1
  Ho  Ho11  1  0.161232  0.327538  0.127891  1
  Ho  Ho12  1  0.661232  0.172462  0.127891  1
  Ho  Ho13  1  0.161232  0.327538  0.372109  1
  Ho  Ho14  1  0.339278  0.830308  0.632646  1
  Ho  Ho15  1  0.839278  0.669692  0.867354  1
  Ho  Ho16  1  0.184887  0.488350  0.750000  1
  Ho  Ho17  1  0.684887  0.011650  0.750000  1
  Ho  Ho18  1  0.812697  0.496105  0.250000  1
  Ho  Ho19  1  0.312697  0.003895  0.250000  1
  Ga  Ga20  1  0.543613  0.612183  0.750000  1
  Ga  Ga21  1  0.043613  0.887817  0.750000  1
  Ga  Ga22  1  0.457961  0.374903  0.250000  1
  Ga  Ga23  1  0.957961  0.125097  0.250000  1
  Ga  Ga24  1  0.294494  0.124885  0.750000  1
  Ga  Ga25  1  0.794494  0.375115  0.750000  1
  Sn  Sn26  1  0.324402  0.038778  0.037150  1
  Sn  Sn27  1  0.824402  0.461222  0.462850  1
  Sn  Sn28  1  0.677971  0.959339  0.539908  1
  Sn  Sn29  1  0.177971  0.540661  0.960092  1
  Sn  Sn30  1  0.677971  0.959339  0.960092  1
  Sn  Sn31  1  0.177971  0.540661  0.539908  1
  Sn  Sn32  1  0.324402  0.038778  0.462850  1
  Sn  Sn33  1  0.824402  0.461222  0.037150  1
  Sn  Sn34  1  0.699531  0.868281  0.250000  1
  Sn  Sn35  1  0.199531  0.631719  0.250000  1
