# generated using pymatgen
data_Tb5Y3AlPd24
_symmetry_space_group_name_H-M   'P 1'
_cell_length_a   8.35765202
_cell_length_b   8.35764702
_cell_length_c   8.35742700
_cell_angle_alpha   90.00253649
_cell_angle_beta   89.99757321
_cell_angle_gamma   89.99247270
_symmetry_Int_Tables_number   1
_chemical_formula_structural   Tb5Y3AlPd24
_chemical_formula_sum   'Tb5 Y3 Al1 Pd24'
_cell_volume   583.76882328
_cell_formula_units_Z   1
loop_
 _symmetry_equiv_pos_site_id
 _symmetry_equiv_pos_as_xyz
  1  'x, y, z'
loop_
 _atom_site_type_symbol
 _atom_site_label
 _atom_site_symmetry_multiplicity
 _atom_site_fract_x
 _atom_site_fract_y
 _atom_site_fract_z
 _atom_site_occupancy
  Tb  Tb0  1  0.251403  0.251401  0.251405  1
  Tb  Tb1  1  0.748600  0.748599  0.748600  1
  Tb  Tb2  1  0.748599  0.748597  0.251405  1
  Tb  Tb3  1  0.748582  0.251418  0.748580  1
  Tb  Tb4  1  0.251401  0.251399  0.748600  1
  Y  Y5  1  0.251331  0.748670  0.251332  1
  Y  Y6  1  0.251344  0.748656  0.748654  1
  Y  Y7  1  0.748661  0.251339  0.251340  1
  Al  Al8  1  0.000037  0.999963  0.000039  1
  Pd  Pd9  1  0.260032  0.499946  0.000012  1
  Pd  Pd10  1  0.739961  0.500035  0.999995  1
  Pd  Pd11  1  0.000023  0.260040  0.500023  1
  Pd  Pd12  1  0.499965  0.260039  0.999994  1
  Pd  Pd13  1  0.999979  0.739969  0.499992  1
  Pd  Pd14  1  0.500053  0.739968  0.000011  1
  Pd  Pd15  1  0.499993  0.999992  0.260031  1
  Pd  Pd16  1  0.260031  0.000021  0.499991  1
  Pd  Pd17  1  0.500026  0.000008  0.739961  1
  Pd  Pd18  1  0.739960  0.999977  0.500023  1
  Pd  Pd19  1  0.000009  0.500007  0.260031  1
  Pd  Pd20  1  0.999992  0.499974  0.739961  1
  Pd  Pd21  1  0.252825  0.499958  0.499989  1
  Pd  Pd22  1  0.747160  0.500036  0.500016  1
  Pd  Pd23  1  0.499964  0.252840  0.500015  1
  Pd  Pd24  1  0.500042  0.747175  0.499989  1
  Pd  Pd25  1  0.499992  0.500008  0.252822  1
  Pd  Pd26  1  0.500019  0.499981  0.747162  1
  Pd  Pd27  1  0.289861  0.999994  0.000012  1
  Pd  Pd28  1  0.710123  0.999988  0.000009  1
  Pd  Pd29  1  0.000012  0.289877  0.000009  1
  Pd  Pd30  1  0.000005  0.710139  0.000012  1
  Pd  Pd31  1  0.000010  0.999990  0.289862  1
  Pd  Pd32  1  0.000007  0.999993  0.710122  1
