# generated using pymatgen
data_Ta8Nb(NiP2)2
_symmetry_space_group_name_H-M   'P 1'
_cell_length_a   11.49086200
_cell_length_b   11.49086200
_cell_length_c   3.46247200
_cell_angle_alpha   90.00000000
_cell_angle_beta   90.00000000
_cell_angle_gamma   90.00000000
_symmetry_Int_Tables_number   1
_chemical_formula_structural   Ta8Nb(NiP2)2
_chemical_formula_sum   'Ta16 Nb2 Ni4 P8'
_cell_volume   457.18448954
_cell_formula_units_Z   2
loop_
 _symmetry_equiv_pos_site_id
 _symmetry_equiv_pos_as_xyz
  1  'x, y, z'
loop_
 _atom_site_type_symbol
 _atom_site_label
 _atom_site_symmetry_multiplicity
 _atom_site_fract_x
 _atom_site_fract_y
 _atom_site_fract_z
 _atom_site_occupancy
  Ta  Ta0  1  0.104230  0.183730  0.500000  1
  Ta  Ta1  1  0.183730  0.895770  0.500000  1
  Ta  Ta2  1  0.816270  0.104230  0.500000  1
  Ta  Ta3  1  0.895770  0.816270  0.500000  1
  Ta  Ta4  1  0.395770  0.683730  0.500000  1
  Ta  Ta5  1  0.604230  0.316270  0.500000  1
  Ta  Ta6  1  0.683730  0.604230  0.500000  1
  Ta  Ta7  1  0.316270  0.395770  0.500000  1
  Ta  Ta8  1  0.102054  0.397946  0.000000  1
  Ta  Ta9  1  0.397946  0.897946  0.000000  1
  Ta  Ta10  1  0.602054  0.102054  0.000000  1
  Ta  Ta11  1  0.897946  0.602054  0.000000  1
  Ta  Ta12  1  0.394138  0.105862  0.500000  1
  Ta  Ta13  1  0.105862  0.605862  0.500000  1
  Ta  Ta14  1  0.894138  0.394138  0.500000  1
  Ta  Ta15  1  0.605862  0.894138  0.500000  1
  Nb  Nb16  1  0.000000  0.000000  0.000000  1
  Nb  Nb17  1  0.500000  0.500000  0.000000  1
  Ni  Ni18  1  0.265652  0.234348  0.000000  1
  Ni  Ni19  1  0.234348  0.734348  0.000000  1
  Ni  Ni20  1  0.765652  0.265652  0.000000  1
  Ni  Ni21  1  0.734348  0.765652  0.000000  1
  P  P22  1  0.226594  0.051539  0.000000  1
  P  P23  1  0.051539  0.773406  0.000000  1
  P  P24  1  0.948461  0.226594  0.000000  1
  P  P25  1  0.773406  0.948461  0.000000  1
  P  P26  1  0.273406  0.551539  0.000000  1
  P  P27  1  0.726594  0.448461  0.000000  1
  P  P28  1  0.551539  0.726594  0.000000  1
  P  P29  1  0.448461  0.273406  0.000000  1
