# generated using pymatgen
data_LuZr2Ga5Co
_symmetry_space_group_name_H-M   'P 1'
_cell_length_a   6.75223721
_cell_length_b   6.75223745
_cell_length_c   4.03049800
_cell_angle_alpha   90.00000000
_cell_angle_beta   90.00000000
_cell_angle_gamma   120.60533913
_symmetry_Int_Tables_number   1
_chemical_formula_structural   LuZr2Ga5Co
_chemical_formula_sum   'Lu1 Zr2 Ga5 Co1'
_cell_volume   158.16237557
_cell_formula_units_Z   1
loop_
 _symmetry_equiv_pos_site_id
 _symmetry_equiv_pos_as_xyz
  1  'x, y, z'
loop_
 _atom_site_type_symbol
 _atom_site_label
 _atom_site_symmetry_multiplicity
 _atom_site_fract_x
 _atom_site_fract_y
 _atom_site_fract_z
 _atom_site_occupancy
  Lu  Lu0  1  0.397617  0.397617  0.000000  1
  Zr  Zr1  1  0.608591  0.002983  0.000000  1
  Zr  Zr2  1  0.002983  0.608591  0.000000  1
  Ga  Ga3  1  0.238310  0.998946  0.500000  1
  Ga  Ga4  1  0.998946  0.238310  0.500000  1
  Ga  Ga5  1  0.761646  0.761646  0.500000  1
  Ga  Ga6  1  0.332096  0.672405  0.500000  1
  Ga  Ga7  1  0.672405  0.332096  0.500000  1
  Co  Co8  1  0.987408  0.987408  0.000000  1
