# generated using pymatgen
data_Hf7ZrFe7Si14W
_symmetry_space_group_name_H-M   'P 1'
_cell_length_a   9.49674475
_cell_length_b   9.49465017
_cell_length_c   9.53673329
_cell_angle_alpha   94.23254076
_cell_angle_beta   94.19079939
_cell_angle_gamma   148.47560504
_symmetry_Int_Tables_number   1
_chemical_formula_structural   Hf7ZrFe7Si14W
_chemical_formula_sum   'Hf7 Zr1 Fe7 Si14 W1'
_cell_volume   432.87060394
_cell_formula_units_Z   1
loop_
 _symmetry_equiv_pos_site_id
 _symmetry_equiv_pos_as_xyz
  1  'x, y, z'
loop_
 _atom_site_type_symbol
 _atom_site_label
 _atom_site_symmetry_multiplicity
 _atom_site_fract_x
 _atom_site_fract_y
 _atom_site_fract_z
 _atom_site_occupancy
  Hf  Hf0  1  0.702752  0.506493  0.194727  1
  Hf  Hf1  1  0.496193  0.695650  0.194616  1
  Hf  Hf2  1  0.493111  0.297338  0.805119  1
  Hf  Hf3  1  0.305086  0.504184  0.804971  1
  Hf  Hf4  1  0.861178  0.862823  0.722993  1
  Hf  Hf5  1  0.136812  0.863027  0.000057  1
  Hf  Hf6  1  0.860067  0.140131  0.999919  1
  Zr  Zr7  1  0.136703  0.138249  0.275528  1
  Fe  Fe8  1  0.903882  0.398602  0.806153  1
  Fe  Fe9  1  0.601230  0.095869  0.194206  1
  Fe  Fe10  1  0.107198  0.614430  0.217773  1
  Fe  Fe11  1  0.602323  0.398307  0.500455  1
  Fe  Fe12  1  0.384898  0.892587  0.781289  1
  Fe  Fe13  1  0.900640  0.099627  0.500912  1
  Fe  Fe14  1  0.394239  0.606342  0.500761  1
  Si  Si15  1  0.748398  0.751085  0.000153  1
  Si  Si16  1  0.247909  0.250687  0.997930  1
  Si  Si17  1  0.075349  0.482008  0.594795  1
  Si  Si18  1  0.559683  0.138980  0.598321  1
  Si  Si19  1  0.517277  0.923531  0.405325  1
  Si  Si20  1  0.862097  0.441553  0.401439  1
  Si  Si21  1  0.705221  0.005561  0.699717  1
  Si  Si22  1  0.973885  0.674050  0.713194  1
  Si  Si23  1  0.697711  0.703786  0.418274  1
  Si  Si24  1  0.289090  0.712113  0.999761  1
  Si  Si25  1  0.326157  0.025398  0.287675  1
  Si  Si26  1  0.709421  0.289123  0.999914  1
  Si  Si27  1  0.296845  0.302655  0.582247  1
  Si  Si28  1  0.994686  0.295683  0.300927  1
  W  W29  1  0.109957  0.890127  0.500851  1
