# generated using pymatgen
data_Yb3HoTmRu2
_symmetry_space_group_name_H-M   'P 1'
_cell_length_a   6.28848979
_cell_length_b   7.35090233
_cell_length_c   8.45677395
_cell_angle_alpha   96.77775393
_cell_angle_beta   111.82679976
_cell_angle_gamma   90.00000486
_symmetry_Int_Tables_number   1
_chemical_formula_structural   Yb3HoTmRu2
_chemical_formula_sum   'Yb6 Ho2 Tm2 Ru4'
_cell_volume   359.95430060
_cell_formula_units_Z   2
loop_
 _symmetry_equiv_pos_site_id
 _symmetry_equiv_pos_as_xyz
  1  'x, y, z'
loop_
 _atom_site_type_symbol
 _atom_site_label
 _atom_site_symmetry_multiplicity
 _atom_site_fract_x
 _atom_site_fract_y
 _atom_site_fract_z
 _atom_site_occupancy
  Yb  Yb0  1  0.202678  0.917534  0.175104  1
  Yb  Yb1  1  0.027575  0.582466  0.824896  1
  Yb  Yb2  1  0.202500  0.183387  0.567483  1
  Yb  Yb3  1  0.635017  0.316613  0.432517  1
  Yb  Yb4  1  0.803941  0.820676  0.433243  1
  Yb  Yb5  1  0.370698  0.679324  0.566757  1
  Ho  Ho6  1  0.799165  0.080558  0.832265  1
  Ho  Ho7  1  0.966900  0.419442  0.167735  1
  Tm  Tm8  1  0.417965  0.250000  0.000000  1
  Tm  Tm9  1  0.566319  0.750000  0.000000  1
  Ru  Ru10  1  0.616205  0.419942  0.802839  1
  Ru  Ru11  1  0.813365  0.080058  0.197161  1
  Ru  Ru12  1  0.396736  0.572068  0.215801  1
  Ru  Ru13  1  0.180937  0.927932  0.784199  1
