# generated using pymatgen
data_Mg4Co6As6Ru
_symmetry_space_group_name_H-M   'P 1'
_cell_length_a   6.78795855
_cell_length_b   6.78795943
_cell_length_c   6.78795900
_cell_angle_alpha   109.47121039
_cell_angle_beta   109.47121301
_cell_angle_gamma   109.47122985
_symmetry_Int_Tables_number   1
_chemical_formula_structural   Mg4Co6As6Ru
_chemical_formula_sum   'Mg4 Co6 As6 Ru1'
_cell_volume   240.76634851
_cell_formula_units_Z   1
loop_
 _symmetry_equiv_pos_site_id
 _symmetry_equiv_pos_as_xyz
  1  'x, y, z'
loop_
 _atom_site_type_symbol
 _atom_site_label
 _atom_site_symmetry_multiplicity
 _atom_site_fract_x
 _atom_site_fract_y
 _atom_site_fract_z
 _atom_site_occupancy
  Mg  Mg0  1  0.000000  0.000000  0.500000  1
  Mg  Mg1  1  0.500000  0.000000  0.000000  1
  Mg  Mg2  1  0.000000  0.500000  0.000000  1
  Mg  Mg3  1  0.500000  0.500000  0.500000  1
  Co  Co4  1  0.250000  0.500000  0.750000  1
  Co  Co5  1  0.750000  0.250000  0.500000  1
  Co  Co6  1  0.500000  0.250000  0.750000  1
  Co  Co7  1  0.500000  0.750000  0.250000  1
  Co  Co8  1  0.750000  0.500000  0.250000  1
  Co  Co9  1  0.250000  0.750000  0.500000  1
  As  As10  1  0.679978  0.679978  0.000000  1
  As  As11  1  0.320022  0.320022  0.000000  1
  As  As12  1  0.000000  0.679978  0.679978  1
  As  As13  1  0.000000  0.320022  0.320022  1
  As  As14  1  0.679978  0.000000  0.679978  1
  As  As15  1  0.320022  0.000000  0.320022  1
  Ru  Ru16  1  0.000000  0.000000  0.000000  1
