# generated using pymatgen
data_Hf12Zr8Si15Se
_symmetry_space_group_name_H-M   'P 1'
_cell_length_a   7.12204582
_cell_length_b   7.10033875
_cell_length_c   12.97992674
_cell_angle_alpha   90.04648353
_cell_angle_beta   89.58916209
_cell_angle_gamma   89.83748358
_symmetry_Int_Tables_number   1
_chemical_formula_structural   Hf12Zr8Si15Se
_chemical_formula_sum   'Hf12 Zr8 Si15 Se1'
_cell_volume   656.36136781
_cell_formula_units_Z   1
loop_
 _symmetry_equiv_pos_site_id
 _symmetry_equiv_pos_as_xyz
  1  'x, y, z'
loop_
 _atom_site_type_symbol
 _atom_site_label
 _atom_site_symmetry_multiplicity
 _atom_site_fract_x
 _atom_site_fract_y
 _atom_site_fract_z
 _atom_site_occupancy
  Hf  Hf0  1  0.676314  0.325025  0.749965  1
  Hf  Hf1  1  0.325764  0.674298  0.250195  1
  Hf  Hf2  1  0.824021  0.824738  0.500058  1
  Hf  Hf3  1  0.178149  0.176805  0.999917  1
  Hf  Hf4  1  0.500144  0.350457  0.124683  1
  Hf  Hf5  1  0.501283  0.647467  0.627053  1
  Hf  Hf6  1  0.848159  0.003870  0.877326  1
  Hf  Hf7  1  0.148140  0.999289  0.376727  1
  Hf  Hf8  1  0.649131  0.500023  0.372864  1
  Hf  Hf9  1  0.349593  0.502132  0.872006  1
  Hf  Hf10  1  0.004705  0.849539  0.125635  1
  Hf  Hf11  1  0.998384  0.146816  0.623364  1
  Zr  Zr12  1  0.498795  0.150624  0.534037  1
  Zr  Zr13  1  0.497585  0.844257  0.030949  1
  Zr  Zr14  1  0.650677  0.998035  0.287073  1
  Zr  Zr15  1  0.343174  0.995048  0.780891  1
  Zr  Zr16  1  0.848942  0.504863  0.966501  1
  Zr  Zr17  1  0.152914  0.497365  0.466396  1
  Zr  Zr18  1  0.999830  0.652988  0.716488  1
  Zr  Zr19  1  0.007417  0.352732  0.220073  1
  Si  Si20  1  0.204271  0.855019  0.572324  1
  Si  Si21  1  0.644705  0.704341  0.822407  1
  Si  Si22  1  0.357946  0.295505  0.322362  1
  Si  Si23  1  0.855185  0.203797  0.428065  1
  Si  Si24  1  0.141383  0.798070  0.927499  1
  Si  Si25  1  0.703306  0.645422  0.177421  1
  Si  Si26  1  0.294339  0.355633  0.676367  1
  Si  Si27  1  0.535146  0.199230  0.927904  1
  Si  Si28  1  0.449555  0.797253  0.437482  1
  Si  Si29  1  0.699779  0.950911  0.686932  1
  Si  Si30  1  0.301191  0.049142  0.187061  1
  Si  Si31  1  0.799861  0.450866  0.562991  1
  Si  Si32  1  0.203054  0.550492  0.063241  1
  Si  Si33  1  0.950689  0.701193  0.314672  1
  Si  Si34  1  0.049472  0.299123  0.812751  1
  Se  Se35  1  0.806996  0.147632  0.078319  1
