# generated using pymatgen
data_La2Pr2MgIr
_symmetry_space_group_name_H-M   'P 1'
_cell_length_a   10.14355807
_cell_length_b   10.14355789
_cell_length_c   10.19148800
_cell_angle_alpha   59.84357542
_cell_angle_beta   59.84357603
_cell_angle_gamma   60.31286353
_symmetry_Int_Tables_number   1
_chemical_formula_structural   La2Pr2MgIr
_chemical_formula_sum   'La8 Pr8 Mg4 Ir4'
_cell_volume   741.45328754
_cell_formula_units_Z   4
loop_
 _symmetry_equiv_pos_site_id
 _symmetry_equiv_pos_as_xyz
  1  'x, y, z'
loop_
 _atom_site_type_symbol
 _atom_site_label
 _atom_site_symmetry_multiplicity
 _atom_site_fract_x
 _atom_site_fract_y
 _atom_site_fract_z
 _atom_site_occupancy
  La  La0  1  0.345145  0.345145  0.346786  1
  La  La1  1  0.345145  0.345145  0.962925  1
  La  La2  1  0.346786  0.962925  0.345145  1
  La  La3  1  0.962925  0.346786  0.345145  1
  La  La4  1  0.811604  0.188396  0.188396  1
  La  La5  1  0.188396  0.811604  0.811604  1
  La  La6  1  0.188396  0.811604  0.188396  1
  La  La7  1  0.811604  0.188396  0.811604  1
  Pr  Pr8  1  0.190393  0.190393  0.809607  1
  Pr  Pr9  1  0.809607  0.809607  0.190393  1
  Pr  Pr10  1  0.937028  0.562972  0.562972  1
  Pr  Pr11  1  0.562972  0.937028  0.937028  1
  Pr  Pr12  1  0.562972  0.937028  0.562972  1
  Pr  Pr13  1  0.937028  0.562972  0.937028  1
  Pr  Pr14  1  0.562452  0.562452  0.937548  1
  Pr  Pr15  1  0.937548  0.937548  0.562452  1
  Mg  Mg16  1  0.579540  0.579540  0.578185  1
  Mg  Mg17  1  0.579540  0.579540  0.262735  1
  Mg  Mg18  1  0.578185  0.262735  0.579540  1
  Mg  Mg19  1  0.262735  0.578185  0.579540  1
  Ir  Ir20  1  0.139704  0.139704  0.144484  1
  Ir  Ir21  1  0.139704  0.139704  0.576107  1
  Ir  Ir22  1  0.144484  0.576107  0.139704  1
  Ir  Ir23  1  0.576107  0.144484  0.139704  1
