# generated using pymatgen
data_Ac2Pr2ErPb4
_symmetry_space_group_name_H-M   'P 1'
_cell_length_a   8.60306800
_cell_length_b   8.65928800
_cell_length_c   16.58084100
_cell_angle_alpha   90.00000000
_cell_angle_beta   90.00000000
_cell_angle_gamma   90.00000000
_symmetry_Int_Tables_number   1
_chemical_formula_structural   Ac2Pr2ErPb4
_chemical_formula_sum   'Ac8 Pr8 Er4 Pb16'
_cell_volume   1235.21368467
_cell_formula_units_Z   4
loop_
 _symmetry_equiv_pos_site_id
 _symmetry_equiv_pos_as_xyz
  1  'x, y, z'
loop_
 _atom_site_type_symbol
 _atom_site_label
 _atom_site_symmetry_multiplicity
 _atom_site_fract_x
 _atom_site_fract_y
 _atom_site_fract_z
 _atom_site_occupancy
  Ac  Ac0  1  0.527662  0.322695  0.901708  1
  Ac  Ac1  1  0.027662  0.177305  0.598292  1
  Ac  Ac2  1  0.472338  0.677305  0.401708  1
  Ac  Ac3  1  0.972338  0.822695  0.098292  1
  Ac  Ac4  1  0.472338  0.677305  0.098292  1
  Ac  Ac5  1  0.972338  0.822695  0.401708  1
  Ac  Ac6  1  0.527662  0.322695  0.598292  1
  Ac  Ac7  1  0.027662  0.177305  0.901708  1
  Pr  Pr8  1  0.370329  0.846175  0.879773  1
  Pr  Pr9  1  0.870329  0.653825  0.620227  1
  Pr  Pr10  1  0.629671  0.153825  0.379773  1
  Pr  Pr11  1  0.129671  0.346175  0.120227  1
  Pr  Pr12  1  0.629671  0.153825  0.120227  1
  Pr  Pr13  1  0.129671  0.346175  0.379773  1
  Pr  Pr14  1  0.370329  0.846175  0.620227  1
  Pr  Pr15  1  0.870329  0.653825  0.879773  1
  Er  Er16  1  0.209574  0.504681  0.750000  1
  Er  Er17  1  0.709574  0.995319  0.750000  1
  Er  Er18  1  0.790426  0.495319  0.250000  1
  Er  Er19  1  0.290426  0.004681  0.250000  1
  Pb  Pb20  1  0.290761  0.039109  0.048078  1
  Pb  Pb21  1  0.790761  0.460891  0.451922  1
  Pb  Pb22  1  0.709239  0.960891  0.548078  1
  Pb  Pb23  1  0.209239  0.539109  0.951922  1
  Pb  Pb24  1  0.709239  0.960891  0.951922  1
  Pb  Pb25  1  0.209239  0.539109  0.548078  1
  Pb  Pb26  1  0.290761  0.039109  0.451922  1
  Pb  Pb27  1  0.790761  0.460891  0.048078  1
  Pb  Pb28  1  0.567057  0.633806  0.750000  1
  Pb  Pb29  1  0.067057  0.866194  0.750000  1
  Pb  Pb30  1  0.432943  0.366194  0.250000  1
  Pb  Pb31  1  0.932943  0.133806  0.250000  1
  Pb  Pb32  1  0.339806  0.148154  0.750000  1
  Pb  Pb33  1  0.839806  0.351846  0.750000  1
  Pb  Pb34  1  0.660194  0.851846  0.250000  1
  Pb  Pb35  1  0.160194  0.648154  0.250000  1
