# generated using pymatgen
data_Ca2Eu2Sn3WO14
_symmetry_space_group_name_H-M   'P 1'
_cell_length_a   7.53859339
_cell_length_b   7.54779167
_cell_length_c   7.54779276
_cell_angle_alpha   59.10959710
_cell_angle_beta   59.11888044
_cell_angle_gamma   59.11888401
_symmetry_Int_Tables_number   1
_chemical_formula_structural   Ca2Eu2Sn3WO14
_chemical_formula_sum   'Ca2 Eu2 Sn3 W1 O14'
_cell_volume   297.55845328
_cell_formula_units_Z   1
loop_
 _symmetry_equiv_pos_site_id
 _symmetry_equiv_pos_as_xyz
  1  'x, y, z'
loop_
 _atom_site_type_symbol
 _atom_site_label
 _atom_site_symmetry_multiplicity
 _atom_site_fract_x
 _atom_site_fract_y
 _atom_site_fract_z
 _atom_site_occupancy
  Ca  Ca0  1  0.125000  0.625000  0.125000  1
  Ca  Ca1  1  0.125000  0.125000  0.625000  1
  Eu  Eu2  1  0.125000  0.125000  0.125000  1
  Eu  Eu3  1  0.625000  0.125000  0.125000  1
  Sn  Sn4  1  0.125000  0.625000  0.625000  1
  Sn  Sn5  1  0.625000  0.125000  0.625000  1
  Sn  Sn6  1  0.625000  0.625000  0.125000  1
  W  W7  1  0.625000  0.625000  0.625000  1
  O  O8  1  0.959491  0.544267  0.960702  1
  O  O9  1  0.704781  0.289111  0.289111  1
  O  O10  1  0.316374  0.694020  0.694020  1
  O  O11  1  0.694588  0.314270  0.696248  1
  O  O12  1  0.290509  0.289298  0.705733  1
  O  O13  1  0.694588  0.696248  0.314270  1
  O  O14  1  0.959491  0.960702  0.544267  1
  O  O15  1  0.545219  0.960889  0.960889  1
  O  O16  1  0.933626  0.555980  0.555980  1
  O  O17  1  0.555412  0.553752  0.935730  1
  O  O18  1  0.290509  0.705733  0.289298  1
  O  O19  1  0.555412  0.935730  0.553752  1
  O  O20  1  0.990719  0.004644  0.004644  1
  O  O21  1  0.259281  0.245356  0.245356  1
