# generated using pymatgen
data_Si2Tc(Ni2W)3
_symmetry_space_group_name_H-M   'P 1'
_cell_length_a   4.74088900
_cell_length_b   4.74088935
_cell_length_c   7.50142600
_cell_angle_alpha   90.00000000
_cell_angle_beta   90.00000000
_cell_angle_gamma   119.99999060
_symmetry_Int_Tables_number   1
_chemical_formula_structural   Si2Tc(Ni2W)3
_chemical_formula_sum   'Si2 Tc1 Ni6 W3'
_cell_volume   146.01386884
_cell_formula_units_Z   1
loop_
 _symmetry_equiv_pos_site_id
 _symmetry_equiv_pos_as_xyz
  1  'x, y, z'
loop_
 _atom_site_type_symbol
 _atom_site_label
 _atom_site_symmetry_multiplicity
 _atom_site_fract_x
 _atom_site_fract_y
 _atom_site_fract_z
 _atom_site_occupancy
  Si  Si0  1  0.000000  0.000000  0.998651  1
  Si  Si1  1  0.000000  0.000000  0.498092  1
  Tc  Tc2  1  0.333333  0.666667  0.938801  1
  Ni  Ni3  1  0.830606  0.169394  0.749371  1
  Ni  Ni4  1  0.830606  0.661210  0.749371  1
  Ni  Ni5  1  0.338790  0.169394  0.749371  1
  Ni  Ni6  1  0.169529  0.830471  0.249606  1
  Ni  Ni7  1  0.169529  0.339058  0.249606  1
  Ni  Ni8  1  0.660942  0.830471  0.249606  1
  W  W9  1  0.666667  0.333333  0.062676  1
  W  W10  1  0.666667  0.333333  0.434508  1
  W  W11  1  0.333333  0.666667  0.570341  1
