# generated using pymatgen
data_YErLu4ReBi2
_symmetry_space_group_name_H-M   'P 1'
_cell_length_a   8.14544983
_cell_length_b   8.17141632
_cell_length_c   4.31276200
_cell_angle_alpha   90.00000000
_cell_angle_beta   90.00000000
_cell_angle_gamma   120.05359625
_symmetry_Int_Tables_number   1
_chemical_formula_structural   YErLu4ReBi2
_chemical_formula_sum   'Y1 Er1 Lu4 Re1 Bi2'
_cell_volume   248.46414783
_cell_formula_units_Z   1
loop_
 _symmetry_equiv_pos_site_id
 _symmetry_equiv_pos_as_xyz
  1  'x, y, z'
loop_
 _atom_site_type_symbol
 _atom_site_label
 _atom_site_symmetry_multiplicity
 _atom_site_fract_x
 _atom_site_fract_y
 _atom_site_fract_z
 _atom_site_occupancy
  Y  Y0  1  0.000325  0.612162  0.000000  1
  Er  Er1  1  0.385024  0.384651  0.000000  1
  Lu  Lu2  1  0.229650  0.000889  0.500000  1
  Lu  Lu3  1  0.999390  0.230710  0.500000  1
  Lu  Lu4  1  0.768662  0.770103  0.500000  1
  Lu  Lu5  1  0.618665  0.999894  0.000000  1
  Re  Re6  1  0.997966  0.001973  0.000000  1
  Bi  Bi7  1  0.334627  0.667908  0.500000  1
  Bi  Bi8  1  0.665693  0.331712  0.500000  1
