# generated using pymatgen
data_Er2Al9FeNi2
_symmetry_space_group_name_H-M   'P 1'
_cell_length_a   7.37942928
_cell_length_b   7.37942815
_cell_length_c   9.25336000
_cell_angle_alpha   90.00000000
_cell_angle_beta   90.00000000
_cell_angle_gamma   119.05312769
_symmetry_Int_Tables_number   1
_chemical_formula_structural   Er2Al9FeNi2
_chemical_formula_sum   'Er4 Al18 Fe2 Ni4'
_cell_volume   440.49474932
_cell_formula_units_Z   2
loop_
 _symmetry_equiv_pos_site_id
 _symmetry_equiv_pos_as_xyz
  1  'x, y, z'
loop_
 _atom_site_type_symbol
 _atom_site_label
 _atom_site_symmetry_multiplicity
 _atom_site_fract_x
 _atom_site_fract_y
 _atom_site_fract_z
 _atom_site_occupancy
  Er  Er0  1  0.992662  0.671924  0.250000  1
  Er  Er1  1  0.007338  0.328076  0.750000  1
  Er  Er2  1  0.671924  0.992662  0.250000  1
  Er  Er3  1  0.328076  0.007338  0.750000  1
  Al  Al4  1  0.122765  0.122765  0.250000  1
  Al  Al5  1  0.877235  0.877235  0.750000  1
  Al  Al6  1  0.328812  0.328812  0.545231  1
  Al  Al7  1  0.671188  0.671188  0.045231  1
  Al  Al8  1  0.328812  0.328812  0.954769  1
  Al  Al9  1  0.671188  0.671188  0.454769  1
  Al  Al10  1  0.340849  0.553084  0.250000  1
  Al  Al11  1  0.659151  0.446916  0.750000  1
  Al  Al12  1  0.553084  0.340849  0.250000  1
  Al  Al13  1  0.446916  0.659151  0.750000  1
  Al  Al14  1  0.996853  0.331309  0.072212  1
  Al  Al15  1  0.003147  0.668691  0.572212  1
  Al  Al16  1  0.331309  0.996853  0.427788  1
  Al  Al17  1  0.668691  0.003147  0.927788  1
  Al  Al18  1  0.003147  0.668691  0.927788  1
  Al  Al19  1  0.996853  0.331309  0.427788  1
  Al  Al20  1  0.668691  0.003147  0.572212  1
  Al  Al21  1  0.331309  0.996853  0.072212  1
  Fe  Fe22  1  0.000000  0.000000  0.000000  1
  Fe  Fe23  1  0.000000  0.000000  0.500000  1
  Ni  Ni24  1  0.671013  0.328987  0.000000  1
  Ni  Ni25  1  0.328987  0.671013  0.500000  1
  Ni  Ni26  1  0.328987  0.671013  0.000000  1
  Ni  Ni27  1  0.671013  0.328987  0.500000  1
