# generated using pymatgen
data_Dy6Tm10Cd3AgIr3Pt
_symmetry_space_group_name_H-M   'P 1'
_cell_length_a   9.55909367
_cell_length_b   9.55909273
_cell_length_c   9.55909400
_cell_angle_alpha   60.05543894
_cell_angle_beta   60.05544217
_cell_angle_gamma   60.05544140
_symmetry_Int_Tables_number   1
_chemical_formula_structural   Dy6Tm10Cd3AgIr3Pt
_chemical_formula_sum   'Dy6 Tm10 Cd3 Ag1 Ir3 Pt1'
_cell_volume   618.41568089
_cell_formula_units_Z   1
loop_
 _symmetry_equiv_pos_site_id
 _symmetry_equiv_pos_as_xyz
  1  'x, y, z'
loop_
 _atom_site_type_symbol
 _atom_site_label
 _atom_site_symmetry_multiplicity
 _atom_site_fract_x
 _atom_site_fract_y
 _atom_site_fract_z
 _atom_site_occupancy
  Dy  Dy0  1  0.186710  0.811632  0.811632  1
  Dy  Dy1  1  0.813566  0.187625  0.187625  1
  Dy  Dy2  1  0.811632  0.186710  0.811632  1
  Dy  Dy3  1  0.187625  0.813566  0.187625  1
  Dy  Dy4  1  0.811632  0.811632  0.186710  1
  Dy  Dy5  1  0.187625  0.187625  0.813566  1
  Tm  Tm6  1  0.598015  0.598015  0.598015  1
  Tm  Tm7  1  0.602471  0.602471  0.199155  1
  Tm  Tm8  1  0.602471  0.199155  0.602471  1
  Tm  Tm9  1  0.199155  0.602471  0.602471  1
  Tm  Tm10  1  0.057117  0.439457  0.439457  1
  Tm  Tm11  1  0.436726  0.061405  0.061405  1
  Tm  Tm12  1  0.439457  0.057117  0.439457  1
  Tm  Tm13  1  0.061405  0.436726  0.061405  1
  Tm  Tm14  1  0.439457  0.439457  0.057117  1
  Tm  Tm15  1  0.061405  0.061405  0.436726  1
  Cd  Cd16  1  0.831134  0.831134  0.508110  1
  Cd  Cd17  1  0.831134  0.508110  0.831134  1
  Cd  Cd18  1  0.508110  0.831134  0.831134  1
  Ag  Ag19  1  0.832072  0.832072  0.832072  1
  Ir  Ir20  1  0.391897  0.391897  0.824539  1
  Ir  Ir21  1  0.391897  0.824539  0.391897  1
  Ir  Ir22  1  0.824539  0.391897  0.391897  1
  Pt  Pt23  1  0.392751  0.392751  0.392751  1
