# generated using pymatgen
data_Tm3Lu9(Si3Rh)4
_symmetry_space_group_name_H-M   'P 1'
_cell_length_a   4.18142800
_cell_length_b   10.50146339
_cell_length_c   12.11292988
_cell_angle_alpha   90.03586484
_cell_angle_beta   90.00000000
_cell_angle_gamma   90.00000000
_symmetry_Int_Tables_number   1
_chemical_formula_structural   Tm3Lu9(Si3Rh)4
_chemical_formula_sum   'Tm3 Lu9 Si12 Rh4'
_cell_volume   531.89212912
_cell_formula_units_Z   1
loop_
 _symmetry_equiv_pos_site_id
 _symmetry_equiv_pos_as_xyz
  1  'x, y, z'
loop_
 _atom_site_type_symbol
 _atom_site_label
 _atom_site_symmetry_multiplicity
 _atom_site_fract_x
 _atom_site_fract_y
 _atom_site_fract_z
 _atom_site_occupancy
  Tm  Tm0  1  0.250000  0.840251  0.299906  1
  Tm  Tm1  1  0.750000  0.339081  0.200280  1
  Tm  Tm2  1  0.750000  0.160288  0.700258  1
  Lu  Lu3  1  0.250000  0.878767  0.019820  1
  Lu  Lu4  1  0.250000  0.621236  0.519774  1
  Lu  Lu5  1  0.750000  0.121540  0.980229  1
  Lu  Lu6  1  0.750000  0.378446  0.480317  1
  Lu  Lu7  1  0.250000  0.920525  0.603064  1
  Lu  Lu8  1  0.250000  0.579395  0.103404  1
  Lu  Lu9  1  0.750000  0.079153  0.397197  1
  Lu  Lu10  1  0.750000  0.421152  0.896724  1
  Lu  Lu11  1  0.250000  0.661212  0.799534  1
  Si  Si12  1  0.250000  0.014949  0.822440  1
  Si  Si13  1  0.250000  0.484587  0.322439  1
  Si  Si14  1  0.750000  0.985401  0.177623  1
  Si  Si15  1  0.750000  0.515310  0.677918  1
  Si  Si16  1  0.250000  0.249745  0.842366  1
  Si  Si17  1  0.250000  0.250096  0.342667  1
  Si  Si18  1  0.750000  0.750589  0.157590  1
  Si  Si19  1  0.750000  0.749251  0.657757  1
  Si  Si20  1  0.250000  0.197531  0.543441  1
  Si  Si21  1  0.250000  0.302557  0.043148  1
  Si  Si22  1  0.750000  0.801792  0.456680  1
  Si  Si23  1  0.750000  0.697693  0.956068  1
  Rh  Rh24  1  0.250000  0.392105  0.680642  1
  Rh  Rh25  1  0.250000  0.108117  0.180960  1
  Rh  Rh26  1  0.750000  0.607377  0.318896  1
  Rh  Rh27  1  0.750000  0.891859  0.818854  1
