# generated using pymatgen
data_Sc22Ir7Ru
_symmetry_space_group_name_H-M   'P 1'
_cell_length_a   9.46696955
_cell_length_b   9.46697005
_cell_length_c   9.46697000
_cell_angle_alpha   60.00000019
_cell_angle_beta   59.99999844
_cell_angle_gamma   60.00000475
_symmetry_Int_Tables_number   1
_chemical_formula_structural   Sc22Ir7Ru
_chemical_formula_sum   'Sc22 Ir7 Ru1'
_cell_volume   599.95406166
_cell_formula_units_Z   1
loop_
 _symmetry_equiv_pos_site_id
 _symmetry_equiv_pos_as_xyz
  1  'x, y, z'
loop_
 _atom_site_type_symbol
 _atom_site_label
 _atom_site_symmetry_multiplicity
 _atom_site_fract_x
 _atom_site_fract_y
 _atom_site_fract_z
 _atom_site_occupancy
  Sc  Sc0  1  0.801113  0.801113  0.198887  1
  Sc  Sc1  1  0.198887  0.801113  0.198887  1
  Sc  Sc2  1  0.801113  0.198887  0.198887  1
  Sc  Sc3  1  0.198887  0.198887  0.801113  1
  Sc  Sc4  1  0.801113  0.198887  0.801113  1
  Sc  Sc5  1  0.198887  0.801113  0.801113  1
  Sc  Sc6  1  0.617077  0.617077  0.148769  1
  Sc  Sc7  1  0.617077  0.148769  0.617077  1
  Sc  Sc8  1  0.148769  0.617077  0.617077  1
  Sc  Sc9  1  0.617077  0.617077  0.617077  1
  Sc  Sc10  1  0.382923  0.382923  0.851231  1
  Sc  Sc11  1  0.382923  0.851231  0.382923  1
  Sc  Sc12  1  0.851231  0.382923  0.382923  1
  Sc  Sc13  1  0.382923  0.382923  0.382923  1
  Sc  Sc14  1  0.843136  0.843136  0.470591  1
  Sc  Sc15  1  0.843136  0.470591  0.843136  1
  Sc  Sc16  1  0.470591  0.843136  0.843136  1
  Sc  Sc17  1  0.843136  0.843136  0.843136  1
  Sc  Sc18  1  0.156864  0.156864  0.529409  1
  Sc  Sc19  1  0.156864  0.529409  0.156864  1
  Sc  Sc20  1  0.529409  0.156864  0.156864  1
  Sc  Sc21  1  0.156864  0.156864  0.156864  1
  Ir  Ir22  1  0.000000  0.000000  0.000000  1
  Ir  Ir23  1  0.000000  0.000000  0.500000  1
  Ir  Ir24  1  0.500000  0.000000  0.500000  1
  Ir  Ir25  1  0.000000  0.500000  0.500000  1
  Ir  Ir26  1  0.500000  0.500000  0.000000  1
  Ir  Ir27  1  0.000000  0.500000  0.000000  1
  Ir  Ir28  1  0.500000  0.000000  0.000000  1
  Ru  Ru29  1  0.500000  0.500000  0.500000  1
