# generated using pymatgen
data_Ca2Al20PdRu3
_symmetry_space_group_name_H-M   'P 1'
_cell_length_a   6.90149999
_cell_length_b   6.90159307
_cell_length_c   9.18464038
_cell_angle_alpha   90.08320709
_cell_angle_beta   90.24873913
_cell_angle_gamma   96.86225104
_symmetry_Int_Tables_number   1
_chemical_formula_structural   Ca2Al20PdRu3
_chemical_formula_sum   'Ca2 Al20 Pd1 Ru3'
_cell_volume   434.33785897
_cell_formula_units_Z   1
loop_
 _symmetry_equiv_pos_site_id
 _symmetry_equiv_pos_as_xyz
  1  'x, y, z'
loop_
 _atom_site_type_symbol
 _atom_site_label
 _atom_site_symmetry_multiplicity
 _atom_site_fract_x
 _atom_site_fract_y
 _atom_site_fract_z
 _atom_site_occupancy
  Ca  Ca0  1  0.877282  0.126115  0.749636  1
  Ca  Ca1  1  0.122718  0.873885  0.250364  1
  Al  Al2  1  0.589810  0.857894  0.252985  1
  Al  Al3  1  0.779278  0.520800  0.250116  1
  Al  Al4  1  0.156039  0.838631  0.897662  1
  Al  Al5  1  0.410190  0.142106  0.747015  1
  Al  Al6  1  0.624351  0.383275  0.948133  1
  Al  Al7  1  0.841051  0.158130  0.401466  1
  Al  Al8  1  0.777887  0.772487  0.002474  1
  Al  Al9  1  0.860955  0.589551  0.748596  1
  Al  Al10  1  0.843961  0.161369  0.102338  1
  Al  Al11  1  0.220722  0.479200  0.749884  1
  Al  Al12  1  0.158949  0.841870  0.598534  1
  Al  Al13  1  0.777543  0.776088  0.499696  1
  Al  Al14  1  0.478567  0.225336  0.256751  1
  Al  Al15  1  0.623421  0.378120  0.548340  1
  Al  Al16  1  0.222457  0.223912  0.500304  1
  Al  Al17  1  0.376579  0.621880  0.451660  1
  Al  Al18  1  0.139045  0.410449  0.251404  1
  Al  Al19  1  0.521433  0.774664  0.743249  1
  Al  Al20  1  0.375649  0.616725  0.051867  1
  Al  Al21  1  0.222113  0.227513  0.997526  1
  Pd  Pd22  1  0.500000  0.000000  0.000000  1
  Ru  Ru23  1  0.500000  0.000000  0.500000  1
  Ru  Ru24  1  0.000000  0.500000  0.000000  1
  Ru  Ru25  1  0.000000  0.500000  0.500000  1
