# generated using pymatgen
data_Ca3Ho3(Si3Os)8
_symmetry_space_group_name_H-M   'P 1'
_cell_length_a   10.17082138
_cell_length_b   10.17082010
_cell_length_c   8.17475711
_cell_angle_alpha   89.98591864
_cell_angle_beta   89.98592186
_cell_angle_gamma   132.59869605
_symmetry_Int_Tables_number   1
_chemical_formula_structural   Ca3Ho3(Si3Os)8
_chemical_formula_sum   'Ca3 Ho3 Si24 Os8'
_cell_volume   622.48797150
_cell_formula_units_Z   1
loop_
 _symmetry_equiv_pos_site_id
 _symmetry_equiv_pos_as_xyz
  1  'x, y, z'
loop_
 _atom_site_type_symbol
 _atom_site_label
 _atom_site_symmetry_multiplicity
 _atom_site_fract_x
 _atom_site_fract_y
 _atom_site_fract_z
 _atom_site_occupancy
  Ca  Ca0  1  0.500099  0.499901  0.500000  1
  Ca  Ca1  1  0.499279  0.999075  0.749811  1
  Ca  Ca2  1  0.000925  0.500721  0.250189  1
  Ho  Ho3  1  0.000006  0.999994  0.000000  1
  Ho  Ho4  1  0.500035  0.000039  0.250161  1
  Ho  Ho5  1  0.999961  0.499965  0.749839  1
  Si  Si6  1  0.795677  0.204323  0.500000  1
  Si  Si7  1  0.294586  0.705414  0.000000  1
  Si  Si8  1  0.205011  0.794989  0.500000  1
  Si  Si9  1  0.704735  0.295265  0.000000  1
  Si  Si10  1  0.331062  0.338298  0.830968  1
  Si  Si11  1  0.661702  0.668938  0.169032  1
  Si  Si12  1  0.171348  0.164770  0.333858  1
  Si  Si13  1  0.835230  0.828652  0.666142  1
  Si  Si14  1  0.122455  0.888467  0.728091  1
  Si  Si15  1  0.111533  0.877545  0.271909  1
  Si  Si16  1  0.609162  0.375835  0.229771  1
  Si  Si17  1  0.624165  0.390838  0.770229  1
  Si  Si18  1  0.875082  0.109135  0.271472  1
  Si  Si19  1  0.890865  0.124918  0.728528  1
  Si  Si20  1  0.388246  0.621768  0.770566  1
  Si  Si21  1  0.378232  0.611754  0.229434  1
  Si  Si22  1  0.346504  0.112750  0.505050  1
  Si  Si23  1  0.887250  0.653496  0.494950  1
  Si  Si24  1  0.388405  0.154595  0.007135  1
  Si  Si25  1  0.845405  0.611595  0.992865  1
  Si  Si26  1  0.652970  0.885891  0.492027  1
  Si  Si27  1  0.114109  0.347030  0.507973  1
  Si  Si28  1  0.610439  0.844770  0.996466  1
  Si  Si29  1  0.155230  0.389561  0.003534  1
  Os  Os30  1  0.671149  0.328851  0.500000  1
  Os  Os31  1  0.168910  0.831090  0.000000  1
  Os  Os32  1  0.329870  0.670130  0.500000  1
  Os  Os33  1  0.829981  0.170019  0.000000  1
  Os  Os34  1  0.124735  0.125810  0.628052  1
  Os  Os35  1  0.874190  0.875265  0.371948  1
  Os  Os36  1  0.371827  0.370369  0.124543  1
  Os  Os37  1  0.629631  0.628173  0.875457  1
