# generated using pymatgen
data_Pr8MgCdRuPt
_symmetry_space_group_name_H-M   'P 1'
_cell_length_a   10.08098531
_cell_length_b   10.08098541
_cell_length_c   10.13521100
_cell_angle_alpha   59.82190084
_cell_angle_beta   59.82190051
_cell_angle_gamma   59.80854153
_symmetry_Int_Tables_number   1
_chemical_formula_structural   Pr8MgCdRuPt
_chemical_formula_sum   'Pr16 Mg2 Cd2 Ru2 Pt2'
_cell_volume   725.30462637
_cell_formula_units_Z   2
loop_
 _symmetry_equiv_pos_site_id
 _symmetry_equiv_pos_as_xyz
  1  'x, y, z'
loop_
 _atom_site_type_symbol
 _atom_site_label
 _atom_site_symmetry_multiplicity
 _atom_site_fract_x
 _atom_site_fract_y
 _atom_site_fract_z
 _atom_site_occupancy
  Pr  Pr0  1  0.346964  0.346964  0.354212  1
  Pr  Pr1  1  0.346964  0.346964  0.951860  1
  Pr  Pr2  1  0.342835  0.959487  0.348839  1
  Pr  Pr3  1  0.959487  0.342835  0.348839  1
  Pr  Pr4  1  0.815707  0.189082  0.190258  1
  Pr  Pr5  1  0.189082  0.815707  0.804951  1
  Pr  Pr6  1  0.189082  0.815707  0.190258  1
  Pr  Pr7  1  0.815707  0.189082  0.804951  1
  Pr  Pr8  1  0.190454  0.190454  0.809546  1
  Pr  Pr9  1  0.809062  0.809062  0.190938  1
  Pr  Pr10  1  0.938506  0.558914  0.564538  1
  Pr  Pr11  1  0.558914  0.938506  0.938042  1
  Pr  Pr12  1  0.558914  0.938506  0.564538  1
  Pr  Pr13  1  0.938506  0.558914  0.938042  1
  Pr  Pr14  1  0.562704  0.562704  0.937296  1
  Pr  Pr15  1  0.938212  0.938212  0.561788  1
  Mg  Mg16  1  0.575724  0.575724  0.579193  1
  Mg  Mg17  1  0.575724  0.575724  0.269356  1
  Cd  Cd18  1  0.581899  0.257629  0.580236  1
  Cd  Cd19  1  0.257629  0.581899  0.580236  1
  Ru  Ru20  1  0.143659  0.143659  0.136368  1
  Ru  Ru21  1  0.143659  0.143659  0.576313  1
  Pt  Pt22  1  0.146689  0.573914  0.139698  1
  Pt  Pt23  1  0.573914  0.146689  0.139698  1
