# generated using pymatgen
data_Hf9Zn7Mo2
_symmetry_space_group_name_H-M   'P 1'
_cell_length_a   8.11420000
_cell_length_b   8.11420058
_cell_length_c   5.77493700
_cell_angle_alpha   90.00000000
_cell_angle_beta   90.00000000
_cell_angle_gamma   119.99999764
_symmetry_Int_Tables_number   1
_chemical_formula_structural   Hf9Zn7Mo2
_chemical_formula_sum   'Hf9 Zn7 Mo2'
_cell_volume   329.28302281
_cell_formula_units_Z   1
loop_
 _symmetry_equiv_pos_site_id
 _symmetry_equiv_pos_as_xyz
  1  'x, y, z'
loop_
 _atom_site_type_symbol
 _atom_site_label
 _atom_site_symmetry_multiplicity
 _atom_site_fract_x
 _atom_site_fract_y
 _atom_site_fract_z
 _atom_site_occupancy
  Hf  Hf0  1  0.669672  0.003120  0.224365  1
  Hf  Hf1  1  0.333447  0.330328  0.224365  1
  Hf  Hf2  1  0.996880  0.666552  0.224365  1
  Hf  Hf3  1  0.000000  0.000000  0.558653  1
  Hf  Hf4  1  0.666666  0.333333  0.558857  1
  Hf  Hf5  1  0.333334  0.666667  0.559063  1
  Hf  Hf6  1  0.333493  0.003040  0.893083  1
  Hf  Hf7  1  0.996960  0.330454  0.893083  1
  Hf  Hf8  1  0.669546  0.666507  0.893083  1
  Zn  Zn9  1  0.333334  0.666667  0.059094  1
  Zn  Zn10  1  0.333469  0.000536  0.388724  1
  Zn  Zn11  1  0.999464  0.332933  0.388724  1
  Zn  Zn12  1  0.667068  0.666531  0.388724  1
  Zn  Zn13  1  0.667383  0.000653  0.728667  1
  Zn  Zn14  1  0.333271  0.332618  0.728667  1
  Zn  Zn15  1  0.999347  0.666729  0.728667  1
  Mo  Mo16  1  0.000000  0.000000  0.058665  1
  Mo  Mo17  1  0.666666  0.333333  0.059007  1
