# generated using pymatgen
data_Nd4Al18Ir3Pd2Ru
_symmetry_space_group_name_H-M   'P 1'
_cell_length_a   7.64088316
_cell_length_b   7.64088305
_cell_length_c   9.61129803
_cell_angle_alpha   90.00440819
_cell_angle_beta   90.00440925
_cell_angle_gamma   119.33138044
_symmetry_Int_Tables_number   1
_chemical_formula_structural   Nd4Al18Ir3Pd2Ru
_chemical_formula_sum   'Nd4 Al18 Ir3 Pd2 Ru1'
_cell_volume   489.20013561
_cell_formula_units_Z   1
loop_
 _symmetry_equiv_pos_site_id
 _symmetry_equiv_pos_as_xyz
  1  'x, y, z'
loop_
 _atom_site_type_symbol
 _atom_site_label
 _atom_site_symmetry_multiplicity
 _atom_site_fract_x
 _atom_site_fract_y
 _atom_site_fract_z
 _atom_site_occupancy
  Nd  Nd0  1  0.995529  0.672323  0.250157  1
  Nd  Nd1  1  0.003913  0.327593  0.749643  1
  Nd  Nd2  1  0.672407  0.996087  0.250357  1
  Nd  Nd3  1  0.327677  0.004471  0.749843  1
  Al  Al4  1  0.134342  0.134747  0.250170  1
  Al  Al5  1  0.865253  0.865658  0.749830  1
  Al  Al6  1  0.001746  0.340163  0.074152  1
  Al  Al7  1  0.995151  0.658129  0.926116  1
  Al  Al8  1  0.997085  0.660807  0.574845  1
  Al  Al9  1  0.339193  0.002915  0.425155  1
  Al  Al10  1  0.002884  0.339715  0.425049  1
  Al  Al11  1  0.660285  0.997116  0.574951  1
  Al  Al12  1  0.659837  0.998254  0.925848  1
  Al  Al13  1  0.341871  0.004849  0.073884  1
  Al  Al14  1  0.338102  0.338203  0.549379  1
  Al  Al15  1  0.661797  0.661898  0.450621  1
  Al  Al16  1  0.662197  0.659757  0.048662  1
  Al  Al17  1  0.340243  0.337803  0.951338  1
  Al  Al18  1  0.338444  0.547708  0.250059  1
  Al  Al19  1  0.660992  0.451033  0.751358  1
  Al  Al20  1  0.548967  0.339008  0.248642  1
  Al  Al21  1  0.452292  0.661556  0.749941  1
  Ir  Ir22  1  0.328670  0.671330  0.000000  1
  Ir  Ir23  1  0.328440  0.671560  0.500000  1
  Ir  Ir24  1  0.671341  0.328659  0.500000  1
  Pd  Pd25  1  0.999895  0.000105  0.000000  1
  Pd  Pd26  1  0.999844  0.000156  0.500000  1
  Ru  Ru27  1  0.671602  0.328398  0.000000  1
