# generated using pymatgen
data_Sr8ZnAu7
_symmetry_space_group_name_H-M   'P 1'
_cell_length_a   4.80906100
_cell_length_b   6.21197714
_cell_length_c   16.13544800
_cell_angle_alpha   90.01200892
_cell_angle_beta   90.00000000
_cell_angle_gamma   90.00000000
_symmetry_Int_Tables_number   1
_chemical_formula_structural   Sr8ZnAu7
_chemical_formula_sum   'Sr8 Zn1 Au7'
_cell_volume   482.02676443
_cell_formula_units_Z   1
loop_
 _symmetry_equiv_pos_site_id
 _symmetry_equiv_pos_as_xyz
  1  'x, y, z'
loop_
 _atom_site_type_symbol
 _atom_site_label
 _atom_site_symmetry_multiplicity
 _atom_site_fract_x
 _atom_site_fract_y
 _atom_site_fract_z
 _atom_site_occupancy
  Sr  Sr0  1  0.250000  0.757679  0.538534  1
  Sr  Sr1  1  0.750000  0.253719  0.470170  1
  Sr  Sr2  1  0.750000  0.256537  0.965045  1
  Sr  Sr3  1  0.250000  0.740644  0.032925  1
  Sr  Sr4  1  0.250000  0.985701  0.785412  1
  Sr  Sr5  1  0.750000  0.010477  0.209661  1
  Sr  Sr6  1  0.750000  0.485604  0.717277  1
  Sr  Sr7  1  0.250000  0.507416  0.281730  1
  Zn  Zn8  1  0.250000  0.990435  0.358482  1
  Au  Au9  1  0.250000  0.258811  0.607287  1
  Au  Au10  1  0.750000  0.773460  0.388931  1
  Au  Au11  1  0.750000  0.758008  0.893259  1
  Au  Au12  1  0.250000  0.239995  0.105707  1
  Au  Au13  1  0.250000  0.483309  0.855847  1
  Au  Au14  1  0.750000  0.515177  0.143731  1
  Au  Au15  1  0.750000  0.983031  0.645999  1
