# generated using pymatgen
data_Y6P2S5
_symmetry_space_group_name_H-M   'P 1'
_cell_length_a   6.84427356
_cell_length_b   6.84427328
_cell_length_c   8.82967278
_cell_angle_alpha   82.46537364
_cell_angle_beta   82.46537407
_cell_angle_gamma   48.06877292
_symmetry_Int_Tables_number   1
_chemical_formula_structural   Y6P2S5
_chemical_formula_sum   'Y6 P2 S5'
_cell_volume   304.52201827
_cell_formula_units_Z   1
loop_
 _symmetry_equiv_pos_site_id
 _symmetry_equiv_pos_as_xyz
  1  'x, y, z'
loop_
 _atom_site_type_symbol
 _atom_site_label
 _atom_site_symmetry_multiplicity
 _atom_site_fract_x
 _atom_site_fract_y
 _atom_site_fract_z
 _atom_site_occupancy
  Y  Y0  1  0.290545  0.290545  0.141179  1
  Y  Y1  1  0.567480  0.567480  0.284402  1
  Y  Y2  1  0.143720  0.143720  0.574699  1
  Y  Y3  1  0.856280  0.856280  0.425301  1
  Y  Y4  1  0.709455  0.709455  0.858821  1
  Y  Y5  1  0.432520  0.432520  0.715598  1
  P  P6  1  0.356950  0.356950  0.428571  1
  P  P7  1  0.643050  0.643050  0.571429  1
  S  S8  1  0.074541  0.074541  0.287335  1
  S  S9  1  0.500000  0.500000  0.000000  1
  S  S10  1  0.781198  0.781198  0.141249  1
  S  S11  1  0.925459  0.925459  0.712665  1
  S  S12  1  0.218802  0.218802  0.858751  1
