# generated using pymatgen
data_Tb6PrYHf11Si16Ag
_symmetry_space_group_name_H-M   'P 1'
_cell_length_a   7.32120304
_cell_length_b   7.32369271
_cell_length_c   13.34417089
_cell_angle_alpha   89.78936290
_cell_angle_beta   90.08897549
_cell_angle_gamma   89.82272138
_symmetry_Int_Tables_number   1
_chemical_formula_structural   Tb6PrYHf11Si16Ag
_chemical_formula_sum   'Tb6 Pr1 Y1 Hf11 Si16 Ag1'
_cell_volume   715.48184044
_cell_formula_units_Z   1
loop_
 _symmetry_equiv_pos_site_id
 _symmetry_equiv_pos_as_xyz
  1  'x, y, z'
loop_
 _atom_site_type_symbol
 _atom_site_label
 _atom_site_symmetry_multiplicity
 _atom_site_fract_x
 _atom_site_fract_y
 _atom_site_fract_z
 _atom_site_occupancy
  Tb  Tb0  1  0.155714  0.496023  0.465191  1
  Tb  Tb1  1  0.497751  0.847730  0.032063  1
  Tb  Tb2  1  0.848017  0.498579  0.966425  1
  Tb  Tb3  1  0.496103  0.155001  0.535803  1
  Tb  Tb4  1  0.345445  0.997104  0.788084  1
  Tb  Tb5  1  0.655060  0.004603  0.284341  1
  Pr  Pr6  1  0.995720  0.343778  0.210444  1
  Y  Y7  1  0.004699  0.654914  0.716298  1
  Hf  Hf8  1  0.824609  0.825049  0.500723  1
  Hf  Hf9  1  0.324129  0.677718  0.249699  1
  Hf  Hf10  1  0.676948  0.323220  0.750631  1
  Hf  Hf11  1  0.147666  0.996381  0.375212  1
  Hf  Hf12  1  0.855885  0.002888  0.877978  1
  Hf  Hf13  1  0.504404  0.647119  0.626603  1
  Hf  Hf14  1  0.355103  0.492120  0.877074  1
  Hf  Hf15  1  0.490445  0.355009  0.121863  1
  Hf  Hf16  1  0.647797  0.506186  0.374810  1
  Hf  Hf17  1  0.996057  0.145435  0.626209  1
  Hf  Hf18  1  0.002520  0.855778  0.121163  1
  Si  Si19  1  0.364057  0.295324  0.317568  1
  Si  Si20  1  0.639170  0.704358  0.819509  1
  Si  Si21  1  0.206550  0.861159  0.568857  1
  Si  Si22  1  0.132072  0.778194  0.927425  1
  Si  Si23  1  0.773301  0.128602  0.070044  1
  Si  Si24  1  0.861488  0.205988  0.433096  1
  Si  Si25  1  0.296397  0.359965  0.683425  1
  Si  Si26  1  0.700823  0.641791  0.180800  1
  Si  Si27  1  0.297028  0.048825  0.189807  1
  Si  Si28  1  0.705455  0.950509  0.686783  1
  Si  Si29  1  0.450329  0.795168  0.436310  1
  Si  Si30  1  0.212029  0.568078  0.063310  1
  Si  Si31  1  0.563416  0.209852  0.935023  1
  Si  Si32  1  0.795237  0.450486  0.564727  1
  Si  Si33  1  0.051460  0.294976  0.810480  1
  Si  Si34  1  0.949712  0.709120  0.314349  1
  Ag  Ag35  1  0.177404  0.172973  0.997880  1
