# generated using pymatgen
data_Tm2PaAl2InRh3
_symmetry_space_group_name_H-M   'P 1'
_cell_length_a   7.42259785
_cell_length_b   7.45217616
_cell_length_c   3.75282600
_cell_angle_alpha   90.00000000
_cell_angle_beta   90.00000000
_cell_angle_gamma   121.08811636
_symmetry_Int_Tables_number   1
_chemical_formula_structural   Tm2PaAl2InRh3
_chemical_formula_sum   'Tm2 Pa1 Al2 In1 Rh3'
_cell_volume   177.77105394
_cell_formula_units_Z   1
loop_
 _symmetry_equiv_pos_site_id
 _symmetry_equiv_pos_as_xyz
  1  'x, y, z'
loop_
 _atom_site_type_symbol
 _atom_site_label
 _atom_site_symmetry_multiplicity
 _atom_site_fract_x
 _atom_site_fract_y
 _atom_site_fract_z
 _atom_site_occupancy
  Tm  Tm0  1  0.589857  0.577569  0.500000  1
  Tm  Tm1  1  0.401320  0.997723  0.500000  1
  Pa  Pa2  1  0.001416  0.428213  0.500000  1
  Al  Al3  1  0.258336  0.250956  0.000000  1
  Al  Al4  1  0.999989  0.767814  0.000000  1
  In  In5  1  0.734267  0.982878  0.000000  1
  Rh  Rh6  1  0.293807  0.633700  0.000000  1
  Rh  Rh7  1  0.025873  0.015981  0.500000  1
  Rh  Rh8  1  0.695135  0.345165  0.000000  1
