# generated using pymatgen
data_Li4Lu4PdPt3
_symmetry_space_group_name_H-M   'P 1'
_cell_length_a   3.89380400
_cell_length_b   6.93526206
_cell_length_c   8.31184400
_cell_angle_alpha   89.61686107
_cell_angle_beta   90.00000000
_cell_angle_gamma   90.00000000
_symmetry_Int_Tables_number   1
_chemical_formula_structural   Li4Lu4PdPt3
_chemical_formula_sum   'Li4 Lu4 Pd1 Pt3'
_cell_volume   224.45259798
_cell_formula_units_Z   1
loop_
 _symmetry_equiv_pos_site_id
 _symmetry_equiv_pos_as_xyz
  1  'x, y, z'
loop_
 _atom_site_type_symbol
 _atom_site_label
 _atom_site_symmetry_multiplicity
 _atom_site_fract_x
 _atom_site_fract_y
 _atom_site_fract_z
 _atom_site_occupancy
  Li  Li0  1  0.250000  0.375189  0.557356  1
  Li  Li1  1  0.250000  0.874427  0.941003  1
  Li  Li2  1  0.750000  0.623620  0.443249  1
  Li  Li3  1  0.750000  0.124375  0.058582  1
  Lu  Lu4  1  0.250000  0.950878  0.319797  1
  Lu  Lu5  1  0.250000  0.453842  0.181692  1
  Lu  Lu6  1  0.750000  0.045644  0.674719  1
  Lu  Lu7  1  0.750000  0.553202  0.822255  1
  Pd  Pd8  1  0.250000  0.255664  0.874630  1
  Pt  Pt9  1  0.250000  0.755782  0.628321  1
  Pt  Pt10  1  0.750000  0.743723  0.126059  1
  Pt  Pt11  1  0.750000  0.243649  0.372338  1
