# generated using pymatgen
data_Y3Ho3Co8(P6Rh5)2
_symmetry_space_group_name_H-M   'P 1'
_cell_length_a   3.79195300
_cell_length_b   10.94800218
_cell_length_c   12.57117720
_cell_angle_alpha   89.97938901
_cell_angle_beta   90.00000000
_cell_angle_gamma   90.00000000
_symmetry_Int_Tables_number   1
_chemical_formula_structural   Y3Ho3Co8(P6Rh5)2
_chemical_formula_sum   'Y3 Ho3 Co8 P12 Rh10'
_cell_volume   521.88370994
_cell_formula_units_Z   1
loop_
 _symmetry_equiv_pos_site_id
 _symmetry_equiv_pos_as_xyz
  1  'x, y, z'
loop_
 _atom_site_type_symbol
 _atom_site_label
 _atom_site_symmetry_multiplicity
 _atom_site_fract_x
 _atom_site_fract_y
 _atom_site_fract_z
 _atom_site_occupancy
  Y  Y0  1  0.000000  0.499975  0.517892  1
  Y  Y1  1  0.500000  0.000061  0.476465  1
  Y  Y2  1  0.500000  0.815719  0.197573  1
  Ho  Ho3  1  0.500000  0.184168  0.197709  1
  Ho  Ho4  1  0.000000  0.680337  0.804020  1
  Ho  Ho5  1  0.000000  0.319695  0.803883  1
  Co  Co6  1  0.000000  0.499762  0.992359  1
  Co  Co7  1  0.500000  0.000216  0.011182  1
  Co  Co8  1  0.000000  0.620094  0.284133  1
  Co  Co9  1  0.000000  0.379311  0.283663  1
  Co  Co10  1  0.500000  0.334336  0.997288  1
  Co  Co11  1  0.500000  0.665295  0.996950  1
  Co  Co12  1  0.000000  0.168737  0.007002  1
  Co  Co13  1  0.000000  0.831469  0.006713  1
  P  P14  1  0.500000  0.316425  0.619658  1
  P  P15  1  0.500000  0.683577  0.619787  1
  P  P16  1  0.000000  0.192924  0.372207  1
  P  P17  1  0.000000  0.807492  0.372770  1
  P  P18  1  0.500000  0.499923  0.894888  1
  P  P19  1  0.000000  0.000342  0.106826  1
  P  P20  1  0.500000  0.840358  0.904937  1
  P  P21  1  0.500000  0.159804  0.904844  1
  P  P22  1  0.000000  0.656056  0.103567  1
  P  P23  1  0.000000  0.343264  0.103986  1
  P  P24  1  0.500000  0.500096  0.340658  1
  P  P25  1  0.000000  0.000039  0.653340  1
  Rh  Rh26  1  0.500000  0.300787  0.425773  1
  Rh  Rh27  1  0.500000  0.699205  0.426090  1
  Rh  Rh28  1  0.000000  0.205465  0.568997  1
  Rh  Rh29  1  0.000000  0.794599  0.569139  1
  Rh  Rh30  1  0.500000  0.872548  0.716709  1
  Rh  Rh31  1  0.500000  0.127497  0.716698  1
  Rh  Rh32  1  0.500000  0.499830  0.157376  1
  Rh  Rh33  1  0.000000  0.000068  0.842984  1
  Rh  Rh34  1  0.500000  0.499886  0.709418  1
  Rh  Rh35  1  0.000000  0.000640  0.292515  1
