# generated using pymatgen
data_KCuP2O7
_symmetry_space_group_name_H-M   'P 1'
_cell_length_a   5.07160874
_cell_length_b   7.98071864
_cell_length_c   7.99842453
_cell_angle_alpha   104.58696085
_cell_angle_beta   90.20427425
_cell_angle_gamma   96.58747372
_symmetry_Int_Tables_number   1
_chemical_formula_structural   KCuP2O7
_chemical_formula_sum   'K2 Cu2 P4 O14'
_cell_volume   311.05583646
_cell_formula_units_Z   2
loop_
 _symmetry_equiv_pos_site_id
 _symmetry_equiv_pos_as_xyz
  1  'x, y, z'
loop_
 _atom_site_type_symbol
 _atom_site_label
 _atom_site_symmetry_multiplicity
 _atom_site_fract_x
 _atom_site_fract_y
 _atom_site_fract_z
 _atom_site_occupancy
  K  K0  1  0.807667  0.694672  0.571224  1
  K  K1  1  0.192333  0.305328  0.428776  1
  Cu  Cu2  1  0.824033  0.851644  0.096372  1
  Cu  Cu3  1  0.175967  0.148356  0.903628  1
  P  P4  1  0.707982  0.307944  0.089195  1
  P  P5  1  0.292018  0.692056  0.910805  1
  P  P6  1  0.304513  0.769225  0.270288  1
  P  P7  1  0.695487  0.230775  0.729712  1
  O  O8  1  0.781187  0.451962  0.246730  1
  O  O9  1  0.218813  0.548038  0.753270  1
  O  O10  1  0.586831  0.772329  0.905434  1
  O  O11  1  0.413169  0.227671  0.094566  1
  O  O12  1  0.317637  0.684433  0.415999  1
  O  O13  1  0.682363  0.315567  0.584001  1
  O  O14  1  0.730769  0.378317  0.914723  1
  O  O15  1  0.269231  0.621683  0.085277  1
  O  O16  1  0.446477  0.103022  0.748500  1
  O  O17  1  0.553523  0.896978  0.251500  1
  O  O18  1  0.943717  0.127659  0.714295  1
  O  O19  1  0.056283  0.872341  0.285705  1
  O  O20  1  0.107104  0.841563  0.943019  1
  O  O21  1  0.892896  0.158437  0.056981  1
