# generated using pymatgen
data_RbDy10(C2I9)2
_symmetry_space_group_name_H-M   'P 1'
_cell_length_a   11.44756165
_cell_length_b   11.47266088
_cell_length_c   11.51628385
_cell_angle_alpha   113.35713523
_cell_angle_beta   86.91225202
_cell_angle_gamma   119.82599897
_symmetry_Int_Tables_number   1
_chemical_formula_structural   RbDy10(C2I9)2
_chemical_formula_sum   'Rb1 Dy10 C4 I18'
_cell_volume   1184.94401224
_cell_formula_units_Z   1
loop_
 _symmetry_equiv_pos_site_id
 _symmetry_equiv_pos_as_xyz
  1  'x, y, z'
loop_
 _atom_site_type_symbol
 _atom_site_label
 _atom_site_symmetry_multiplicity
 _atom_site_fract_x
 _atom_site_fract_y
 _atom_site_fract_z
 _atom_site_occupancy
  Rb  Rb0  1  0.500000  0.000000  0.500000  1
  Dy  Dy1  1  0.678575  0.724917  0.711980  1
  Dy  Dy2  1  0.276058  0.351783  0.015862  1
  Dy  Dy3  1  0.093334  0.389876  0.291142  1
  Dy  Dy4  1  0.965340  0.038058  0.322833  1
  Dy  Dy5  1  0.906666  0.610124  0.708858  1
  Dy  Dy6  1  0.104548  0.944886  0.000656  1
  Dy  Dy7  1  0.034660  0.961942  0.677167  1
  Dy  Dy8  1  0.321425  0.275083  0.288020  1
  Dy  Dy9  1  0.723942  0.648217  0.984138  1
  Dy  Dy10  1  0.895452  0.055114  0.999344  1
  C  C11  1  0.151523  0.219561  0.120511  1
  C  C12  1  0.848477  0.780439  0.879489  1
  C  C13  1  0.924053  0.856532  0.803657  1
  C  C14  1  0.075947  0.143468  0.196343  1
  I  I15  1  0.450455  0.530877  0.831890  1
  I  I16  1  0.383572  0.040256  0.158081  1
  I  I17  1  0.777018  0.856136  0.502239  1
  I  I18  1  0.838126  0.310022  0.153135  1
  I  I19  1  0.549545  0.469123  0.168110  1
  I  I20  1  0.222982  0.143864  0.497761  1
  I  I21  1  0.316569  0.095797  0.830052  1
  I  I22  1  0.683431  0.904203  0.169948  1
  I  I23  1  0.975453  0.756634  0.168757  1
  I  I24  1  0.933839  0.298152  0.500138  1
  I  I25  1  0.024547  0.243366  0.831243  1
  I  I26  1  0.066161  0.701848  0.499862  1
  I  I27  1  0.261955  0.622693  0.184957  1
  I  I28  1  0.738045  0.377307  0.815043  1
  I  I29  1  0.642631  0.434920  0.500759  1
  I  I30  1  0.161874  0.689978  0.846865  1
  I  I31  1  0.616428  0.959744  0.841919  1
  I  I32  1  0.357369  0.565080  0.499241  1
