# generated using pymatgen
data_Ta2P7Ru12
_symmetry_space_group_name_H-M   'P 1'
_cell_length_a   9.42353900
_cell_length_b   9.42353897
_cell_length_c   3.79898300
_cell_angle_alpha   90.00000000
_cell_angle_beta   90.00000000
_cell_angle_gamma   119.99999565
_symmetry_Int_Tables_number   1
_chemical_formula_structural   Ta2P7Ru12
_chemical_formula_sum   'Ta2 P7 Ru12'
_cell_volume   292.16357096
_cell_formula_units_Z   1
loop_
 _symmetry_equiv_pos_site_id
 _symmetry_equiv_pos_as_xyz
  1  'x, y, z'
loop_
 _atom_site_type_symbol
 _atom_site_label
 _atom_site_symmetry_multiplicity
 _atom_site_fract_x
 _atom_site_fract_y
 _atom_site_fract_z
 _atom_site_occupancy
  Ta  Ta0  1  0.666667  0.333333  0.500000  1
  Ta  Ta1  1  0.333333  0.666667  0.000000  1
  P  P2  1  0.592207  0.712155  0.500000  1
  P  P3  1  0.000000  0.000000  0.000000  1
  P  P4  1  0.287845  0.880051  0.500000  1
  P  P5  1  0.119949  0.407793  0.500000  1
  P  P6  1  0.883431  0.590193  0.000000  1
  P  P7  1  0.409807  0.293237  0.000000  1
  P  P8  1  0.706763  0.116569  0.000000  1
  Ru  Ru9  1  0.547685  0.931785  0.500000  1
  Ru  Ru10  1  0.384101  0.452315  0.500000  1
  Ru  Ru11  1  0.893441  0.137889  0.500000  1
  Ru  Ru12  1  0.244448  0.106559  0.500000  1
  Ru  Ru13  1  0.862111  0.755552  0.500000  1
  Ru  Ru14  1  0.726757  0.879454  0.000000  1
  Ru  Ru15  1  0.120546  0.847302  0.000000  1
  Ru  Ru16  1  0.152698  0.273243  0.000000  1
  Ru  Ru17  1  0.450452  0.077852  0.000000  1
  Ru  Ru18  1  0.922148  0.372602  0.000000  1
  Ru  Ru19  1  0.627398  0.549548  0.000000  1
  Ru  Ru20  1  0.068215  0.615899  0.500000  1
