# generated using pymatgen
data_Nd12Co6Bi
_symmetry_space_group_name_H-M   'P 1'
_cell_length_a   8.70040863
_cell_length_b   8.70040995
_cell_length_c   8.70040900
_cell_angle_alpha   109.47121610
_cell_angle_beta   109.47121916
_cell_angle_gamma   109.47122563
_symmetry_Int_Tables_number   1
_chemical_formula_structural   Nd12Co6Bi
_chemical_formula_sum   'Nd12 Co6 Bi1'
_cell_volume   506.98738201
_cell_formula_units_Z   1
loop_
 _symmetry_equiv_pos_site_id
 _symmetry_equiv_pos_as_xyz
  1  'x, y, z'
loop_
 _atom_site_type_symbol
 _atom_site_label
 _atom_site_symmetry_multiplicity
 _atom_site_fract_x
 _atom_site_fract_y
 _atom_site_fract_z
 _atom_site_occupancy
  Nd  Nd0  1  0.807484  0.691119  0.498604  1
  Nd  Nd1  1  0.192516  0.308881  0.501396  1
  Nd  Nd2  1  0.192516  0.691119  0.883635  1
  Nd  Nd3  1  0.807484  0.308881  0.116365  1
  Nd  Nd4  1  0.691119  0.498604  0.807484  1
  Nd  Nd5  1  0.308881  0.501396  0.192516  1
  Nd  Nd6  1  0.691119  0.883635  0.192516  1
  Nd  Nd7  1  0.308881  0.116365  0.807484  1
  Nd  Nd8  1  0.498604  0.807484  0.691119  1
  Nd  Nd9  1  0.501396  0.192516  0.308881  1
  Nd  Nd10  1  0.116365  0.807484  0.308881  1
  Nd  Nd11  1  0.883635  0.192516  0.691119  1
  Co  Co12  1  0.888100  0.388100  0.500000  1
  Co  Co13  1  0.111900  0.611900  0.500000  1
  Co  Co14  1  0.388100  0.500000  0.888100  1
  Co  Co15  1  0.611900  0.500000  0.111900  1
  Co  Co16  1  0.500000  0.888100  0.388100  1
  Co  Co17  1  0.500000  0.111900  0.611900  1
  Bi  Bi18  1  0.000000  0.000000  0.000000  1
