# generated using pymatgen
data_Yb3Nb(B4Ru5)2
_symmetry_space_group_name_H-M   'P 1'
_cell_length_a   2.98300300
_cell_length_b   8.68786975
_cell_length_c   10.16965946
_cell_angle_alpha   90.24544413
_cell_angle_beta   90.00000000
_cell_angle_gamma   90.00000000
_symmetry_Int_Tables_number   1
_chemical_formula_structural   Yb3Nb(B4Ru5)2
_chemical_formula_sum   'Yb3 Nb1 B8 Ru10'
_cell_volume   263.55388175
_cell_formula_units_Z   1
loop_
 _symmetry_equiv_pos_site_id
 _symmetry_equiv_pos_as_xyz
  1  'x, y, z'
loop_
 _atom_site_type_symbol
 _atom_site_label
 _atom_site_symmetry_multiplicity
 _atom_site_fract_x
 _atom_site_fract_y
 _atom_site_fract_z
 _atom_site_occupancy
  Yb  Yb0  1  0.500000  0.341612  0.182977  1
  Yb  Yb1  1  0.500000  0.159044  0.680993  1
  Yb  Yb2  1  0.500000  0.842837  0.318005  1
  Nb  Nb3  1  0.500000  0.656484  0.817118  1
  B  B4  1  0.500000  0.853333  0.597360  1
  B  B5  1  0.500000  0.145976  0.398514  1
  B  B6  1  0.500000  0.350900  0.901599  1
  B  B7  1  0.500000  0.648194  0.104231  1
  B  B8  1  0.500000  0.964527  0.909882  1
  B  B9  1  0.500000  0.033967  0.088972  1
  B  B10  1  0.500000  0.462760  0.588555  1
  B  B11  1  0.500000  0.534670  0.411728  1
  Ru  Ru12  1  0.000000  0.411821  0.742062  1
  Ru  Ru13  1  0.000000  0.594742  0.261079  1
  Ru  Ru14  1  0.000000  0.897225  0.760965  1
  Ru  Ru15  1  0.000000  0.094299  0.238335  1
  Ru  Ru16  1  0.000000  0.000133  0.501537  1
  Ru  Ru17  1  0.000000  0.508424  0.995589  1
  Ru  Ru18  1  0.000000  0.657122  0.552642  1
  Ru  Ru19  1  0.000000  0.343853  0.456252  1
  Ru  Ru20  1  0.000000  0.157959  0.951095  1
  Ru  Ru21  1  0.000000  0.840118  0.040511  1
