# generated using pymatgen
data_Y2Er3Pa(AlGa2)6
_symmetry_space_group_name_H-M   'P 1'
_cell_length_a   14.47107927
_cell_length_b   14.47107885
_cell_length_c   14.47107917
_cell_angle_alpha   24.56506275
_cell_angle_beta   24.56506558
_cell_angle_gamma   24.56506405
_symmetry_Int_Tables_number   1
_chemical_formula_structural   Y2Er3Pa(AlGa2)6
_chemical_formula_sum   'Y2 Er3 Pa1 Al6 Ga12'
_cell_volume   460.51778075
_cell_formula_units_Z   1
loop_
 _symmetry_equiv_pos_site_id
 _symmetry_equiv_pos_as_xyz
  1  'x, y, z'
loop_
 _atom_site_type_symbol
 _atom_site_label
 _atom_site_symmetry_multiplicity
 _atom_site_fract_x
 _atom_site_fract_y
 _atom_site_fract_z
 _atom_site_occupancy
  Y  Y0  1  0.892009  0.892009  0.892009  1
  Y  Y1  1  0.392126  0.392126  0.392126  1
  Er  Er2  1  0.999449  0.999449  0.999449  1
  Er  Er3  1  0.500295  0.500295  0.500295  1
  Er  Er4  1  0.607779  0.607779  0.607779  1
  Pa  Pa5  1  0.107423  0.107423  0.107423  1
  Al  Al6  1  0.500435  0.500435  0.997616  1
  Al  Al7  1  0.002565  0.002565  0.496007  1
  Al  Al8  1  0.500435  0.997616  0.500435  1
  Al  Al9  1  0.002565  0.496007  0.002565  1
  Al  Al10  1  0.997616  0.500435  0.500435  1
  Al  Al11  1  0.496007  0.002565  0.002565  1
  Ga  Ga12  1  0.924560  0.370227  0.370227  1
  Ga  Ga13  1  0.422142  0.869260  0.869260  1
  Ga  Ga14  1  0.370227  0.370227  0.924560  1
  Ga  Ga15  1  0.869260  0.869260  0.422142  1
  Ga  Ga16  1  0.370227  0.924560  0.370227  1
  Ga  Ga17  1  0.869260  0.422142  0.869260  1
  Ga  Ga18  1  0.576291  0.130575  0.130575  1
  Ga  Ga19  1  0.077739  0.630222  0.630222  1
  Ga  Ga20  1  0.130575  0.130575  0.576291  1
  Ga  Ga21  1  0.630222  0.630222  0.077739  1
  Ga  Ga22  1  0.130575  0.576291  0.130575  1
  Ga  Ga23  1  0.630222  0.077739  0.630222  1
