# generated using pymatgen
data_Li3Hf2Ni9As7
_symmetry_space_group_name_H-M   'P 1'
_cell_length_a   9.43003752
_cell_length_b   9.45767928
_cell_length_c   3.80469800
_cell_angle_alpha   90.00000000
_cell_angle_beta   90.00000000
_cell_angle_gamma   119.74058918
_symmetry_Int_Tables_number   1
_chemical_formula_structural   Li3Hf2Ni9As7
_chemical_formula_sum   'Li3 Hf2 Ni9 As7'
_cell_volume   294.63079959
_cell_formula_units_Z   1
loop_
 _symmetry_equiv_pos_site_id
 _symmetry_equiv_pos_as_xyz
  1  'x, y, z'
loop_
 _atom_site_type_symbol
 _atom_site_label
 _atom_site_symmetry_multiplicity
 _atom_site_fract_x
 _atom_site_fract_y
 _atom_site_fract_z
 _atom_site_occupancy
  Li  Li0  1  0.442751  0.215324  0.500000  1
  Li  Li1  1  0.778793  0.222580  0.500000  1
  Li  Li2  1  0.002821  0.005657  0.500000  1
  Hf  Hf3  1  0.768002  0.553920  0.500000  1
  Hf  Hf4  1  0.324936  0.667191  0.000000  1
  Ni  Ni5  1  0.273123  0.377007  0.500000  1
  Ni  Ni6  1  0.625316  0.899837  0.500000  1
  Ni  Ni7  1  0.109251  0.720318  0.500000  1
  Ni  Ni8  1  0.498227  0.456671  0.000000  1
  Ni  Ni9  1  0.545569  0.035934  0.000000  1
  Ni  Ni10  1  0.957540  0.502094  0.000000  1
  Ni  Ni11  1  0.721470  0.760876  0.000000  1
  Ni  Ni12  1  0.247250  0.965991  0.000000  1
  Ni  Ni13  1  0.043040  0.281895  0.000000  1
  As  As14  1  0.977161  0.768463  0.000000  1
  As  As15  1  0.244062  0.210532  0.000000  1
  As  As16  1  0.794433  0.034538  0.000000  1
  As  As17  1  0.662249  0.323750  0.000000  1
  As  As18  1  0.526068  0.622646  0.500000  1
  As  As19  1  0.381285  0.918953  0.500000  1
  As  As20  1  0.076655  0.455824  0.500000  1
