# generated using pymatgen
data_Nb12Fe3Cu(Si2C)4
_symmetry_space_group_name_H-M   'P 1'
_cell_length_a   8.09904457
_cell_length_b   8.13009824
_cell_length_c   8.13009800
_cell_angle_alpha   60.00000099
_cell_angle_beta   59.87308415
_cell_angle_gamma   59.87308586
_symmetry_Int_Tables_number   1
_chemical_formula_structural   Nb12Fe3Cu(Si2C)4
_chemical_formula_sum   'Nb12 Fe3 Cu1 Si8 C4'
_cell_volume   377.81098772
_cell_formula_units_Z   1
loop_
 _symmetry_equiv_pos_site_id
 _symmetry_equiv_pos_as_xyz
  1  'x, y, z'
loop_
 _atom_site_type_symbol
 _atom_site_label
 _atom_site_symmetry_multiplicity
 _atom_site_fract_x
 _atom_site_fract_y
 _atom_site_fract_z
 _atom_site_occupancy
  Nb  Nb0  1  0.808851  0.807985  0.191582  1
  Nb  Nb1  1  0.192271  0.198247  0.804741  1
  Nb  Nb2  1  0.808851  0.191582  0.807985  1
  Nb  Nb3  1  0.192271  0.804741  0.198247  1
  Nb  Nb4  1  0.192271  0.804741  0.804741  1
  Nb  Nb5  1  0.808851  0.191582  0.191582  1
  Nb  Nb6  1  0.441149  0.442015  0.058418  1
  Nb  Nb7  1  0.057729  0.051753  0.445259  1
  Nb  Nb8  1  0.441149  0.058418  0.442015  1
  Nb  Nb9  1  0.057729  0.445259  0.051753  1
  Nb  Nb10  1  0.057729  0.445259  0.445259  1
  Nb  Nb11  1  0.441149  0.058418  0.058418  1
  Fe  Fe12  1  0.625000  0.125000  0.625000  1
  Fe  Fe13  1  0.625000  0.625000  0.125000  1
  Fe  Fe14  1  0.625000  0.625000  0.625000  1
  Cu  Cu15  1  0.125000  0.625000  0.625000  1
  Si  Si16  1  0.754805  0.415066  0.415066  1
  Si  Si17  1  0.424967  0.754223  0.410405  1
  Si  Si18  1  0.424967  0.410405  0.754223  1
  Si  Si19  1  0.424967  0.410405  0.410405  1
  Si  Si20  1  0.495195  0.834934  0.834934  1
  Si  Si21  1  0.825033  0.495777  0.839595  1
  Si  Si22  1  0.825033  0.839595  0.495777  1
  Si  Si23  1  0.825033  0.839595  0.839595  1
  C  C24  1  0.625000  0.125000  0.125000  1
  C  C25  1  0.125000  0.625000  0.125000  1
  C  C26  1  0.125000  0.125000  0.625000  1
  C  C27  1  0.125000  0.125000  0.125000  1
