# generated using pymatgen
data_K7Hg8F24
_symmetry_space_group_name_H-M   'P 1'
_cell_length_a   11.10299076
_cell_length_b   11.10299152
_cell_length_c   9.00641000
_cell_angle_alpha   66.04092152
_cell_angle_beta   66.04091414
_cell_angle_gamma   109.50386319
_symmetry_Int_Tables_number   1
_chemical_formula_structural   K7Hg8F24
_chemical_formula_sum   'K7 Hg8 F24'
_cell_volume   743.64468082
_cell_formula_units_Z   1
loop_
 _symmetry_equiv_pos_site_id
 _symmetry_equiv_pos_as_xyz
  1  'x, y, z'
loop_
 _atom_site_type_symbol
 _atom_site_label
 _atom_site_symmetry_multiplicity
 _atom_site_fract_x
 _atom_site_fract_y
 _atom_site_fract_z
 _atom_site_occupancy
  K  K0  1  0.405554  0.900528  0.950402  1
  K  K1  1  0.108967  0.108967  0.546310  1
  K  K2  1  0.390831  0.893432  0.465514  1
  K  K3  1  0.900528  0.405554  0.950402  1
  K  K4  1  0.614485  0.614485  0.525630  1
  K  K5  1  0.893432  0.390831  0.465514  1
  K  K6  1  0.610400  0.610400  0.013580  1
  Hg  Hg7  1  0.749972  0.999513  0.002725  1
  Hg  Hg8  1  0.500138  0.252713  0.496893  1
  Hg  Hg9  1  0.756856  0.004538  0.490215  1
  Hg  Hg10  1  0.249425  0.499160  0.998986  1
  Hg  Hg11  1  0.999513  0.749972  0.002725  1
  Hg  Hg12  1  0.004538  0.756856  0.490215  1
  Hg  Hg13  1  0.252713  0.500138  0.496893  1
  Hg  Hg14  1  0.499160  0.249425  0.998986  1
  F  F15  1  0.760584  0.061170  0.715458  1
  F  F16  1  0.578077  0.079212  0.516956  1
  F  F17  1  0.239746  0.012135  0.766631  1
  F  F18  1  0.012135  0.239746  0.766631  1
  F  F19  1  0.432939  0.233400  0.289142  1
  F  F20  1  0.649644  0.151089  0.037033  1
  F  F21  1  0.850005  0.850005  0.966598  1
  F  F22  1  0.265924  0.563353  0.710179  1
  F  F23  1  0.061170  0.760584  0.715458  1
  F  F24  1  0.481504  0.767435  0.207962  1
  F  F25  1  0.280565  0.970582  0.220453  1
  F  F26  1  0.903343  0.903343  0.527019  1
  F  F27  1  0.079212  0.578077  0.516956  1
  F  F28  1  0.740430  0.516569  0.791940  1
  F  F29  1  0.516569  0.740430  0.791940  1
  F  F30  1  0.921193  0.701124  0.312685  1
  F  F31  1  0.701124  0.921193  0.312685  1
  F  F32  1  0.151089  0.649644  0.037033  1
  F  F33  1  0.386719  0.386719  0.948701  1
  F  F34  1  0.563353  0.265924  0.710179  1
  F  F35  1  0.970582  0.280565  0.220453  1
  F  F36  1  0.767435  0.481504  0.207962  1
  F  F37  1  0.441107  0.441107  0.454518  1
  F  F38  1  0.233400  0.432939  0.289142  1
