# generated using pymatgen
data_Dy10Ho2Ni4SnRu
_symmetry_space_group_name_H-M   'P 1'
_cell_length_a   8.28502651
_cell_length_b   8.28801249
_cell_length_c   8.28502707
_cell_angle_alpha   111.55586224
_cell_angle_beta   109.83538342
_cell_angle_gamma   107.03974332
_symmetry_Int_Tables_number   1
_chemical_formula_structural   Dy10Ho2Ni4SnRu
_chemical_formula_sum   'Dy10 Ho2 Ni4 Sn1 Ru1'
_cell_volume   437.33062852
_cell_formula_units_Z   1
loop_
 _symmetry_equiv_pos_site_id
 _symmetry_equiv_pos_as_xyz
  1  'x, y, z'
loop_
 _atom_site_type_symbol
 _atom_site_label
 _atom_site_symmetry_multiplicity
 _atom_site_fract_x
 _atom_site_fract_y
 _atom_site_fract_z
 _atom_site_occupancy
  Dy  Dy0  1  0.406742  0.216519  0.189850  1
  Dy  Dy1  1  0.593258  0.783481  0.810150  1
  Dy  Dy2  1  0.026668  0.216519  0.809778  1
  Dy  Dy3  1  0.973332  0.783481  0.190222  1
  Dy  Dy4  1  0.181054  0.288594  0.470041  1
  Dy  Dy5  1  0.818946  0.711406  0.529959  1
  Dy  Dy6  1  0.181447  0.711406  0.892461  1
  Dy  Dy7  1  0.818553  0.288594  0.107539  1
  Dy  Dy8  1  0.320300  0.626535  0.306236  1
  Dy  Dy9  1  0.679700  0.373465  0.693764  1
  Ho  Ho10  1  0.320474  0.014056  0.693582  1
  Ho  Ho11  1  0.679526  0.985944  0.306418  1
  Ni  Ni12  1  0.361425  0.000000  0.361425  1
  Ni  Ni13  1  0.638575  0.000000  0.638575  1
  Ni  Ni14  1  0.122938  0.623137  0.500199  1
  Ni  Ni15  1  0.877062  0.376863  0.499801  1
  Sn  Sn16  1  0.500000  0.500000  0.000000  1
  Ru  Ru17  1  0.000000  0.000000  0.000000  1
