# generated using pymatgen
data_LiSm4ReC8
_symmetry_space_group_name_H-M   'P 1'
_cell_length_a   6.83052498
_cell_length_b   6.83052434
_cell_length_c   6.83052200
_cell_angle_alpha   134.12197198
_cell_angle_beta   108.24037107
_cell_angle_gamma   89.47330057
_symmetry_Int_Tables_number   1
_chemical_formula_structural   LiSm4ReC8
_chemical_formula_sum   'Li1 Sm4 Re1 C8'
_cell_volume   206.84424186
_cell_formula_units_Z   1
loop_
 _symmetry_equiv_pos_site_id
 _symmetry_equiv_pos_as_xyz
  1  'x, y, z'
loop_
 _atom_site_type_symbol
 _atom_site_label
 _atom_site_symmetry_multiplicity
 _atom_site_fract_x
 _atom_site_fract_y
 _atom_site_fract_z
 _atom_site_occupancy
  Li  Li0  1  0.000000  0.250000  0.250000  1
  Sm  Sm1  1  0.200569  0.348736  0.848119  1
  Sm  Sm2  1  0.799431  0.647550  0.148167  1
  Sm  Sm3  1  0.500616  0.852450  0.651881  1
  Sm  Sm4  1  0.499384  0.151264  0.351833  1
  Re  Re5  1  0.000000  0.750000  0.750000  1
  C  C6  1  0.784480  0.130645  0.663514  1
  C  C7  1  0.215520  0.879033  0.346165  1
  C  C8  1  0.467131  0.620967  0.836486  1
  C  C9  1  0.532869  0.369355  0.153835  1
  C  C10  1  0.892716  0.028152  0.759799  1
  C  C11  1  0.107284  0.867082  0.135435  1
  C  C12  1  0.268353  0.632918  0.740201  1
  C  C13  1  0.731647  0.471848  0.364565  1
