# generated using pymatgen
data_Zr2TiSi2Tc
_symmetry_space_group_name_H-M   'P 1'
_cell_length_a   3.54845000
_cell_length_b   6.94114600
_cell_length_c   8.25038200
_cell_angle_alpha   90.00000000
_cell_angle_beta   90.00000000
_cell_angle_gamma   90.00000000
_symmetry_Int_Tables_number   1
_chemical_formula_structural   Zr2TiSi2Tc
_chemical_formula_sum   'Zr4 Ti2 Si4 Tc2'
_cell_volume   203.20946235
_cell_formula_units_Z   2
loop_
 _symmetry_equiv_pos_site_id
 _symmetry_equiv_pos_as_xyz
  1  'x, y, z'
loop_
 _atom_site_type_symbol
 _atom_site_label
 _atom_site_symmetry_multiplicity
 _atom_site_fract_x
 _atom_site_fract_y
 _atom_site_fract_z
 _atom_site_occupancy
  Zr  Zr0  1  0.250000  0.045601  0.334497  1
  Zr  Zr1  1  0.250000  0.545601  0.165503  1
  Zr  Zr2  1  0.750000  0.960200  0.667984  1
  Zr  Zr3  1  0.750000  0.460200  0.832016  1
  Ti  Ti4  1  0.250000  0.123953  0.940693  1
  Ti  Ti5  1  0.250000  0.623953  0.559307  1
  Si  Si6  1  0.250000  0.256062  0.637052  1
  Si  Si7  1  0.250000  0.756062  0.862948  1
  Si  Si8  1  0.750000  0.744177  0.359206  1
  Si  Si9  1  0.750000  0.244177  0.140794  1
  Tc  Tc10  1  0.750000  0.870006  0.059910  1
  Tc  Tc11  1  0.750000  0.370006  0.440090  1
