# generated using pymatgen
data_Y6Lu14Cd6PtRh
_symmetry_space_group_name_H-M   'P 1'
_cell_length_a   9.56682000
_cell_length_b   9.56682073
_cell_length_c   9.59399000
_cell_angle_alpha   90.00000000
_cell_angle_beta   90.00000000
_cell_angle_gamma   119.99999746
_symmetry_Int_Tables_number   1
_chemical_formula_structural   Y6Lu14Cd6PtRh
_chemical_formula_sum   'Y6 Lu14 Cd6 Pt1 Rh1'
_cell_volume   760.44033252
_cell_formula_units_Z   1
loop_
 _symmetry_equiv_pos_site_id
 _symmetry_equiv_pos_as_xyz
  1  'x, y, z'
loop_
 _atom_site_type_symbol
 _atom_site_label
 _atom_site_symmetry_multiplicity
 _atom_site_fract_x
 _atom_site_fract_y
 _atom_site_fract_z
 _atom_site_occupancy
  Y  Y0  1  0.541710  0.458290  0.250000  1
  Y  Y1  1  0.541710  0.083421  0.250000  1
  Y  Y2  1  0.916579  0.458290  0.250000  1
  Y  Y3  1  0.459190  0.540810  0.750000  1
  Y  Y4  1  0.459190  0.918379  0.750000  1
  Y  Y5  1  0.081621  0.540810  0.750000  1
  Lu  Lu6  1  0.000000  0.000000  0.500960  1
  Lu  Lu7  1  0.000000  0.000000  0.999040  1
  Lu  Lu8  1  0.207674  0.792326  0.440710  1
  Lu  Lu9  1  0.207674  0.415349  0.440710  1
  Lu  Lu10  1  0.584651  0.792326  0.440710  1
  Lu  Lu11  1  0.790771  0.209229  0.560489  1
  Lu  Lu12  1  0.790771  0.581542  0.560489  1
  Lu  Lu13  1  0.418458  0.209229  0.560489  1
  Lu  Lu14  1  0.790771  0.209229  0.939511  1
  Lu  Lu15  1  0.790771  0.581542  0.939511  1
  Lu  Lu16  1  0.418458  0.209229  0.939511  1
  Lu  Lu17  1  0.207674  0.792326  0.059290  1
  Lu  Lu18  1  0.207674  0.415349  0.059290  1
  Lu  Lu19  1  0.584651  0.792326  0.059290  1
  Cd  Cd20  1  0.886150  0.113850  0.250000  1
  Cd  Cd21  1  0.886150  0.772300  0.250000  1
  Cd  Cd22  1  0.227700  0.113850  0.250000  1
  Cd  Cd23  1  0.113714  0.886286  0.750000  1
  Cd  Cd24  1  0.113714  0.227429  0.750000  1
  Cd  Cd25  1  0.772571  0.886286  0.750000  1
  Pt  Pt26  1  0.333333  0.666667  0.250000  1
  Rh  Rh27  1  0.666667  0.333333  0.750000  1
