# generated using pymatgen
data_Ba4H10PtAuF2
_symmetry_space_group_name_H-M   'P 1'
_cell_length_a   7.93431790
_cell_length_b   7.93862308
_cell_length_c   6.10339928
_cell_angle_alpha   89.95918759
_cell_angle_beta   89.95897771
_cell_angle_gamma   134.66548295
_symmetry_Int_Tables_number   1
_chemical_formula_structural   Ba4H10PtAuF2
_chemical_formula_sum   'Ba4 H10 Pt1 Au1 F2'
_cell_volume   273.42087396
_cell_formula_units_Z   1
loop_
 _symmetry_equiv_pos_site_id
 _symmetry_equiv_pos_as_xyz
  1  'x, y, z'
loop_
 _atom_site_type_symbol
 _atom_site_label
 _atom_site_symmetry_multiplicity
 _atom_site_fract_x
 _atom_site_fract_y
 _atom_site_fract_z
 _atom_site_occupancy
  Ba  Ba0  1  0.356651  0.644025  0.999983  1
  Ba  Ba1  1  0.856292  0.142705  0.500072  1
  Ba  Ba2  1  0.643349  0.355975  0.000017  1
  Ba  Ba3  1  0.143708  0.857295  0.499928  1
  H  H4  1  0.999887  0.500982  0.250746  1
  H  H5  1  0.000113  0.499018  0.749254  1
  H  H6  1  0.110091  0.882226  0.000130  1
  H  H7  1  0.616848  0.389559  0.499930  1
  H  H8  1  0.889909  0.117774  0.999870  1
  H  H9  1  0.383152  0.610441  0.500070  1
  H  H10  1  0.698055  0.698387  0.301071  1
  H  H11  1  0.301945  0.301613  0.698929  1
  H  H12  1  0.698027  0.698338  0.698614  1
  H  H13  1  0.301973  0.301662  0.301386  1
  Pt  Pt14  1  0.500000  0.500000  0.500000  1
  Au  Au15  1  0.000000  0.000000  0.000000  1
  F  F16  1  0.499349  0.000000  0.749920  1
  F  F17  1  0.500651  0.000000  0.250080  1
