# generated using pymatgen
data_Ca3Pr17(InGa5)2
_symmetry_space_group_name_H-M   'P 1'
_cell_length_a   7.99950200
_cell_length_b   7.99950200
_cell_length_c   14.77031000
_cell_angle_alpha   90.00000000
_cell_angle_beta   90.00000000
_cell_angle_gamma   90.00000000
_symmetry_Int_Tables_number   1
_chemical_formula_structural   Ca3Pr17(InGa5)2
_chemical_formula_sum   'Ca3 Pr17 In2 Ga10'
_cell_volume   945.18215383
_cell_formula_units_Z   1
loop_
 _symmetry_equiv_pos_site_id
 _symmetry_equiv_pos_as_xyz
  1  'x, y, z'
loop_
 _atom_site_type_symbol
 _atom_site_label
 _atom_site_symmetry_multiplicity
 _atom_site_fract_x
 _atom_site_fract_y
 _atom_site_fract_z
 _atom_site_occupancy
  Ca  Ca0  1  0.000000  0.500000  0.744013  1
  Ca  Ca1  1  0.000000  0.500000  0.238239  1
  Ca  Ca2  1  0.500000  0.000000  0.248107  1
  Pr  Pr3  1  0.822221  0.834333  0.608257  1
  Pr  Pr4  1  0.175237  0.831616  0.099531  1
  Pr  Pr5  1  0.167235  0.825452  0.391317  1
  Pr  Pr6  1  0.832765  0.174548  0.391317  1
  Pr  Pr7  1  0.674548  0.667235  0.391317  1
  Pr  Pr8  1  0.665667  0.322221  0.608257  1
  Pr  Pr9  1  0.334333  0.677779  0.608257  1
  Pr  Pr10  1  0.668384  0.675237  0.099531  1
  Pr  Pr11  1  0.677288  0.339010  0.899300  1
  Pr  Pr12  1  0.839010  0.822712  0.899300  1
  Pr  Pr13  1  0.325452  0.332765  0.391317  1
  Pr  Pr14  1  0.177779  0.165667  0.608257  1
  Pr  Pr15  1  0.824763  0.168384  0.099531  1
  Pr  Pr16  1  0.322712  0.660990  0.899300  1
  Pr  Pr17  1  0.331616  0.324763  0.099531  1
  Pr  Pr18  1  0.160990  0.177288  0.899300  1
  Pr  Pr19  1  0.500000  0.000000  0.787022  1
  In  In20  1  0.000000  0.500000  0.503504  1
  In  In21  1  0.500000  0.000000  0.492405  1
  Ga  Ga22  1  0.617655  0.382582  0.245721  1
  Ga  Ga23  1  0.119875  0.882026  0.751792  1
  Ga  Ga24  1  0.382026  0.380125  0.751792  1
  Ga  Ga25  1  0.382345  0.617418  0.245721  1
  Ga  Ga26  1  0.882582  0.882345  0.245721  1
  Ga  Ga27  1  0.617974  0.619875  0.751792  1
  Ga  Ga28  1  0.880125  0.117974  0.751792  1
  Ga  Ga29  1  0.500000  0.000000  0.000467  1
  Ga  Ga30  1  0.117418  0.117655  0.245721  1
  Ga  Ga31  1  0.000000  0.500000  0.002578  1
