# generated using pymatgen
data_ErNi4MoAs3
_symmetry_space_group_name_H-M   'P 1'
_cell_length_a   3.79674300
_cell_length_b   10.90900200
_cell_length_c   12.52266500
_cell_angle_alpha   90.00000000
_cell_angle_beta   90.00000000
_cell_angle_gamma   90.00000000
_symmetry_Int_Tables_number   1
_chemical_formula_structural   ErNi4MoAs3
_chemical_formula_sum   'Er4 Ni16 Mo4 As12'
_cell_volume   518.67221657
_cell_formula_units_Z   4
loop_
 _symmetry_equiv_pos_site_id
 _symmetry_equiv_pos_as_xyz
  1  'x, y, z'
loop_
 _atom_site_type_symbol
 _atom_site_label
 _atom_site_symmetry_multiplicity
 _atom_site_fract_x
 _atom_site_fract_y
 _atom_site_fract_z
 _atom_site_occupancy
  Er  Er0  1  0.250000  0.583478  0.705573  1
  Er  Er1  1  0.250000  0.916522  0.205573  1
  Er  Er2  1  0.750000  0.416522  0.294427  1
  Er  Er3  1  0.750000  0.083478  0.794427  1
  Ni  Ni4  1  0.250000  0.406387  0.487876  1
  Ni  Ni5  1  0.250000  0.093613  0.987876  1
  Ni  Ni6  1  0.750000  0.593613  0.512124  1
  Ni  Ni7  1  0.750000  0.906387  0.012124  1
  Ni  Ni8  1  0.250000  0.218021  0.176290  1
  Ni  Ni9  1  0.250000  0.281979  0.676290  1
  Ni  Ni10  1  0.750000  0.781979  0.823710  1
  Ni  Ni11  1  0.750000  0.718021  0.323710  1
  Ni  Ni12  1  0.250000  0.884553  0.702474  1
  Ni  Ni13  1  0.250000  0.615447  0.202474  1
  Ni  Ni14  1  0.750000  0.115447  0.297526  1
  Ni  Ni15  1  0.750000  0.384553  0.797526  1
  Ni  Ni16  1  0.250000  0.465422  0.932272  1
  Ni  Ni17  1  0.250000  0.034578  0.432272  1
  Ni  Ni18  1  0.750000  0.534578  0.067728  1
  Ni  Ni19  1  0.750000  0.965422  0.567728  1
  Mo  Mo20  1  0.250000  0.706513  0.988308  1
  Mo  Mo21  1  0.250000  0.793487  0.488308  1
  Mo  Mo22  1  0.750000  0.293487  0.011692  1
  Mo  Mo23  1  0.750000  0.206513  0.511692  1
  As  As24  1  0.250000  0.419210  0.117253  1
  As  As25  1  0.250000  0.080790  0.617253  1
  As  As26  1  0.750000  0.580790  0.882747  1
  As  As27  1  0.750000  0.919210  0.382747  1
  As  As28  1  0.250000  0.265163  0.865923  1
  As  As29  1  0.250000  0.234837  0.365923  1
  As  As30  1  0.750000  0.734837  0.134077  1
  As  As31  1  0.750000  0.765163  0.634077  1
  As  As32  1  0.250000  0.595460  0.389697  1
  As  As33  1  0.250000  0.904540  0.889697  1
  As  As34  1  0.750000  0.404540  0.610303  1
  As  As35  1  0.750000  0.095460  0.110303  1
