# generated using pymatgen
data_Dy(P2Ru3)2
_symmetry_space_group_name_H-M   'P 1'
_cell_length_a   6.94185700
_cell_length_b   6.94185767
_cell_length_c   3.74573500
_cell_angle_alpha   90.00000000
_cell_angle_beta   90.00000000
_cell_angle_gamma   120.00000156
_symmetry_Int_Tables_number   1
_chemical_formula_structural   Dy(P2Ru3)2
_chemical_formula_sum   'Dy1 P4 Ru6'
_cell_volume   156.32161825
_cell_formula_units_Z   1
loop_
 _symmetry_equiv_pos_site_id
 _symmetry_equiv_pos_as_xyz
  1  'x, y, z'
loop_
 _atom_site_type_symbol
 _atom_site_label
 _atom_site_symmetry_multiplicity
 _atom_site_fract_x
 _atom_site_fract_y
 _atom_site_fract_z
 _atom_site_occupancy
  Dy  Dy0  1  0.000000  0.000000  0.000000  1
  P  P1  1  0.190099  0.380198  0.500000  1
  P  P2  1  0.619802  0.809901  0.500000  1
  P  P3  1  0.190099  0.809901  0.500000  1
  P  P4  1  0.666667  0.333333  0.000000  1
  Ru  Ru5  1  0.801192  0.602385  0.500000  1
  Ru  Ru6  1  0.397615  0.198808  0.500000  1
  Ru  Ru7  1  0.801192  0.198808  0.500000  1
  Ru  Ru8  1  0.465227  0.930452  0.000000  1
  Ru  Ru9  1  0.069548  0.534773  0.000000  1
  Ru  Ru10  1  0.465227  0.534773  0.000000  1
