# generated using pymatgen
data_Sc4AlCo3B16
_symmetry_space_group_name_H-M   'P 1'
_cell_length_a   5.77850500
_cell_length_b   11.14937465
_cell_length_c   3.26560300
_cell_angle_alpha   90.00000000
_cell_angle_beta   90.00000000
_cell_angle_gamma   90.10194087
_symmetry_Int_Tables_number   1
_chemical_formula_structural   Sc4AlCo3B16
_chemical_formula_sum   'Sc4 Al1 Co3 B16'
_cell_volume   210.39174778
_cell_formula_units_Z   1
loop_
 _symmetry_equiv_pos_site_id
 _symmetry_equiv_pos_as_xyz
  1  'x, y, z'
loop_
 _atom_site_type_symbol
 _atom_site_label
 _atom_site_symmetry_multiplicity
 _atom_site_fract_x
 _atom_site_fract_y
 _atom_site_fract_z
 _atom_site_occupancy
  Sc  Sc0  1  0.629444  0.351352  0.000000  1
  Sc  Sc1  1  0.369487  0.647421  0.000000  1
  Sc  Sc2  1  0.124977  0.153725  0.000000  1
  Sc  Sc3  1  0.876096  0.846610  0.000000  1
  Al  Al4  1  0.633625  0.088103  0.000000  1
  Co  Co5  1  0.370055  0.911393  0.000000  1
  Co  Co6  1  0.136174  0.412920  0.000000  1
  Co  Co7  1  0.862414  0.590347  0.000000  1
  B  B8  1  0.793167  0.189186  0.500000  1
  B  B9  1  0.212182  0.813917  0.500000  1
  B  B10  1  0.286947  0.314496  0.500000  1
  B  B11  1  0.711970  0.685936  0.500000  1
  B  B12  1  0.868203  0.029598  0.500000  1
  B  B13  1  0.134290  0.966859  0.500000  1
  B  B14  1  0.365938  0.468380  0.500000  1
  B  B15  1  0.634791  0.531881  0.500000  1
  B  B16  1  0.885520  0.452336  0.500000  1
  B  B17  1  0.114140  0.548306  0.500000  1
  B  B18  1  0.380542  0.046700  0.500000  1
  B  B19  1  0.612051  0.949324  0.500000  1
  B  B20  1  0.980350  0.307317  0.500000  1
  B  B21  1  0.022361  0.693658  0.500000  1
  B  B22  1  0.473378  0.195224  0.500000  1
  B  B23  1  0.521897  0.805010  0.500000  1
