# generated using pymatgen
data_Nd12Ir3Pd
_symmetry_space_group_name_H-M   'P 1'
_cell_length_a   6.57898413
_cell_length_b   7.37586537
_cell_length_c   9.93472000
_cell_angle_alpha   90.00000000
_cell_angle_beta   90.00000000
_cell_angle_gamma   90.20111498
_symmetry_Int_Tables_number   1
_chemical_formula_structural   Nd12Ir3Pd
_chemical_formula_sum   'Nd12 Ir3 Pd1'
_cell_volume   482.08628398
_cell_formula_units_Z   1
loop_
 _symmetry_equiv_pos_site_id
 _symmetry_equiv_pos_as_xyz
  1  'x, y, z'
loop_
 _atom_site_type_symbol
 _atom_site_label
 _atom_site_symmetry_multiplicity
 _atom_site_fract_x
 _atom_site_fract_y
 _atom_site_fract_z
 _atom_site_occupancy
  Nd  Nd0  1  0.335059  0.671471  0.062609  1
  Nd  Nd1  1  0.171472  0.181209  0.437681  1
  Nd  Nd2  1  0.672708  0.324453  0.565439  1
  Nd  Nd3  1  0.828392  0.824942  0.932044  1
  Nd  Nd4  1  0.672708  0.324453  0.934561  1
  Nd  Nd5  1  0.828392  0.824942  0.567956  1
  Nd  Nd6  1  0.335059  0.671471  0.437391  1
  Nd  Nd7  1  0.171472  0.181209  0.062319  1
  Nd  Nd8  1  0.856352  0.524407  0.250000  1
  Nd  Nd9  1  0.630976  0.037094  0.250000  1
  Nd  Nd10  1  0.138490  0.464938  0.750000  1
  Nd  Nd11  1  0.361224  0.965613  0.750000  1
  Ir  Ir12  1  0.435288  0.382221  0.250000  1
  Ir  Ir13  1  0.936863  0.118774  0.750000  1
  Ir  Ir14  1  0.560304  0.618101  0.750000  1
  Pd  Pd15  1  0.065241  0.884701  0.250000  1
