# generated using pymatgen
data_La3Co6Cu7C2
_symmetry_space_group_name_H-M   'P 1'
_cell_length_a   5.11299816
_cell_length_b   5.11498593
_cell_length_c   10.94235425
_cell_angle_alpha   89.99887839
_cell_angle_beta   90.00222168
_cell_angle_gamma   119.98713260
_symmetry_Int_Tables_number   1
_chemical_formula_structural   La3Co6Cu7C2
_chemical_formula_sum   'La3 Co6 Cu7 C2'
_cell_volume   247.86646799
_cell_formula_units_Z   1
loop_
 _symmetry_equiv_pos_site_id
 _symmetry_equiv_pos_as_xyz
  1  'x, y, z'
loop_
 _atom_site_type_symbol
 _atom_site_label
 _atom_site_symmetry_multiplicity
 _atom_site_fract_x
 _atom_site_fract_y
 _atom_site_fract_z
 _atom_site_occupancy
  La  La0  1  0.000093  0.000000  0.000439  1
  La  La1  1  0.000040  0.000000  0.301881  1
  La  La2  1  0.999762  0.000000  0.698045  1
  Co  Co3  1  0.500148  0.000000  0.119659  1
  Co  Co4  1  0.500153  0.500000  0.119723  1
  Co  Co5  1  0.000153  0.500000  0.119723  1
  Co  Co6  1  0.499984  0.000000  0.880354  1
  Co  Co7  1  0.499990  0.499995  0.880324  1
  Co  Co8  1  0.999995  0.500005  0.880324  1
  Cu  Cu9  1  0.499962  0.000000  0.499934  1
  Cu  Cu10  1  0.499914  0.500005  0.499929  1
  Cu  Cu11  1  0.999908  0.499995  0.499929  1
  Cu  Cu12  1  0.333354  0.666607  0.310271  1
  Cu  Cu13  1  0.666747  0.333393  0.310271  1
  Cu  Cu14  1  0.666456  0.333388  0.689581  1
  Cu  Cu15  1  0.333068  0.666612  0.689581  1
  C  C16  1  0.333403  0.666632  0.000013  1
  C  C17  1  0.666769  0.333368  0.000013  1
