# generated using pymatgen
data_Np8B24Mo3Ir
_symmetry_space_group_name_H-M   'P 1'
_cell_length_a   3.64278300
_cell_length_b   9.31569496
_cell_length_c   11.36760319
_cell_angle_alpha   90.05225095
_cell_angle_beta   90.00000000
_cell_angle_gamma   90.00000000
_symmetry_Int_Tables_number   1
_chemical_formula_structural   Np8B24Mo3Ir
_chemical_formula_sum   'Np8 B24 Mo3 Ir1'
_cell_volume   385.76008178
_cell_formula_units_Z   1
loop_
 _symmetry_equiv_pos_site_id
 _symmetry_equiv_pos_as_xyz
  1  'x, y, z'
loop_
 _atom_site_type_symbol
 _atom_site_label
 _atom_site_symmetry_multiplicity
 _atom_site_fract_x
 _atom_site_fract_y
 _atom_site_fract_z
 _atom_site_occupancy
  Np  Np0  1  0.000000  0.333798  0.408443  1
  Np  Np1  1  0.000000  0.662855  0.595474  1
  Np  Np2  1  0.000000  0.839823  0.090070  1
  Np  Np3  1  0.000000  0.162102  0.906526  1
  Np  Np4  1  0.000000  0.961983  0.399996  1
  Np  Np5  1  0.000000  0.040138  0.600761  1
  Np  Np6  1  0.000000  0.456263  0.098456  1
  Np  Np7  1  0.000000  0.541443  0.900288  1
  B  B8  1  0.500000  0.551102  0.432044  1
  B  B9  1  0.500000  0.448861  0.567176  1
  B  B10  1  0.500000  0.052090  0.067393  1
  B  B11  1  0.500000  0.948459  0.932308  1
  B  B12  1  0.500000  0.743580  0.423371  1
  B  B13  1  0.500000  0.255283  0.575820  1
  B  B14  1  0.500000  0.244567  0.075443  1
  B  B15  1  0.500000  0.755307  0.924417  1
  B  B16  1  0.500000  0.806264  0.272995  1
  B  B17  1  0.500000  0.194195  0.725871  1
  B  B18  1  0.500000  0.306584  0.226718  1
  B  B19  1  0.500000  0.694271  0.774309  1
  B  B20  1  0.500000  0.646289  0.188245  1
  B  B21  1  0.500000  0.353813  0.812539  1
  B  B22  1  0.500000  0.146077  0.313278  1
  B  B23  1  0.500000  0.853926  0.687127  1
  B  B24  1  0.500000  0.987287  0.220183  1
  B  B25  1  0.500000  0.012319  0.778923  1
  B  B26  1  0.500000  0.487934  0.281026  1
  B  B27  1  0.500000  0.512303  0.720935  1
  B  B28  1  0.500000  0.641935  0.040373  1
  B  B29  1  0.500000  0.357628  0.960101  1
  B  B30  1  0.500000  0.141209  0.461408  1
  B  B31  1  0.500000  0.856930  0.538627  1
  Mo  Mo32  1  0.000000  0.354592  0.679566  1
  Mo  Mo33  1  0.000000  0.147491  0.181366  1
  Mo  Mo34  1  0.000000  0.853767  0.819372  1
  Ir  Ir35  1  0.000000  0.647532  0.319049  1
