# generated using pymatgen
data_PrSi(AsRh2)3
_symmetry_space_group_name_H-M   'P 1'
_cell_length_a   7.20595100
_cell_length_b   7.20595058
_cell_length_c   3.90125800
_cell_angle_alpha   90.00000000
_cell_angle_beta   90.00000000
_cell_angle_gamma   119.99998818
_symmetry_Int_Tables_number   1
_chemical_formula_structural   PrSi(AsRh2)3
_chemical_formula_sum   'Pr1 Si1 As3 Rh6'
_cell_volume   175.43568597
_cell_formula_units_Z   1
loop_
 _symmetry_equiv_pos_site_id
 _symmetry_equiv_pos_as_xyz
  1  'x, y, z'
loop_
 _atom_site_type_symbol
 _atom_site_label
 _atom_site_symmetry_multiplicity
 _atom_site_fract_x
 _atom_site_fract_y
 _atom_site_fract_z
 _atom_site_occupancy
  Pr  Pr0  1  0.000000  0.000000  0.000000  1
  Si  Si1  1  0.333333  0.666667  0.000000  1
  As  As2  1  0.807497  0.614997  0.500000  1
  As  As3  1  0.385003  0.192503  0.500000  1
  As  As4  1  0.807497  0.192503  0.500000  1
  Rh  Rh5  1  0.203270  0.796730  0.500000  1
  Rh  Rh6  1  0.203270  0.406542  0.500000  1
  Rh  Rh7  1  0.530881  0.061762  0.000000  1
  Rh  Rh8  1  0.938238  0.469119  0.000000  1
  Rh  Rh9  1  0.530881  0.469119  0.000000  1
  Rh  Rh10  1  0.593458  0.796730  0.500000  1
