# generated using pymatgen
data_Y11Tm(CoTc)2
_symmetry_space_group_name_H-M   'P 1'
_cell_length_a   6.34939313
_cell_length_b   7.23781322
_cell_length_c   9.27552700
_cell_angle_alpha   89.97023519
_cell_angle_beta   89.91412930
_cell_angle_gamma   89.90836534
_symmetry_Int_Tables_number   1
_chemical_formula_structural   Y11Tm(CoTc)2
_chemical_formula_sum   'Y11 Tm1 Co2 Tc2'
_cell_volume   426.26245534
_cell_formula_units_Z   1
loop_
 _symmetry_equiv_pos_site_id
 _symmetry_equiv_pos_as_xyz
  1  'x, y, z'
loop_
 _atom_site_type_symbol
 _atom_site_label
 _atom_site_symmetry_multiplicity
 _atom_site_fract_x
 _atom_site_fract_y
 _atom_site_fract_z
 _atom_site_occupancy
  Y  Y0  1  0.668338  0.173285  0.064206  1
  Y  Y1  1  0.370756  0.547459  0.249583  1
  Y  Y2  1  0.142351  0.041656  0.249715  1
  Y  Y3  1  0.823969  0.681382  0.432267  1
  Y  Y4  1  0.324340  0.818561  0.933287  1
  Y  Y5  1  0.167988  0.326656  0.564154  1
  Y  Y6  1  0.668357  0.173416  0.435975  1
  Y  Y7  1  0.167431  0.326940  0.936133  1
  Y  Y8  1  0.324014  0.818774  0.567351  1
  Y  Y9  1  0.869941  0.952243  0.750655  1
  Y  Y10  1  0.642755  0.458303  0.750661  1
  Tm  Tm11  1  0.823874  0.680553  0.068011  1
  Co  Co12  1  0.540635  0.884453  0.248935  1
  Co  Co13  1  0.038978  0.614616  0.750590  1
  Tc  Tc14  1  0.962667  0.392882  0.248604  1
  Tc  Tc15  1  0.463607  0.108823  0.749873  1
