# generated using pymatgen
data_DyUC2
_symmetry_space_group_name_H-M   'P 1'
_cell_length_a   6.04369995
_cell_length_b   6.04369988
_cell_length_c   6.04369954
_cell_angle_alpha   34.50217288
_cell_angle_beta   34.50216927
_cell_angle_gamma   34.50217442
_symmetry_Int_Tables_number   1
_chemical_formula_structural   DyUC2
_chemical_formula_sum   'Dy1 U1 C2'
_cell_volume   63.18864075
_cell_formula_units_Z   1
loop_
 _symmetry_equiv_pos_site_id
 _symmetry_equiv_pos_as_xyz
  1  'x, y, z'
loop_
 _atom_site_type_symbol
 _atom_site_label
 _atom_site_symmetry_multiplicity
 _atom_site_fract_x
 _atom_site_fract_y
 _atom_site_fract_z
 _atom_site_occupancy
  Dy  Dy0  1  0.500000  0.500000  0.500000  1
  U  U1  1  0.000000  0.000000  0.000000  1
  C  C2  1  0.262952  0.262952  0.262952  1
  C  C3  1  0.737048  0.737048  0.737048  1
