# generated using pymatgen
data_KMo2P3O11
_symmetry_space_group_name_H-M   'P 1'
_cell_length_a   7.57052948
_cell_length_b   7.57052891
_cell_length_c   9.43654469
_cell_angle_alpha   70.08547595
_cell_angle_beta   70.08547833
_cell_angle_gamma   72.26910754
_symmetry_Int_Tables_number   1
_chemical_formula_structural   KMo2P3O11
_chemical_formula_sum   'K2 Mo4 P6 O22'
_cell_volume   467.08858911
_cell_formula_units_Z   2
loop_
 _symmetry_equiv_pos_site_id
 _symmetry_equiv_pos_as_xyz
  1  'x, y, z'
loop_
 _atom_site_type_symbol
 _atom_site_label
 _atom_site_symmetry_multiplicity
 _atom_site_fract_x
 _atom_site_fract_y
 _atom_site_fract_z
 _atom_site_occupancy
  K  K0  1  0.991201  0.509196  0.253176  1
  K  K1  1  0.490804  0.008799  0.746824  1
  Mo  Mo2  1  0.361419  0.884211  0.211591  1
  Mo  Mo3  1  0.882940  0.361824  0.711831  1
  Mo  Mo4  1  0.115789  0.638581  0.788409  1
  Mo  Mo5  1  0.638176  0.117060  0.288169  1
  P  P6  1  0.325125  0.455498  0.468105  1
  P  P7  1  0.957715  0.042285  0.500000  1
  P  P8  1  0.454032  0.326564  0.968494  1
  P  P9  1  0.544502  0.674875  0.531895  1
  P  P10  1  0.673436  0.545968  0.031506  1
  P  P11  1  0.041723  0.958277  0.000000  1
  O  O12  1  0.124637  0.026791  0.353525  1
  O  O13  1  0.027224  0.125832  0.853631  1
  O  O14  1  0.387466  0.254231  0.446823  1
  O  O15  1  0.158595  0.466341  0.620467  1
  O  O16  1  0.874168  0.972776  0.146369  1
  O  O17  1  0.973209  0.875363  0.646475  1
  O  O18  1  0.612262  0.746865  0.053455  1
  O  O19  1  0.840115  0.534346  0.879350  1
  O  O20  1  0.723018  0.388774  0.173460  1
  O  O21  1  0.234539  0.945298  0.031745  1
  O  O22  1  0.745769  0.612534  0.553177  1
  O  O23  1  0.493301  0.506699  0.000000  1
  O  O24  1  0.533659  0.841405  0.379533  1
  O  O25  1  0.387504  0.724569  0.673740  1
  O  O26  1  0.945144  0.235445  0.531245  1
  O  O27  1  0.054702  0.765461  0.968255  1
  O  O28  1  0.611226  0.276982  0.826540  1
  O  O29  1  0.465654  0.159885  0.120650  1
  O  O30  1  0.504858  0.495142  0.500000  1
  O  O31  1  0.253135  0.387738  0.946545  1
  O  O32  1  0.764555  0.054856  0.468755  1
  O  O33  1  0.275431  0.612496  0.326260  1
