# generated using pymatgen
data_Nd3Ho5(TmBi)12
_symmetry_space_group_name_H-M   'P 1'
_cell_length_a   8.30554046
_cell_length_b   9.50548200
_cell_length_c   12.16443100
_cell_angle_alpha   90.00000000
_cell_angle_beta   89.98101532
_cell_angle_gamma   90.00000000
_symmetry_Int_Tables_number   1
_chemical_formula_structural   Nd3Ho5(TmBi)12
_chemical_formula_sum   'Nd3 Ho5 Tm12 Bi12'
_cell_volume   960.35945670
_cell_formula_units_Z   1
loop_
 _symmetry_equiv_pos_site_id
 _symmetry_equiv_pos_as_xyz
  1  'x, y, z'
loop_
 _atom_site_type_symbol
 _atom_site_label
 _atom_site_symmetry_multiplicity
 _atom_site_fract_x
 _atom_site_fract_y
 _atom_site_fract_z
 _atom_site_occupancy
  Nd  Nd0  1  0.183185  0.750000  0.718935  1
  Nd  Nd1  1  0.683893  0.750000  0.780589  1
  Nd  Nd2  1  0.815764  0.250000  0.281412  1
  Ho  Ho3  1  0.314730  0.250000  0.217688  1
  Ho  Ho4  1  0.352944  0.750000  0.218350  1
  Ho  Ho5  1  0.853306  0.750000  0.280690  1
  Ho  Ho6  1  0.647065  0.250000  0.783070  1
  Ho  Ho7  1  0.148462  0.250000  0.717852  1
  Tm  Tm8  1  0.023279  0.750000  0.989248  1
  Tm  Tm9  1  0.521412  0.750000  0.510958  1
  Tm  Tm10  1  0.977309  0.250000  0.013453  1
  Tm  Tm11  1  0.477871  0.250000  0.487562  1
  Tm  Tm12  1  0.308096  0.433872  0.939764  1
  Tm  Tm13  1  0.809846  0.066772  0.560571  1
  Tm  Tm14  1  0.692106  0.934111  0.060847  1
  Tm  Tm15  1  0.190027  0.566289  0.438284  1
  Tm  Tm16  1  0.692106  0.565889  0.060847  1
  Tm  Tm17  1  0.190027  0.933711  0.438284  1
  Tm  Tm18  1  0.308096  0.066128  0.939764  1
  Tm  Tm19  1  0.809846  0.433228  0.560571  1
  Bi  Bi20  1  0.434456  0.008268  0.670717  1
  Bi  Bi21  1  0.934205  0.491207  0.830300  1
  Bi  Bi22  1  0.562186  0.506056  0.327605  1
  Bi  Bi23  1  0.070085  0.993869  0.171650  1
  Bi  Bi24  1  0.562186  0.993944  0.327605  1
  Bi  Bi25  1  0.070085  0.506131  0.171650  1
  Bi  Bi26  1  0.434456  0.491732  0.670717  1
  Bi  Bi27  1  0.934205  0.008793  0.830300  1
  Bi  Bi28  1  0.404761  0.750000  0.962489  1
  Bi  Bi29  1  0.902532  0.750000  0.536764  1
  Bi  Bi30  1  0.592688  0.250000  0.040680  1
  Bi  Bi31  1  0.098787  0.250000  0.460788  1
