# generated using pymatgen
data_DyCu2NiPtAu
_symmetry_space_group_name_H-M   'P 1'
_cell_length_a   5.03841286
_cell_length_b   5.03841368
_cell_length_c   5.20867020
_cell_angle_alpha   60.26216780
_cell_angle_beta   60.26216756
_cell_angle_gamma   59.62004582
_symmetry_Int_Tables_number   1
_chemical_formula_structural   DyCu2NiPtAu
_chemical_formula_sum   'Dy1 Cu2 Ni1 Pt1 Au1'
_cell_volume   93.59157609
_cell_formula_units_Z   1
loop_
 _symmetry_equiv_pos_site_id
 _symmetry_equiv_pos_as_xyz
  1  'x, y, z'
loop_
 _atom_site_type_symbol
 _atom_site_label
 _atom_site_symmetry_multiplicity
 _atom_site_fract_x
 _atom_site_fract_y
 _atom_site_fract_z
 _atom_site_occupancy
  Dy  Dy0  1  0.996900  0.996900  0.002572  1
  Cu  Cu1  1  0.627515  0.129859  0.616999  1
  Cu  Cu2  1  0.129859  0.627515  0.616999  1
  Ni  Ni3  1  0.627458  0.627458  0.616850  1
  Pt  Pt4  1  0.627991  0.627991  0.117195  1
  Au  Au5  1  0.240278  0.240278  0.279388  1
