# generated using pymatgen
data_Eu(B3O5)2
_symmetry_space_group_name_H-M   'P 1'
_cell_length_a   8.81962600
_cell_length_b   9.17810228
_cell_length_c   9.93922400
_cell_angle_alpha   63.11820602
_cell_angle_beta   90.00000000
_cell_angle_gamma   90.00000000
_symmetry_Int_Tables_number   1
_chemical_formula_structural   Eu(B3O5)2
_chemical_formula_sum   'Eu4 B24 O40'
_cell_volume   717.61546418
_cell_formula_units_Z   4
loop_
 _symmetry_equiv_pos_site_id
 _symmetry_equiv_pos_as_xyz
  1  'x, y, z'
loop_
 _atom_site_type_symbol
 _atom_site_label
 _atom_site_symmetry_multiplicity
 _atom_site_fract_x
 _atom_site_fract_y
 _atom_site_fract_z
 _atom_site_occupancy
  Eu  Eu0  1  0.118177  0.949269  0.780976  1
  Eu  Eu1  1  0.381823  0.449269  0.780976  1
  Eu  Eu2  1  0.881823  0.050731  0.219024  1
  Eu  Eu3  1  0.618177  0.550731  0.219024  1
  B  B4  1  0.269285  0.121137  0.083433  1
  B  B5  1  0.769285  0.378863  0.916567  1
  B  B6  1  0.223357  0.555552  0.495666  1
  B  B7  1  0.031756  0.268525  0.912116  1
  B  B8  1  0.119491  0.776984  0.552583  1
  B  B9  1  0.454826  0.238981  0.327614  1
  B  B10  1  0.971448  0.564995  0.783252  1
  B  B11  1  0.723357  0.944448  0.504334  1
  B  B12  1  0.531756  0.231475  0.087884  1
  B  B13  1  0.276643  0.055552  0.495666  1
  B  B14  1  0.230715  0.621137  0.083433  1
  B  B15  1  0.968244  0.731475  0.087884  1
  B  B16  1  0.954826  0.261019  0.672386  1
  B  B17  1  0.730715  0.878863  0.916567  1
  B  B18  1  0.880509  0.223016  0.447417  1
  B  B19  1  0.545174  0.761019  0.672386  1
  B  B20  1  0.471448  0.935005  0.216748  1
  B  B21  1  0.619491  0.723016  0.447417  1
  B  B22  1  0.468244  0.768525  0.912116  1
  B  B23  1  0.380509  0.276984  0.552583  1
  B  B24  1  0.028552  0.435005  0.216748  1
  B  B25  1  0.776643  0.444448  0.504334  1
  B  B26  1  0.528552  0.064995  0.783252  1
  B  B27  1  0.045174  0.738981  0.327614  1
  O  O28  1  0.954219  0.792501  0.202661  1
  O  O29  1  0.307088  0.417288  0.557346  1
  O  O30  1  0.045781  0.207499  0.797339  1
  O  O31  1  0.628157  0.752631  0.962472  1
  O  O32  1  0.381039  0.652959  0.044812  1
  O  O33  1  0.869033  0.401605  0.628551  1
  O  O34  1  0.320067  0.962933  0.168618  1
  O  O35  1  0.128157  0.747369  0.037528  1
  O  O36  1  0.179933  0.462933  0.168618  1
  O  O37  1  0.509950  0.779358  0.319153  1
  O  O38  1  0.118961  0.152959  0.044812  1
  O  O39  1  0.820067  0.537067  0.831382  1
  O  O40  1  0.807088  0.082712  0.442654  1
  O  O41  1  0.042848  0.828155  0.406804  1
  O  O42  1  0.679933  0.037067  0.831382  1
  O  O43  1  0.726486  0.852024  0.427566  1
  O  O44  1  0.273514  0.147976  0.572434  1
  O  O45  1  0.192912  0.917288  0.557346  1
  O  O46  1  0.871843  0.252631  0.962472  1
  O  O47  1  0.545781  0.292501  0.202661  1
  O  O48  1  0.454219  0.707499  0.797339  1
  O  O49  1  0.579294  0.058990  0.154090  1
  O  O50  1  0.226486  0.647976  0.572434  1
  O  O51  1  0.542848  0.671845  0.593196  1
  O  O52  1  0.420706  0.941010  0.845910  1
  O  O53  1  0.371843  0.247369  0.037528  1
  O  O54  1  0.618961  0.347041  0.955188  1
  O  O55  1  0.130967  0.598395  0.371449  1
  O  O56  1  0.630967  0.901605  0.628551  1
  O  O57  1  0.881039  0.847041  0.955188  1
  O  O58  1  0.079294  0.441010  0.845910  1
  O  O59  1  0.773514  0.352024  0.427566  1
  O  O60  1  0.490050  0.220642  0.680847  1
  O  O61  1  0.369033  0.098395  0.371449  1
  O  O62  1  0.920706  0.558990  0.154090  1
  O  O63  1  0.692912  0.582712  0.442654  1
  O  O64  1  0.957152  0.171845  0.593196  1
  O  O65  1  0.009950  0.720642  0.680847  1
  O  O66  1  0.990050  0.279358  0.319153  1
  O  O67  1  0.457152  0.328155  0.406804  1
