# generated using pymatgen
data_Tb7HoZn3Si12Rh
_symmetry_space_group_name_H-M   'P 1'
_cell_length_a   8.12101378
_cell_length_b   8.12347482
_cell_length_c   8.12602325
_cell_angle_alpha   90.00000177
_cell_angle_beta   90.01264643
_cell_angle_gamma   120.01002757
_symmetry_Int_Tables_number   1
_chemical_formula_structural   Tb7HoZn3Si12Rh
_chemical_formula_sum   'Tb7 Ho1 Zn3 Si12 Rh1'
_cell_volume   464.21254470
_cell_formula_units_Z   1
loop_
 _symmetry_equiv_pos_site_id
 _symmetry_equiv_pos_as_xyz
  1  'x, y, z'
loop_
 _atom_site_type_symbol
 _atom_site_label
 _atom_site_symmetry_multiplicity
 _atom_site_fract_x
 _atom_site_fract_y
 _atom_site_fract_z
 _atom_site_occupancy
  Tb  Tb0  1  0.500689  0.499418  0.249994  1
  Tb  Tb1  1  0.497207  0.994348  0.749601  1
  Tb  Tb2  1  0.005652  0.502826  0.749542  1
  Tb  Tb3  1  0.497207  0.502857  0.749601  1
  Tb  Tb4  1  0.500689  0.001271  0.249994  1
  Tb  Tb5  1  0.999968  0.999984  0.751022  1
  Tb  Tb6  1  0.999851  0.999925  0.249345  1
  Ho  Ho7  1  0.999810  0.499905  0.250399  1
  Zn  Zn8  1  0.332905  0.666453  0.013140  1
  Zn  Zn9  1  0.666990  0.333495  0.989755  1
  Zn  Zn10  1  0.667073  0.333536  0.501674  1
  Si  Si11  1  0.169880  0.829896  0.496662  1
  Si  Si12  1  0.169880  0.339983  0.496662  1
  Si  Si13  1  0.659651  0.829825  0.497152  1
  Si  Si14  1  0.333037  0.166519  0.002845  1
  Si  Si15  1  0.836686  0.673776  0.502281  1
  Si  Si16  1  0.833581  0.166590  0.003449  1
  Si  Si17  1  0.833581  0.666994  0.003449  1
  Si  Si18  1  0.166959  0.333938  0.997426  1
  Si  Si19  1  0.665856  0.832928  0.997150  1
  Si  Si20  1  0.326354  0.163178  0.502456  1
  Si  Si21  1  0.836686  0.162911  0.502281  1
  Si  Si22  1  0.166959  0.833022  0.997426  1
  Rh  Rh23  1  0.332847  0.666425  0.496692  1
