# generated using pymatgen
data_TaBe3NiOs
_symmetry_space_group_name_H-M   'P 1'
_cell_length_a   4.47540594
_cell_length_b   4.47540603
_cell_length_c   4.47540600
_cell_angle_alpha   61.01726944
_cell_angle_beta   61.01726881
_cell_angle_gamma   61.01726823
_symmetry_Int_Tables_number   1
_chemical_formula_structural   TaBe3NiOs
_chemical_formula_sum   'Ta1 Be3 Ni1 Os1'
_cell_volume   64.83660112
_cell_formula_units_Z   1
loop_
 _symmetry_equiv_pos_site_id
 _symmetry_equiv_pos_as_xyz
  1  'x, y, z'
loop_
 _atom_site_type_symbol
 _atom_site_label
 _atom_site_symmetry_multiplicity
 _atom_site_fract_x
 _atom_site_fract_y
 _atom_site_fract_z
 _atom_site_occupancy
  Ta  Ta0  1  0.249306  0.249306  0.249306  1
  Be  Be1  1  0.119302  0.626467  0.626467  1
  Be  Be2  1  0.626467  0.119302  0.626467  1
  Be  Be3  1  0.626467  0.626467  0.119302  1
  Ni  Ni4  1  0.622547  0.622547  0.622547  1
  Os  Os5  1  0.005912  0.005912  0.005912  1
