# generated using pymatgen
data_Mn(GaO2)4
_symmetry_space_group_name_H-M   'P 1'
_cell_length_a   6.34803963
_cell_length_b   6.34804033
_cell_length_c   9.52522498
_cell_angle_alpha   123.28982968
_cell_angle_beta   123.28983442
_cell_angle_gamma   27.77699913
_symmetry_Int_Tables_number   1
_chemical_formula_structural   Mn(GaO2)4
_chemical_formula_sum   'Mn1 Ga4 O8'
_cell_volume   147.54544488
_cell_formula_units_Z   1
loop_
 _symmetry_equiv_pos_site_id
 _symmetry_equiv_pos_as_xyz
  1  'x, y, z'
loop_
 _atom_site_type_symbol
 _atom_site_label
 _atom_site_symmetry_multiplicity
 _atom_site_fract_x
 _atom_site_fract_y
 _atom_site_fract_z
 _atom_site_occupancy
  Mn  Mn0  1  0.000000  0.000000  0.000000  1
  Ga  Ga1  1  0.464380  0.464380  0.283152  1
  Ga  Ga2  1  0.758561  0.758561  0.360426  1
  Ga  Ga3  1  0.241439  0.241439  0.639574  1
  Ga  Ga4  1  0.535621  0.535621  0.716849  1
  O  O5  1  0.438443  0.438443  0.068887  1
  O  O6  1  0.160340  0.160340  0.219877  1
  O  O7  1  0.889649  0.889649  0.302189  1
  O  O8  1  0.645452  0.645452  0.463298  1
  O  O9  1  0.354548  0.354548  0.536703  1
  O  O10  1  0.110352  0.110352  0.697812  1
  O  O11  1  0.839659  0.839659  0.780122  1
  O  O12  1  0.561557  0.561557  0.931112  1
