# generated using pymatgen
data_DyTm6Co6AgSn22
_symmetry_space_group_name_H-M   'P 1'
_cell_length_a   9.62025500
_cell_length_b   9.62025406
_cell_length_c   9.95476700
_cell_angle_alpha   90.00000000
_cell_angle_beta   90.00000000
_cell_angle_gamma   119.99999292
_symmetry_Int_Tables_number   1
_chemical_formula_structural   DyTm6Co6AgSn22
_chemical_formula_sum   'Dy1 Tm6 Co6 Ag1 Sn22'
_cell_volume   797.87505490
_cell_formula_units_Z   1
loop_
 _symmetry_equiv_pos_site_id
 _symmetry_equiv_pos_as_xyz
  1  'x, y, z'
loop_
 _atom_site_type_symbol
 _atom_site_label
 _atom_site_symmetry_multiplicity
 _atom_site_fract_x
 _atom_site_fract_y
 _atom_site_fract_z
 _atom_site_occupancy
  Dy  Dy0  1  0.000000  0.000000  0.000000  1
  Tm  Tm1  1  0.480007  0.519993  0.306528  1
  Tm  Tm2  1  0.519993  0.480007  0.693472  1
  Tm  Tm3  1  0.480007  0.960016  0.306528  1
  Tm  Tm4  1  0.519993  0.039984  0.693472  1
  Tm  Tm5  1  0.039984  0.519993  0.306528  1
  Tm  Tm6  1  0.960016  0.480007  0.693472  1
  Co  Co7  1  0.831399  0.168601  0.197500  1
  Co  Co8  1  0.168601  0.831399  0.802500  1
  Co  Co9  1  0.831399  0.662797  0.197500  1
  Co  Co10  1  0.168601  0.337203  0.802500  1
  Co  Co11  1  0.337203  0.168601  0.197500  1
  Co  Co12  1  0.662797  0.831399  0.802500  1
  Ag  Ag13  1  0.000000  0.000000  0.500000  1
  Sn  Sn14  1  0.346291  0.000000  0.000000  1
  Sn  Sn15  1  0.653709  0.000000  0.000000  1
  Sn  Sn16  1  0.000000  0.346291  0.000000  1
  Sn  Sn17  1  0.000000  0.653709  0.000000  1
  Sn  Sn18  1  0.653709  0.653709  0.000000  1
  Sn  Sn19  1  0.346291  0.346291  0.000000  1
  Sn  Sn20  1  0.333333  0.666667  0.818349  1
  Sn  Sn21  1  0.666667  0.333333  0.181651  1
  Sn  Sn22  1  0.782869  0.217131  0.454252  1
  Sn  Sn23  1  0.217131  0.782869  0.545748  1
  Sn  Sn24  1  0.782869  0.565740  0.454252  1
  Sn  Sn25  1  0.217131  0.434260  0.545748  1
  Sn  Sn26  1  0.434260  0.217131  0.454252  1
  Sn  Sn27  1  0.565740  0.782869  0.545748  1
  Sn  Sn28  1  0.333333  0.666667  0.122096  1
  Sn  Sn29  1  0.666667  0.333333  0.877904  1
  Sn  Sn30  1  0.114736  0.885264  0.276132  1
  Sn  Sn31  1  0.885264  0.114736  0.723868  1
  Sn  Sn32  1  0.114736  0.229473  0.276132  1
  Sn  Sn33  1  0.885264  0.770527  0.723868  1
  Sn  Sn34  1  0.770527  0.885264  0.276132  1
  Sn  Sn35  1  0.229473  0.114736  0.723868  1
