# generated using pymatgen
data_Dy6Y4IrRh3
_symmetry_space_group_name_H-M   'P 1'
_cell_length_a   6.44109149
_cell_length_b   7.18752134
_cell_length_c   8.66349037
_cell_angle_alpha   96.70240323
_cell_angle_beta   111.93565937
_cell_angle_gamma   89.99482854
_symmetry_Int_Tables_number   1
_chemical_formula_structural   Dy6Y4IrRh3
_chemical_formula_sum   'Dy6 Y4 Ir1 Rh3'
_cell_volume   369.08886968
_cell_formula_units_Z   1
loop_
 _symmetry_equiv_pos_site_id
 _symmetry_equiv_pos_as_xyz
  1  'x, y, z'
loop_
 _atom_site_type_symbol
 _atom_site_label
 _atom_site_symmetry_multiplicity
 _atom_site_fract_x
 _atom_site_fract_y
 _atom_site_fract_z
 _atom_site_occupancy
  Dy  Dy0  1  0.210665  0.184518  0.561475  1
  Dy  Dy1  1  0.648349  0.314388  0.437566  1
  Dy  Dy2  1  0.792357  0.815506  0.440491  1
  Dy  Dy3  1  0.350405  0.686710  0.562830  1
  Dy  Dy4  1  0.426362  0.249033  0.999600  1
  Dy  Dy5  1  0.572206  0.750809  0.999612  1
  Y  Y6  1  0.791908  0.082459  0.812040  1
  Y  Y7  1  0.979529  0.417296  0.188407  1
  Y  Y8  1  0.208732  0.917024  0.186456  1
  Y  Y9  1  0.020720  0.582920  0.811667  1
  Ir  Ir10  1  0.180050  0.926056  0.776198  1
  Rh  Rh11  1  0.595761  0.427146  0.778489  1
  Rh  Rh12  1  0.818872  0.073242  0.222950  1
  Rh  Rh13  1  0.404084  0.572894  0.222218  1
