# generated using pymatgen
data_Dy13Y6Lu(Cd3Ru)2
_symmetry_space_group_name_H-M   'P 1'
_cell_length_a   9.60494200
_cell_length_b   9.60494270
_cell_length_c   9.86212600
_cell_angle_alpha   90.00000000
_cell_angle_beta   90.00000000
_cell_angle_gamma   120.00000449
_symmetry_Int_Tables_number   1
_chemical_formula_structural   Dy13Y6Lu(Cd3Ru)2
_chemical_formula_sum   'Dy13 Y6 Lu1 Cd6 Ru2'
_cell_volume   787.93552887
_cell_formula_units_Z   1
loop_
 _symmetry_equiv_pos_site_id
 _symmetry_equiv_pos_as_xyz
  1  'x, y, z'
loop_
 _atom_site_type_symbol
 _atom_site_label
 _atom_site_symmetry_multiplicity
 _atom_site_fract_x
 _atom_site_fract_y
 _atom_site_fract_z
 _atom_site_occupancy
  Dy  Dy0  1  0.000000  0.000000  0.000000  1
  Dy  Dy1  1  0.209471  0.790529  0.439999  1
  Dy  Dy2  1  0.209471  0.418942  0.439999  1
  Dy  Dy3  1  0.581058  0.790529  0.439999  1
  Dy  Dy4  1  0.790529  0.209471  0.560001  1
  Dy  Dy5  1  0.790529  0.581058  0.560001  1
  Dy  Dy6  1  0.418942  0.209471  0.560001  1
  Dy  Dy7  1  0.790058  0.209942  0.940063  1
  Dy  Dy8  1  0.790058  0.580115  0.940063  1
  Dy  Dy9  1  0.419885  0.209942  0.940063  1
  Dy  Dy10  1  0.209942  0.790058  0.059937  1
  Dy  Dy11  1  0.209942  0.419885  0.059937  1
  Dy  Dy12  1  0.580115  0.790058  0.059937  1
  Y  Y13  1  0.541159  0.458841  0.250108  1
  Y  Y14  1  0.541159  0.082319  0.250108  1
  Y  Y15  1  0.917681  0.458841  0.250108  1
  Y  Y16  1  0.458841  0.541159  0.749892  1
  Y  Y17  1  0.458841  0.917681  0.749892  1
  Y  Y18  1  0.082319  0.541159  0.749892  1
  Lu  Lu19  1  0.000000  0.000000  0.500000  1
  Cd  Cd20  1  0.885735  0.114265  0.250809  1
  Cd  Cd21  1  0.885735  0.771471  0.250809  1
  Cd  Cd22  1  0.228529  0.114265  0.250809  1
  Cd  Cd23  1  0.114265  0.885735  0.749191  1
  Cd  Cd24  1  0.114265  0.228529  0.749191  1
  Cd  Cd25  1  0.771471  0.885735  0.749191  1
  Ru  Ru26  1  0.333333  0.666667  0.250071  1
  Ru  Ru27  1  0.666667  0.333333  0.749929  1
