# generated using pymatgen
data_CaSm3(BeSi3)2
_symmetry_space_group_name_H-M   'P 1'
_cell_length_a   8.04550495
_cell_length_b   7.89390638
_cell_length_c   5.77914384
_cell_angle_alpha   70.14950369
_cell_angle_beta   67.34767407
_cell_angle_gamma   42.50283451
_symmetry_Int_Tables_number   1
_chemical_formula_structural   CaSm3(BeSi3)2
_chemical_formula_sum   'Ca1 Sm3 Be2 Si6'
_cell_volume   227.93741263
_cell_formula_units_Z   1
loop_
 _symmetry_equiv_pos_site_id
 _symmetry_equiv_pos_as_xyz
  1  'x, y, z'
loop_
 _atom_site_type_symbol
 _atom_site_label
 _atom_site_symmetry_multiplicity
 _atom_site_fract_x
 _atom_site_fract_y
 _atom_site_fract_z
 _atom_site_occupancy
  Ca  Ca0  1  0.244936  0.755064  0.244936  1
  Sm  Sm1  1  0.749961  0.750039  0.749961  1
  Sm  Sm2  1  0.755223  0.244777  0.755223  1
  Sm  Sm3  1  0.249961  0.250039  0.249961  1
  Be  Be4  1  0.666468  0.667044  0.332956  1
  Be  Be5  1  0.332956  0.333532  0.666468  1
  Si  Si6  1  0.824617  0.347278  0.174824  1
  Si  Si7  1  0.652722  0.175383  0.346719  1
  Si  Si8  1  0.174824  0.653281  0.824617  1
  Si  Si9  1  0.346719  0.825176  0.652722  1
  Si  Si10  1  0.173500  0.171889  0.828111  1
  Si  Si11  1  0.828111  0.826500  0.173500  1
