# generated using pymatgen
data_Sr12CaMg3Nb5(RuO12)3
_symmetry_space_group_name_H-M   'P 1'
_cell_length_a   5.71874171
_cell_length_b   9.79513416
_cell_length_c   13.94008100
_cell_angle_alpha   89.70384878
_cell_angle_beta   90.05579553
_cell_angle_gamma   90.01481248
_symmetry_Int_Tables_number   1
_chemical_formula_structural   Sr12CaMg3Nb5(RuO12)3
_chemical_formula_sum   'Sr12 Ca1 Mg3 Nb5 Ru3 O36'
_cell_volume   780.85455254
_cell_formula_units_Z   1
loop_
 _symmetry_equiv_pos_site_id
 _symmetry_equiv_pos_as_xyz
  1  'x, y, z'
loop_
 _atom_site_type_symbol
 _atom_site_label
 _atom_site_symmetry_multiplicity
 _atom_site_fract_x
 _atom_site_fract_y
 _atom_site_fract_z
 _atom_site_occupancy
  Sr  Sr0  1  0.527082  0.836240  0.417744  1
  Sr  Sr1  1  0.523504  0.497595  0.749878  1
  Sr  Sr2  1  0.968380  0.330830  0.415225  1
  Sr  Sr3  1  0.474575  0.827022  0.917942  1
  Sr  Sr4  1  0.532396  0.171149  0.091553  1
  Sr  Sr5  1  0.032015  0.007610  0.251952  1
  Sr  Sr6  1  0.026693  0.336441  0.917135  1
  Sr  Sr7  1  0.973330  0.995129  0.745635  1
  Sr  Sr8  1  0.469623  0.168697  0.574516  1
  Sr  Sr9  1  0.029038  0.665903  0.581074  1
  Sr  Sr10  1  0.472801  0.503639  0.247956  1
  Sr  Sr11  1  0.966165  0.663653  0.091137  1
  Ca  Ca12  1  0.001971  0.999945  0.001433  1
  Mg  Mg13  1  0.500055  0.497423  0.000406  1
  Mg  Mg14  1  0.001347  0.998531  0.498770  1
  Mg  Mg15  1  0.499190  0.500333  0.500057  1
  Nb  Nb16  1  0.503377  0.832046  0.659356  1
  Nb  Nb17  1  0.995921  0.329953  0.657506  1
  Nb  Nb18  1  0.496858  0.166200  0.835979  1
  Nb  Nb19  1  0.003166  0.670344  0.340781  1
  Nb  Nb20  1  0.002032  0.659294  0.838555  1
  Ru  Ru21  1  0.498852  0.170446  0.334511  1
  Ru  Ru22  1  0.503685  0.835098  0.169400  1
  Ru  Ru23  1  0.999246  0.339550  0.166966  1
  O  O24  1  0.018852  0.795249  0.936806  1
  O  O25  1  0.788410  0.593313  0.434951  1
  O  O26  1  0.775470  0.881631  0.582568  1
  O  O27  1  0.783465  0.260360  0.769754  1
  O  O28  1  0.778632  0.224680  0.250453  1
  O  O29  1  0.213302  0.446415  0.090269  1
  O  O30  1  0.696867  0.045627  0.907730  1
  O  O31  1  0.514165  0.021163  0.723662  1
  O  O32  1  0.722379  0.761063  0.770183  1
  O  O33  1  0.231579  0.118333  0.411754  1
  O  O34  1  0.712932  0.098273  0.429658  1
  O  O35  1  0.008361  0.148421  0.601416  1
  O  O36  1  0.988123  0.201899  0.071072  1
  O  O37  1  0.730466  0.428714  0.109957  1
  O  O38  1  0.010826  0.485665  0.269058  1
  O  O39  1  0.488658  0.305795  0.935646  1
  O  O40  1  0.987488  0.517410  0.728386  1
  O  O41  1  0.713616  0.719489  0.254762  1
  O  O42  1  0.310403  0.948135  0.090947  1
  O  O43  1  0.273956  0.565127  0.892873  1
  O  O44  1  0.276819  0.244502  0.231571  1
  O  O45  1  0.510176  0.347527  0.392915  1
  O  O46  1  0.222195  0.777270  0.750916  1
  O  O47  1  0.218412  0.744749  0.231250  1
  O  O48  1  0.510309  0.691825  0.072837  1
  O  O49  1  0.777114  0.919626  0.118881  1
  O  O50  1  0.490225  0.983900  0.270811  1
  O  O51  1  0.209470  0.405694  0.562281  1
  O  O52  1  0.489032  0.648708  0.605607  1
  O  O53  1  0.719725  0.382517  0.584696  1
  O  O54  1  0.988855  0.852710  0.394560  1
  O  O55  1  0.278650  0.617952  0.414103  1
  O  O56  1  0.282424  0.282713  0.745223  1
  O  O57  1  0.217683  0.076179  0.879835  1
  O  O58  1  0.282488  0.902952  0.564824  1
  O  O59  1  0.777168  0.551342  0.912313  1
