# generated using pymatgen
data_NaSr2LaCd2Sn3
_symmetry_space_group_name_H-M   'P 1'
_cell_length_a   8.12436818
_cell_length_b   7.89473564
_cell_length_c   4.89364000
_cell_angle_alpha   90.00000000
_cell_angle_beta   90.00000000
_cell_angle_gamma   120.26298672
_symmetry_Int_Tables_number   1
_chemical_formula_structural   NaSr2LaCd2Sn3
_chemical_formula_sum   'Na1 Sr2 La1 Cd2 Sn3'
_cell_volume   271.10207024
_cell_formula_units_Z   1
loop_
 _symmetry_equiv_pos_site_id
 _symmetry_equiv_pos_as_xyz
  1  'x, y, z'
loop_
 _atom_site_type_symbol
 _atom_site_label
 _atom_site_symmetry_multiplicity
 _atom_site_fract_x
 _atom_site_fract_y
 _atom_site_fract_z
 _atom_site_occupancy
  Na  Na0  1  0.237289  0.003579  0.000000  1
  Sr  Sr1  1  0.580149  0.998645  0.500000  1
  Sr  Sr2  1  0.431610  0.429268  0.500000  1
  La  La3  1  0.000967  0.571016  0.500000  1
  Cd  Cd4  1  0.749287  0.753925  0.000000  1
  Cd  Cd5  1  0.997045  0.244491  0.000000  1
  Sn  Sn6  1  0.993105  0.994334  0.500000  1
  Sn  Sn7  1  0.682103  0.342977  0.000000  1
  Sn  Sn8  1  0.328442  0.661764  0.000000  1
