# generated using pymatgen
data_Hf6Al16Ir5Au2
_symmetry_space_group_name_H-M   'P 1'
_cell_length_a   8.77789626
_cell_length_b   8.77789643
_cell_length_c   8.75185200
_cell_angle_alpha   60.09810068
_cell_angle_beta   60.09810004
_cell_angle_gamma   59.80379736
_symmetry_Int_Tables_number   1
_chemical_formula_structural   Hf6Al16Ir5Au2
_chemical_formula_sum   'Hf6 Al16 Ir5 Au2'
_cell_volume   476.82413865
_cell_formula_units_Z   1
loop_
 _symmetry_equiv_pos_site_id
 _symmetry_equiv_pos_as_xyz
  1  'x, y, z'
loop_
 _atom_site_type_symbol
 _atom_site_label
 _atom_site_symmetry_multiplicity
 _atom_site_fract_x
 _atom_site_fract_y
 _atom_site_fract_z
 _atom_site_occupancy
  Hf  Hf0  1  0.684761  0.315239  0.315239  1
  Hf  Hf1  1  0.315239  0.684761  0.684761  1
  Hf  Hf2  1  0.315239  0.684761  0.315239  1
  Hf  Hf3  1  0.684761  0.315239  0.684761  1
  Hf  Hf4  1  0.322625  0.322625  0.677375  1
  Hf  Hf5  1  0.677375  0.677375  0.322625  1
  Al  Al6  1  0.335424  0.335424  0.342006  1
  Al  Al7  1  0.664576  0.664576  0.657994  1
  Al  Al8  1  0.335424  0.335424  0.987146  1
  Al  Al9  1  0.342006  0.987146  0.335424  1
  Al  Al10  1  0.664576  0.664576  0.012854  1
  Al  Al11  1  0.657994  0.012854  0.664576  1
  Al  Al12  1  0.987146  0.342006  0.335424  1
  Al  Al13  1  0.012854  0.657994  0.664576  1
  Al  Al14  1  0.125488  0.125488  0.106381  1
  Al  Al15  1  0.874512  0.874512  0.893619  1
  Al  Al16  1  0.125488  0.125488  0.642642  1
  Al  Al17  1  0.106381  0.642642  0.125488  1
  Al  Al18  1  0.874512  0.874512  0.357358  1
  Al  Al19  1  0.893619  0.357358  0.874512  1
  Al  Al20  1  0.642642  0.106381  0.125488  1
  Al  Al21  1  0.357358  0.893619  0.874512  1
  Ir  Ir22  1  0.500000  0.000000  0.000000  1
  Ir  Ir23  1  0.000000  0.500000  0.500000  1
  Ir  Ir24  1  0.000000  0.500000  0.000000  1
  Ir  Ir25  1  0.500000  0.000000  0.500000  1
  Ir  Ir26  1  0.000000  0.000000  0.000000  1
  Au  Au27  1  0.000000  0.000000  0.500000  1
  Au  Au28  1  0.500000  0.500000  0.000000  1
