# generated using pymatgen
data_SmYReB6
_symmetry_space_group_name_H-M   'P 1'
_cell_length_a   3.71667500
_cell_length_b   9.24209900
_cell_length_c   11.66705300
_cell_angle_alpha   90.00000000
_cell_angle_beta   90.00000000
_cell_angle_gamma   90.00000000
_symmetry_Int_Tables_number   1
_chemical_formula_structural   SmYReB6
_chemical_formula_sum   'Sm4 Y4 Re4 B24'
_cell_volume   400.76185068
_cell_formula_units_Z   4
loop_
 _symmetry_equiv_pos_site_id
 _symmetry_equiv_pos_as_xyz
  1  'x, y, z'
loop_
 _atom_site_type_symbol
 _atom_site_label
 _atom_site_symmetry_multiplicity
 _atom_site_fract_x
 _atom_site_fract_y
 _atom_site_fract_z
 _atom_site_occupancy
  Sm  Sm0  1  0.000000  0.823163  0.086082  1
  Sm  Sm1  1  0.000000  0.176837  0.913918  1
  Sm  Sm2  1  0.000000  0.323163  0.413918  1
  Sm  Sm3  1  0.000000  0.676837  0.586082  1
  Y  Y4  1  0.000000  0.442930  0.129910  1
  Y  Y5  1  0.000000  0.557070  0.870090  1
  Y  Y6  1  0.000000  0.942930  0.370090  1
  Y  Y7  1  0.000000  0.057070  0.629910  1
  Re  Re8  1  0.000000  0.138774  0.179947  1
  Re  Re9  1  0.000000  0.861226  0.820053  1
  Re  Re10  1  0.000000  0.638774  0.320053  1
  Re  Re11  1  0.000000  0.361226  0.679947  1
  B  B12  1  0.500000  0.053981  0.068439  1
  B  B13  1  0.500000  0.946019  0.931562  1
  B  B14  1  0.500000  0.553981  0.431561  1
  B  B15  1  0.500000  0.446019  0.568438  1
  B  B16  1  0.500000  0.248495  0.082937  1
  B  B17  1  0.500000  0.751505  0.917063  1
  B  B18  1  0.500000  0.748495  0.417063  1
  B  B19  1  0.500000  0.251505  0.582937  1
  B  B20  1  0.500000  0.291021  0.233753  1
  B  B21  1  0.500000  0.708979  0.766247  1
  B  B22  1  0.500000  0.791021  0.266247  1
  B  B23  1  0.500000  0.208979  0.733753  1
  B  B24  1  0.500000  0.130081  0.313467  1
  B  B25  1  0.500000  0.869919  0.686533  1
  B  B26  1  0.500000  0.630081  0.186533  1
  B  B27  1  0.500000  0.369919  0.813467  1
  B  B28  1  0.500000  0.483148  0.287563  1
  B  B29  1  0.500000  0.516852  0.712437  1
  B  B30  1  0.500000  0.983148  0.212437  1
  B  B31  1  0.500000  0.016852  0.787563  1
  B  B32  1  0.500000  0.098908  0.472301  1
  B  B33  1  0.500000  0.901092  0.527699  1
  B  B34  1  0.500000  0.598908  0.027699  1
  B  B35  1  0.500000  0.401092  0.972301  1
