# generated using pymatgen
data_Pr20Ir11Ru
_symmetry_space_group_name_H-M   'P 1'
_cell_length_a   11.34726800
_cell_length_b   11.34726800
_cell_length_c   6.63677300
_cell_angle_alpha   90.00000000
_cell_angle_beta   90.00000000
_cell_angle_gamma   90.00000000
_symmetry_Int_Tables_number   1
_chemical_formula_structural   Pr20Ir11Ru
_chemical_formula_sum   'Pr20 Ir11 Ru1'
_cell_volume   854.55415056
_cell_formula_units_Z   1
loop_
 _symmetry_equiv_pos_site_id
 _symmetry_equiv_pos_as_xyz
  1  'x, y, z'
loop_
 _atom_site_type_symbol
 _atom_site_label
 _atom_site_symmetry_multiplicity
 _atom_site_fract_x
 _atom_site_fract_y
 _atom_site_fract_z
 _atom_site_occupancy
  Pr  Pr0  1  0.292094  0.088645  0.380832  1
  Pr  Pr1  1  0.292291  0.911415  0.883372  1
  Pr  Pr2  1  0.707709  0.088585  0.883372  1
  Pr  Pr3  1  0.707906  0.911355  0.380832  1
  Pr  Pr4  1  0.588585  0.792291  0.883372  1
  Pr  Pr5  1  0.588645  0.207906  0.380832  1
  Pr  Pr6  1  0.411355  0.792094  0.380832  1
  Pr  Pr7  1  0.411415  0.207709  0.883372  1
  Pr  Pr8  1  0.208919  0.410438  0.619073  1
  Pr  Pr9  1  0.208798  0.589254  0.118734  1
  Pr  Pr10  1  0.791202  0.410746  0.118734  1
  Pr  Pr11  1  0.791081  0.589562  0.619073  1
  Pr  Pr12  1  0.910746  0.708798  0.118734  1
  Pr  Pr13  1  0.910438  0.291081  0.619073  1
  Pr  Pr14  1  0.089562  0.708919  0.619073  1
  Pr  Pr15  1  0.089254  0.291202  0.118734  1
  Pr  Pr16  1  0.000000  0.000000  0.499043  1
  Pr  Pr17  1  0.000000  0.000000  0.998844  1
  Pr  Pr18  1  0.500000  0.500000  0.998844  1
  Pr  Pr19  1  0.500000  0.500000  0.499043  1
  Ir  Ir20  1  0.846554  0.154304  0.249955  1
  Ir  Ir21  1  0.846623  0.845910  0.749596  1
  Ir  Ir22  1  0.153377  0.154090  0.749596  1
  Ir  Ir23  1  0.153446  0.845696  0.249955  1
  Ir  Ir24  1  0.654090  0.346623  0.749596  1
  Ir  Ir25  1  0.654304  0.653446  0.249955  1
  Ir  Ir26  1  0.345696  0.346554  0.249955  1
  Ir  Ir27  1  0.345910  0.653377  0.749596  1
  Ir  Ir28  1  0.500000  0.000000  0.616177  1
  Ir  Ir29  1  0.000000  0.500000  0.883488  1
  Ir  Ir30  1  0.000000  0.500000  0.383843  1
  Ru  Ru31  1  0.500000  0.000000  0.114473  1
