# generated using pymatgen
data_CaDy6Sn23Ir6
_symmetry_space_group_name_H-M   'P 1'
_cell_length_a   9.89504000
_cell_length_b   9.89504086
_cell_length_c   10.10802500
_cell_angle_alpha   90.00000000
_cell_angle_beta   90.00000000
_cell_angle_gamma   119.99999714
_symmetry_Int_Tables_number   1
_chemical_formula_structural   CaDy6Sn23Ir6
_chemical_formula_sum   'Ca1 Dy6 Sn23 Ir6'
_cell_volume   857.10118882
_cell_formula_units_Z   1
loop_
 _symmetry_equiv_pos_site_id
 _symmetry_equiv_pos_as_xyz
  1  'x, y, z'
loop_
 _atom_site_type_symbol
 _atom_site_label
 _atom_site_symmetry_multiplicity
 _atom_site_fract_x
 _atom_site_fract_y
 _atom_site_fract_z
 _atom_site_occupancy
  Ca  Ca0  1  0.000000  0.000000  0.000000  1
  Dy  Dy1  1  0.481320  0.518680  0.306506  1
  Dy  Dy2  1  0.518680  0.481320  0.693494  1
  Dy  Dy3  1  0.481320  0.962640  0.306506  1
  Dy  Dy4  1  0.518680  0.037360  0.693494  1
  Dy  Dy5  1  0.037360  0.518680  0.306506  1
  Dy  Dy6  1  0.962640  0.481320  0.693494  1
  Sn  Sn7  1  0.351648  0.000000  0.000000  1
  Sn  Sn8  1  0.648352  0.000000  0.000000  1
  Sn  Sn9  1  0.000000  0.351648  0.000000  1
  Sn  Sn10  1  0.000000  0.648352  0.000000  1
  Sn  Sn11  1  0.648352  0.648352  0.000000  1
  Sn  Sn12  1  0.351648  0.351648  0.000000  1
  Sn  Sn13  1  0.333333  0.666667  0.824398  1
  Sn  Sn14  1  0.666667  0.333333  0.175602  1
  Sn  Sn15  1  0.000000  0.000000  0.500000  1
  Sn  Sn16  1  0.778106  0.221894  0.458150  1
  Sn  Sn17  1  0.221894  0.778106  0.541850  1
  Sn  Sn18  1  0.778106  0.556213  0.458150  1
  Sn  Sn19  1  0.221894  0.443787  0.541850  1
  Sn  Sn20  1  0.443787  0.221894  0.458150  1
  Sn  Sn21  1  0.556213  0.778106  0.541850  1
  Sn  Sn22  1  0.333333  0.666667  0.121706  1
  Sn  Sn23  1  0.666667  0.333333  0.878294  1
  Sn  Sn24  1  0.117790  0.882210  0.282614  1
  Sn  Sn25  1  0.882210  0.117790  0.717386  1
  Sn  Sn26  1  0.117790  0.235579  0.282614  1
  Sn  Sn27  1  0.882210  0.764421  0.717386  1
  Sn  Sn28  1  0.764421  0.882210  0.282614  1
  Sn  Sn29  1  0.235579  0.117790  0.717386  1
  Ir  Ir30  1  0.829623  0.170377  0.200845  1
  Ir  Ir31  1  0.170377  0.829623  0.799155  1
  Ir  Ir32  1  0.829623  0.659245  0.200845  1
  Ir  Ir33  1  0.170377  0.340755  0.799155  1
  Ir  Ir34  1  0.340755  0.170377  0.200845  1
  Ir  Ir35  1  0.659245  0.829623  0.799155  1
