# generated using pymatgen
data_TbY3(Al3Rh)6
_symmetry_space_group_name_H-M   'P 1'
_cell_length_a   7.56403618
_cell_length_b   7.56359974
_cell_length_c   9.49229000
_cell_angle_alpha   90.00000000
_cell_angle_beta   90.00000000
_cell_angle_gamma   119.34622392
_symmetry_Int_Tables_number   1
_chemical_formula_structural   TbY3(Al3Rh)6
_chemical_formula_sum   'Tb1 Y3 Al18 Rh6'
_cell_volume   473.37717452
_cell_formula_units_Z   1
loop_
 _symmetry_equiv_pos_site_id
 _symmetry_equiv_pos_as_xyz
  1  'x, y, z'
loop_
 _atom_site_type_symbol
 _atom_site_label
 _atom_site_symmetry_multiplicity
 _atom_site_fract_x
 _atom_site_fract_y
 _atom_site_fract_z
 _atom_site_occupancy
  Tb  Tb0  1  0.994668  0.670544  0.250000  1
  Y  Y1  1  0.005550  0.329441  0.750000  1
  Y  Y2  1  0.670605  0.994542  0.250000  1
  Y  Y3  1  0.329522  0.005381  0.750000  1
  Al  Al4  1  0.127713  0.127684  0.250000  1
  Al  Al5  1  0.872224  0.872257  0.750000  1
  Al  Al6  1  0.001278  0.335134  0.073933  1
  Al  Al7  1  0.998749  0.664812  0.926122  1
  Al  Al8  1  0.998749  0.664812  0.573878  1
  Al  Al9  1  0.335266  0.001284  0.426090  1
  Al  Al10  1  0.001278  0.335134  0.426067  1
  Al  Al11  1  0.664779  0.998738  0.573789  1
  Al  Al12  1  0.664779  0.998738  0.926211  1
  Al  Al13  1  0.335266  0.001284  0.073910  1
  Al  Al14  1  0.333408  0.333351  0.550580  1
  Al  Al15  1  0.666606  0.666655  0.449464  1
  Al  Al16  1  0.666606  0.666655  0.050536  1
  Al  Al17  1  0.333408  0.333351  0.949420  1
  Al  Al18  1  0.338642  0.548718  0.250000  1
  Al  Al19  1  0.661337  0.451257  0.750000  1
  Al  Al20  1  0.548833  0.338726  0.250000  1
  Al  Al21  1  0.451496  0.661411  0.750000  1
  Rh  Rh22  1  0.671577  0.328212  0.999893  1
  Rh  Rh23  1  0.328083  0.671651  0.999900  1
  Rh  Rh24  1  0.328083  0.671651  0.500100  1
  Rh  Rh25  1  0.671577  0.328212  0.500107  1
  Rh  Rh26  1  0.999959  0.000182  0.999887  1
  Rh  Rh27  1  0.999959  0.000182  0.500113  1
