# generated using pymatgen
data_Dy6Er4Si5Pb
_symmetry_space_group_name_H-M   'P 1'
_cell_length_a   8.50961900
_cell_length_b   8.53753362
_cell_length_c   6.37394100
_cell_angle_alpha   90.00000000
_cell_angle_beta   90.00000000
_cell_angle_gamma   119.89189628
_symmetry_Int_Tables_number   1
_chemical_formula_structural   Dy6Er4Si5Pb
_chemical_formula_sum   'Dy6 Er4 Si5 Pb1'
_cell_volume   401.47016039
_cell_formula_units_Z   1
loop_
 _symmetry_equiv_pos_site_id
 _symmetry_equiv_pos_as_xyz
  1  'x, y, z'
loop_
 _atom_site_type_symbol
 _atom_site_label
 _atom_site_symmetry_multiplicity
 _atom_site_fract_x
 _atom_site_fract_y
 _atom_site_fract_z
 _atom_site_occupancy
  Dy  Dy0  1  0.987609  0.746963  0.750000  1
  Dy  Dy1  1  0.998536  0.242975  0.250000  1
  Dy  Dy2  1  0.755561  0.757025  0.250000  1
  Dy  Dy3  1  0.766382  0.000000  0.750000  1
  Dy  Dy4  1  0.240646  0.253037  0.750000  1
  Dy  Dy5  1  0.240825  0.000000  0.250000  1
  Er  Er6  1  0.674815  0.343507  0.003919  1
  Er  Er7  1  0.331307  0.656493  0.496081  1
  Er  Er8  1  0.331307  0.656493  0.003919  1
  Er  Er9  1  0.674815  0.343507  0.496081  1
  Si  Si10  1  0.394035  0.392543  0.250000  1
  Si  Si11  1  0.001492  0.607457  0.250000  1
  Si  Si12  1  0.998418  0.394784  0.750000  1
  Si  Si13  1  0.603635  0.605216  0.750000  1
  Si  Si14  1  0.605573  0.000000  0.250000  1
  Pb  Pb15  1  0.395044  0.000000  0.750000  1
