# generated using pymatgen
data_Tb7Ho12TmPt16
_symmetry_space_group_name_H-M   'P 1'
_cell_length_a   7.43886334
_cell_length_b   7.56588280
_cell_length_c   14.80589603
_cell_angle_alpha   90.01399968
_cell_angle_beta   90.06103987
_cell_angle_gamma   89.96437099
_symmetry_Int_Tables_number   1
_chemical_formula_structural   Tb7Ho12TmPt16
_chemical_formula_sum   'Tb7 Ho12 Tm1 Pt16'
_cell_volume   833.29838923
_cell_formula_units_Z   1
loop_
 _symmetry_equiv_pos_site_id
 _symmetry_equiv_pos_as_xyz
  1  'x, y, z'
loop_
 _atom_site_type_symbol
 _atom_site_label
 _atom_site_symmetry_multiplicity
 _atom_site_fract_x
 _atom_site_fract_y
 _atom_site_fract_z
 _atom_site_occupancy
  Tb  Tb0  1  0.981365  0.826094  0.903946  1
  Tb  Tb1  1  0.519313  0.325877  0.096000  1
  Tb  Tb2  1  0.019857  0.173073  0.403517  1
  Tb  Tb3  1  0.519713  0.327605  0.404239  1
  Tb  Tb4  1  0.018504  0.173324  0.096085  1
  Tb  Tb5  1  0.481107  0.673717  0.904217  1
  Tb  Tb6  1  0.980233  0.826019  0.595766  1
  Ho  Ho7  1  0.636919  0.169235  0.621038  1
  Ho  Ho8  1  0.137788  0.330538  0.878529  1
  Ho  Ho9  1  0.362566  0.830841  0.121604  1
  Ho  Ho10  1  0.862673  0.669392  0.378588  1
  Ho  Ho11  1  0.364177  0.830522  0.378960  1
  Ho  Ho12  1  0.862422  0.669824  0.121332  1
  Ho  Ho13  1  0.637478  0.169480  0.878546  1
  Ho  Ho14  1  0.137401  0.330818  0.620791  1
  Ho  Ho15  1  0.479741  0.673631  0.596602  1
  Ho  Ho16  1  0.799061  0.511227  0.749588  1
  Ho  Ho17  1  0.299112  0.988471  0.749696  1
  Ho  Ho18  1  0.200831  0.488298  0.250055  1
  Tm  Tm19  1  0.700941  0.011370  0.250164  1
  Pt  Pt20  1  0.696408  0.973615  0.456904  1
  Pt  Pt21  1  0.195259  0.527180  0.042455  1
  Pt  Pt22  1  0.305067  0.027169  0.957607  1
  Pt  Pt23  1  0.801710  0.474774  0.542976  1
  Pt  Pt24  1  0.304845  0.024762  0.543422  1
  Pt  Pt25  1  0.805123  0.472570  0.957533  1
  Pt  Pt26  1  0.694939  0.972654  0.042582  1
  Pt  Pt27  1  0.195728  0.528688  0.458369  1
  Pt  Pt28  1  0.431639  0.383161  0.749577  1
  Pt  Pt29  1  0.931262  0.117183  0.749769  1
  Pt  Pt30  1  0.568769  0.618129  0.250032  1
  Pt  Pt31  1  0.067464  0.883018  0.250244  1
  Pt  Pt32  1  0.661416  0.858582  0.749308  1
  Pt  Pt33  1  0.162235  0.640894  0.749471  1
  Pt  Pt34  1  0.339484  0.140397  0.250386  1
  Pt  Pt35  1  0.837449  0.357868  0.250097  1
