# generated using pymatgen
data_Na3Yb3AlP4
_symmetry_space_group_name_H-M   'P 1'
_cell_length_a   9.17002200
_cell_length_b   9.17002286
_cell_length_c   6.98153100
_cell_angle_alpha   90.00000000
_cell_angle_beta   90.00000000
_cell_angle_gamma   119.99999689
_symmetry_Int_Tables_number   1
_chemical_formula_structural   Na3Yb3AlP4
_chemical_formula_sum   'Na6 Yb6 Al2 P8'
_cell_volume   508.41939797
_cell_formula_units_Z   2
loop_
 _symmetry_equiv_pos_site_id
 _symmetry_equiv_pos_as_xyz
  1  'x, y, z'
loop_
 _atom_site_type_symbol
 _atom_site_label
 _atom_site_symmetry_multiplicity
 _atom_site_fract_x
 _atom_site_fract_y
 _atom_site_fract_z
 _atom_site_occupancy
  Na  Na0  1  0.727710  0.863855  0.170972  1
  Na  Na1  1  0.863855  0.136145  0.670972  1
  Na  Na2  1  0.863855  0.727710  0.670972  1
  Na  Na3  1  0.136145  0.272290  0.170972  1
  Na  Na4  1  0.136145  0.863855  0.170972  1
  Na  Na5  1  0.272290  0.136145  0.670972  1
  Yb  Yb6  1  0.051034  0.525518  0.499871  1
  Yb  Yb7  1  0.474482  0.948966  0.499871  1
  Yb  Yb8  1  0.474482  0.525518  0.499871  1
  Yb  Yb9  1  0.525518  0.474482  0.999871  1
  Yb  Yb10  1  0.525518  0.051034  0.999871  1
  Yb  Yb11  1  0.948966  0.474482  0.999871  1
  Al  Al12  1  0.333333  0.666667  0.877059  1
  Al  Al13  1  0.666667  0.333333  0.377059  1
  P  P14  1  0.666667  0.333333  0.726148  1
  P  P15  1  0.616544  0.808273  0.771154  1
  P  P16  1  0.808273  0.191727  0.271154  1
  P  P17  1  0.808273  0.616544  0.271154  1
  P  P18  1  0.333333  0.666667  0.226148  1
  P  P19  1  0.191727  0.383456  0.771154  1
  P  P20  1  0.191727  0.808273  0.771154  1
  P  P21  1  0.383456  0.191727  0.271154  1
