# generated using pymatgen
data_Ba6ZrMo2H27
_symmetry_space_group_name_H-M   'P 1'
_cell_length_a   9.75603000
_cell_length_b   9.75602892
_cell_length_c   5.53650300
_cell_angle_alpha   90.00000000
_cell_angle_beta   90.00000000
_cell_angle_gamma   120.00001043
_symmetry_Int_Tables_number   1
_chemical_formula_structural   Ba6ZrMo2H27
_chemical_formula_sum   'Ba6 Zr1 Mo2 H27'
_cell_volume   456.36500237
_cell_formula_units_Z   1
loop_
 _symmetry_equiv_pos_site_id
 _symmetry_equiv_pos_as_xyz
  1  'x, y, z'
loop_
 _atom_site_type_symbol
 _atom_site_label
 _atom_site_symmetry_multiplicity
 _atom_site_fract_x
 _atom_site_fract_y
 _atom_site_fract_z
 _atom_site_occupancy
  Ba  Ba0  1  0.000000  0.262357  0.500000  1
  Ba  Ba1  1  0.737643  0.737643  0.500000  1
  Ba  Ba2  1  0.262357  0.000000  0.500000  1
  Ba  Ba3  1  0.000000  0.607767  0.000000  1
  Ba  Ba4  1  0.392233  0.392233  0.000000  1
  Ba  Ba5  1  0.607767  0.000000  0.000000  1
  Zr  Zr6  1  0.000000  0.000000  0.000000  1
  Mo  Mo7  1  0.666667  0.333333  0.500000  1
  Mo  Mo8  1  0.333333  0.666667  0.500000  1
  H  H9  1  0.781172  0.312832  0.735153  1
  H  H10  1  0.687168  0.468337  0.735153  1
  H  H11  1  0.531663  0.218828  0.735153  1
  H  H12  1  0.218828  0.531663  0.264847  1
  H  H13  1  0.531663  0.218828  0.264847  1
  H  H14  1  0.781172  0.312832  0.264847  1
  H  H15  1  0.687168  0.468337  0.264847  1
  H  H16  1  0.312832  0.781172  0.735153  1
  H  H17  1  0.468337  0.687168  0.735153  1
  H  H18  1  0.213243  0.000000  0.000000  1
  H  H19  1  0.786757  0.786757  0.000000  1
  H  H20  1  0.000000  0.213243  0.000000  1
  H  H21  1  0.846595  0.000000  0.249330  1
  H  H22  1  0.153405  0.153405  0.750670  1
  H  H23  1  0.000000  0.846595  0.750670  1
  H  H24  1  0.000000  0.846595  0.249330  1
  H  H25  1  0.153405  0.153405  0.249330  1
  H  H26  1  0.846595  0.000000  0.750670  1
  H  H27  1  0.140829  0.638587  0.500000  1
  H  H28  1  0.497759  0.859171  0.500000  1
  H  H29  1  0.361413  0.502241  0.500000  1
  H  H30  1  0.502241  0.361413  0.500000  1
  H  H31  1  0.859171  0.497759  0.500000  1
  H  H32  1  0.638587  0.140829  0.500000  1
  H  H33  1  0.218828  0.531663  0.735153  1
  H  H34  1  0.312832  0.781172  0.264847  1
  H  H35  1  0.468337  0.687168  0.264847  1
