# generated using pymatgen
data_LiNdH9W
_symmetry_space_group_name_H-M   'P 1'
_cell_length_a   8.37670700
_cell_length_b   8.37670583
_cell_length_c   4.92021600
_cell_angle_alpha   90.00000000
_cell_angle_beta   90.00000000
_cell_angle_gamma   120.00000067
_symmetry_Int_Tables_number   1
_chemical_formula_structural   LiNdH9W
_chemical_formula_sum   'Li3 Nd3 H27 W3'
_cell_volume   298.99325214
_cell_formula_units_Z   3
loop_
 _symmetry_equiv_pos_site_id
 _symmetry_equiv_pos_as_xyz
  1  'x, y, z'
loop_
 _atom_site_type_symbol
 _atom_site_label
 _atom_site_symmetry_multiplicity
 _atom_site_fract_x
 _atom_site_fract_y
 _atom_site_fract_z
 _atom_site_occupancy
  Li  Li0  1  0.000000  0.248128  0.500000  1
  Li  Li1  1  0.751872  0.751872  0.500000  1
  Li  Li2  1  0.248128  0.000000  0.500000  1
  Nd  Nd3  1  0.000000  0.611897  0.000000  1
  Nd  Nd4  1  0.388103  0.388103  0.000000  1
  Nd  Nd5  1  0.611897  0.000000  0.000000  1
  H  H6  1  0.815328  0.325874  0.761699  1
  H  H7  1  0.674126  0.489452  0.761699  1
  H  H8  1  0.510548  0.184672  0.761699  1
  H  H9  1  0.184672  0.510548  0.238301  1
  H  H10  1  0.510548  0.184672  0.238301  1
  H  H11  1  0.815328  0.325874  0.238301  1
  H  H12  1  0.674126  0.489452  0.238301  1
  H  H13  1  0.325874  0.815328  0.761699  1
  H  H14  1  0.489452  0.674126  0.761699  1
  H  H15  1  0.215865  0.000000  0.000000  1
  H  H16  1  0.784135  0.784135  0.000000  1
  H  H17  1  0.000000  0.215865  0.000000  1
  H  H18  1  0.852331  0.000000  0.266758  1
  H  H19  1  0.147669  0.147669  0.733242  1
  H  H20  1  0.000000  0.852331  0.733242  1
  H  H21  1  0.000000  0.852331  0.266758  1
  H  H22  1  0.147669  0.147669  0.266758  1
  H  H23  1  0.852331  0.000000  0.733242  1
  H  H24  1  0.126801  0.673304  0.500000  1
  H  H25  1  0.546503  0.873199  0.500000  1
  H  H26  1  0.326696  0.453497  0.500000  1
  H  H27  1  0.453497  0.326696  0.500000  1
  H  H28  1  0.873199  0.546503  0.500000  1
  H  H29  1  0.673304  0.126801  0.500000  1
  H  H30  1  0.184672  0.510548  0.761699  1
  H  H31  1  0.325874  0.815328  0.238301  1
  H  H32  1  0.489452  0.674126  0.238301  1
  W  W33  1  0.666667  0.333333  0.500000  1
  W  W34  1  0.333333  0.666667  0.500000  1
  W  W35  1  0.000000  0.000000  0.000000  1
