# generated using pymatgen
data_La2CeRuI3
_symmetry_space_group_name_H-M   'P 1'
_cell_length_a   4.39092200
_cell_length_b   9.60615624
_cell_length_c   12.63261700
_cell_angle_alpha   87.31419281
_cell_angle_beta   90.00000000
_cell_angle_gamma   90.00000000
_symmetry_Int_Tables_number   1
_chemical_formula_structural   La2CeRuI3
_chemical_formula_sum   'La4 Ce2 Ru2 I6'
_cell_volume   532.25698366
_cell_formula_units_Z   2
loop_
 _symmetry_equiv_pos_site_id
 _symmetry_equiv_pos_as_xyz
  1  'x, y, z'
loop_
 _atom_site_type_symbol
 _atom_site_label
 _atom_site_symmetry_multiplicity
 _atom_site_fract_x
 _atom_site_fract_y
 _atom_site_fract_z
 _atom_site_occupancy
  La  La0  1  0.750000  0.688421  0.115694  1
  La  La1  1  0.250000  0.311579  0.884306  1
  La  La2  1  0.250000  0.888640  0.326863  1
  La  La3  1  0.750000  0.111360  0.673137  1
  Ce  Ce4  1  0.250000  0.906484  0.900536  1
  Ce  Ce5  1  0.750000  0.093516  0.099464  1
  Ru  Ru6  1  0.250000  0.895027  0.117814  1
  Ru  Ru7  1  0.750000  0.104973  0.882186  1
  I  I8  1  0.250000  0.866643  0.621920  1
  I  I9  1  0.750000  0.133357  0.378080  1
  I  I10  1  0.750000  0.637720  0.375302  1
  I  I11  1  0.250000  0.362280  0.624698  1
  I  I12  1  0.250000  0.392442  0.136314  1
  I  I13  1  0.750000  0.607558  0.863686  1
