# generated using pymatgen
data_Tb7Ho8Th(ZnCo)4
_symmetry_space_group_name_H-M   'P 1'
_cell_length_a   9.33784015
_cell_length_b   9.33784141
_cell_length_c   9.33703854
_cell_angle_alpha   60.08609868
_cell_angle_beta   60.08609569
_cell_angle_gamma   60.12107152
_symmetry_Int_Tables_number   1
_chemical_formula_structural   Tb7Ho8Th(ZnCo)4
_chemical_formula_sum   'Tb7 Ho8 Th1 Zn4 Co4'
_cell_volume   576.96287323
_cell_formula_units_Z   1
loop_
 _symmetry_equiv_pos_site_id
 _symmetry_equiv_pos_as_xyz
  1  'x, y, z'
loop_
 _atom_site_type_symbol
 _atom_site_label
 _atom_site_symmetry_multiplicity
 _atom_site_fract_x
 _atom_site_fract_y
 _atom_site_fract_z
 _atom_site_occupancy
  Tb  Tb0  1  0.810371  0.810371  0.190544  1
  Tb  Tb1  1  0.938354  0.563222  0.563255  1
  Tb  Tb2  1  0.561447  0.939530  0.939161  1
  Tb  Tb3  1  0.563222  0.938354  0.563255  1
  Tb  Tb4  1  0.939530  0.561447  0.939161  1
  Tb  Tb5  1  0.563135  0.563135  0.938218  1
  Tb  Tb6  1  0.939073  0.939073  0.561443  1
  Ho  Ho7  1  0.351027  0.351027  0.945599  1
  Ho  Ho8  1  0.350521  0.945478  0.351536  1
  Ho  Ho9  1  0.945478  0.350521  0.351536  1
  Ho  Ho10  1  0.811590  0.190599  0.188989  1
  Ho  Ho11  1  0.192130  0.810139  0.808957  1
  Ho  Ho12  1  0.190599  0.811590  0.188989  1
  Ho  Ho13  1  0.810139  0.192130  0.808957  1
  Ho  Ho14  1  0.189365  0.189365  0.811583  1
  Th  Th15  1  0.345348  0.345348  0.346477  1
  Zn  Zn16  1  0.576997  0.576997  0.578471  1
  Zn  Zn17  1  0.578090  0.578090  0.265568  1
  Zn  Zn18  1  0.578333  0.265534  0.578682  1
  Zn  Zn19  1  0.265534  0.578333  0.578682  1
  Co  Co20  1  0.142153  0.142153  0.142968  1
  Co  Co21  1  0.143096  0.143096  0.571522  1
  Co  Co22  1  0.143194  0.571272  0.143224  1
  Co  Co23  1  0.571272  0.143194  0.143224  1
