# generated using pymatgen
data_PrNd4Si2Pb
_symmetry_space_group_name_H-M   'P 1'
_cell_length_a   7.95092131
_cell_length_b   7.95092285
_cell_length_c   9.25317860
_cell_angle_alpha   115.32539843
_cell_angle_beta   115.32539557
_cell_angle_gamma   90.24983838
_symmetry_Int_Tables_number   1
_chemical_formula_structural   PrNd4Si2Pb
_chemical_formula_sum   'Pr2 Nd8 Si4 Pb2'
_cell_volume   465.19209881
_cell_formula_units_Z   2
loop_
 _symmetry_equiv_pos_site_id
 _symmetry_equiv_pos_as_xyz
  1  'x, y, z'
loop_
 _atom_site_type_symbol
 _atom_site_label
 _atom_site_symmetry_multiplicity
 _atom_site_fract_x
 _atom_site_fract_y
 _atom_site_fract_z
 _atom_site_occupancy
  Pr  Pr0  1  0.186769  0.686769  0.722846  1
  Pr  Pr1  1  0.536077  0.036077  0.722846  1
  Nd  Nd2  1  0.500275  0.500275  0.000550  1
  Nd  Nd3  1  0.000275  0.000275  0.000550  1
  Nd  Nd4  1  0.962914  0.812052  0.274966  1
  Nd  Nd5  1  0.312052  0.462914  0.274966  1
  Nd  Nd6  1  0.811992  0.311992  0.275382  1
  Nd  Nd7  1  0.463390  0.963390  0.275382  1
  Nd  Nd8  1  0.036559  0.188459  0.725018  1
  Nd  Nd9  1  0.688459  0.536559  0.725018  1
  Si  Si10  1  0.619555  0.882121  0.001676  1
  Si  Si11  1  0.382121  0.119555  0.001676  1
  Si  Si12  1  0.882841  0.382841  0.000812  1
  Si  Si13  1  0.117971  0.617971  0.000812  1
  Pb  Pb14  1  0.749374  0.749374  0.498749  1
  Pb  Pb15  1  0.249374  0.249374  0.498749  1
