# generated using pymatgen
data_Y4Ho8Co4CuBi
_symmetry_space_group_name_H-M   'P 1'
_cell_length_a   8.33631096
_cell_length_b   8.33628348
_cell_length_c   8.33631204
_cell_angle_alpha   111.15846688
_cell_angle_beta   109.90830588
_cell_angle_gamma   107.36979473
_symmetry_Int_Tables_number   1
_chemical_formula_structural   Y4Ho8Co4CuBi
_chemical_formula_sum   'Y4 Ho8 Co4 Cu1 Bi1'
_cell_volume   445.45882852
_cell_formula_units_Z   1
loop_
 _symmetry_equiv_pos_site_id
 _symmetry_equiv_pos_as_xyz
  1  'x, y, z'
loop_
 _atom_site_type_symbol
 _atom_site_label
 _atom_site_symmetry_multiplicity
 _atom_site_fract_x
 _atom_site_fract_y
 _atom_site_fract_z
 _atom_site_occupancy
  Y  Y0  1  0.815635  0.710716  0.526353  1
  Y  Y1  1  0.184365  0.289284  0.473647  1
  Y  Y2  1  0.184363  0.710716  0.895080  1
  Y  Y3  1  0.815637  0.289284  0.104920  1
  Ho  Ho4  1  0.687019  0.377793  0.690775  1
  Ho  Ho5  1  0.312981  0.622207  0.309225  1
  Ho  Ho6  1  0.687017  0.996243  0.309226  1
  Ho  Ho7  1  0.312983  0.003757  0.690774  1
  Ho  Ho8  1  0.588468  0.789552  0.798917  1
  Ho  Ho9  1  0.411532  0.210448  0.201083  1
  Ho  Ho10  1  0.990635  0.789552  0.201085  1
  Ho  Ho11  1  0.009365  0.210448  0.798915  1
  Co  Co12  1  0.622722  0.000000  0.622722  1
  Co  Co13  1  0.377278  0.000000  0.377278  1
  Co  Co14  1  0.112760  0.612758  0.499997  1
  Co  Co15  1  0.887240  0.387242  0.500003  1
  Cu  Cu16  1  0.000000  0.000000  0.000000  1
  Bi  Bi17  1  0.500000  0.500000  0.000000  1
