# generated using pymatgen
data_Pa2CdRh2
_symmetry_space_group_name_H-M   'P 1'
_cell_length_a   7.70856000
_cell_length_b   7.70856000
_cell_length_c   3.59247000
_cell_angle_alpha   90.00000000
_cell_angle_beta   90.00000000
_cell_angle_gamma   90.00000000
_symmetry_Int_Tables_number   1
_chemical_formula_structural   Pa2CdRh2
_chemical_formula_sum   'Pa4 Cd2 Rh4'
_cell_volume   213.47138330
_cell_formula_units_Z   2
loop_
 _symmetry_equiv_pos_site_id
 _symmetry_equiv_pos_as_xyz
  1  'x, y, z'
loop_
 _atom_site_type_symbol
 _atom_site_label
 _atom_site_symmetry_multiplicity
 _atom_site_fract_x
 _atom_site_fract_y
 _atom_site_fract_z
 _atom_site_occupancy
  Pa  Pa0  1  0.833142  0.666858  0.500000  1
  Pa  Pa1  1  0.333142  0.833142  0.500000  1
  Pa  Pa2  1  0.666858  0.166858  0.500000  1
  Pa  Pa3  1  0.166858  0.333142  0.500000  1
  Cd  Cd4  1  0.000000  0.000000  0.000000  1
  Cd  Cd5  1  0.500000  0.500000  0.000000  1
  Rh  Rh6  1  0.864436  0.364436  0.000000  1
  Rh  Rh7  1  0.364436  0.135564  0.000000  1
  Rh  Rh8  1  0.635564  0.864436  0.000000  1
  Rh  Rh9  1  0.135564  0.635564  0.000000  1
