# generated using pymatgen
data_Er4Si3IrRh3
_symmetry_space_group_name_H-M   'P 1'
_cell_length_a   10.65936282
_cell_length_b   10.65936181
_cell_length_c   7.67584556
_cell_angle_alpha   71.56389251
_cell_angle_beta   71.56389359
_cell_angle_gamma   29.83094006
_symmetry_Int_Tables_number   1
_chemical_formula_structural   Er4Si3IrRh3
_chemical_formula_sum   'Er8 Si6 Ir2 Rh6'
_cell_volume   409.95007227
_cell_formula_units_Z   2
loop_
 _symmetry_equiv_pos_site_id
 _symmetry_equiv_pos_as_xyz
  1  'x, y, z'
loop_
 _atom_site_type_symbol
 _atom_site_label
 _atom_site_symmetry_multiplicity
 _atom_site_fract_x
 _atom_site_fract_y
 _atom_site_fract_z
 _atom_site_occupancy
  Er  Er0  1  0.211541  0.447782  0.400094  1
  Er  Er1  1  0.552675  0.788983  0.099755  1
  Er  Er2  1  0.447782  0.211541  0.900094  1
  Er  Er3  1  0.928837  0.208667  0.330401  1
  Er  Er4  1  0.788759  0.073643  0.168656  1
  Er  Er5  1  0.073643  0.788759  0.668656  1
  Er  Er6  1  0.208667  0.928837  0.830401  1
  Er  Er7  1  0.788983  0.552675  0.599755  1
  Si  Si8  1  0.613607  0.384696  0.750409  1
  Si  Si9  1  0.384696  0.613607  0.250409  1
  Si  Si10  1  0.295706  0.047811  0.445369  1
  Si  Si11  1  0.953834  0.703417  0.055386  1
  Si  Si12  1  0.703417  0.953834  0.555386  1
  Si  Si13  1  0.047811  0.295706  0.945369  1
  Ir  Ir14  1  0.287538  0.588369  0.023627  1
  Ir  Ir15  1  0.588369  0.287538  0.523627  1
  Rh  Rh16  1  0.709574  0.414725  0.974701  1
  Rh  Rh17  1  0.067675  0.374214  0.193383  1
  Rh  Rh18  1  0.629054  0.928894  0.308219  1
  Rh  Rh19  1  0.414725  0.709574  0.474701  1
  Rh  Rh20  1  0.928894  0.629054  0.808219  1
  Rh  Rh21  1  0.374214  0.067675  0.693383  1
