# generated using pymatgen
data_Pr3Th(Ga3Ir)6
_symmetry_space_group_name_H-M   'P 1'
_cell_length_a   7.68883203
_cell_length_b   7.67894931
_cell_length_c   9.59794700
_cell_angle_alpha   90.00000000
_cell_angle_beta   90.00000000
_cell_angle_gamma   119.52404088
_symmetry_Int_Tables_number   1
_chemical_formula_structural   Pr3Th(Ga3Ir)6
_chemical_formula_sum   'Pr3 Th1 Ga18 Ir6'
_cell_volume   493.09902944
_cell_formula_units_Z   1
loop_
 _symmetry_equiv_pos_site_id
 _symmetry_equiv_pos_as_xyz
  1  'x, y, z'
loop_
 _atom_site_type_symbol
 _atom_site_label
 _atom_site_symmetry_multiplicity
 _atom_site_fract_x
 _atom_site_fract_y
 _atom_site_fract_z
 _atom_site_occupancy
  Pr  Pr0  1  0.002360  0.329836  0.750000  1
  Pr  Pr1  1  0.671182  0.996656  0.250000  1
  Pr  Pr2  1  0.329922  0.002481  0.750000  1
  Th  Th3  1  0.997167  0.670776  0.250000  1
  Ga  Ga4  1  0.131831  0.132067  0.250000  1
  Ga  Ga5  1  0.870759  0.871784  0.750000  1
  Ga  Ga6  1  0.001890  0.332658  0.078741  1
  Ga  Ga7  1  0.997985  0.664578  0.918651  1
  Ga  Ga8  1  0.997985  0.664578  0.581349  1
  Ga  Ga9  1  0.338685  0.004564  0.421213  1
  Ga  Ga10  1  0.001890  0.332658  0.421259  1
  Ga  Ga11  1  0.664882  0.998652  0.578893  1
  Ga  Ga12  1  0.664882  0.998652  0.921107  1
  Ga  Ga13  1  0.338685  0.004564  0.078787  1
  Ga  Ga14  1  0.332306  0.332201  0.558778  1
  Ga  Ga15  1  0.664006  0.666601  0.443081  1
  Ga  Ga16  1  0.664006  0.666601  0.056919  1
  Ga  Ga17  1  0.332306  0.332201  0.941222  1
  Ga  Ga18  1  0.342103  0.546160  0.250000  1
  Ga  Ga19  1  0.658324  0.453462  0.750000  1
  Ga  Ga20  1  0.544896  0.340906  0.250000  1
  Ga  Ga21  1  0.453040  0.659613  0.750000  1
  Ir  Ir22  1  0.672885  0.331760  0.001735  1
  Ir  Ir23  1  0.326840  0.670269  0.001708  1
  Ir  Ir24  1  0.326840  0.670269  0.498292  1
  Ir  Ir25  1  0.672885  0.331760  0.498265  1
  Ir  Ir26  1  0.999731  0.996847  0.002342  1
  Ir  Ir27  1  0.999731  0.996847  0.497658  1
