# generated using pymatgen
data_SmY3Co4HgBr
_symmetry_space_group_name_H-M   'P 1'
_cell_length_a   3.90922400
_cell_length_b   3.90922411
_cell_length_c   16.47693500
_cell_angle_alpha   90.00000000
_cell_angle_beta   90.00000000
_cell_angle_gamma   119.99998213
_symmetry_Int_Tables_number   1
_chemical_formula_structural   SmY3Co4HgBr
_chemical_formula_sum   'Sm1 Y3 Co4 Hg1 Br1'
_cell_volume   218.06615377
_cell_formula_units_Z   1
loop_
 _symmetry_equiv_pos_site_id
 _symmetry_equiv_pos_as_xyz
  1  'x, y, z'
loop_
 _atom_site_type_symbol
 _atom_site_label
 _atom_site_symmetry_multiplicity
 _atom_site_fract_x
 _atom_site_fract_y
 _atom_site_fract_z
 _atom_site_occupancy
  Sm  Sm0  1  0.000000  0.000000  0.891682  1
  Y  Y1  1  0.000000  0.000000  0.114450  1
  Y  Y2  1  0.000000  0.000000  0.606372  1
  Y  Y3  1  0.000000  0.000000  0.387376  1
  Co  Co4  1  0.666667  0.333333  0.000948  1
  Co  Co5  1  0.333333  0.666667  0.001549  1
  Co  Co6  1  0.666667  0.333333  0.501098  1
  Co  Co7  1  0.333333  0.666667  0.499627  1
  Hg  Hg8  1  0.666667  0.333333  0.250767  1
  Br  Br9  1  0.333333  0.666667  0.746131  1
