# generated using pymatgen
data_K6GaTe4Cl
_symmetry_space_group_name_H-M   'P 1'
_cell_length_a   11.32483600
_cell_length_b   11.32483542
_cell_length_c   8.08226300
_cell_angle_alpha   90.00000000
_cell_angle_beta   90.00000000
_cell_angle_gamma   120.00000169
_symmetry_Int_Tables_number   1
_chemical_formula_structural   K6GaTe4Cl
_chemical_formula_sum   'K12 Ga2 Te8 Cl2'
_cell_volume   897.69214189
_cell_formula_units_Z   2
loop_
 _symmetry_equiv_pos_site_id
 _symmetry_equiv_pos_as_xyz
  1  'x, y, z'
loop_
 _atom_site_type_symbol
 _atom_site_label
 _atom_site_symmetry_multiplicity
 _atom_site_fract_x
 _atom_site_fract_y
 _atom_site_fract_z
 _atom_site_occupancy
  K  K0  1  0.125687  0.874313  0.518310  1
  K  K1  1  0.748625  0.874313  0.518310  1
  K  K2  1  0.959269  0.479635  0.318592  1
  K  K3  1  0.520365  0.479635  0.318592  1
  K  K4  1  0.874313  0.748625  0.018310  1
  K  K5  1  0.251375  0.125687  0.018310  1
  K  K6  1  0.520365  0.040731  0.318592  1
  K  K7  1  0.125687  0.251375  0.518310  1
  K  K8  1  0.874313  0.125687  0.018310  1
  K  K9  1  0.040731  0.520365  0.818592  1
  K  K10  1  0.479635  0.959269  0.818592  1
  K  K11  1  0.479635  0.520365  0.818592  1
  Ga  Ga12  1  0.666667  0.333333  0.706745  1
  Ga  Ga13  1  0.333333  0.666667  0.206745  1
  Te  Te14  1  0.408175  0.204088  0.602966  1
  Te  Te15  1  0.591825  0.795912  0.102966  1
  Te  Te16  1  0.666667  0.333333  0.038336  1
  Te  Te17  1  0.795912  0.591825  0.602966  1
  Te  Te18  1  0.204088  0.408175  0.102966  1
  Te  Te19  1  0.333333  0.666667  0.538336  1
  Te  Te20  1  0.204088  0.795912  0.102966  1
  Te  Te21  1  0.795912  0.204088  0.602966  1
  Cl  Cl22  1  0.000000  0.000000  0.275917  1
  Cl  Cl23  1  0.000000  0.000000  0.775917  1
