# generated using pymatgen
data_NdPaNiSb4
_symmetry_space_group_name_H-M   'P 1'
_cell_length_a   4.41712700
_cell_length_b   4.36828900
_cell_length_c   9.30103600
_cell_angle_alpha   90.00000000
_cell_angle_beta   90.00000000
_cell_angle_gamma   90.00000000
_symmetry_Int_Tables_number   1
_chemical_formula_structural   NdPaNiSb4
_chemical_formula_sum   'Nd1 Pa1 Ni1 Sb4'
_cell_volume   179.46616167
_cell_formula_units_Z   1
loop_
 _symmetry_equiv_pos_site_id
 _symmetry_equiv_pos_as_xyz
  1  'x, y, z'
loop_
 _atom_site_type_symbol
 _atom_site_label
 _atom_site_symmetry_multiplicity
 _atom_site_fract_x
 _atom_site_fract_y
 _atom_site_fract_z
 _atom_site_occupancy
  Nd  Nd0  1  0.500000  0.000000  0.233626  1
  Pa  Pa1  1  0.000000  0.500000  0.775564  1
  Ni  Ni2  1  0.000000  0.000000  0.984469  1
  Sb  Sb3  1  0.000000  0.000000  0.511336  1
  Sb  Sb4  1  0.500000  0.500000  0.512467  1
  Sb  Sb5  1  0.500000  0.000000  0.851992  1
  Sb  Sb6  1  0.000000  0.500000  0.130546  1
