# generated using pymatgen
data_Yb6Co13SiC4
_symmetry_space_group_name_H-M   'P 1'
_cell_length_a   5.10017000
_cell_length_b   5.10016896
_cell_length_c   13.37517800
_cell_angle_alpha   90.00000000
_cell_angle_beta   90.00000000
_cell_angle_gamma   120.00001975
_symmetry_Int_Tables_number   1
_chemical_formula_structural   Yb6Co13SiC4
_chemical_formula_sum   'Yb6 Co13 Si1 C4'
_cell_volume   301.30013858
_cell_formula_units_Z   1
loop_
 _symmetry_equiv_pos_site_id
 _symmetry_equiv_pos_as_xyz
  1  'x, y, z'
loop_
 _atom_site_type_symbol
 _atom_site_label
 _atom_site_symmetry_multiplicity
 _atom_site_fract_x
 _atom_site_fract_y
 _atom_site_fract_z
 _atom_site_occupancy
  Yb  Yb0  1  0.666667  0.333333  0.534989  1
  Yb  Yb1  1  0.333333  0.666667  0.465011  1
  Yb  Yb2  1  0.333333  0.666667  0.037731  1
  Yb  Yb3  1  0.666667  0.333333  0.750157  1
  Yb  Yb4  1  0.666667  0.333333  0.962269  1
  Yb  Yb5  1  0.333333  0.666667  0.249843  1
  Co  Co6  1  0.166697  0.333394  0.655297  1
  Co  Co7  1  0.333394  0.166697  0.344703  1
  Co  Co8  1  0.329711  0.164856  0.152216  1
  Co  Co9  1  0.164856  0.835144  0.847784  1
  Co  Co10  1  0.833303  0.666606  0.344703  1
  Co  Co11  1  0.835144  0.164856  0.152216  1
  Co  Co12  1  0.666606  0.833303  0.655297  1
  Co  Co13  1  0.670289  0.835144  0.847784  1
  Co  Co14  1  0.166697  0.833303  0.655297  1
  Co  Co15  1  0.835144  0.670289  0.152216  1
  Co  Co16  1  0.164856  0.329711  0.847784  1
  Co  Co17  1  0.833303  0.166697  0.344703  1
  Co  Co18  1  0.000000  0.000000  0.500000  1
  Si  Si19  1  0.000000  0.000000  0.000000  1
  C  C20  1  0.666667  0.333333  0.245602  1
  C  C21  1  0.000000  0.000000  0.750914  1
  C  C22  1  0.333333  0.666667  0.754398  1
  C  C23  1  0.000000  0.000000  0.249086  1
