# generated using pymatgen
data_NaNb6CuS12
_symmetry_space_group_name_H-M   'P 1'
_cell_length_a   5.85327000
_cell_length_b   5.85326955
_cell_length_c   13.52356700
_cell_angle_alpha   90.00000000
_cell_angle_beta   90.00000000
_cell_angle_gamma   120.00000252
_symmetry_Int_Tables_number   1
_chemical_formula_structural   NaNb6CuS12
_chemical_formula_sum   'Na1 Nb6 Cu1 S12'
_cell_volume   401.25361678
_cell_formula_units_Z   1
loop_
 _symmetry_equiv_pos_site_id
 _symmetry_equiv_pos_as_xyz
  1  'x, y, z'
loop_
 _atom_site_type_symbol
 _atom_site_label
 _atom_site_symmetry_multiplicity
 _atom_site_fract_x
 _atom_site_fract_y
 _atom_site_fract_z
 _atom_site_occupancy
  Na  Na0  1  0.666667  0.333333  0.750000  1
  Nb  Nb1  1  0.333333  0.666667  0.022776  1
  Nb  Nb2  1  0.666667  0.333333  0.475356  1
  Nb  Nb3  1  0.333333  0.666667  0.477224  1
  Nb  Nb4  1  0.000000  0.000000  0.023898  1
  Nb  Nb5  1  0.666667  0.333333  0.024644  1
  Nb  Nb6  1  0.000000  0.000000  0.476102  1
  Cu  Cu7  1  0.333333  0.666667  0.250000  1
  S  S8  1  0.998067  0.667038  0.138168  1
  S  S9  1  0.666855  0.667397  0.591993  1
  S  S10  1  0.998067  0.331029  0.361832  1
  S  S11  1  0.332962  0.331029  0.138168  1
  S  S12  1  0.332603  0.999458  0.591993  1
  S  S13  1  0.332603  0.333145  0.908007  1
  S  S14  1  0.668971  0.667038  0.361832  1
  S  S15  1  0.000542  0.667397  0.908007  1
  S  S16  1  0.666855  0.999458  0.908007  1
  S  S17  1  0.332962  0.001933  0.361832  1
  S  S18  1  0.668971  0.001933  0.138168  1
  S  S19  1  0.000542  0.333145  0.591993  1
