# generated using pymatgen
data_Ba6TbDy(BO3)6
_symmetry_space_group_name_H-M   'P 1'
_cell_length_a   8.24102507
_cell_length_b   8.24102593
_cell_length_c   8.24102523
_cell_angle_alpha   105.60852731
_cell_angle_beta   105.60853639
_cell_angle_gamma   105.60852972
_symmetry_Int_Tables_number   1
_chemical_formula_structural   Ba6TbDy(BO3)6
_chemical_formula_sum   'Ba6 Tb1 Dy1 B6 O18'
_cell_volume   482.71251905
_cell_formula_units_Z   1
loop_
 _symmetry_equiv_pos_site_id
 _symmetry_equiv_pos_as_xyz
  1  'x, y, z'
loop_
 _atom_site_type_symbol
 _atom_site_label
 _atom_site_symmetry_multiplicity
 _atom_site_fract_x
 _atom_site_fract_y
 _atom_site_fract_z
 _atom_site_occupancy
  Ba  Ba0  1  0.348747  0.734776  0.840901  1
  Ba  Ba1  1  0.840901  0.348747  0.734776  1
  Ba  Ba2  1  0.734776  0.840901  0.348747  1
  Ba  Ba3  1  0.651253  0.265224  0.159099  1
  Ba  Ba4  1  0.159099  0.651253  0.265224  1
  Ba  Ba5  1  0.265224  0.159099  0.651253  1
  Tb  Tb6  1  0.000000  0.000000  0.000000  1
  Dy  Dy7  1  0.500000  0.500000  0.500000  1
  B  B8  1  0.710483  0.623884  0.956538  1
  B  B9  1  0.956538  0.710483  0.623884  1
  B  B10  1  0.623884  0.956538  0.710483  1
  B  B11  1  0.043462  0.289517  0.376116  1
  B  B12  1  0.376116  0.043462  0.289517  1
  B  B13  1  0.289517  0.376116  0.043462  1
  O  O14  1  0.064365  0.805153  0.552046  1
  O  O15  1  0.552046  0.064365  0.805153  1
  O  O16  1  0.426082  0.490446  0.211987  1
  O  O17  1  0.490446  0.211987  0.426082  1
  O  O18  1  0.211987  0.426082  0.490446  1
  O  O19  1  0.788013  0.573918  0.509554  1
  O  O20  1  0.573918  0.509554  0.788013  1
  O  O21  1  0.509554  0.788013  0.573918  1
  O  O22  1  0.256743  0.190396  0.985025  1
  O  O23  1  0.190396  0.985025  0.256743  1
  O  O24  1  0.985025  0.256743  0.190396  1
  O  O25  1  0.743257  0.809604  0.014975  1
  O  O26  1  0.809604  0.014975  0.743257  1
  O  O27  1  0.014975  0.743257  0.809604  1
  O  O28  1  0.194847  0.447954  0.935635  1
  O  O29  1  0.447954  0.935635  0.194847  1
  O  O30  1  0.935635  0.194847  0.447954  1
  O  O31  1  0.805153  0.552046  0.064365  1
