# generated using pymatgen
data_ZrScCo4As3
_symmetry_space_group_name_H-M   'P 1'
_cell_length_a   12.53251119
_cell_length_b   12.53633028
_cell_length_c   3.76108300
_cell_angle_alpha   90.00000000
_cell_angle_beta   90.00000000
_cell_angle_gamma   120.01008529
_symmetry_Int_Tables_number   1
_chemical_formula_structural   ZrScCo4As3
_chemical_formula_sum   'Zr4 Sc4 Co16 As12'
_cell_volume   511.69118039
_cell_formula_units_Z   4
loop_
 _symmetry_equiv_pos_site_id
 _symmetry_equiv_pos_as_xyz
  1  'x, y, z'
loop_
 _atom_site_type_symbol
 _atom_site_label
 _atom_site_symmetry_multiplicity
 _atom_site_fract_x
 _atom_site_fract_y
 _atom_site_fract_z
 _atom_site_occupancy
  Zr  Zr0  1  0.820823  0.820382  0.500000  1
  Zr  Zr1  1  0.000000  0.176871  0.500000  1
  Zr  Zr2  1  0.000000  0.557226  0.000000  1
  Zr  Zr3  1  0.179177  0.999559  0.500000  1
  Sc  Sc4  1  0.441717  0.441556  0.000000  1
  Sc  Sc5  1  0.558283  0.999839  0.000000  1
  Sc  Sc6  1  0.333958  0.666197  0.000000  1
  Sc  Sc7  1  0.666042  0.332238  0.000000  1
  Co  Co8  1  0.628731  0.824051  0.000000  1
  Co  Co9  1  0.371269  0.195321  0.000000  1
  Co  Co10  1  0.000000  0.719224  0.500000  1
  Co  Co11  1  0.281050  0.281828  0.500000  1
  Co  Co12  1  0.876064  0.353243  0.500000  1
  Co  Co13  1  0.718950  0.000779  0.500000  1
  Co  Co14  1  0.824264  0.629879  0.000000  1
  Co  Co15  1  0.175736  0.805614  0.000000  1
  Co  Co16  1  0.354274  0.876745  0.500000  1
  Co  Co17  1  0.123936  0.477179  0.500000  1
  Co  Co18  1  0.645726  0.522472  0.500000  1
  Co  Co19  1  0.000000  0.001002  0.000000  1
  Co  Co20  1  0.523183  0.647340  0.500000  1
  Co  Co21  1  0.476817  0.124157  0.500000  1
  Co  Co22  1  0.196189  0.371969  0.000000  1
  Co  Co23  1  0.803811  0.175781  0.000000  1
  As  As24  1  0.000000  0.345189  0.000000  1
  As  As25  1  0.823560  0.512906  0.500000  1
  As  As26  1  0.686522  0.173453  0.500000  1
  As  As27  1  0.175845  0.175356  0.000000  1
  As  As28  1  0.649942  0.650696  0.000000  1
  As  As29  1  0.824155  0.999511  0.000000  1
  As  As30  1  0.514115  0.826728  0.500000  1
  As  As31  1  0.176440  0.689344  0.500000  1
  As  As32  1  0.350058  0.000755  0.000000  1
  As  As33  1  0.485885  0.312614  0.500000  1
  As  As34  1  0.000000  0.826068  0.000000  1
  As  As35  1  0.313478  0.486930  0.500000  1
