# generated using pymatgen
data_Li6Ta5AlRh12
_symmetry_space_group_name_H-M   'P 1'
_cell_length_a   4.35047301
_cell_length_b   6.06353802
_cell_length_c   12.95138200
_cell_angle_alpha   89.99954314
_cell_angle_beta   89.99899962
_cell_angle_gamma   89.99105271
_symmetry_Int_Tables_number   1
_chemical_formula_structural   Li6Ta5AlRh12
_chemical_formula_sum   'Li6 Ta5 Al1 Rh12'
_cell_volume   341.64784970
_cell_formula_units_Z   1
loop_
 _symmetry_equiv_pos_site_id
 _symmetry_equiv_pos_as_xyz
  1  'x, y, z'
loop_
 _atom_site_type_symbol
 _atom_site_label
 _atom_site_symmetry_multiplicity
 _atom_site_fract_x
 _atom_site_fract_y
 _atom_site_fract_z
 _atom_site_occupancy
  Li  Li0  1  0.999960  0.500009  0.998282  1
  Li  Li1  1  0.499746  0.999997  0.162986  1
  Li  Li2  1  0.999866  0.500004  0.333359  1
  Li  Li3  1  0.500008  0.999998  0.503716  1
  Li  Li4  1  0.000263  0.500007  0.668375  1
  Li  Li5  1  0.500127  0.999992  0.833320  1
  Ta  Ta6  1  0.000009  0.999999  0.994430  1
  Ta  Ta7  1  0.499795  0.500002  0.163928  1
  Ta  Ta8  1  0.999766  0.999997  0.333325  1
  Ta  Ta9  1  0.500014  0.500006  0.502713  1
  Ta  Ta10  1  0.000213  0.000001  0.672262  1
  Al  Al11  1  0.500197  0.500011  0.833318  1
  Rh  Rh12  1  0.500029  0.253095  0.996886  1
  Rh  Rh13  1  0.499980  0.746909  0.996886  1
  Rh  Rh14  1  0.999776  0.250027  0.165423  1
  Rh  Rh15  1  0.999804  0.749971  0.165425  1
  Rh  Rh16  1  0.499795  0.249285  0.333306  1
  Rh  Rh17  1  0.499777  0.750715  0.333306  1
  Rh  Rh18  1  0.999999  0.250035  0.501240  1
  Rh  Rh19  1  0.000021  0.749960  0.501232  1
  Rh  Rh20  1  0.500249  0.253084  0.669790  1
  Rh  Rh21  1  0.500213  0.746923  0.669788  1
  Rh  Rh22  1  0.000211  0.256100  0.833351  1
  Rh  Rh23  1  0.000185  0.743881  0.833353  1
