# generated using pymatgen
data_Hf16CrFe(NiRh)3
_symmetry_space_group_name_H-M   'P 1'
_cell_length_a   8.63589385
_cell_length_b   8.57867630
_cell_length_c   8.57867700
_cell_angle_alpha   60.00000117
_cell_angle_beta   60.21893163
_cell_angle_gamma   60.21892981
_symmetry_Int_Tables_number   1
_chemical_formula_structural   Hf16CrFe(NiRh)3
_chemical_formula_sum   'Hf16 Cr1 Fe1 Ni3 Rh3'
_cell_volume   450.88121342
_cell_formula_units_Z   1
loop_
 _symmetry_equiv_pos_site_id
 _symmetry_equiv_pos_as_xyz
  1  'x, y, z'
loop_
 _atom_site_type_symbol
 _atom_site_label
 _atom_site_symmetry_multiplicity
 _atom_site_fract_x
 _atom_site_fract_y
 _atom_site_fract_z
 _atom_site_occupancy
  Hf  Hf0  1  0.655580  0.114806  0.114806  1
  Hf  Hf1  1  0.107995  0.683017  0.104493  1
  Hf  Hf2  1  0.107995  0.104493  0.683017  1
  Hf  Hf3  1  0.107995  0.104493  0.104493  1
  Hf  Hf4  1  0.318194  0.311424  0.685191  1
  Hf  Hf5  1  0.697691  0.675129  0.313591  1
  Hf  Hf6  1  0.318194  0.685191  0.311424  1
  Hf  Hf7  1  0.697691  0.313591  0.675129  1
  Hf  Hf8  1  0.697691  0.313591  0.313591  1
  Hf  Hf9  1  0.318194  0.685191  0.685191  1
  Hf  Hf10  1  0.949360  0.951514  0.549564  1
  Hf  Hf11  1  0.553751  0.560882  0.942684  1
  Hf  Hf12  1  0.949360  0.549564  0.951514  1
  Hf  Hf13  1  0.553751  0.942684  0.560882  1
  Hf  Hf14  1  0.553751  0.942684  0.942684  1
  Hf  Hf15  1  0.949360  0.549564  0.549564  1
  Cr  Cr16  1  0.996906  0.334365  0.334365  1
  Fe  Fe17  1  0.323616  0.892129  0.892129  1
  Ni  Ni18  1  0.887439  0.314404  0.899079  1
  Ni  Ni19  1  0.887439  0.899079  0.314404  1
  Ni  Ni20  1  0.887439  0.899079  0.899079  1
  Rh  Rh21  1  0.326869  0.995329  0.338901  1
  Rh  Rh22  1  0.326869  0.338901  0.995329  1
  Rh  Rh23  1  0.326869  0.338901  0.338901  1
