# generated using pymatgen
data_La8PdRh5
_symmetry_space_group_name_H-M   'P 1'
_cell_length_a   7.85026261
_cell_length_b   7.85026290
_cell_length_c   7.85026269
_cell_angle_alpha   109.22020066
_cell_angle_beta   109.97443466
_cell_angle_gamma   109.22020389
_symmetry_Int_Tables_number   1
_chemical_formula_structural   La8PdRh5
_chemical_formula_sum   'La8 Pd1 Rh5'
_cell_volume   372.39644065
_cell_formula_units_Z   1
loop_
 _symmetry_equiv_pos_site_id
 _symmetry_equiv_pos_as_xyz
  1  'x, y, z'
loop_
 _atom_site_type_symbol
 _atom_site_label
 _atom_site_symmetry_multiplicity
 _atom_site_fract_x
 _atom_site_fract_y
 _atom_site_fract_z
 _atom_site_occupancy
  La  La0  1  0.113792  0.504302  0.996314  1
  La  La1  1  0.497851  0.998487  0.606538  1
  La  La2  1  0.393462  0.391313  0.391949  1
  La  La3  1  0.000636  0.108687  0.502149  1
  La  La4  1  0.890510  0.882521  0.886208  1
  La  La5  1  0.003686  0.617479  0.507988  1
  La  La6  1  0.608051  0.501513  0.999364  1
  La  La7  1  0.492012  0.995698  0.109490  1
  Pd  Pd8  1  0.875000  0.250000  0.125000  1
  Rh  Rh9  1  0.124185  0.873651  0.248529  1
  Rh  Rh10  1  0.374878  0.626349  0.750534  1
  Rh  Rh11  1  0.249466  0.124344  0.875815  1
  Rh  Rh12  1  0.751471  0.375656  0.625122  1
  Rh  Rh13  1  0.625000  0.750000  0.375000  1
