# generated using pymatgen
data_Tb2Ho3AsPb3
_symmetry_space_group_name_H-M   'P 1'
_cell_length_a   9.18108200
_cell_length_b   9.18108105
_cell_length_c   6.80492700
_cell_angle_alpha   90.00000000
_cell_angle_beta   90.00000000
_cell_angle_gamma   119.97992934
_symmetry_Int_Tables_number   1
_chemical_formula_structural   Tb2Ho3AsPb3
_chemical_formula_sum   'Tb4 Ho6 As2 Pb6'
_cell_volume   496.85491300
_cell_formula_units_Z   2
loop_
 _symmetry_equiv_pos_site_id
 _symmetry_equiv_pos_as_xyz
  1  'x, y, z'
loop_
 _atom_site_type_symbol
 _atom_site_label
 _atom_site_symmetry_multiplicity
 _atom_site_fract_x
 _atom_site_fract_y
 _atom_site_fract_z
 _atom_site_occupancy
  Tb  Tb0  1  0.753640  0.753640  0.750000  1
  Tb  Tb1  1  0.245855  0.999883  0.750000  1
  Tb  Tb2  1  0.999883  0.245855  0.750000  1
  Tb  Tb3  1  0.246281  0.246281  0.250000  1
  Ho  Ho4  1  0.754738  0.999967  0.250000  1
  Ho  Ho5  1  0.999967  0.754738  0.250000  1
  Ho  Ho6  1  0.666913  0.333398  0.000120  1
  Ho  Ho7  1  0.333398  0.666913  0.000120  1
  Ho  Ho8  1  0.333398  0.666913  0.499880  1
  Ho  Ho9  1  0.666913  0.333398  0.499880  1
  As  As10  1  0.999347  0.999347  0.001110  1
  As  As11  1  0.999347  0.999347  0.498890  1
  Pb  Pb12  1  0.398692  0.398692  0.750000  1
  Pb  Pb13  1  0.601027  0.000024  0.750000  1
  Pb  Pb14  1  0.000024  0.601027  0.750000  1
  Pb  Pb15  1  0.602303  0.602303  0.250000  1
  Pb  Pb16  1  0.398790  0.999487  0.250000  1
  Pb  Pb17  1  0.999487  0.398790  0.250000  1
