# generated using pymatgen
data_CsNpF7
_symmetry_space_group_name_H-M   'P 1'
_cell_length_a   11.35789700
_cell_length_b   11.35789700
_cell_length_c   11.35789700
_cell_angle_alpha   90.00000000
_cell_angle_beta   90.00000000
_cell_angle_gamma   90.00000000
_symmetry_Int_Tables_number   1
_chemical_formula_structural   CsNpF7
_chemical_formula_sum   'Cs8 Np8 F56'
_cell_volume   1465.18943279
_cell_formula_units_Z   8
loop_
 _symmetry_equiv_pos_site_id
 _symmetry_equiv_pos_as_xyz
  1  'x, y, z'
loop_
 _atom_site_type_symbol
 _atom_site_label
 _atom_site_symmetry_multiplicity
 _atom_site_fract_x
 _atom_site_fract_y
 _atom_site_fract_z
 _atom_site_occupancy
  Cs  Cs0  1  0.000000  0.500000  0.000000  1
  Cs  Cs1  1  0.000000  0.000000  0.500000  1
  Cs  Cs2  1  0.500000  0.500000  0.500000  1
  Cs  Cs3  1  0.500000  0.000000  0.000000  1
  Cs  Cs4  1  0.000000  0.000000  0.000000  1
  Cs  Cs5  1  0.000000  0.500000  0.500000  1
  Cs  Cs6  1  0.500000  0.000000  0.500000  1
  Cs  Cs7  1  0.500000  0.500000  0.000000  1
  Np  Np8  1  0.777032  0.222968  0.722968  1
  Np  Np9  1  0.222968  0.722968  0.777032  1
  Np  Np10  1  0.722968  0.777032  0.222968  1
  Np  Np11  1  0.277032  0.277032  0.277032  1
  Np  Np12  1  0.222968  0.777032  0.277032  1
  Np  Np13  1  0.777032  0.277032  0.222968  1
  Np  Np14  1  0.277032  0.222968  0.777032  1
  Np  Np15  1  0.722968  0.722968  0.722968  1
  F  F16  1  0.881445  0.360100  0.782147  1
  F  F17  1  0.118555  0.860100  0.717853  1
  F  F18  1  0.618555  0.639900  0.282147  1
  F  F19  1  0.381445  0.139900  0.217853  1
  F  F20  1  0.782147  0.881445  0.360100  1
  F  F21  1  0.717853  0.118555  0.860100  1
  F  F22  1  0.282147  0.618555  0.639900  1
  F  F23  1  0.217853  0.381445  0.139900  1
  F  F24  1  0.360100  0.782147  0.881445  1
  F  F25  1  0.860100  0.717853  0.118555  1
  F  F26  1  0.639900  0.282147  0.618555  1
  F  F27  1  0.139900  0.217853  0.381445  1
  F  F28  1  0.118555  0.639900  0.217853  1
  F  F29  1  0.881445  0.139900  0.282147  1
  F  F30  1  0.381445  0.360100  0.717853  1
  F  F31  1  0.618555  0.860100  0.782147  1
  F  F32  1  0.217853  0.118555  0.639900  1
  F  F33  1  0.282147  0.881445  0.139900  1
  F  F34  1  0.717853  0.381445  0.360100  1
  F  F35  1  0.782147  0.618555  0.860100  1
  F  F36  1  0.639900  0.217853  0.118555  1
  F  F37  1  0.139900  0.282147  0.881445  1
  F  F38  1  0.360100  0.717853  0.381445  1
  F  F39  1  0.860100  0.782147  0.618555  1
  F  F40  1  0.929713  0.132503  0.765671  1
  F  F41  1  0.070287  0.632503  0.734329  1
  F  F42  1  0.570287  0.867497  0.265671  1
  F  F43  1  0.429713  0.367497  0.234329  1
  F  F44  1  0.765671  0.929713  0.132503  1
  F  F45  1  0.734329  0.070287  0.632503  1
  F  F46  1  0.265671  0.570287  0.867497  1
  F  F47  1  0.234329  0.429713  0.367497  1
  F  F48  1  0.132503  0.765671  0.929713  1
  F  F49  1  0.632503  0.734329  0.070287  1
  F  F50  1  0.867497  0.265671  0.570287  1
  F  F51  1  0.367497  0.234329  0.429713  1
  F  F52  1  0.070287  0.867497  0.234329  1
  F  F53  1  0.929713  0.367497  0.265671  1
  F  F54  1  0.429713  0.132503  0.734329  1
  F  F55  1  0.570287  0.632503  0.765671  1
  F  F56  1  0.234329  0.070287  0.867497  1
  F  F57  1  0.265671  0.929713  0.367497  1
  F  F58  1  0.734329  0.429713  0.132503  1
  F  F59  1  0.765671  0.570287  0.632503  1
  F  F60  1  0.867497  0.234329  0.070287  1
  F  F61  1  0.367497  0.265671  0.929713  1
  F  F62  1  0.132503  0.734329  0.429713  1
  F  F63  1  0.632503  0.765671  0.570287  1
  F  F64  1  0.667899  0.332101  0.832101  1
  F  F65  1  0.332101  0.832101  0.667899  1
  F  F66  1  0.832101  0.667899  0.332101  1
  F  F67  1  0.167899  0.167899  0.167899  1
  F  F68  1  0.332101  0.667899  0.167899  1
  F  F69  1  0.667899  0.167899  0.332101  1
  F  F70  1  0.167899  0.332101  0.667899  1
  F  F71  1  0.832101  0.832101  0.832101  1
