# generated using pymatgen
data_DyHo2Tm(OsC2)2
_symmetry_space_group_name_H-M   'P 1'
_cell_length_a   5.10254600
_cell_length_b   6.43093964
_cell_length_c   9.73276381
_cell_angle_alpha   90.14106126
_cell_angle_beta   90.00000000
_cell_angle_gamma   90.00000000
_symmetry_Int_Tables_number   1
_chemical_formula_structural   DyHo2Tm(OsC2)2
_chemical_formula_sum   'Dy2 Ho4 Tm2 Os4 C8'
_cell_volume   319.37155257
_cell_formula_units_Z   2
loop_
 _symmetry_equiv_pos_site_id
 _symmetry_equiv_pos_as_xyz
  1  'x, y, z'
loop_
 _atom_site_type_symbol
 _atom_site_label
 _atom_site_symmetry_multiplicity
 _atom_site_fract_x
 _atom_site_fract_y
 _atom_site_fract_z
 _atom_site_occupancy
  Dy  Dy0  1  0.750000  0.973518  0.716887  1
  Dy  Dy1  1  0.250000  0.026482  0.283113  1
  Ho  Ho2  1  0.750000  0.816971  0.052798  1
  Ho  Ho3  1  0.250000  0.183029  0.947202  1
  Ho  Ho4  1  0.250000  0.526604  0.219777  1
  Ho  Ho5  1  0.750000  0.473396  0.780223  1
  Tm  Tm6  1  0.250000  0.680018  0.553288  1
  Tm  Tm7  1  0.750000  0.319982  0.446712  1
  Os  Os8  1  0.250000  0.724829  0.865066  1
  Os  Os9  1  0.750000  0.275171  0.134934  1
  Os  Os10  1  0.750000  0.775303  0.367191  1
  Os  Os11  1  0.250000  0.224697  0.632809  1
  C  C12  1  0.250000  0.460331  0.757443  1
  C  C13  1  0.750000  0.539669  0.242557  1
  C  C14  1  0.750000  0.040087  0.259293  1
  C  C15  1  0.250000  0.959913  0.740707  1
  C  C16  1  0.250000  0.825222  0.053800  1
  C  C17  1  0.750000  0.174778  0.946200  1
  C  C18  1  0.750000  0.670039  0.554692  1
  C  C19  1  0.250000  0.329961  0.445308  1
