# generated using pymatgen
data_Gd2(ErSi)3
_symmetry_space_group_name_H-M   'P 1'
_cell_length_a   8.40046100
_cell_length_b   8.41717136
_cell_length_c   6.29034500
_cell_angle_alpha   90.00000000
_cell_angle_beta   90.00000000
_cell_angle_gamma   119.93434556
_symmetry_Int_Tables_number   1
_chemical_formula_structural   Gd2(ErSi)3
_chemical_formula_sum   'Gd4 Er6 Si6'
_cell_volume   385.44403173
_cell_formula_units_Z   2
loop_
 _symmetry_equiv_pos_site_id
 _symmetry_equiv_pos_as_xyz
  1  'x, y, z'
loop_
 _atom_site_type_symbol
 _atom_site_label
 _atom_site_symmetry_multiplicity
 _atom_site_fract_x
 _atom_site_fract_y
 _atom_site_fract_z
 _atom_site_occupancy
  Gd  Gd0  1  0.999348  0.754595  0.750000  1
  Gd  Gd1  1  0.755059  0.000000  0.750000  1
  Gd  Gd2  1  0.244753  0.245405  0.750000  1
  Gd  Gd3  1  0.246625  0.000000  0.250000  1
  Er  Er4  1  0.999831  0.246339  0.250000  1
  Er  Er5  1  0.753492  0.753661  0.250000  1
  Er  Er6  1  0.333486  0.666401  0.500350  1
  Er  Er7  1  0.667086  0.333599  0.999650  1
  Er  Er8  1  0.667086  0.333599  0.500350  1
  Er  Er9  1  0.333486  0.666401  0.999650  1
  Si  Si10  1  0.394644  0.396524  0.250000  1
  Si  Si11  1  0.998122  0.603476  0.250000  1
  Si  Si12  1  0.999678  0.395535  0.750000  1
  Si  Si13  1  0.604143  0.604465  0.750000  1
  Si  Si14  1  0.608286  0.000000  0.250000  1
  Si  Si15  1  0.394874  0.000000  0.750000  1
