# generated using pymatgen
data_LaSn2RhAu
_symmetry_space_group_name_H-M   'P 1'
_cell_length_a   4.69684900
_cell_length_b   4.69684900
_cell_length_c   10.70624200
_cell_angle_alpha   90.00000000
_cell_angle_beta   90.00000000
_cell_angle_gamma   90.00000000
_symmetry_Int_Tables_number   1
_chemical_formula_structural   LaSn2RhAu
_chemical_formula_sum   'La2 Sn4 Rh2 Au2'
_cell_volume   236.18387962
_cell_formula_units_Z   2
loop_
 _symmetry_equiv_pos_site_id
 _symmetry_equiv_pos_as_xyz
  1  'x, y, z'
loop_
 _atom_site_type_symbol
 _atom_site_label
 _atom_site_symmetry_multiplicity
 _atom_site_fract_x
 _atom_site_fract_y
 _atom_site_fract_z
 _atom_site_occupancy
  La  La0  1  0.000000  0.500000  0.246704  1
  La  La1  1  0.500000  0.000000  0.753296  1
  Sn  Sn2  1  0.000000  0.000000  0.500000  1
  Sn  Sn3  1  0.500000  0.500000  0.500000  1
  Sn  Sn4  1  0.000000  0.500000  0.855468  1
  Sn  Sn5  1  0.500000  0.000000  0.144532  1
  Rh  Rh6  1  0.000000  0.500000  0.615613  1
  Rh  Rh7  1  0.500000  0.000000  0.384387  1
  Au  Au8  1  0.000000  0.000000  0.000000  1
  Au  Au9  1  0.500000  0.500000  0.000000  1
