# generated using pymatgen
data_Cs2Rb6Tl11
_symmetry_space_group_name_H-M   'P 1'
_cell_length_a   10.69760710
_cell_length_b   10.69760563
_cell_length_c   19.13662422
_cell_angle_alpha   90.00000032
_cell_angle_beta   106.23073536
_cell_angle_gamma   120.00000135
_symmetry_Int_Tables_number   1
_chemical_formula_structural   Cs2Rb6Tl11
_chemical_formula_sum   'Cs4 Rb12 Tl22'
_cell_volume   1795.07750385
_cell_formula_units_Z   2
loop_
 _symmetry_equiv_pos_site_id
 _symmetry_equiv_pos_as_xyz
  1  'x, y, z'
loop_
 _atom_site_type_symbol
 _atom_site_label
 _atom_site_symmetry_multiplicity
 _atom_site_fract_x
 _atom_site_fract_y
 _atom_site_fract_z
 _atom_site_occupancy
  Cs  Cs0  1  0.841700  0.920850  0.762550  1
  Cs  Cs1  1  0.251455  0.906307  0.933271  1
  Cs  Cs2  1  0.588121  0.681815  0.933271  1
  Cs  Cs3  1  0.026963  0.345148  0.933271  1
  Rb  Rb4  1  0.976283  0.654864  0.071193  1
  Rb  Rb5  1  0.416332  0.321419  0.071193  1
  Rb  Rb6  1  0.749773  0.094909  0.071193  1
  Rb  Rb7  1  0.155420  0.077711  0.233131  1
  Rb  Rb8  1  0.845071  0.422535  0.267607  1
  Rb  Rb9  1  0.251977  0.844553  0.430863  1
  Rb  Rb10  1  0.586309  0.407424  0.430863  1
  Rb  Rb11  1  0.023440  0.178887  0.430863  1
  Rb  Rb12  1  0.975825  0.820924  0.567713  1
  Rb  Rb13  1  0.412813  0.591887  0.567713  1
  Rb  Rb14  1  0.746789  0.154901  0.567713  1
  Rb  Rb15  1  0.153827  0.576913  0.730742  1
  Tl  Tl16  1  0.400132  0.700068  0.100200  1
  Tl  Tl17  1  0.432398  0.000616  0.159095  1
  Tl  Tl18  1  0.727315  0.726697  0.159095  1
  Tl  Tl19  1  0.158480  0.431782  0.159095  1
  Tl  Tl20  1  0.711220  0.960964  0.250469  1
  Tl  Tl21  1  0.289506  0.750256  0.250469  1
  Tl  Tl22  1  0.500213  0.539249  0.250469  1
  Tl  Tl23  1  0.842323  0.773589  0.343461  1
  Tl  Tl24  1  0.274726  0.501139  0.343461  1
  Tl  Tl25  1  0.569871  0.068734  0.343461  1
  Tl  Tl26  1  0.601021  0.800510  0.401531  1
  Tl  Tl27  1  0.399484  0.199743  0.599227  1
  Tl  Tl28  1  0.431206  0.929570  0.656668  1
  Tl  Tl29  1  0.727099  0.501637  0.656668  1
  Tl  Tl30  1  0.155031  0.225462  0.656668  1
  Tl  Tl31  1  0.498291  0.458423  0.747959  1
  Tl  Tl32  1  0.708091  0.249668  0.747959  1
  Tl  Tl33  1  0.289536  0.039868  0.747959  1
  Tl  Tl34  1  0.838660  0.564622  0.840733  1
  Tl  Tl35  1  0.276110  0.274037  0.840733  1
  Tl  Tl36  1  0.566696  0.002074  0.840733  1
  Tl  Tl37  1  0.600492  0.300244  0.900736  1
