# generated using pymatgen
data_Ca2La7SmSi8O3
_symmetry_space_group_name_H-M   'P 1'
_cell_length_a   10.76552985
_cell_length_b   10.76552884
_cell_length_c   4.60981100
_cell_angle_alpha   90.00000000
_cell_angle_beta   90.00000000
_cell_angle_gamma   119.73471153
_symmetry_Int_Tables_number   1
_chemical_formula_structural   Ca2La7SmSi8O3
_chemical_formula_sum   'Ca2 La7 Sm1 Si8 O3'
_cell_volume   463.91594482
_cell_formula_units_Z   1
loop_
 _symmetry_equiv_pos_site_id
 _symmetry_equiv_pos_as_xyz
  1  'x, y, z'
loop_
 _atom_site_type_symbol
 _atom_site_label
 _atom_site_symmetry_multiplicity
 _atom_site_fract_x
 _atom_site_fract_y
 _atom_site_fract_z
 _atom_site_occupancy
  Ca  Ca0  1  0.000000  0.500000  0.500000  1
  Ca  Ca1  1  0.500000  0.000000  0.500000  1
  La  La2  1  0.213177  0.786823  0.000000  1
  La  La3  1  0.575924  0.793392  0.000000  1
  La  La4  1  0.793392  0.575924  0.000000  1
  La  La5  1  0.000000  0.000000  0.000000  1
  La  La6  1  0.206608  0.424076  0.000000  1
  La  La7  1  0.424076  0.206608  0.000000  1
  La  La8  1  0.786823  0.213177  0.000000  1
  Sm  Sm9  1  0.500000  0.500000  0.500000  1
  Si  Si10  1  0.000303  0.781221  0.500000  1
  Si  Si11  1  0.999697  0.218779  0.500000  1
  Si  Si12  1  0.220459  0.220459  0.500000  1
  Si  Si13  1  0.781221  0.000303  0.500000  1
  Si  Si14  1  0.334786  0.665214  0.500000  1
  Si  Si15  1  0.218779  0.999697  0.500000  1
  Si  Si16  1  0.665214  0.334786  0.500000  1
  Si  Si17  1  0.779541  0.779541  0.500000  1
  O  O18  1  0.000000  0.500000  0.000000  1
  O  O19  1  0.500000  0.500000  0.000000  1
  O  O20  1  0.500000  0.000000  0.000000  1
