# generated using pymatgen
data_Ta6Al3IrN2
_symmetry_space_group_name_H-M   'P 1'
_cell_length_a   7.02130435
_cell_length_b   7.01410147
_cell_length_c   7.04841600
_cell_angle_alpha   90.00000000
_cell_angle_beta   90.00000000
_cell_angle_gamma   90.50515823
_symmetry_Int_Tables_number   1
_chemical_formula_structural   Ta6Al3IrN2
_chemical_formula_sum   'Ta12 Al6 Ir2 N4'
_cell_volume   347.10789490
_cell_formula_units_Z   2
loop_
 _symmetry_equiv_pos_site_id
 _symmetry_equiv_pos_as_xyz
  1  'x, y, z'
loop_
 _atom_site_type_symbol
 _atom_site_label
 _atom_site_symmetry_multiplicity
 _atom_site_fract_x
 _atom_site_fract_y
 _atom_site_fract_z
 _atom_site_occupancy
  Ta  Ta0  1  0.792449  0.955797  0.375342  1
  Ta  Ta1  1  0.707551  0.044203  0.875342  1
  Ta  Ta2  1  0.206358  0.454602  0.125694  1
  Ta  Ta3  1  0.293642  0.545398  0.625694  1
  Ta  Ta4  1  0.956728  0.381605  0.790239  1
  Ta  Ta5  1  0.045932  0.873739  0.707278  1
  Ta  Ta6  1  0.454068  0.126261  0.207278  1
  Ta  Ta7  1  0.543272  0.618395  0.290239  1
  Ta  Ta8  1  0.378382  0.792584  0.956082  1
  Ta  Ta9  1  0.874613  0.707361  0.045514  1
  Ta  Ta10  1  0.121618  0.207416  0.456082  1
  Ta  Ta11  1  0.625387  0.292639  0.545514  1
  Al  Al12  1  0.821500  0.321322  0.177022  1
  Al  Al13  1  0.678500  0.678678  0.677022  1
  Al  Al14  1  0.562476  0.424480  0.927496  1
  Al  Al15  1  0.422315  0.931514  0.569541  1
  Al  Al16  1  0.937524  0.575520  0.427496  1
  Al  Al17  1  0.077685  0.068486  0.069541  1
  Ir  Ir18  1  0.181047  0.824331  0.318449  1
  Ir  Ir19  1  0.318953  0.175669  0.818449  1
  N  N20  1  0.876821  0.122013  0.628215  1
  N  N21  1  0.623179  0.877987  0.128215  1
  N  N22  1  0.129436  0.627267  0.879128  1
  N  N23  1  0.370564  0.372733  0.379128  1
