# generated using pymatgen
data_Dy17Er3BiPb15
_symmetry_space_group_name_H-M   'P 1'
_cell_length_a   8.23552130
_cell_length_b   15.63339344
_cell_length_c   8.29550400
_cell_angle_alpha   90.07197619
_cell_angle_beta   89.85799045
_cell_angle_gamma   90.28124820
_symmetry_Int_Tables_number   1
_chemical_formula_structural   Dy17Er3BiPb15
_chemical_formula_sum   'Dy17 Er3 Bi1 Pb15'
_cell_volume   1068.02206992
_cell_formula_units_Z   1
loop_
 _symmetry_equiv_pos_site_id
 _symmetry_equiv_pos_as_xyz
  1  'x, y, z'
loop_
 _atom_site_type_symbol
 _atom_site_label
 _atom_site_symmetry_multiplicity
 _atom_site_fract_x
 _atom_site_fract_y
 _atom_site_fract_z
 _atom_site_occupancy
  Dy  Dy0  1  0.619674  0.621218  0.159913  1
  Dy  Dy1  1  0.122498  0.878933  0.341466  1
  Dy  Dy2  1  0.377219  0.121235  0.842006  1
  Dy  Dy3  1  0.879435  0.379089  0.655635  1
  Dy  Dy4  1  0.376355  0.379503  0.840870  1
  Dy  Dy5  1  0.876802  0.121328  0.658055  1
  Dy  Dy6  1  0.622417  0.878768  0.157801  1
  Dy  Dy7  1  0.121436  0.620826  0.341234  1
  Dy  Dy8  1  0.457255  0.602859  0.670261  1
  Dy  Dy9  1  0.963105  0.899550  0.825133  1
  Dy  Dy10  1  0.536801  0.100591  0.325463  1
  Dy  Dy11  1  0.044250  0.397331  0.176262  1
  Dy  Dy12  1  0.539147  0.398238  0.329742  1
  Dy  Dy13  1  0.036583  0.100467  0.175281  1
  Dy  Dy14  1  0.463631  0.899588  0.675529  1
  Dy  Dy15  1  0.963939  0.602354  0.823410  1
  Dy  Dy16  1  0.790450  0.750489  0.496931  1
  Er  Er17  1  0.290465  0.750096  0.003191  1
  Er  Er18  1  0.209510  0.249222  0.503163  1
  Er  Er19  1  0.709612  0.247691  0.997117  1
  Bi  Bi20  1  0.723188  0.455004  0.971793  1
  Pb  Pb21  1  0.219075  0.042947  0.533693  1
  Pb  Pb22  1  0.280620  0.956693  0.033205  1
  Pb  Pb23  1  0.778304  0.543567  0.469550  1
  Pb  Pb24  1  0.278102  0.543793  0.030318  1
  Pb  Pb25  1  0.781302  0.957131  0.465762  1
  Pb  Pb26  1  0.718381  0.043018  0.966591  1
  Pb  Pb27  1  0.220494  0.456598  0.531271  1
  Pb  Pb28  1  0.426780  0.750386  0.372851  1
  Pb  Pb29  1  0.927250  0.749201  0.126044  1
  Pb  Pb30  1  0.572118  0.250751  0.627145  1
  Pb  Pb31  1  0.072001  0.250989  0.873186  1
  Pb  Pb32  1  0.649846  0.749714  0.846808  1
  Pb  Pb33  1  0.150781  0.750951  0.653527  1
  Pb  Pb34  1  0.351177  0.250059  0.154104  1
  Pb  Pb35  1  0.849997  0.249819  0.345687  1
