# generated using pymatgen
data_Ho4ErTm3(ReB6)4
_symmetry_space_group_name_H-M   'P 1'
_cell_length_a   3.65655000
_cell_length_b   9.12694100
_cell_length_c   11.50533401
_cell_angle_alpha   89.99733163
_cell_angle_beta   90.00000000
_cell_angle_gamma   90.00000000
_symmetry_Int_Tables_number   1
_chemical_formula_structural   Ho4ErTm3(ReB6)4
_chemical_formula_sum   'Ho4 Er1 Tm3 Re4 B24'
_cell_volume   383.96884749
_cell_formula_units_Z   1
loop_
 _symmetry_equiv_pos_site_id
 _symmetry_equiv_pos_as_xyz
  1  'x, y, z'
loop_
 _atom_site_type_symbol
 _atom_site_label
 _atom_site_symmetry_multiplicity
 _atom_site_fract_x
 _atom_site_fract_y
 _atom_site_fract_z
 _atom_site_occupancy
  Ho  Ho0  1  0.000000  0.323405  0.413887  1
  Ho  Ho1  1  0.000000  0.676549  0.586204  1
  Ho  Ho2  1  0.000000  0.823339  0.086049  1
  Ho  Ho3  1  0.000000  0.176662  0.913826  1
  Er  Er4  1  0.000000  0.943400  0.370343  1
  Tm  Tm5  1  0.000000  0.056695  0.629995  1
  Tm  Tm6  1  0.000000  0.443378  0.129687  1
  Tm  Tm7  1  0.000000  0.556659  0.870221  1
  Re  Re8  1  0.000000  0.638694  0.320439  1
  Re  Re9  1  0.000000  0.360970  0.679591  1
  Re  Re10  1  0.000000  0.139312  0.179261  1
  Re  Re11  1  0.000000  0.860889  0.820550  1
  B  B12  1  0.500000  0.553256  0.432997  1
  B  B13  1  0.500000  0.446521  0.567069  1
  B  B14  1  0.500000  0.053507  0.066895  1
  B  B15  1  0.500000  0.946546  0.932951  1
  B  B16  1  0.500000  0.749690  0.418848  1
  B  B17  1  0.500000  0.249925  0.581239  1
  B  B18  1  0.500000  0.250235  0.081093  1
  B  B19  1  0.500000  0.749854  0.918816  1
  B  B20  1  0.500000  0.792522  0.265320  1
  B  B21  1  0.500000  0.207178  0.734603  1
  B  B22  1  0.500000  0.293005  0.234482  1
  B  B23  1  0.500000  0.707147  0.765460  1
  B  B24  1  0.500000  0.630549  0.185045  1
  B  B25  1  0.500000  0.369354  0.814894  1
  B  B26  1  0.500000  0.131029  0.314702  1
  B  B27  1  0.500000  0.869288  0.685208  1
  B  B28  1  0.500000  0.982147  0.212013  1
  B  B29  1  0.500000  0.018013  0.787772  1
  B  B30  1  0.500000  0.481858  0.287675  1
  B  B31  1  0.500000  0.518061  0.712276  1
  B  B32  1  0.500000  0.599170  0.027654  1
  B  B33  1  0.500000  0.400853  0.972266  1
  B  B34  1  0.500000  0.099705  0.472555  1
  B  B35  1  0.500000  0.900632  0.528116  1
