# generated using pymatgen
data_Tm10ZnGa3Bi2
_symmetry_space_group_name_H-M   'P 1'
_cell_length_a   8.51061693
_cell_length_b   8.51061653
_cell_length_c   8.61251628
_cell_angle_alpha   123.76467071
_cell_angle_beta   123.76466564
_cell_angle_gamma   82.82645743
_symmetry_Int_Tables_number   1
_chemical_formula_structural   Tm10ZnGa3Bi2
_chemical_formula_sum   'Tm10 Zn1 Ga3 Bi2'
_cell_volume   415.55423392
_cell_formula_units_Z   1
loop_
 _symmetry_equiv_pos_site_id
 _symmetry_equiv_pos_as_xyz
  1  'x, y, z'
loop_
 _atom_site_type_symbol
 _atom_site_label
 _atom_site_symmetry_multiplicity
 _atom_site_fract_x
 _atom_site_fract_y
 _atom_site_fract_z
 _atom_site_occupancy
  Tm  Tm0  1  0.998287  0.999122  0.997409  1
  Tm  Tm1  1  0.500878  0.501713  0.002591  1
  Tm  Tm2  1  0.793475  0.294683  0.800484  1
  Tm  Tm3  1  0.205317  0.706525  0.199516  1
  Tm  Tm4  1  0.492990  0.994199  0.199516  1
  Tm  Tm5  1  0.291422  0.483779  0.500000  1
  Tm  Tm6  1  0.016221  0.208578  0.500000  1
  Tm  Tm7  1  0.505801  0.007010  0.800484  1
  Tm  Tm8  1  0.707597  0.512155  0.500000  1
  Tm  Tm9  1  0.987845  0.792403  0.500000  1
  Zn  Zn10  1  0.359233  0.140767  0.500000  1
  Ga  Ga11  1  0.151723  0.651903  0.803628  1
  Ga  Ga12  1  0.848097  0.348277  0.196372  1
  Ga  Ga13  1  0.643186  0.856814  0.500000  1
  Bi  Bi14  1  0.248963  0.251037  0.000000  1
  Bi  Bi15  1  0.748963  0.751037  0.000000  1
