# generated using pymatgen
data_CsAlSiSe4
_symmetry_space_group_name_H-M   'P 1'
_cell_length_a   17.07457800
_cell_length_b   7.25386874
_cell_length_c   8.27783176
_cell_angle_alpha   70.97497009
_cell_angle_beta   90.00000000
_cell_angle_gamma   90.00000000
_symmetry_Int_Tables_number   1
_chemical_formula_structural   CsAlSiSe4
_chemical_formula_sum   'Cs4 Al4 Si4 Se16'
_cell_volume   969.26149175
_cell_formula_units_Z   4
loop_
 _symmetry_equiv_pos_site_id
 _symmetry_equiv_pos_as_xyz
  1  'x, y, z'
loop_
 _atom_site_type_symbol
 _atom_site_label
 _atom_site_symmetry_multiplicity
 _atom_site_fract_x
 _atom_site_fract_y
 _atom_site_fract_z
 _atom_site_occupancy
  Cs  Cs0  1  0.395581  0.948574  0.180060  1
  Cs  Cs1  1  0.895581  0.051426  0.819940  1
  Cs  Cs2  1  0.604192  0.531171  0.828137  1
  Cs  Cs3  1  0.104192  0.468829  0.171863  1
  Al  Al4  1  0.582717  0.170321  0.477881  1
  Al  Al5  1  0.082717  0.829679  0.522119  1
  Al  Al6  1  0.271764  0.586390  0.694354  1
  Al  Al7  1  0.771764  0.413610  0.305646  1
  Si  Si8  1  0.420623  0.317177  0.539464  1
  Si  Si9  1  0.920623  0.682823  0.460536  1
  Si  Si10  1  0.726785  0.917155  0.283117  1
  Si  Si11  1  0.226785  0.082845  0.716883  1
  Se  Se12  1  0.600252  0.891726  0.381436  1
  Se  Se13  1  0.100252  0.108274  0.618564  1
  Se  Se14  1  0.409298  0.588054  0.622568  1
  Se  Se15  1  0.909298  0.411946  0.377432  1
  Se  Se16  1  0.802024  0.794449  0.530051  1
  Se  Se17  1  0.302024  0.205551  0.469949  1
  Se  Se18  1  0.200002  0.714152  0.437758  1
  Se  Se19  1  0.700002  0.285848  0.562242  1
  Se  Se20  1  0.763686  0.222563  0.112341  1
  Se  Se21  1  0.263686  0.777437  0.887659  1
  Se  Se22  1  0.236581  0.268807  0.893129  1
  Se  Se23  1  0.736581  0.731193  0.106871  1
  Se  Se24  1  0.997227  0.914974  0.271796  1
  Se  Se25  1  0.497227  0.085026  0.728204  1
  Se  Se26  1  0.989268  0.607688  0.713042  1
  Se  Se27  1  0.489268  0.392312  0.286958  1
