# generated using pymatgen
data_Hf5InSb2
_symmetry_space_group_name_H-M   'P 1'
_cell_length_a   7.42042500
_cell_length_b   8.90717800
_cell_length_c   10.78250800
_cell_angle_alpha   90.00000000
_cell_angle_beta   90.00000000
_cell_angle_gamma   90.00000000
_symmetry_Int_Tables_number   1
_chemical_formula_structural   Hf5InSb2
_chemical_formula_sum   'Hf20 In4 Sb8'
_cell_volume   712.67036560
_cell_formula_units_Z   4
loop_
 _symmetry_equiv_pos_site_id
 _symmetry_equiv_pos_as_xyz
  1  'x, y, z'
loop_
 _atom_site_type_symbol
 _atom_site_label
 _atom_site_symmetry_multiplicity
 _atom_site_fract_x
 _atom_site_fract_y
 _atom_site_fract_z
 _atom_site_occupancy
  Hf  Hf0  1  0.811741  0.444709  0.558955  1
  Hf  Hf1  1  0.311741  0.055291  0.941045  1
  Hf  Hf2  1  0.188259  0.944709  0.441045  1
  Hf  Hf3  1  0.688259  0.555291  0.058955  1
  Hf  Hf4  1  0.147203  0.250331  0.723165  1
  Hf  Hf5  1  0.647203  0.249669  0.776835  1
  Hf  Hf6  1  0.852797  0.750331  0.276835  1
  Hf  Hf7  1  0.352797  0.749669  0.223165  1
  Hf  Hf8  1  0.313546  0.434014  0.938698  1
  Hf  Hf9  1  0.813546  0.065986  0.561302  1
  Hf  Hf10  1  0.686454  0.934014  0.061302  1
  Hf  Hf11  1  0.186454  0.565986  0.438698  1
  Hf  Hf12  1  0.186492  0.746730  0.717507  1
  Hf  Hf13  1  0.686492  0.753270  0.782493  1
  Hf  Hf14  1  0.813508  0.246730  0.282493  1
  Hf  Hf15  1  0.313508  0.253270  0.217507  1
  Hf  Hf16  1  0.010537  0.751654  0.991729  1
  Hf  Hf17  1  0.510537  0.748346  0.508271  1
  Hf  Hf18  1  0.989463  0.251654  0.008271  1
  Hf  Hf19  1  0.489463  0.248346  0.491729  1
  In  In20  1  0.567663  0.996043  0.326833  1
  In  In21  1  0.067663  0.503957  0.173167  1
  In  In22  1  0.432337  0.496043  0.673167  1
  In  In23  1  0.932337  0.003957  0.826833  1
  Sb  Sb24  1  0.401079  0.744510  0.958505  1
  Sb  Sb25  1  0.901079  0.755490  0.541495  1
  Sb  Sb26  1  0.598921  0.244510  0.041495  1
  Sb  Sb27  1  0.098921  0.255490  0.458505  1
  Sb  Sb28  1  0.428236  0.004668  0.674087  1
  Sb  Sb29  1  0.928236  0.495332  0.825913  1
  Sb  Sb30  1  0.571764  0.504668  0.325913  1
  Sb  Sb31  1  0.071764  0.995332  0.174087  1
