# generated using pymatgen
data_Sr3Ga4Ni3Ir
_symmetry_space_group_name_H-M   'P 1'
_cell_length_a   6.66669481
_cell_length_b   6.60535850
_cell_length_c   6.60535764
_cell_angle_alpha   109.28234798
_cell_angle_beta   109.65943603
_cell_angle_gamma   109.65943528
_symmetry_Int_Tables_number   1
_chemical_formula_structural   Sr3Ga4Ni3Ir
_chemical_formula_sum   'Sr3 Ga4 Ni3 Ir1'
_cell_volume   223.39187126
_cell_formula_units_Z   1
loop_
 _symmetry_equiv_pos_site_id
 _symmetry_equiv_pos_as_xyz
  1  'x, y, z'
loop_
 _atom_site_type_symbol
 _atom_site_label
 _atom_site_symmetry_multiplicity
 _atom_site_fract_x
 _atom_site_fract_y
 _atom_site_fract_z
 _atom_site_occupancy
  Sr  Sr0  1  0.007376  0.505040  0.505040  1
  Sr  Sr1  1  0.502336  0.000000  0.494960  1
  Sr  Sr2  1  0.502336  0.494960  0.000000  1
  Ga  Ga3  1  0.607487  0.605585  0.605585  1
  Ga  Ga4  1  0.001901  0.000000  0.394415  1
  Ga  Ga5  1  0.001901  0.394415  0.000000  1
  Ga  Ga6  1  0.381954  0.000000  0.000000  1
  Ni  Ni7  1  0.243011  0.242011  0.242011  1
  Ni  Ni8  1  0.001000  0.000000  0.757989  1
  Ni  Ni9  1  0.001000  0.757989  0.000000  1
  Ir  Ir10  1  0.749698  0.000000  0.000000  1
