# generated using pymatgen
data_U4TaNb3N8
_symmetry_space_group_name_H-M   'P 1'
_cell_length_a   3.24671100
_cell_length_b   5.66643218
_cell_length_c   11.03705535
_cell_angle_alpha   90.02889641
_cell_angle_beta   90.00000000
_cell_angle_gamma   90.00000000
_symmetry_Int_Tables_number   1
_chemical_formula_structural   U4TaNb3N8
_chemical_formula_sum   'U4 Ta1 Nb3 N8'
_cell_volume   203.05163598
_cell_formula_units_Z   1
loop_
 _symmetry_equiv_pos_site_id
 _symmetry_equiv_pos_as_xyz
  1  'x, y, z'
loop_
 _atom_site_type_symbol
 _atom_site_label
 _atom_site_symmetry_multiplicity
 _atom_site_fract_x
 _atom_site_fract_y
 _atom_site_fract_z
 _atom_site_occupancy
  U  U0  1  0.250000  0.576700  0.856009  1
  U  U1  1  0.750000  0.421224  0.144335  1
  U  U2  1  0.750000  0.922992  0.356212  1
  U  U3  1  0.250000  0.077395  0.644438  1
  Ta  Ta4  1  0.250000  0.924316  0.100593  1
  Nb  Nb5  1  0.750000  0.075417  0.899638  1
  Nb  Nb6  1  0.750000  0.575324  0.599770  1
  Nb  Nb7  1  0.250000  0.425321  0.399131  1
  N  N8  1  0.250000  0.663895  0.242967  1
  N  N9  1  0.750000  0.339218  0.755097  1
  N  N10  1  0.750000  0.838240  0.744794  1
  N  N11  1  0.250000  0.160259  0.253669  1
  N  N12  1  0.250000  0.767381  0.503057  1
  N  N13  1  0.750000  0.232660  0.496700  1
  N  N14  1  0.750000  0.735052  0.005547  1
  N  N15  1  0.250000  0.264606  0.998041  1
