# generated using pymatgen
data_Lu5Co19(As3P)3
_symmetry_space_group_name_H-M   'P 1'
_cell_length_a   12.27346000
_cell_length_b   12.27346023
_cell_length_c   3.73407800
_cell_angle_alpha   90.00000000
_cell_angle_beta   90.00000000
_cell_angle_gamma   119.99999398
_symmetry_Int_Tables_number   1
_chemical_formula_structural   Lu5Co19(As3P)3
_chemical_formula_sum   'Lu5 Co19 As9 P3'
_cell_volume   487.13358761
_cell_formula_units_Z   1
loop_
 _symmetry_equiv_pos_site_id
 _symmetry_equiv_pos_as_xyz
  1  'x, y, z'
loop_
 _atom_site_type_symbol
 _atom_site_label
 _atom_site_symmetry_multiplicity
 _atom_site_fract_x
 _atom_site_fract_y
 _atom_site_fract_z
 _atom_site_occupancy
  Lu  Lu0  1  0.333333  0.666667  0.500000  1
  Lu  Lu1  1  0.666667  0.333333  0.500000  1
  Lu  Lu2  1  0.179018  0.000000  0.000000  1
  Lu  Lu3  1  0.000000  0.179018  0.000000  1
  Lu  Lu4  1  0.820982  0.820982  0.000000  1
  Co  Co5  1  0.197369  0.368440  0.500000  1
  Co  Co6  1  0.631560  0.828929  0.500000  1
  Co  Co7  1  0.171071  0.802631  0.500000  1
  Co  Co8  1  0.828929  0.631560  0.500000  1
  Co  Co9  1  0.802631  0.171071  0.500000  1
  Co  Co10  1  0.368440  0.197369  0.500000  1
  Co  Co11  1  0.553509  0.000000  0.500000  1
  Co  Co12  1  0.000000  0.553509  0.500000  1
  Co  Co13  1  0.446491  0.446491  0.500000  1
  Co  Co14  1  0.126624  0.478656  0.000000  1
  Co  Co15  1  0.521344  0.647968  0.000000  1
  Co  Co16  1  0.352032  0.873376  0.000000  1
  Co  Co17  1  0.647968  0.521344  0.000000  1
  Co  Co18  1  0.873376  0.352032  0.000000  1
  Co  Co19  1  0.478656  0.126624  0.000000  1
  Co  Co20  1  0.725922  0.000000  0.000000  1
  Co  Co21  1  0.000000  0.725922  0.000000  1
  Co  Co22  1  0.274078  0.274078  0.000000  1
  Co  Co23  1  0.000000  0.000000  0.500000  1
  As  As24  1  0.361013  0.000000  0.500000  1
  As  As25  1  0.000000  0.361013  0.500000  1
  As  As26  1  0.638987  0.638987  0.500000  1
  As  As27  1  0.319143  0.480944  0.000000  1
  As  As28  1  0.519056  0.838199  0.000000  1
  As  As29  1  0.161801  0.680857  0.000000  1
  As  As30  1  0.838199  0.519056  0.000000  1
  As  As31  1  0.680857  0.161801  0.000000  1
  As  As32  1  0.480944  0.319143  0.000000  1
  P  P33  1  0.823605  0.000000  0.500000  1
  P  P34  1  0.000000  0.823605  0.500000  1
  P  P35  1  0.176395  0.176395  0.500000  1
