# generated using pymatgen
data_RbLiTbF5
_symmetry_space_group_name_H-M   'P 1'
_cell_length_a   12.19154000
_cell_length_b   6.48648663
_cell_length_c   6.67027408
_cell_angle_alpha   65.65674562
_cell_angle_beta   90.00000000
_cell_angle_gamma   90.00000000
_symmetry_Int_Tables_number   1
_chemical_formula_structural   RbLiTbF5
_chemical_formula_sum   'Rb4 Li4 Tb4 F20'
_cell_volume   480.58938703
_cell_formula_units_Z   4
loop_
 _symmetry_equiv_pos_site_id
 _symmetry_equiv_pos_as_xyz
  1  'x, y, z'
loop_
 _atom_site_type_symbol
 _atom_site_label
 _atom_site_symmetry_multiplicity
 _atom_site_fract_x
 _atom_site_fract_y
 _atom_site_fract_z
 _atom_site_occupancy
  Rb  Rb0  1  0.846530  0.035599  0.950533  1
  Rb  Rb1  1  0.653470  0.535599  0.950533  1
  Rb  Rb2  1  0.346530  0.464401  0.049467  1
  Rb  Rb3  1  0.153470  0.964401  0.049467  1
  Li  Li4  1  0.750138  0.461327  0.448456  1
  Li  Li5  1  0.749862  0.961327  0.448456  1
  Li  Li6  1  0.249862  0.538673  0.551544  1
  Li  Li7  1  0.250138  0.038673  0.551544  1
  Tb  Tb8  1  0.997288  0.318599  0.320857  1
  Tb  Tb9  1  0.002712  0.681401  0.679143  1
  Tb  Tb10  1  0.502712  0.818599  0.320857  1
  Tb  Tb11  1  0.497288  0.181401  0.679143  1
  F  F12  1  0.671344  0.279810  0.699158  1
  F  F13  1  0.602951  0.969550  0.532295  1
  F  F14  1  0.328656  0.720190  0.300842  1
  F  F15  1  0.008457  0.332220  0.957432  1
  F  F16  1  0.171344  0.220190  0.300842  1
  F  F17  1  0.397049  0.030450  0.467705  1
  F  F18  1  0.897049  0.469550  0.532295  1
  F  F19  1  0.526843  0.455035  0.336177  1
  F  F20  1  0.807655  0.270278  0.294650  1
  F  F21  1  0.307655  0.229722  0.705350  1
  F  F22  1  0.473157  0.544965  0.663823  1
  F  F23  1  0.991543  0.667780  0.042568  1
  F  F24  1  0.192345  0.729722  0.705350  1
  F  F25  1  0.508457  0.167780  0.042568  1
  F  F26  1  0.973157  0.955035  0.336177  1
  F  F27  1  0.692345  0.770278  0.294650  1
  F  F28  1  0.026843  0.044965  0.663823  1
  F  F29  1  0.828656  0.779810  0.699158  1
  F  F30  1  0.102951  0.530450  0.467705  1
  F  F31  1  0.491543  0.832220  0.957432  1
