# generated using pymatgen
data_Dy2Co2Si4IrRh3
_symmetry_space_group_name_H-M   'P 1'
_cell_length_a   6.48241723
_cell_length_b   6.62253729
_cell_length_c   6.48241723
_cell_angle_alpha   131.12641910
_cell_angle_beta   113.53440310
_cell_angle_gamma   86.00139950
_symmetry_Int_Tables_number   1
_chemical_formula_structural   Dy2Co2Si4IrRh3
_chemical_formula_sum   'Dy2 Co2 Si4 Ir1 Rh3'
_cell_volume   184.53942301
_cell_formula_units_Z   1
loop_
 _symmetry_equiv_pos_site_id
 _symmetry_equiv_pos_as_xyz
  1  'x, y, z'
loop_
 _atom_site_type_symbol
 _atom_site_label
 _atom_site_symmetry_multiplicity
 _atom_site_fract_x
 _atom_site_fract_y
 _atom_site_fract_z
 _atom_site_occupancy
  Dy  Dy0  1  0.754321  0.039775  0.285126  1
  Dy  Dy1  1  0.245350  0.960225  0.714545  1
  Co  Co2  1  0.219302  0.500000  0.719302  1
  Co  Co3  1  0.780550  0.500000  0.280550  1
  Si  Si4  1  0.575027  0.387266  0.810965  1
  Si  Si5  1  0.927026  0.714227  0.789290  1
  Si  Si6  1  0.423697  0.612734  0.187760  1
  Si  Si7  1  0.075064  0.285773  0.212800  1
  Ir  Ir8  1  0.717883  0.000000  0.717883  1
  Rh  Rh9  1  0.499364  0.499762  0.499880  1
  Rh  Rh10  1  0.000118  0.500238  0.999602  1
  Rh  Rh11  1  0.282297  0.000000  0.282297  1
