# generated using pymatgen
data_Li4TbLu3Pt4
_symmetry_space_group_name_H-M   'P 1'
_cell_length_a   4.01819900
_cell_length_b   6.93984033
_cell_length_c   8.25277113
_cell_angle_alpha   89.71917974
_cell_angle_beta   90.00000000
_cell_angle_gamma   90.00000000
_symmetry_Int_Tables_number   1
_chemical_formula_structural   Li4TbLu3Pt4
_chemical_formula_sum   'Li4 Tb1 Lu3 Pt4'
_cell_volume   230.13120146
_cell_formula_units_Z   1
loop_
 _symmetry_equiv_pos_site_id
 _symmetry_equiv_pos_as_xyz
  1  'x, y, z'
loop_
 _atom_site_type_symbol
 _atom_site_label
 _atom_site_symmetry_multiplicity
 _atom_site_fract_x
 _atom_site_fract_y
 _atom_site_fract_z
 _atom_site_occupancy
  Li  Li0  1  0.250000  0.635469  0.562125  1
  Li  Li1  1  0.750000  0.363429  0.439917  1
  Li  Li2  1  0.750000  0.866565  0.060042  1
  Li  Li3  1  0.250000  0.132505  0.938303  1
  Tb  Tb4  1  0.250000  0.538588  0.182457  1
  Lu  Lu5  1  0.750000  0.460908  0.816495  1
  Lu  Lu6  1  0.750000  0.962535  0.681623  1
  Lu  Lu7  1  0.250000  0.039474  0.321102  1
  Pt  Pt8  1  0.250000  0.749359  0.873644  1
  Pt  Pt9  1  0.750000  0.245213  0.120345  1
  Pt  Pt10  1  0.750000  0.756562  0.381495  1
  Pt  Pt11  1  0.250000  0.249391  0.622453  1
