# generated using pymatgen
data_LuZr3TiRe7
_symmetry_space_group_name_H-M   'P 1'
_cell_length_a   5.33568201
_cell_length_b   5.33565156
_cell_length_c   8.72565500
_cell_angle_alpha   90.00103008
_cell_angle_beta   89.99949560
_cell_angle_gamma   120.00017815
_symmetry_Int_Tables_number   1
_chemical_formula_structural   LuZr3TiRe7
_chemical_formula_sum   'Lu1 Zr3 Ti1 Re7'
_cell_volume   215.13213599
_cell_formula_units_Z   1
loop_
 _symmetry_equiv_pos_site_id
 _symmetry_equiv_pos_as_xyz
  1  'x, y, z'
loop_
 _atom_site_type_symbol
 _atom_site_label
 _atom_site_symmetry_multiplicity
 _atom_site_fract_x
 _atom_site_fract_y
 _atom_site_fract_z
 _atom_site_occupancy
  Lu  Lu0  1  0.666674  0.333327  0.940102  1
  Zr  Zr1  1  0.666669  0.333331  0.566246  1
  Zr  Zr2  1  0.333326  0.666668  0.433869  1
  Zr  Zr3  1  0.333328  0.666676  0.059959  1
  Ti  Ti4  1  0.999999  0.000000  0.499205  1
  Re  Re5  1  0.999997  0.000003  0.000840  1
  Re  Re6  1  0.170266  0.340485  0.749045  1
  Re  Re7  1  0.170276  0.829741  0.749041  1
  Re  Re8  1  0.659519  0.829745  0.749048  1
  Re  Re9  1  0.829560  0.659155  0.250882  1
  Re  Re10  1  0.829554  0.170438  0.250886  1
  Re  Re11  1  0.340831  0.170431  0.250879  1
