# generated using pymatgen
data_Dy2Ti3Si7Pt9
_symmetry_space_group_name_H-M   'P 1'
_cell_length_a   9.92189900
_cell_length_b   9.92189874
_cell_length_c   3.95240200
_cell_angle_alpha   90.00000000
_cell_angle_beta   90.00000000
_cell_angle_gamma   120.00000420
_symmetry_Int_Tables_number   1
_chemical_formula_structural   Dy2Ti3Si7Pt9
_chemical_formula_sum   'Dy2 Ti3 Si7 Pt9'
_cell_volume   336.96230166
_cell_formula_units_Z   1
loop_
 _symmetry_equiv_pos_site_id
 _symmetry_equiv_pos_as_xyz
  1  'x, y, z'
loop_
 _atom_site_type_symbol
 _atom_site_label
 _atom_site_symmetry_multiplicity
 _atom_site_fract_x
 _atom_site_fract_y
 _atom_site_fract_z
 _atom_site_occupancy
  Dy  Dy0  1  0.000000  0.000000  0.000000  1
  Dy  Dy1  1  0.333333  0.666667  0.500000  1
  Ti  Ti2  1  0.884645  0.453051  0.500000  1
  Ti  Ti3  1  0.568407  0.115355  0.500000  1
  Ti  Ti4  1  0.546949  0.431593  0.500000  1
  Si  Si5  1  0.254831  0.208551  0.500000  1
  Si  Si6  1  0.791449  0.046281  0.500000  1
  Si  Si7  1  0.953719  0.745169  0.500000  1
  Si  Si8  1  0.553623  0.637386  0.000000  1
  Si  Si9  1  0.362614  0.916235  0.000000  1
  Si  Si10  1  0.083765  0.446377  0.000000  1
  Si  Si11  1  0.666667  0.333333  0.000000  1
  Pt  Pt12  1  0.223638  0.942205  0.500000  1
  Pt  Pt13  1  0.057795  0.281434  0.500000  1
  Pt  Pt14  1  0.718566  0.776362  0.500000  1
  Pt  Pt15  1  0.307473  0.408423  0.000000  1
  Pt  Pt16  1  0.591577  0.899051  0.000000  1
  Pt  Pt17  1  0.100949  0.692527  0.000000  1
  Pt  Pt18  1  0.389416  0.174793  0.000000  1
  Pt  Pt19  1  0.825207  0.214622  0.000000  1
  Pt  Pt20  1  0.785378  0.610584  0.000000  1
