# generated using pymatgen
data_Tm8V11Si16Ag
_symmetry_space_group_name_H-M   'P 1'
_cell_length_a   6.80567946
_cell_length_b   6.80567988
_cell_length_c   12.57414900
_cell_angle_alpha   90.10538419
_cell_angle_beta   89.89461567
_cell_angle_gamma   89.54261999
_symmetry_Int_Tables_number   1
_chemical_formula_structural   Tm8V11Si16Ag
_chemical_formula_sum   'Tm8 V11 Si16 Ag1'
_cell_volume   582.37978378
_cell_formula_units_Z   1
loop_
 _symmetry_equiv_pos_site_id
 _symmetry_equiv_pos_as_xyz
  1  'x, y, z'
loop_
 _atom_site_type_symbol
 _atom_site_label
 _atom_site_symmetry_multiplicity
 _atom_site_fract_x
 _atom_site_fract_y
 _atom_site_fract_z
 _atom_site_occupancy
  Tm  Tm0  1  0.000976  0.660237  0.030703  1
  Tm  Tm1  1  0.836603  0.499609  0.282116  1
  Tm  Tm2  1  0.162118  0.500785  0.780618  1
  Tm  Tm3  1  0.499609  0.836603  0.717884  1
  Tm  Tm4  1  0.500785  0.162118  0.219382  1
  Tm  Tm5  1  0.999737  0.337895  0.530507  1
  Tm  Tm6  1  0.660237  0.000976  0.969297  1
  Tm  Tm7  1  0.337895  0.999737  0.469493  1
  V  V8  1  0.167007  0.831462  0.251525  1
  V  V9  1  0.831462  0.167007  0.748475  1
  V  V10  1  0.668770  0.668770  0.500000  1
  V  V11  1  0.005667  0.156770  0.125447  1
  V  V12  1  0.343191  0.507096  0.377498  1
  V  V13  1  0.660628  0.496520  0.875421  1
  V  V14  1  0.507096  0.343191  0.622502  1
  V  V15  1  0.496520  0.660628  0.124579  1
  V  V16  1  0.990525  0.841533  0.626492  1
  V  V17  1  0.156770  0.005667  0.874553  1
  V  V18  1  0.841533  0.990525  0.373508  1
  Si  Si19  1  0.284625  0.945702  0.067633  1
  Si  Si20  1  0.538277  0.789262  0.313961  1
  Si  Si21  1  0.466712  0.209904  0.806787  1
  Si  Si22  1  0.789262  0.538277  0.686039  1
  Si  Si23  1  0.209904  0.466712  0.193213  1
  Si  Si24  1  0.711238  0.039922  0.563462  1
  Si  Si25  1  0.945702  0.284625  0.932367  1
  Si  Si26  1  0.039922  0.711238  0.436538  1
  Si  Si27  1  0.715876  0.378092  0.070009  1
  Si  Si28  1  0.126261  0.199314  0.315833  1
  Si  Si29  1  0.874068  0.799360  0.816213  1
  Si  Si30  1  0.199314  0.126261  0.684167  1
  Si  Si31  1  0.799360  0.874068  0.183787  1
  Si  Si32  1  0.297276  0.625748  0.566915  1
  Si  Si33  1  0.378092  0.715876  0.929991  1
  Si  Si34  1  0.625748  0.297276  0.433085  1
  Ag  Ag35  1  0.331237  0.331237  0.000000  1
