# generated using pymatgen
data_PF18
_symmetry_space_group_name_H-M   'P 1'
_cell_length_a   11.28439500
_cell_length_b   6.07769059
_cell_length_c   10.27937598
_cell_angle_alpha   78.84485826
_cell_angle_beta   90.00000000
_cell_angle_gamma   90.00000000
_symmetry_Int_Tables_number   1
_chemical_formula_structural   PF18
_chemical_formula_sum   'P2 F36'
_cell_volume   691.67162425
_cell_formula_units_Z   2
loop_
 _symmetry_equiv_pos_site_id
 _symmetry_equiv_pos_as_xyz
  1  'x, y, z'
loop_
 _atom_site_type_symbol
 _atom_site_label
 _atom_site_symmetry_multiplicity
 _atom_site_fract_x
 _atom_site_fract_y
 _atom_site_fract_z
 _atom_site_occupancy
  P  P0  1  0.500000  0.500000  0.500000  1
  P  P1  1  0.000000  0.500000  0.000000  1
  F  F2  1  0.380332  0.716981  0.857493  1
  F  F3  1  0.619668  0.283019  0.142507  1
  F  F4  1  0.880332  0.283019  0.642507  1
  F  F5  1  0.119668  0.716981  0.357493  1
  F  F6  1  0.722251  0.794267  0.811176  1
  F  F7  1  0.277749  0.205733  0.188824  1
  F  F8  1  0.222251  0.205733  0.688824  1
  F  F9  1  0.777749  0.794267  0.311176  1
  F  F10  1  0.410000  0.885109  0.746209  1
  F  F11  1  0.590000  0.114891  0.253791  1
  F  F12  1  0.910000  0.114891  0.753791  1
  F  F13  1  0.090000  0.885109  0.246209  1
  F  F14  1  0.447600  0.755427  0.474169  1
  F  F15  1  0.552400  0.244573  0.525831  1
  F  F16  1  0.947600  0.244573  0.025831  1
  F  F17  1  0.052400  0.755427  0.974169  1
  F  F18  1  0.461627  0.465817  0.655203  1
  F  F19  1  0.538373  0.534183  0.344797  1
  F  F20  1  0.961627  0.534183  0.844797  1
  F  F21  1  0.038373  0.465817  0.155203  1
  F  F22  1  0.016745  0.782200  0.600196  1
  F  F23  1  0.983255  0.217800  0.399804  1
  F  F24  1  0.516745  0.217800  0.899804  1
  F  F25  1  0.483255  0.782200  0.100196  1
  F  F26  1  0.400070  0.235491  0.948277  1
  F  F27  1  0.599930  0.764509  0.051723  1
  F  F28  1  0.900070  0.764509  0.551723  1
  F  F29  1  0.099930  0.235491  0.448277  1
  F  F30  1  0.129449  0.406866  0.964298  1
  F  F31  1  0.870551  0.593134  0.035702  1
  F  F32  1  0.629449  0.593134  0.535702  1
  F  F33  1  0.370551  0.406866  0.464298  1
  F  F34  1  0.163882  0.040778  0.784267  1
  F  F35  1  0.836118  0.959222  0.215733  1
  F  F36  1  0.663882  0.959222  0.715733  1
  F  F37  1  0.336118  0.040778  0.284267  1
