# generated using pymatgen
data_Nb4TcP4Ru2Rh
_symmetry_space_group_name_H-M   'P 1'
_cell_length_a   3.75426100
_cell_length_b   6.39230282
_cell_length_c   7.25827157
_cell_angle_alpha   90.52968281
_cell_angle_beta   90.00000000
_cell_angle_gamma   90.00000000
_symmetry_Int_Tables_number   1
_chemical_formula_structural   Nb4TcP4Ru2Rh
_chemical_formula_sum   'Nb4 Tc1 P4 Ru2 Rh1'
_cell_volume   174.17926642
_cell_formula_units_Z   1
loop_
 _symmetry_equiv_pos_site_id
 _symmetry_equiv_pos_as_xyz
  1  'x, y, z'
loop_
 _atom_site_type_symbol
 _atom_site_label
 _atom_site_symmetry_multiplicity
 _atom_site_fract_x
 _atom_site_fract_y
 _atom_site_fract_z
 _atom_site_occupancy
  Nb  Nb0  1  0.250000  0.023302  0.826565  1
  Nb  Nb1  1  0.250000  0.528685  0.669324  1
  Nb  Nb2  1  0.750000  0.977801  0.172905  1
  Nb  Nb3  1  0.750000  0.472555  0.331892  1
  Tc  Tc4  1  0.250000  0.144236  0.441586  1
  P  P5  1  0.250000  0.770397  0.372801  1
  P  P6  1  0.250000  0.269488  0.128264  1
  P  P7  1  0.750000  0.230913  0.623430  1
  P  P8  1  0.750000  0.735782  0.876351  1
  Ru  Ru9  1  0.250000  0.642280  0.060757  1
  Ru  Ru10  1  0.750000  0.851851  0.561485  1
  Rh  Rh11  1  0.750000  0.352708  0.934642  1
