# generated using pymatgen
data_Tb2DyLuCdPt
_symmetry_space_group_name_H-M   'P 1'
_cell_length_a   9.63970075
_cell_length_b   9.63970028
_cell_length_c   9.66466700
_cell_angle_alpha   59.91429023
_cell_angle_beta   59.91429184
_cell_angle_gamma   60.17140843
_symmetry_Int_Tables_number   1
_chemical_formula_structural   Tb2DyLuCdPt
_chemical_formula_sum   'Tb8 Dy4 Lu4 Cd4 Pt4'
_cell_volume   635.02834095
_cell_formula_units_Z   4
loop_
 _symmetry_equiv_pos_site_id
 _symmetry_equiv_pos_as_xyz
  1  'x, y, z'
loop_
 _atom_site_type_symbol
 _atom_site_label
 _atom_site_symmetry_multiplicity
 _atom_site_fract_x
 _atom_site_fract_y
 _atom_site_fract_z
 _atom_site_occupancy
  Tb  Tb0  1  0.187149  0.187149  0.812851  1
  Tb  Tb1  1  0.812851  0.812851  0.187149  1
  Tb  Tb2  1  0.935864  0.564136  0.564136  1
  Tb  Tb3  1  0.564136  0.935864  0.935864  1
  Tb  Tb4  1  0.564136  0.935864  0.564136  1
  Tb  Tb5  1  0.935864  0.564136  0.935864  1
  Tb  Tb6  1  0.563785  0.563785  0.936215  1
  Tb  Tb7  1  0.936215  0.936215  0.563785  1
  Dy  Dy8  1  0.352327  0.352327  0.351208  1
  Dy  Dy9  1  0.352327  0.352327  0.944137  1
  Dy  Dy10  1  0.351208  0.944137  0.352327  1
  Dy  Dy11  1  0.944137  0.351208  0.352327  1
  Lu  Lu12  1  0.810944  0.189056  0.189056  1
  Lu  Lu13  1  0.189056  0.810944  0.810944  1
  Lu  Lu14  1  0.189056  0.810944  0.189056  1
  Lu  Lu15  1  0.810944  0.189056  0.810944  1
  Cd  Cd16  1  0.580970  0.580970  0.582286  1
  Cd  Cd17  1  0.580970  0.580970  0.255773  1
  Cd  Cd18  1  0.582286  0.255773  0.580970  1
  Cd  Cd19  1  0.255773  0.582286  0.580970  1
  Pt  Pt20  1  0.140800  0.140800  0.145440  1
  Pt  Pt21  1  0.140800  0.140800  0.572961  1
  Pt  Pt22  1  0.145440  0.572961  0.140800  1
  Pt  Pt23  1  0.572961  0.145440  0.140800  1
