# generated using pymatgen
data_TbLu4GaBi2
_symmetry_space_group_name_H-M   'P 1'
_cell_length_a   7.99207600
_cell_length_b   9.18805400
_cell_length_c   11.87120600
_cell_angle_alpha   90.00000000
_cell_angle_beta   90.00000000
_cell_angle_gamma   90.00000000
_symmetry_Int_Tables_number   1
_chemical_formula_structural   TbLu4GaBi2
_chemical_formula_sum   'Tb4 Lu16 Ga4 Bi8'
_cell_volume   871.72195750
_cell_formula_units_Z   4
loop_
 _symmetry_equiv_pos_site_id
 _symmetry_equiv_pos_as_xyz
  1  'x, y, z'
loop_
 _atom_site_type_symbol
 _atom_site_label
 _atom_site_symmetry_multiplicity
 _atom_site_fract_x
 _atom_site_fract_y
 _atom_site_fract_z
 _atom_site_occupancy
  Tb  Tb0  1  0.647192  0.750000  0.294325  1
  Tb  Tb1  1  0.852808  0.750000  0.794325  1
  Tb  Tb2  1  0.352808  0.250000  0.705675  1
  Tb  Tb3  1  0.147192  0.250000  0.205675  1
  Lu  Lu4  1  0.821264  0.555308  0.063002  1
  Lu  Lu5  1  0.678736  0.944692  0.563002  1
  Lu  Lu6  1  0.178736  0.055308  0.936998  1
  Lu  Lu7  1  0.321264  0.444692  0.436998  1
  Lu  Lu8  1  0.178736  0.444692  0.936998  1
  Lu  Lu9  1  0.321264  0.055308  0.436998  1
  Lu  Lu10  1  0.821264  0.944692  0.063002  1
  Lu  Lu11  1  0.678736  0.555308  0.563002  1
  Lu  Lu12  1  0.173987  0.750000  0.215259  1
  Lu  Lu13  1  0.326013  0.750000  0.715259  1
  Lu  Lu14  1  0.826013  0.250000  0.784741  1
  Lu  Lu15  1  0.673987  0.250000  0.284741  1
  Lu  Lu16  1  0.462237  0.750000  0.002278  1
  Lu  Lu17  1  0.037763  0.750000  0.502278  1
  Lu  Lu18  1  0.537763  0.250000  0.997722  1
  Lu  Lu19  1  0.962237  0.250000  0.497722  1
  Ga  Ga20  1  0.402250  0.750000  0.475677  1
  Ga  Ga21  1  0.097750  0.750000  0.975677  1
  Ga  Ga22  1  0.597750  0.250000  0.524323  1
  Ga  Ga23  1  0.902250  0.250000  0.024323  1
  Bi  Bi24  1  0.940163  0.509498  0.325496  1
  Bi  Bi25  1  0.559837  0.990502  0.825496  1
  Bi  Bi26  1  0.059837  0.009498  0.674504  1
  Bi  Bi27  1  0.440163  0.490502  0.174504  1
  Bi  Bi28  1  0.059837  0.490502  0.674504  1
  Bi  Bi29  1  0.440163  0.009498  0.174504  1
  Bi  Bi30  1  0.940163  0.990502  0.325496  1
  Bi  Bi31  1  0.559837  0.509498  0.825496  1
