# generated using pymatgen
data_Tb3Y(B10Rh)2
_symmetry_space_group_name_H-M   'P 1'
_cell_length_a   4.16549900
_cell_length_b   5.67901404
_cell_length_c   11.32694201
_cell_angle_alpha   89.99583498
_cell_angle_beta   90.00000000
_cell_angle_gamma   90.00000000
_symmetry_Int_Tables_number   1
_chemical_formula_structural   Tb3Y(B10Rh)2
_chemical_formula_sum   'Tb3 Y1 B20 Rh2'
_cell_volume   267.94931600
_cell_formula_units_Z   1
loop_
 _symmetry_equiv_pos_site_id
 _symmetry_equiv_pos_as_xyz
  1  'x, y, z'
loop_
 _atom_site_type_symbol
 _atom_site_label
 _atom_site_symmetry_multiplicity
 _atom_site_fract_x
 _atom_site_fract_y
 _atom_site_fract_z
 _atom_site_occupancy
  Tb  Tb0  1  0.500000  0.798936  0.635555  1
  Tb  Tb1  1  0.500000  0.298868  0.864338  1
  Tb  Tb2  1  0.500000  0.701132  0.135759  1
  Y  Y3  1  0.500000  0.200339  0.364266  1
  B  B4  1  0.000000  0.381487  0.042538  1
  B  B5  1  0.000000  0.618509  0.957399  1
  B  B6  1  0.000000  0.118404  0.542646  1
  B  B7  1  0.000000  0.881373  0.457535  1
  B  B8  1  0.000000  0.363239  0.197368  1
  B  B9  1  0.000000  0.637006  0.802545  1
  B  B10  1  0.000000  0.136954  0.697422  1
  B  B11  1  0.000000  0.863020  0.302543  1
  B  B12  1  0.000000  0.054954  0.192753  1
  B  B13  1  0.000000  0.945083  0.807238  1
  B  B14  1  0.000000  0.445143  0.692758  1
  B  B15  1  0.000000  0.555086  0.307136  1
  B  B16  1  0.301502  0.219643  0.118820  1
  B  B17  1  0.698469  0.780415  0.881145  1
  B  B18  1  0.301531  0.780415  0.881145  1
  B  B19  1  0.698453  0.280514  0.618938  1
  B  B20  1  0.698498  0.219643  0.118820  1
  B  B21  1  0.301529  0.719813  0.381257  1
  B  B22  1  0.698471  0.719813  0.381257  1
  B  B23  1  0.301547  0.280514  0.618938  1
  Rh  Rh24  1  0.000000  0.999957  0.000016  1
  Rh  Rh25  1  0.000000  0.499738  0.499866  1
