# generated using pymatgen
data_DyZr(SnIr)2
_symmetry_space_group_name_H-M   'P 1'
_cell_length_a   7.48389400
_cell_length_b   7.48389372
_cell_length_c   7.62746800
_cell_angle_alpha   90.00000000
_cell_angle_beta   90.00000000
_cell_angle_gamma   120.00000124
_symmetry_Int_Tables_number   1
_chemical_formula_structural   DyZr(SnIr)2
_chemical_formula_sum   'Dy3 Zr3 Sn6 Ir6'
_cell_volume   369.96978705
_cell_formula_units_Z   3
loop_
 _symmetry_equiv_pos_site_id
 _symmetry_equiv_pos_as_xyz
  1  'x, y, z'
loop_
 _atom_site_type_symbol
 _atom_site_label
 _atom_site_symmetry_multiplicity
 _atom_site_fract_x
 _atom_site_fract_y
 _atom_site_fract_z
 _atom_site_occupancy
  Dy  Dy0  1  0.406043  0.998901  0.250000  1
  Dy  Dy1  1  0.592859  0.593957  0.250000  1
  Dy  Dy2  1  0.001099  0.407141  0.250000  1
  Zr  Zr3  1  0.607074  0.607890  0.750000  1
  Zr  Zr4  1  0.000816  0.392926  0.750000  1
  Zr  Zr5  1  0.392110  0.999184  0.750000  1
  Sn  Sn6  1  0.266125  0.264993  0.505552  1
  Sn  Sn7  1  0.266125  0.264993  0.994448  1
  Sn  Sn8  1  0.735007  0.001132  0.994448  1
  Sn  Sn9  1  0.998868  0.733875  0.505552  1
  Sn  Sn10  1  0.735007  0.001132  0.505552  1
  Sn  Sn11  1  0.998868  0.733875  0.994448  1
  Ir  Ir12  1  0.666667  0.333333  0.533452  1
  Ir  Ir13  1  0.666667  0.333333  0.966548  1
  Ir  Ir14  1  0.333333  0.666667  0.968509  1
  Ir  Ir15  1  0.333333  0.666667  0.531491  1
  Ir  Ir16  1  0.000000  0.000000  0.750000  1
  Ir  Ir17  1  0.000000  0.000000  0.250000  1
