# generated using pymatgen
data_Nb4Si4Ir3Rh
_symmetry_space_group_name_H-M   'P 1'
_cell_length_a   3.80823900
_cell_length_b   6.46546083
_cell_length_c   7.34335510
_cell_angle_alpha   90.08641821
_cell_angle_beta   90.00000000
_cell_angle_gamma   90.00000000
_symmetry_Int_Tables_number   1
_chemical_formula_structural   Nb4Si4Ir3Rh
_chemical_formula_sum   'Nb4 Si4 Ir3 Rh1'
_cell_volume   180.80803106
_cell_formula_units_Z   1
loop_
 _symmetry_equiv_pos_site_id
 _symmetry_equiv_pos_as_xyz
  1  'x, y, z'
loop_
 _atom_site_type_symbol
 _atom_site_label
 _atom_site_symmetry_multiplicity
 _atom_site_fract_x
 _atom_site_fract_y
 _atom_site_fract_z
 _atom_site_occupancy
  Nb  Nb0  1  0.750000  0.524211  0.827281  1
  Nb  Nb1  1  0.250000  0.974955  0.328632  1
  Nb  Nb2  1  0.750000  0.024795  0.671554  1
  Nb  Nb3  1  0.250000  0.475921  0.172410  1
  Si  Si4  1  0.250000  0.229972  0.875203  1
  Si  Si5  1  0.250000  0.730987  0.625957  1
  Si  Si6  1  0.750000  0.770079  0.124106  1
  Si  Si7  1  0.750000  0.269421  0.375007  1
  Ir  Ir8  1  0.250000  0.354079  0.562774  1
  Ir  Ir9  1  0.750000  0.645663  0.437340  1
  Ir  Ir10  1  0.750000  0.145528  0.062631  1
  Rh  Rh11  1  0.250000  0.854389  0.937105  1
