# generated using pymatgen
data_Sc3Al7Si5Ru3
_symmetry_space_group_name_H-M   'P 1'
_cell_length_a   8.45399400
_cell_length_b   8.45399437
_cell_length_c   9.06984400
_cell_angle_alpha   90.00000000
_cell_angle_beta   90.00000000
_cell_angle_gamma   119.99999853
_symmetry_Int_Tables_number   1
_chemical_formula_structural   Sc3Al7Si5Ru3
_chemical_formula_sum   'Sc6 Al14 Si10 Ru6'
_cell_volume   561.37665084
_cell_formula_units_Z   2
loop_
 _symmetry_equiv_pos_site_id
 _symmetry_equiv_pos_as_xyz
  1  'x, y, z'
loop_
 _atom_site_type_symbol
 _atom_site_label
 _atom_site_symmetry_multiplicity
 _atom_site_fract_x
 _atom_site_fract_y
 _atom_site_fract_z
 _atom_site_occupancy
  Sc  Sc0  1  0.197845  0.802155  0.250000  1
  Sc  Sc1  1  0.197845  0.395690  0.250000  1
  Sc  Sc2  1  0.604310  0.802155  0.250000  1
  Sc  Sc3  1  0.802155  0.197845  0.750000  1
  Sc  Sc4  1  0.802155  0.604310  0.750000  1
  Sc  Sc5  1  0.395690  0.197845  0.750000  1
  Al  Al6  1  0.158066  0.841934  0.920155  1
  Al  Al7  1  0.158066  0.316132  0.920155  1
  Al  Al8  1  0.683868  0.841934  0.920155  1
  Al  Al9  1  0.841934  0.158066  0.079845  1
  Al  Al10  1  0.841934  0.683868  0.079845  1
  Al  Al11  1  0.316132  0.158066  0.079845  1
  Al  Al12  1  0.841934  0.158066  0.420155  1
  Al  Al13  1  0.841934  0.683868  0.420155  1
  Al  Al14  1  0.316132  0.158066  0.420155  1
  Al  Al15  1  0.158066  0.841934  0.579845  1
  Al  Al16  1  0.158066  0.316132  0.579845  1
  Al  Al17  1  0.683868  0.841934  0.579845  1
  Al  Al18  1  0.000000  0.000000  0.250000  1
  Al  Al19  1  0.000000  0.000000  0.750000  1
  Si  Si20  1  0.565523  0.434477  0.250000  1
  Si  Si21  1  0.565523  0.131047  0.250000  1
  Si  Si22  1  0.868953  0.434477  0.250000  1
  Si  Si23  1  0.434477  0.565523  0.750000  1
  Si  Si24  1  0.434477  0.868953  0.750000  1
  Si  Si25  1  0.131047  0.565523  0.750000  1
  Si  Si26  1  0.333333  0.666667  0.452915  1
  Si  Si27  1  0.666667  0.333333  0.547085  1
  Si  Si28  1  0.666667  0.333333  0.952915  1
  Si  Si29  1  0.333333  0.666667  0.047085  1
  Ru  Ru30  1  0.500000  0.500000  0.500000  1
  Ru  Ru31  1  0.500000  0.000000  0.500000  1
  Ru  Ru32  1  0.000000  0.500000  0.500000  1
  Ru  Ru33  1  0.500000  0.500000  0.000000  1
  Ru  Ru34  1  0.500000  0.000000  0.000000  1
  Ru  Ru35  1  0.000000  0.500000  0.000000  1
