# generated using pymatgen
data_Y8Ti5Ge16Mo7
_symmetry_space_group_name_H-M   'P 1'
_cell_length_a   6.92223520
_cell_length_b   7.09799711
_cell_length_c   13.37792648
_cell_angle_alpha   90.01036669
_cell_angle_beta   89.96138364
_cell_angle_gamma   90.05535509
_symmetry_Int_Tables_number   1
_chemical_formula_structural   Y8Ti5Ge16Mo7
_chemical_formula_sum   'Y8 Ti5 Ge16 Mo7'
_cell_volume   657.31064569
_cell_formula_units_Z   1
loop_
 _symmetry_equiv_pos_site_id
 _symmetry_equiv_pos_as_xyz
  1  'x, y, z'
loop_
 _atom_site_type_symbol
 _atom_site_label
 _atom_site_symmetry_multiplicity
 _atom_site_fract_x
 _atom_site_fract_y
 _atom_site_fract_z
 _atom_site_occupancy
  Y  Y0  1  0.004697  0.175300  0.405562  1
  Y  Y1  1  0.504672  0.325167  0.094488  1
  Y  Y2  1  0.495290  0.675752  0.594902  1
  Y  Y3  1  0.994816  0.827694  0.905601  1
  Y  Y4  1  0.993666  0.828946  0.594075  1
  Y  Y5  1  0.495667  0.673084  0.905504  1
  Y  Y6  1  0.506601  0.330175  0.406206  1
  Y  Y7  1  0.006436  0.169479  0.095709  1
  Ti  Ti8  1  0.162460  0.331532  0.872324  1
  Ti  Ti9  1  0.158451  0.332464  0.626829  1
  Ti  Ti10  1  0.664043  0.166337  0.871959  1
  Ti  Ti11  1  0.840254  0.666821  0.127997  1
  Ti  Ti12  1  0.340505  0.833774  0.372238  1
  Ge  Ge13  1  0.329009  0.044744  0.544618  1
  Ge  Ge14  1  0.826190  0.455833  0.956211  1
  Ge  Ge15  1  0.670432  0.954916  0.045118  1
  Ge  Ge16  1  0.170756  0.545102  0.455523  1
  Ge  Ge17  1  0.172588  0.542629  0.044191  1
  Ge  Ge18  1  0.672860  0.955382  0.455489  1
  Ge  Ge19  1  0.826227  0.456991  0.544361  1
  Ge  Ge20  1  0.328014  0.044115  0.956693  1
  Ge  Ge21  1  0.808570  0.365387  0.248678  1
  Ge  Ge22  1  0.309204  0.135903  0.251319  1
  Ge  Ge23  1  0.691014  0.864941  0.750557  1
  Ge  Ge24  1  0.193445  0.636017  0.749865  1
  Ge  Ge25  1  0.034980  0.870915  0.252183  1
  Ge  Ge26  1  0.535848  0.628929  0.248602  1
  Ge  Ge27  1  0.465311  0.369545  0.748727  1
  Ge  Ge28  1  0.962657  0.127259  0.750341  1
  Mo  Mo29  1  0.332769  0.834111  0.126788  1
  Mo  Mo30  1  0.834117  0.663862  0.374288  1
  Mo  Mo31  1  0.666736  0.165424  0.624601  1
  Mo  Mo32  1  0.333494  0.011956  0.749038  1
  Mo  Mo33  1  0.665957  0.987618  0.249972  1
  Mo  Mo34  1  0.166238  0.513693  0.250340  1
  Mo  Mo35  1  0.836024  0.488205  0.749104  1
