# generated using pymatgen
data_Tb7Co5Sn23Os
_symmetry_space_group_name_H-M   'P 1'
_cell_length_a   9.75677884
_cell_length_b   9.75677875
_cell_length_c   9.98903202
_cell_angle_alpha   90.23908963
_cell_angle_beta   89.76091083
_cell_angle_gamma   119.95929945
_symmetry_Int_Tables_number   1
_chemical_formula_structural   Tb7Co5Sn23Os
_chemical_formula_sum   'Tb7 Co5 Sn23 Os1'
_cell_volume   823.83432007
_cell_formula_units_Z   1
loop_
 _symmetry_equiv_pos_site_id
 _symmetry_equiv_pos_as_xyz
  1  'x, y, z'
loop_
 _atom_site_type_symbol
 _atom_site_label
 _atom_site_symmetry_multiplicity
 _atom_site_fract_x
 _atom_site_fract_y
 _atom_site_fract_z
 _atom_site_occupancy
  Tb  Tb0  1  0.995356  0.004644  0.005493  1
  Tb  Tb1  1  0.479257  0.520743  0.306344  1
  Tb  Tb2  1  0.521264  0.478736  0.693873  1
  Tb  Tb3  1  0.480442  0.958355  0.305305  1
  Tb  Tb4  1  0.520683  0.042740  0.694193  1
  Tb  Tb5  1  0.041645  0.519558  0.305305  1
  Tb  Tb6  1  0.957260  0.479317  0.694193  1
  Co  Co7  1  0.167733  0.832267  0.803506  1
  Co  Co8  1  0.832380  0.664572  0.196120  1
  Co  Co9  1  0.169366  0.334755  0.801615  1
  Co  Co10  1  0.335428  0.167620  0.196120  1
  Co  Co11  1  0.665245  0.830634  0.801615  1
  Sn  Sn12  1  0.343807  0.999078  0.999728  1
  Sn  Sn13  1  0.647861  0.995525  0.994580  1
  Sn  Sn14  1  0.004475  0.352139  0.994580  1
  Sn  Sn15  1  0.000922  0.656193  0.999728  1
  Sn  Sn16  1  0.653318  0.653380  0.999364  1
  Sn  Sn17  1  0.346620  0.346682  0.999364  1
  Sn  Sn18  1  0.333409  0.666591  0.816713  1
  Sn  Sn19  1  0.665577  0.334423  0.180349  1
  Sn  Sn20  1  0.999670  0.000330  0.502129  1
  Sn  Sn21  1  0.780032  0.219968  0.457034  1
  Sn  Sn22  1  0.218413  0.781587  0.549852  1
  Sn  Sn23  1  0.781271  0.562631  0.450850  1
  Sn  Sn24  1  0.218988  0.437857  0.549127  1
  Sn  Sn25  1  0.437369  0.218729  0.450850  1
  Sn  Sn26  1  0.562143  0.781012  0.549127  1
  Sn  Sn27  1  0.333898  0.666102  0.116711  1
  Sn  Sn28  1  0.665965  0.334035  0.881618  1
  Sn  Sn29  1  0.117857  0.882143  0.273522  1
  Sn  Sn30  1  0.882369  0.117631  0.725952  1
  Sn  Sn31  1  0.123653  0.235307  0.278200  1
  Sn  Sn32  1  0.884246  0.765944  0.725905  1
  Sn  Sn33  1  0.764693  0.876347  0.278200  1
  Sn  Sn34  1  0.234056  0.115754  0.725905  1
  Os  Os35  1  0.833333  0.166667  0.196932  1
