# generated using pymatgen
data_Tb13Yb7Ir12
_symmetry_space_group_name_H-M   'P 1'
_cell_length_a   6.29852030
_cell_length_b   10.89429975
_cell_length_c   11.03602777
_cell_angle_alpha   90.14284171
_cell_angle_beta   90.11641443
_cell_angle_gamma   89.85903531
_symmetry_Int_Tables_number   1
_chemical_formula_structural   Tb13Yb7Ir12
_chemical_formula_sum   'Tb13 Yb7 Ir12'
_cell_volume   757.26360229
_cell_formula_units_Z   1
loop_
 _symmetry_equiv_pos_site_id
 _symmetry_equiv_pos_as_xyz
  1  'x, y, z'
loop_
 _atom_site_type_symbol
 _atom_site_label
 _atom_site_symmetry_multiplicity
 _atom_site_fract_x
 _atom_site_fract_y
 _atom_site_fract_z
 _atom_site_occupancy
  Tb  Tb0  1  0.376062  0.840136  0.538885  1
  Tb  Tb1  1  0.876719  0.661314  0.539300  1
  Tb  Tb2  1  0.878481  0.839363  0.958870  1
  Tb  Tb3  1  0.378399  0.660452  0.958837  1
  Tb  Tb4  1  0.881120  0.538763  0.837912  1
  Tb  Tb5  1  0.379567  0.961649  0.837431  1
  Tb  Tb6  1  0.378078  0.539447  0.659304  1
  Tb  Tb7  1  0.877939  0.961871  0.660996  1
  Tb  Tb8  1  0.616838  0.162160  0.456248  1
  Tb  Tb9  1  0.117359  0.337670  0.457005  1
  Tb  Tb10  1  0.118788  0.157489  0.045599  1
  Tb  Tb11  1  0.620012  0.339285  0.044988  1
  Tb  Tb12  1  0.116929  0.459023  0.163128  1
  Yb  Yb13  1  0.620745  0.038149  0.162047  1
  Yb  Yb14  1  0.622207  0.462119  0.339105  1
  Yb  Yb15  1  0.122592  0.039844  0.338488  1
  Yb  Yb16  1  0.501177  0.748535  0.250057  1
  Yb  Yb17  1  0.001278  0.754155  0.249897  1
  Yb  Yb18  1  0.007939  0.249304  0.751172  1
  Yb  Yb19  1  0.507510  0.251210  0.751710  1
  Ir  Ir20  1  0.252120  0.898823  0.082905  1
  Ir  Ir21  1  0.755899  0.599503  0.085364  1
  Ir  Ir22  1  0.746487  0.902340  0.415262  1
  Ir  Ir23  1  0.241739  0.595964  0.409285  1
  Ir  Ir24  1  0.755663  0.091876  0.902826  1
  Ir  Ir25  1  0.250559  0.405121  0.911517  1
  Ir  Ir26  1  0.256473  0.093180  0.597332  1
  Ir  Ir27  1  0.754976  0.407540  0.598724  1
  Ir  Ir28  1  0.118003  0.749705  0.748694  1
  Ir  Ir29  1  0.616075  0.749633  0.748765  1
  Ir  Ir30  1  0.875843  0.252130  0.249068  1
  Ir  Ir31  1  0.376425  0.252248  0.249281  1
