# generated using pymatgen
data_Cs17Sc5O16
_symmetry_space_group_name_H-M   'P 1'
_cell_length_a   20.31858469
_cell_length_b   20.31858579
_cell_length_c   7.57413266
_cell_angle_alpha   84.70718710
_cell_angle_beta   84.70719105
_cell_angle_gamma   158.61079283
_symmetry_Int_Tables_number   1
_chemical_formula_structural   Cs17Sc5O16
_chemical_formula_sum   'Cs17 Sc5 O16'
_cell_volume   989.52884315
_cell_formula_units_Z   1
loop_
 _symmetry_equiv_pos_site_id
 _symmetry_equiv_pos_as_xyz
  1  'x, y, z'
loop_
 _atom_site_type_symbol
 _atom_site_label
 _atom_site_symmetry_multiplicity
 _atom_site_fract_x
 _atom_site_fract_y
 _atom_site_fract_z
 _atom_site_occupancy
  Cs  Cs0  1  0.395056  0.672745  0.056313  1
  Cs  Cs1  1  0.482599  0.574713  0.076740  1
  Cs  Cs2  1  0.315854  0.781153  0.072531  1
  Cs  Cs3  1  0.084748  0.913990  0.195813  1
  Cs  Cs4  1  0.168427  0.828815  0.470473  1
  Cs  Cs5  1  0.327169  0.599544  0.592044  1
  Cs  Cs6  1  0.223246  0.677044  0.611598  1
  Cs  Cs7  1  0.419418  0.510535  0.609908  1
  Cs  Cs8  1  0.672745  0.395056  0.056313  1
  Cs  Cs9  1  0.574713  0.482599  0.076740  1
  Cs  Cs10  1  0.781153  0.315854  0.072531  1
  Cs  Cs11  1  0.913990  0.084748  0.195813  1
  Cs  Cs12  1  0.828815  0.168427  0.470473  1
  Cs  Cs13  1  0.599544  0.327169  0.592044  1
  Cs  Cs14  1  0.677044  0.223246  0.611598  1
  Cs  Cs15  1  0.510535  0.419418  0.609908  1
  Cs  Cs16  1  0.995021  0.995021  0.482538  1
  Sc  Sc17  1  0.996951  0.996951  0.983310  1
  Sc  Sc18  1  0.084921  0.907271  0.695867  1
  Sc  Sc19  1  0.176578  0.821996  0.980875  1
  Sc  Sc20  1  0.907271  0.084921  0.695867  1
  Sc  Sc21  1  0.821996  0.176578  0.980875  1
  O  O22  1  0.070094  0.440013  0.995345  1
  O  O23  1  0.153856  0.337097  0.425746  1
  O  O24  1  0.440013  0.070094  0.995345  1
  O  O25  1  0.246151  0.246151  0.008115  1
  O  O26  1  0.562869  0.930285  0.249681  1
  O  O27  1  0.209797  0.786382  0.789710  1
  O  O28  1  0.040161  0.953633  0.831151  1
  O  O29  1  0.127988  0.869870  0.865442  1
  O  O30  1  0.337097  0.153856  0.425746  1
  O  O31  1  0.656084  0.839111  0.670393  1
  O  O32  1  0.930285  0.562869  0.249681  1
  O  O33  1  0.746814  0.746814  0.253273  1
  O  O34  1  0.786382  0.209797  0.789710  1
  O  O35  1  0.953633  0.040161  0.831151  1
  O  O36  1  0.869870  0.127988  0.865442  1
  O  O37  1  0.839111  0.656084  0.670393  1
