# generated using pymatgen
data_Nd7Er13Ga16
_symmetry_space_group_name_H-M   'P 1'
_cell_length_a   7.90069655
_cell_length_b   7.90594819
_cell_length_c   14.61529200
_cell_angle_alpha   90.00776897
_cell_angle_beta   89.86931901
_cell_angle_gamma   90.07127901
_symmetry_Int_Tables_number   1
_chemical_formula_structural   Nd7Er13Ga16
_chemical_formula_sum   'Nd7 Er13 Ga16'
_cell_volume   912.90455205
_cell_formula_units_Z   1
loop_
 _symmetry_equiv_pos_site_id
 _symmetry_equiv_pos_as_xyz
  1  'x, y, z'
loop_
 _atom_site_type_symbol
 _atom_site_label
 _atom_site_symmetry_multiplicity
 _atom_site_fract_x
 _atom_site_fract_y
 _atom_site_fract_z
 _atom_site_occupancy
  Nd  Nd0  1  0.358675  0.008150  0.958531  1
  Nd  Nd1  1  0.990984  0.642423  0.540156  1
  Nd  Nd2  1  0.490339  0.858668  0.209814  1
  Nd  Nd3  1  0.510234  0.139438  0.707610  1
  Nd  Nd4  1  0.859613  0.489630  0.791193  1
  Nd  Nd5  1  0.139727  0.509222  0.292276  1
  Nd  Nd6  1  0.008470  0.358652  0.042317  1
  Er  Er7  1  0.491712  0.359141  0.124953  1
  Er  Er8  1  0.991890  0.139328  0.623939  1
  Er  Er9  1  0.859794  0.007373  0.874736  1
  Er  Er10  1  0.139957  0.993984  0.375069  1
  Er  Er11  1  0.510102  0.642058  0.622528  1
  Er  Er12  1  0.359112  0.491729  0.875260  1
  Er  Er13  1  0.641322  0.508615  0.376019  1
  Er  Er14  1  0.006086  0.858734  0.126534  1
  Er  Er15  1  0.636098  0.994613  0.456944  1
  Er  Er16  1  0.319432  0.317517  0.500008  1
  Er  Er17  1  0.183868  0.817084  0.749090  1
  Er  Er18  1  0.815384  0.181591  0.250988  1
  Er  Er19  1  0.682073  0.681620  0.000131  1
  Ga  Ga20  1  0.293657  0.939323  0.561174  1
  Ga  Ga21  1  0.711372  0.062470  0.062363  1
  Ga  Ga22  1  0.935798  0.287193  0.438018  1
  Ga  Ga23  1  0.438693  0.210645  0.312708  1
  Ga  Ga24  1  0.563077  0.787481  0.811367  1
  Ga  Ga25  1  0.212405  0.437468  0.687417  1
  Ga  Ga26  1  0.787471  0.564328  0.189197  1
  Ga  Ga27  1  0.062709  0.711462  0.938075  1
  Ga  Ga28  1  0.799375  0.845690  0.688395  1
  Ga  Ga29  1  0.202798  0.151531  0.188583  1
  Ga  Ga30  1  0.844366  0.801133  0.315352  1
  Ga  Ga31  1  0.351284  0.706917  0.436895  1
  Ga  Ga32  1  0.651985  0.296717  0.938401  1
  Ga  Ga33  1  0.700754  0.343755  0.560701  1
  Ga  Ga34  1  0.296349  0.652186  0.062277  1
  Ga  Ga35  1  0.153033  0.202129  0.810978  1
