# generated using pymatgen
data_Ho8SiAsI12
_symmetry_space_group_name_H-M   'P 1'
_cell_length_a   4.20764800
_cell_length_b   13.88516177
_cell_length_c   14.67898256
_cell_angle_alpha   89.76858913
_cell_angle_beta   90.00000000
_cell_angle_gamma   90.00000000
_symmetry_Int_Tables_number   1
_chemical_formula_structural   Ho8SiAsI12
_chemical_formula_sum   'Ho8 Si1 As1 I12'
_cell_volume   857.59602008
_cell_formula_units_Z   1
loop_
 _symmetry_equiv_pos_site_id
 _symmetry_equiv_pos_as_xyz
  1  'x, y, z'
loop_
 _atom_site_type_symbol
 _atom_site_label
 _atom_site_symmetry_multiplicity
 _atom_site_fract_x
 _atom_site_fract_y
 _atom_site_fract_z
 _atom_site_occupancy
  Ho  Ho0  1  0.500000  0.114604  0.347074  1
  Ho  Ho1  1  0.500000  0.885396  0.652926  1
  Ho  Ho2  1  0.500000  0.613700  0.151431  1
  Ho  Ho3  1  0.500000  0.386300  0.848569  1
  Ho  Ho4  1  0.000000  0.109773  0.573157  1
  Ho  Ho5  1  0.000000  0.890227  0.426843  1
  Ho  Ho6  1  0.000000  0.610400  0.926154  1
  Ho  Ho7  1  0.000000  0.389600  0.073846  1
  Si  Si8  1  0.500000  0.500000  0.000000  1
  As  As9  1  0.500000  0.000000  0.500000  1
  I  I10  1  0.500000  0.244773  0.162255  1
  I  I11  1  0.500000  0.755227  0.837745  1
  I  I12  1  0.500000  0.746844  0.340204  1
  I  I13  1  0.500000  0.253156  0.659796  1
  I  I14  1  0.000000  0.258225  0.414199  1
  I  I15  1  0.000000  0.741775  0.585801  1
  I  I16  1  0.000000  0.759115  0.085992  1
  I  I17  1  0.000000  0.240885  0.914008  1
  I  I18  1  0.000000  0.999324  0.241334  1
  I  I19  1  0.000000  0.000676  0.758666  1
  I  I20  1  0.000000  0.499870  0.259914  1
  I  I21  1  0.000000  0.500130  0.740086  1
