# generated using pymatgen
data_YLu3Ga18(Ir2Pd)2
_symmetry_space_group_name_H-M   'P 1'
_cell_length_a   7.58775841
_cell_length_b   7.58849295
_cell_length_c   9.44428200
_cell_angle_alpha   90.00000000
_cell_angle_beta   90.00000000
_cell_angle_gamma   119.74949850
_symmetry_Int_Tables_number   1
_chemical_formula_structural   YLu3Ga18(Ir2Pd)2
_chemical_formula_sum   'Y1 Lu3 Ga18 Ir4 Pd2'
_cell_volume   472.12754276
_cell_formula_units_Z   1
loop_
 _symmetry_equiv_pos_site_id
 _symmetry_equiv_pos_as_xyz
  1  'x, y, z'
loop_
 _atom_site_type_symbol
 _atom_site_label
 _atom_site_symmetry_multiplicity
 _atom_site_fract_x
 _atom_site_fract_y
 _atom_site_fract_z
 _atom_site_occupancy
  Y  Y0  1  0.329865  0.003404  0.750000  1
  Lu  Lu1  1  0.997390  0.670516  0.250000  1
  Lu  Lu2  1  0.003004  0.329978  0.750000  1
  Lu  Lu3  1  0.670954  0.997725  0.250000  1
  Ga  Ga4  1  0.126857  0.127525  0.250000  1
  Ga  Ga5  1  0.869444  0.870660  0.750000  1
  Ga  Ga6  1  0.998134  0.336939  0.083000  1
  Ga  Ga7  1  0.000637  0.660887  0.918998  1
  Ga  Ga8  1  0.000637  0.660887  0.581002  1
  Ga  Ga9  1  0.337341  0.998067  0.415704  1
  Ga  Ga10  1  0.998134  0.336939  0.417000  1
  Ga  Ga11  1  0.663874  0.001712  0.580605  1
  Ga  Ga12  1  0.663874  0.001712  0.919395  1
  Ga  Ga13  1  0.337341  0.998067  0.084296  1
  Ga  Ga14  1  0.333673  0.335096  0.568521  1
  Ga  Ga15  1  0.665978  0.666041  0.428222  1
  Ga  Ga16  1  0.665978  0.666041  0.071778  1
  Ga  Ga17  1  0.333673  0.335096  0.931479  1
  Ga  Ga18  1  0.337451  0.547386  0.250000  1
  Ga  Ga19  1  0.664582  0.455041  0.750000  1
  Ga  Ga20  1  0.547369  0.337799  0.250000  1
  Ga  Ga21  1  0.453764  0.663324  0.750000  1
  Ir  Ir22  1  0.671693  0.328507  0.000516  1
  Ir  Ir23  1  0.328450  0.671733  0.000585  1
  Ir  Ir24  1  0.328450  0.671733  0.499415  1
  Ir  Ir25  1  0.671693  0.328507  0.499484  1
  Pd  Pd26  1  0.999880  0.999339  0.000017  1
  Pd  Pd27  1  0.999880  0.999339  0.499983  1
