# generated using pymatgen
data_Pr3DyMg2Ir3
_symmetry_space_group_name_H-M   'P 1'
_cell_length_a   7.61637800
_cell_length_b   7.61254890
_cell_length_c   4.21096500
_cell_angle_alpha   90.00000000
_cell_angle_beta   90.00000000
_cell_angle_gamma   120.01664044
_symmetry_Int_Tables_number   1
_chemical_formula_structural   Pr3DyMg2Ir3
_chemical_formula_sum   'Pr3 Dy1 Mg2 Ir3'
_cell_volume   211.40633724
_cell_formula_units_Z   1
loop_
 _symmetry_equiv_pos_site_id
 _symmetry_equiv_pos_as_xyz
  1  'x, y, z'
loop_
 _atom_site_type_symbol
 _atom_site_label
 _atom_site_symmetry_multiplicity
 _atom_site_fract_x
 _atom_site_fract_y
 _atom_site_fract_z
 _atom_site_occupancy
  Pr  Pr0  1  0.393869  0.000000  0.500000  1
  Pr  Pr1  1  0.017848  0.433919  0.500000  1
  Pr  Pr2  1  0.583928  0.566081  0.500000  1
  Dy  Dy3  1  0.753932  0.000000  0.000000  1
  Mg  Mg4  1  0.242223  0.244086  0.000000  1
  Mg  Mg5  1  0.998137  0.755913  0.000000  1
  Ir  Ir6  1  0.669961  0.329576  0.000000  1
  Ir  Ir7  1  0.340385  0.670424  0.000000  1
  Ir  Ir8  1  0.999719  0.000000  0.500000  1
