# generated using pymatgen
data_LiTm12Tc3Sn
_symmetry_space_group_name_H-M   'P 1'
_cell_length_a   8.36327500
_cell_length_b   8.36327443
_cell_length_c   8.36327500
_cell_angle_alpha   109.04340828
_cell_angle_beta   108.99172564
_cell_angle_gamma   110.38239127
_symmetry_Int_Tables_number   1
_chemical_formula_structural   LiTm12Tc3Sn
_chemical_formula_sum   'Li1 Tm12 Tc3 Sn1'
_cell_volume   450.21980630
_cell_formula_units_Z   1
loop_
 _symmetry_equiv_pos_site_id
 _symmetry_equiv_pos_as_xyz
  1  'x, y, z'
loop_
 _atom_site_type_symbol
 _atom_site_label
 _atom_site_symmetry_multiplicity
 _atom_site_fract_x
 _atom_site_fract_y
 _atom_site_fract_z
 _atom_site_occupancy
  Li  Li0  1  0.500000  0.000000  0.500000  1
  Tm  Tm1  1  0.186120  0.426110  0.239991  1
  Tm  Tm2  1  0.813880  0.573890  0.760009  1
  Tm  Tm3  1  0.186120  0.946130  0.760009  1
  Tm  Tm4  1  0.940103  0.185911  0.754191  1
  Tm  Tm5  1  0.813880  0.053870  0.239991  1
  Tm  Tm6  1  0.059897  0.814089  0.245809  1
  Tm  Tm7  1  0.431718  0.185911  0.245809  1
  Tm  Tm8  1  0.568282  0.814089  0.754191  1
  Tm  Tm9  1  0.318690  0.323558  0.642249  1
  Tm  Tm10  1  0.681310  0.676442  0.357751  1
  Tm  Tm11  1  0.681310  0.323558  0.004869  1
  Tm  Tm12  1  0.318690  0.676442  0.995131  1
  Tc  Tc13  1  0.336922  0.336922  0.000000  1
  Tc  Tc14  1  0.663078  0.663078  0.000000  1
  Tc  Tc15  1  0.000000  0.000000  0.000000  1
  Sn  Sn16  1  0.000000  0.500000  0.500000  1
