# generated using pymatgen
data_Er5TmCo16(MoP6)2
_symmetry_space_group_name_H-M   'P 1'
_cell_length_a   3.70339000
_cell_length_b   10.53270000
_cell_length_c   12.19335300
_cell_angle_alpha   90.00323155
_cell_angle_beta   90.00000000
_cell_angle_gamma   90.00000000
_symmetry_Int_Tables_number   1
_chemical_formula_structural   Er5TmCo16(MoP6)2
_chemical_formula_sum   'Er5 Tm1 Co16 Mo2 P12'
_cell_volume   475.62241152
_cell_formula_units_Z   1
loop_
 _symmetry_equiv_pos_site_id
 _symmetry_equiv_pos_as_xyz
  1  'x, y, z'
loop_
 _atom_site_type_symbol
 _atom_site_label
 _atom_site_symmetry_multiplicity
 _atom_site_fract_x
 _atom_site_fract_y
 _atom_site_fract_z
 _atom_site_occupancy
  Er  Er0  1  0.750000  0.249943  0.475483  1
  Er  Er1  1  0.250000  0.750047  0.524656  1
  Er  Er2  1  0.250000  0.569193  0.795086  1
  Er  Er3  1  0.750000  0.069151  0.205053  1
  Er  Er4  1  0.750000  0.430902  0.204868  1
  Tm  Tm5  1  0.250000  0.930871  0.795006  1
  Co  Co6  1  0.250000  0.249939  0.299039  1
  Co  Co7  1  0.750000  0.750324  0.701127  1
  Co  Co8  1  0.750000  0.249962  0.013673  1
  Co  Co9  1  0.250000  0.750091  0.986059  1
  Co  Co10  1  0.250000  0.417495  0.010057  1
  Co  Co11  1  0.250000  0.082309  0.009925  1
  Co  Co12  1  0.750000  0.582575  0.989774  1
  Co  Co13  1  0.750000  0.917592  0.989620  1
  Co  Co14  1  0.250000  0.454124  0.568435  1
  Co  Co15  1  0.250000  0.045852  0.568652  1
  Co  Co16  1  0.750000  0.545916  0.431618  1
  Co  Co17  1  0.750000  0.954098  0.431784  1
  Co  Co18  1  0.250000  0.872342  0.293697  1
  Co  Co19  1  0.250000  0.627647  0.293643  1
  Co  Co20  1  0.750000  0.127357  0.706569  1
  Co  Co21  1  0.750000  0.372275  0.706309  1
  Mo  Mo22  1  0.250000  0.249943  0.843340  1
  Mo  Mo23  1  0.750000  0.750005  0.156590  1
  P  P24  1  0.250000  0.249978  0.119780  1
  P  P25  1  0.750000  0.750265  0.879953  1
  P  P26  1  0.250000  0.250034  0.649679  1
  P  P27  1  0.750000  0.749999  0.350348  1
  P  P28  1  0.250000  0.438126  0.383870  1
  P  P29  1  0.250000  0.061839  0.384002  1
  P  P30  1  0.750000  0.561947  0.616176  1
  P  P31  1  0.750000  0.938092  0.616523  1
  P  P32  1  0.250000  0.905741  0.107353  1
  P  P33  1  0.250000  0.594366  0.107224  1
  P  P34  1  0.750000  0.093985  0.892383  1
  P  P35  1  0.750000  0.405676  0.892647  1
