# generated using pymatgen
data_Rb4Zr6GeBr18
_symmetry_space_group_name_H-M   'P 1'
_cell_length_a   11.02944658
_cell_length_b   11.02944632
_cell_length_c   10.72431349
_cell_angle_alpha   77.20011817
_cell_angle_beta   77.20011240
_cell_angle_gamma   117.63129386
_symmetry_Int_Tables_number   1
_chemical_formula_structural   Rb4Zr6GeBr18
_chemical_formula_sum   'Rb4 Zr6 Ge1 Br18'
_cell_volume   1044.66921643
_cell_formula_units_Z   1
loop_
 _symmetry_equiv_pos_site_id
 _symmetry_equiv_pos_as_xyz
  1  'x, y, z'
loop_
 _atom_site_type_symbol
 _atom_site_label
 _atom_site_symmetry_multiplicity
 _atom_site_fract_x
 _atom_site_fract_y
 _atom_site_fract_z
 _atom_site_occupancy
  Rb  Rb0  1  0.767737  0.445179  0.685285  1
  Rb  Rb1  1  0.554821  0.232263  0.314715  1
  Rb  Rb2  1  0.232263  0.554821  0.314715  1
  Rb  Rb3  1  0.445179  0.767737  0.685285  1
  Zr  Zr4  1  0.127924  0.127924  0.145951  1
  Zr  Zr5  1  0.872076  0.872076  0.854049  1
  Zr  Zr6  1  0.946460  0.755566  0.155802  1
  Zr  Zr7  1  0.244434  0.053540  0.844198  1
  Zr  Zr8  1  0.053540  0.244434  0.844198  1
  Zr  Zr9  1  0.755566  0.946460  0.155802  1
  Ge  Ge10  1  0.000000  0.000000  0.000000  1
  Br  Br11  1  0.806137  0.598989  0.010851  1
  Br  Br12  1  0.401012  0.193863  0.989149  1
  Br  Br13  1  0.193863  0.401012  0.989149  1
  Br  Br14  1  0.598988  0.806137  0.010851  1
  Br  Br15  1  0.205802  0.794198  0.000000  1
  Br  Br16  1  0.794198  0.205802  0.000000  1
  Br  Br17  1  0.322245  0.322245  0.669815  1
  Br  Br18  1  0.677755  0.677755  0.330185  1
  Br  Br19  1  0.886325  0.489640  0.331249  1
  Br  Br20  1  0.510360  0.113675  0.668751  1
  Br  Br21  1  0.113675  0.510360  0.668751  1
  Br  Br22  1  0.489640  0.886325  0.331249  1
  Br  Br23  1  0.268103  0.268103  0.299747  1
  Br  Br24  1  0.731897  0.731897  0.700253  1
  Br  Br25  1  0.080512  0.874946  0.320378  1
  Br  Br26  1  0.125054  0.919488  0.679622  1
  Br  Br27  1  0.919488  0.125054  0.679622  1
  Br  Br28  1  0.874946  0.080512  0.320378  1
