# generated using pymatgen
data_Ho8In2OsRh
_symmetry_space_group_name_H-M   'P 1'
_cell_length_a   9.62551253
_cell_length_b   9.68317912
_cell_length_c   9.62551271
_cell_angle_alpha   59.80162107
_cell_angle_beta   59.58911352
_cell_angle_gamma   59.80162063
_symmetry_Int_Tables_number   1
_chemical_formula_structural   Ho8In2OsRh
_chemical_formula_sum   'Ho16 In4 Os2 Rh2'
_cell_volume   630.49733352
_cell_formula_units_Z   2
loop_
 _symmetry_equiv_pos_site_id
 _symmetry_equiv_pos_as_xyz
  1  'x, y, z'
loop_
 _atom_site_type_symbol
 _atom_site_label
 _atom_site_symmetry_multiplicity
 _atom_site_fract_x
 _atom_site_fract_y
 _atom_site_fract_z
 _atom_site_occupancy
  Ho  Ho0  1  0.189950  0.191892  0.804547  1
  Ho  Ho1  1  0.598048  0.597394  0.207163  1
  Ho  Ho2  1  0.441306  0.058694  0.441306  1
  Ho  Ho3  1  0.439375  0.444247  0.059318  1
  Ho  Ho4  1  0.812239  0.187761  0.812239  1
  Ho  Ho5  1  0.193789  0.806211  0.193789  1
  Ho  Ho6  1  0.439375  0.057059  0.059318  1
  Ho  Ho7  1  0.189950  0.813611  0.804547  1
  Ho  Ho8  1  0.056726  0.443274  0.056726  1
  Ho  Ho9  1  0.804547  0.813611  0.189950  1
  Ho  Ho10  1  0.207163  0.597394  0.598048  1
  Ho  Ho11  1  0.059318  0.444247  0.439375  1
  Ho  Ho12  1  0.059318  0.057059  0.439375  1
  Ho  Ho13  1  0.804547  0.191892  0.189950  1
  Ho  Ho14  1  0.599032  0.203079  0.599032  1
  Ho  Ho15  1  0.599032  0.598858  0.599032  1
  In  In16  1  0.832045  0.833411  0.832045  1
  In  In17  1  0.833028  0.832776  0.501421  1
  In  In18  1  0.501421  0.832776  0.833028  1
  In  In19  1  0.832045  0.502500  0.832045  1
  Os  Os20  1  0.392466  0.828464  0.392466  1
  Os  Os21  1  0.392466  0.386604  0.392466  1
  Rh  Rh22  1  0.830227  0.388592  0.392589  1
  Rh  Rh23  1  0.392589  0.388592  0.830227  1
