# generated using pymatgen
data_Ho2Er2Co3SiI2
_symmetry_space_group_name_H-M   'P 1'
_cell_length_a   3.98284600
_cell_length_b   3.98284789
_cell_length_c   16.78282500
_cell_angle_alpha   90.00000000
_cell_angle_beta   90.00000000
_cell_angle_gamma   119.99998429
_symmetry_Int_Tables_number   1
_chemical_formula_structural   Ho2Er2Co3SiI2
_chemical_formula_sum   'Ho2 Er2 Co3 Si1 I2'
_cell_volume   230.55948936
_cell_formula_units_Z   1
loop_
 _symmetry_equiv_pos_site_id
 _symmetry_equiv_pos_as_xyz
  1  'x, y, z'
loop_
 _atom_site_type_symbol
 _atom_site_label
 _atom_site_symmetry_multiplicity
 _atom_site_fract_x
 _atom_site_fract_y
 _atom_site_fract_z
 _atom_site_occupancy
  Ho  Ho0  1  0.000000  0.000000  0.604866  1
  Ho  Ho1  1  0.000000  0.000000  0.397480  1
  Er  Er2  1  0.000000  0.000000  0.101923  1
  Er  Er3  1  0.000000  0.000000  0.898322  1
  Co  Co4  1  0.666667  0.333333  0.494519  1
  Co  Co5  1  0.666667  0.333333  0.001521  1
  Co  Co6  1  0.333333  0.666667  0.998490  1
  Si  Si7  1  0.333333  0.666667  0.504022  1
  I  I8  1  0.333333  0.666667  0.250686  1
  I  I9  1  0.666667  0.333333  0.748172  1
