# generated using pymatgen
data_CaInSnIr
_symmetry_space_group_name_H-M   'P 1'
_cell_length_a   5.82902675
_cell_length_b   5.82902675
_cell_length_c   7.68537300
_cell_angle_alpha   90.00000000
_cell_angle_beta   90.00000000
_cell_angle_gamma   135.47684715
_symmetry_Int_Tables_number   1
_chemical_formula_structural   CaInSnIr
_chemical_formula_sum   'Ca2 In2 Sn2 Ir2'
_cell_volume   183.10380120
_cell_formula_units_Z   2
loop_
 _symmetry_equiv_pos_site_id
 _symmetry_equiv_pos_as_xyz
  1  'x, y, z'
loop_
 _atom_site_type_symbol
 _atom_site_label
 _atom_site_symmetry_multiplicity
 _atom_site_fract_x
 _atom_site_fract_y
 _atom_site_fract_z
 _atom_site_occupancy
  Ca  Ca0  1  0.933571  0.066429  0.750000  1
  Ca  Ca1  1  0.069107  0.930893  0.250000  1
  In  In2  1  0.643581  0.356419  0.950781  1
  In  In3  1  0.643581  0.356419  0.549219  1
  Sn  Sn4  1  0.352229  0.647771  0.049053  1
  Sn  Sn5  1  0.352229  0.647771  0.450947  1
  Ir  Ir6  1  0.216142  0.783858  0.750000  1
  Ir  Ir7  1  0.789560  0.210440  0.250000  1
