# generated using pymatgen
data_La2Zn5Si
_symmetry_space_group_name_H-M   'P 1'
_cell_length_a   8.45975303
_cell_length_b   8.45975246
_cell_length_c   8.93200700
_cell_angle_alpha   90.00000000
_cell_angle_beta   90.00000000
_cell_angle_gamma   149.02767833
_symmetry_Int_Tables_number   1
_chemical_formula_structural   La2Zn5Si
_chemical_formula_sum   'La4 Zn10 Si2'
_cell_volume   328.96854712
_cell_formula_units_Z   2
loop_
 _symmetry_equiv_pos_site_id
 _symmetry_equiv_pos_as_xyz
  1  'x, y, z'
loop_
 _atom_site_type_symbol
 _atom_site_label
 _atom_site_symmetry_multiplicity
 _atom_site_fract_x
 _atom_site_fract_y
 _atom_site_fract_z
 _atom_site_occupancy
  La  La0  1  0.205215  0.794785  0.250000  1
  La  La1  1  0.794785  0.205215  0.750000  1
  La  La2  1  0.000000  0.000000  0.500000  1
  La  La3  1  0.000000  0.000000  0.000000  1
  Zn  Zn4  1  0.814564  0.185436  0.392377  1
  Zn  Zn5  1  0.185436  0.814564  0.607623  1
  Zn  Zn6  1  0.814564  0.185436  0.107623  1
  Zn  Zn7  1  0.185436  0.814564  0.892377  1
  Zn  Zn8  1  0.649823  0.350177  0.478361  1
  Zn  Zn9  1  0.350177  0.649823  0.521639  1
  Zn  Zn10  1  0.649823  0.350177  0.021639  1
  Zn  Zn11  1  0.350177  0.649823  0.978361  1
  Zn  Zn12  1  0.407443  0.592557  0.250000  1
  Zn  Zn13  1  0.592557  0.407443  0.750000  1
  Si  Si14  1  0.559317  0.440683  0.250000  1
  Si  Si15  1  0.440683  0.559317  0.750000  1
