# generated using pymatgen
data_Pa4MnZn4Ir3
_symmetry_space_group_name_H-M   'P 1'
_cell_length_a   4.04969300
_cell_length_b   6.75835982
_cell_length_c   8.22014224
_cell_angle_alpha   90.34586747
_cell_angle_beta   90.00000000
_cell_angle_gamma   90.00000000
_symmetry_Int_Tables_number   1
_chemical_formula_structural   Pa4MnZn4Ir3
_chemical_formula_sum   'Pa4 Mn1 Zn4 Ir3'
_cell_volume   224.97529592
_cell_formula_units_Z   1
loop_
 _symmetry_equiv_pos_site_id
 _symmetry_equiv_pos_as_xyz
  1  'x, y, z'
loop_
 _atom_site_type_symbol
 _atom_site_label
 _atom_site_symmetry_multiplicity
 _atom_site_fract_x
 _atom_site_fract_y
 _atom_site_fract_z
 _atom_site_occupancy
  Pa  Pa0  1  0.750000  0.448872  0.824210  1
  Pa  Pa1  1  0.250000  0.052772  0.305826  1
  Pa  Pa2  1  0.750000  0.951814  0.684194  1
  Pa  Pa3  1  0.250000  0.530617  0.182410  1
  Mn  Mn4  1  0.750000  0.274868  0.132969  1
  Zn  Zn5  1  0.250000  0.132418  0.948885  1
  Zn  Zn6  1  0.250000  0.623001  0.555229  1
  Zn  Zn7  1  0.750000  0.882601  0.055196  1
  Zn  Zn8  1  0.750000  0.371812  0.442414  1
  Ir  Ir9  1  0.250000  0.733618  0.869831  1
  Ir  Ir10  1  0.250000  0.231070  0.630984  1
  Ir  Ir11  1  0.750000  0.766539  0.367849  1
