# generated using pymatgen
data_Li2UCr3O8
_symmetry_space_group_name_H-M   'P 1'
_cell_length_a   6.04945200
_cell_length_b   6.04945190
_cell_length_c   9.96252100
_cell_angle_alpha   90.00000000
_cell_angle_beta   90.00000000
_cell_angle_gamma   120.00000053
_symmetry_Int_Tables_number   1
_chemical_formula_structural   Li2UCr3O8
_chemical_formula_sum   'Li4 U2 Cr6 O16'
_cell_volume   315.74169975
_cell_formula_units_Z   2
loop_
 _symmetry_equiv_pos_site_id
 _symmetry_equiv_pos_as_xyz
  1  'x, y, z'
loop_
 _atom_site_type_symbol
 _atom_site_label
 _atom_site_symmetry_multiplicity
 _atom_site_fract_x
 _atom_site_fract_y
 _atom_site_fract_z
 _atom_site_occupancy
  Li  Li0  1  0.333333  0.666667  0.904422  1
  Li  Li1  1  0.000000  0.000000  0.991577  1
  Li  Li2  1  0.000000  0.000000  0.491577  1
  Li  Li3  1  0.666667  0.333333  0.404422  1
  U  U4  1  0.333333  0.666667  0.487253  1
  U  U5  1  0.666667  0.333333  0.987253  1
  Cr  Cr6  1  0.167532  0.832468  0.213759  1
  Cr  Cr7  1  0.167532  0.335065  0.213759  1
  Cr  Cr8  1  0.664935  0.832468  0.213759  1
  Cr  Cr9  1  0.335065  0.167532  0.713759  1
  Cr  Cr10  1  0.832468  0.664935  0.713759  1
  Cr  Cr11  1  0.832468  0.167532  0.713759  1
  O  O12  1  0.157043  0.842957  0.600004  1
  O  O13  1  0.031958  0.515979  0.336378  1
  O  O14  1  0.333333  0.666667  0.110617  1
  O  O15  1  0.000000  0.000000  0.309595  1
  O  O16  1  0.000000  0.000000  0.809595  1
  O  O17  1  0.157043  0.314086  0.600004  1
  O  O18  1  0.484021  0.968042  0.336378  1
  O  O19  1  0.484021  0.515979  0.336378  1
  O  O20  1  0.314086  0.157043  0.100004  1
  O  O21  1  0.685914  0.842957  0.600004  1
  O  O22  1  0.515979  0.484021  0.836378  1
  O  O23  1  0.515979  0.031958  0.836378  1
  O  O24  1  0.666667  0.333333  0.610617  1
  O  O25  1  0.842957  0.685914  0.100004  1
  O  O26  1  0.968042  0.484021  0.836378  1
  O  O27  1  0.842957  0.157043  0.100004  1
