# generated using pymatgen
data_TbGd4ErTa2O14
_symmetry_space_group_name_H-M   'P 1'
_cell_length_a   6.54923049
_cell_length_b   6.53694370
_cell_length_c   7.53461387
_cell_angle_alpha   89.94394692
_cell_angle_beta   89.92977774
_cell_angle_gamma   108.62182754
_symmetry_Int_Tables_number   1
_chemical_formula_structural   TbGd4ErTa2O14
_chemical_formula_sum   'Tb1 Gd4 Er1 Ta2 O14'
_cell_volume   305.68332879
_cell_formula_units_Z   1
loop_
 _symmetry_equiv_pos_site_id
 _symmetry_equiv_pos_as_xyz
  1  'x, y, z'
loop_
 _atom_site_type_symbol
 _atom_site_label
 _atom_site_symmetry_multiplicity
 _atom_site_fract_x
 _atom_site_fract_y
 _atom_site_fract_z
 _atom_site_occupancy
  Tb  Tb0  1  0.464111  0.000251  0.258179  1
  Gd  Gd1  1  0.000767  0.465933  0.742083  1
  Gd  Gd2  1  0.533500  0.999659  0.757809  1
  Gd  Gd3  1  0.536064  0.532684  0.498563  1
  Gd  Gd4  1  0.466637  0.468505  0.002927  1
  Er  Er5  1  0.000253  0.535412  0.241443  1
  Ta  Ta6  1  0.001574  0.002894  0.498249  1
  Ta  Ta7  1  0.997593  0.997999  0.002248  1
  O  O8  1  0.067596  0.930840  0.250174  1
  O  O9  1  0.040266  0.303147  0.450113  1
  O  O10  1  0.076739  0.324490  0.030133  1
  O  O11  1  0.355041  0.639256  0.251704  1
  O  O12  1  0.370476  0.628418  0.749473  1
  O  O13  1  0.326710  0.083290  0.977989  1
  O  O14  1  0.308871  0.058273  0.539023  1
  O  O15  1  0.692365  0.946043  0.044072  1
  O  O16  1  0.673761  0.918446  0.474329  1
  O  O17  1  0.634833  0.372994  0.248370  1
  O  O18  1  0.640099  0.362599  0.750947  1
  O  O19  1  0.920606  0.673129  0.520443  1
  O  O20  1  0.952865  0.692341  0.961534  1
  O  O21  1  0.939268  0.063395  0.750194  1
