# generated using pymatgen
data_AcNd11(SiBr3)4
_symmetry_space_group_name_H-M   'P 1'
_cell_length_a   10.56818669
_cell_length_b   10.52159371
_cell_length_c   10.45429359
_cell_angle_alpha   109.23866173
_cell_angle_beta   109.41728077
_cell_angle_gamma   110.10582116
_symmetry_Int_Tables_number   1
_chemical_formula_structural   AcNd11(SiBr3)4
_chemical_formula_sum   'Ac1 Nd11 Si4 Br12'
_cell_volume   890.95162261
_cell_formula_units_Z   1
loop_
 _symmetry_equiv_pos_site_id
 _symmetry_equiv_pos_as_xyz
  1  'x, y, z'
loop_
 _atom_site_type_symbol
 _atom_site_label
 _atom_site_symmetry_multiplicity
 _atom_site_fract_x
 _atom_site_fract_y
 _atom_site_fract_z
 _atom_site_occupancy
  Ac  Ac0  1  0.494379  0.244381  0.488751  1
  Nd  Nd1  1  0.263056  0.013054  0.026104  1
  Nd  Nd2  1  0.023851  0.262865  0.009976  1
  Nd  Nd3  1  0.486135  0.747114  0.009980  1
  Nd  Nd4  1  0.752815  0.236729  0.262054  1
  Nd  Nd5  1  0.009225  0.025317  0.262040  1
  Nd  Nd6  1  0.015331  0.487565  0.749770  1
  Nd  Nd7  1  0.234437  0.262198  0.749770  1
  Nd  Nd8  1  0.261598  0.746003  0.234593  1
  Nd  Nd9  1  0.234396  0.475670  0.486784  1
  Nd  Nd10  1  0.472987  0.488580  0.234586  1
  Nd  Nd11  1  0.752391  0.011122  0.486790  1
  Si  Si12  1  0.999698  0.249700  0.499393  1
  Si  Si13  1  0.249613  0.499610  0.999221  1
  Si  Si14  1  0.500774  0.996830  0.247192  1
  Si  Si15  1  0.246420  0.250363  0.247192  1
  Br  Br16  1  0.752053  0.746284  0.248828  1
  Br  Br17  1  0.502253  0.250563  0.996773  1
  Br  Br18  1  0.238500  0.986678  0.501097  1
  Br  Br19  1  0.506144  0.511132  0.759588  1
  Br  Br20  1  0.996136  0.992934  0.747325  1
  Br  Br21  1  0.746600  0.996609  0.993207  1
  Br  Br22  1  0.502671  0.752679  0.505348  1
  Br  Br23  1  0.762599  0.514425  0.501104  1
  Br  Br24  1  0.996766  0.502533  0.248822  1
  Br  Br25  1  0.994523  0.746209  0.996776  1
  Br  Br26  1  0.251194  0.754386  0.747332  1
  Br  Br27  1  0.753455  0.248468  0.759603  1
