# generated using pymatgen
data_PrNd15Cd4CoPd3
_symmetry_space_group_name_H-M   'P 1'
_cell_length_a   9.99451012
_cell_length_b   9.99451053
_cell_length_c   9.99304384
_cell_angle_alpha   59.94675815
_cell_angle_beta   59.94676290
_cell_angle_gamma   59.92155289
_symmetry_Int_Tables_number   1
_chemical_formula_structural   PrNd15Cd4CoPd3
_chemical_formula_sum   'Pr1 Nd15 Cd4 Co1 Pd3'
_cell_volume   704.85236291
_cell_formula_units_Z   1
loop_
 _symmetry_equiv_pos_site_id
 _symmetry_equiv_pos_as_xyz
  1  'x, y, z'
loop_
 _atom_site_type_symbol
 _atom_site_label
 _atom_site_symmetry_multiplicity
 _atom_site_fract_x
 _atom_site_fract_y
 _atom_site_fract_z
 _atom_site_occupancy
  Pr  Pr0  1  0.935063  0.935063  0.562119  1
  Nd  Nd1  1  0.352044  0.352044  0.351973  1
  Nd  Nd2  1  0.345338  0.345338  0.951254  1
  Nd  Nd3  1  0.345595  0.951192  0.345238  1
  Nd  Nd4  1  0.951192  0.345595  0.345238  1
  Nd  Nd5  1  0.821146  0.189543  0.189014  1
  Nd  Nd6  1  0.190284  0.808156  0.808361  1
  Nd  Nd7  1  0.189543  0.821146  0.189014  1
  Nd  Nd8  1  0.808156  0.190284  0.808361  1
  Nd  Nd9  1  0.189366  0.189366  0.821110  1
  Nd  Nd10  1  0.808141  0.808141  0.190004  1
  Nd  Nd11  1  0.937812  0.562618  0.563110  1
  Nd  Nd12  1  0.561530  0.935337  0.935566  1
  Nd  Nd13  1  0.562618  0.937812  0.563110  1
  Nd  Nd14  1  0.935337  0.561530  0.935566  1
  Nd  Nd15  1  0.563129  0.563129  0.937705  1
  Cd  Cd16  1  0.579912  0.579912  0.579947  1
  Cd  Cd17  1  0.581201  0.581201  0.258307  1
  Cd  Cd18  1  0.580616  0.258849  0.581225  1
  Cd  Cd19  1  0.258849  0.580616  0.581225  1
  Co  Co20  1  0.143374  0.143374  0.142710  1
  Pd  Pd21  1  0.144698  0.144698  0.570508  1
  Pd  Pd22  1  0.144612  0.570443  0.144665  1
  Pd  Pd23  1  0.570443  0.144612  0.144665  1
