# generated using pymatgen
data_LiHoTh2In3Rh2
_symmetry_space_group_name_H-M   'P 1'
_cell_length_a   7.64702600
_cell_length_b   7.79532573
_cell_length_c   3.92128000
_cell_angle_alpha   90.00000000
_cell_angle_beta   90.00000000
_cell_angle_gamma   119.37265532
_symmetry_Int_Tables_number   1
_chemical_formula_structural   LiHoTh2In3Rh2
_chemical_formula_sum   'Li1 Ho1 Th2 In3 Rh2'
_cell_volume   203.70240879
_cell_formula_units_Z   1
loop_
 _symmetry_equiv_pos_site_id
 _symmetry_equiv_pos_as_xyz
  1  'x, y, z'
loop_
 _atom_site_type_symbol
 _atom_site_label
 _atom_site_symmetry_multiplicity
 _atom_site_fract_x
 _atom_site_fract_y
 _atom_site_fract_z
 _atom_site_occupancy
  Li  Li0  1  0.992393  0.000000  0.500000  1
  Ho  Ho1  1  0.416750  0.000000  0.500000  1
  Th  Th2  1  0.001998  0.425804  0.500000  1
  Th  Th3  1  0.576194  0.574196  0.500000  1
  In  In4  1  0.247295  0.235249  0.000000  1
  In  In5  1  0.012046  0.764751  0.000000  1
  In  In6  1  0.738831  0.000000  0.000000  1
  Rh  Rh7  1  0.331942  0.649392  0.000000  1
  Rh  Rh8  1  0.682551  0.350608  0.000000  1
