# generated using pymatgen
data_Sm2NpO6
_symmetry_space_group_name_H-M   'P 1'
_cell_length_a   5.64427400
_cell_length_b   7.96080296
_cell_length_c   12.07264725
_cell_angle_alpha   74.12874307
_cell_angle_beta   90.00000000
_cell_angle_gamma   90.00000000
_symmetry_Int_Tables_number   1
_chemical_formula_structural   Sm2NpO6
_chemical_formula_sum   'Sm8 Np4 O24'
_cell_volume   521.78038313
_cell_formula_units_Z   4
loop_
 _symmetry_equiv_pos_site_id
 _symmetry_equiv_pos_as_xyz
  1  'x, y, z'
loop_
 _atom_site_type_symbol
 _atom_site_label
 _atom_site_symmetry_multiplicity
 _atom_site_fract_x
 _atom_site_fract_y
 _atom_site_fract_z
 _atom_site_occupancy
  Sm  Sm0  1  0.742667  0.000000  0.750000  1
  Sm  Sm1  1  0.257333  0.000000  0.250000  1
  Sm  Sm2  1  0.188573  0.794527  0.578415  1
  Sm  Sm3  1  0.811427  0.794527  0.078415  1
  Sm  Sm4  1  0.694160  0.500000  0.750000  1
  Sm  Sm5  1  0.305840  0.500000  0.250000  1
  Sm  Sm6  1  0.188573  0.205473  0.921585  1
  Sm  Sm7  1  0.811427  0.205473  0.421585  1
  Np  Np8  1  0.253694  0.721577  0.886059  1
  Np  Np9  1  0.746306  0.721577  0.386059  1
  Np  Np10  1  0.253694  0.278423  0.613941  1
  Np  Np11  1  0.746306  0.278423  0.113941  1
  O  O12  1  0.044262  0.941205  0.896045  1
  O  O13  1  0.543070  0.849756  0.930946  1
  O  O14  1  0.955738  0.941205  0.396045  1
  O  O15  1  0.448556  0.796458  0.729350  1
  O  O16  1  0.456930  0.849756  0.430946  1
  O  O17  1  0.968456  0.712043  0.768484  1
  O  O18  1  0.551444  0.796458  0.229350  1
  O  O19  1  0.869356  0.629681  0.551551  1
  O  O20  1  0.384636  0.485379  0.884718  1
  O  O21  1  0.031544  0.712043  0.268484  1
  O  O22  1  0.384636  0.514621  0.615282  1
  O  O23  1  0.869356  0.370319  0.948449  1
  O  O24  1  0.130644  0.629681  0.051551  1
  O  O25  1  0.615364  0.485379  0.384718  1
  O  O26  1  0.968456  0.287957  0.731516  1
  O  O27  1  0.615364  0.514621  0.115282  1
  O  O28  1  0.130644  0.370319  0.448449  1
  O  O29  1  0.448556  0.203542  0.770650  1
  O  O30  1  0.031544  0.287957  0.231516  1
  O  O31  1  0.543070  0.150244  0.569054  1
  O  O32  1  0.551444  0.203542  0.270650  1
  O  O33  1  0.044262  0.058795  0.603955  1
  O  O34  1  0.456930  0.150244  0.069054  1
  O  O35  1  0.955738  0.058795  0.103955  1
