# generated using pymatgen
data_Dy3Tm13(LuSn4)4
_symmetry_space_group_name_H-M   'P 1'
_cell_length_a   7.96115227
_cell_length_b   8.06999155
_cell_length_c   15.28931605
_cell_angle_alpha   90.00100422
_cell_angle_beta   90.16418648
_cell_angle_gamma   89.94127956
_symmetry_Int_Tables_number   1
_chemical_formula_structural   Dy3Tm13(LuSn4)4
_chemical_formula_sum   'Dy3 Tm13 Lu4 Sn16'
_cell_volume   982.27944795
_cell_formula_units_Z   1
loop_
 _symmetry_equiv_pos_site_id
 _symmetry_equiv_pos_as_xyz
  1  'x, y, z'
loop_
 _atom_site_type_symbol
 _atom_site_label
 _atom_site_symmetry_multiplicity
 _atom_site_fract_x
 _atom_site_fract_y
 _atom_site_fract_z
 _atom_site_occupancy
  Dy  Dy0  1  0.978405  0.821316  0.403844  1
  Dy  Dy1  1  0.520840  0.321673  0.595399  1
  Dy  Dy2  1  0.021864  0.178094  0.904581  1
  Tm  Tm3  1  0.368515  0.836890  0.877115  1
  Tm  Tm4  1  0.867356  0.662663  0.623102  1
  Tm  Tm5  1  0.632471  0.161834  0.376094  1
  Tm  Tm6  1  0.131251  0.337716  0.123235  1
  Tm  Tm7  1  0.630903  0.162540  0.123236  1
  Tm  Tm8  1  0.131567  0.337804  0.376527  1
  Tm  Tm9  1  0.368650  0.837688  0.623213  1
  Tm  Tm10  1  0.870555  0.662376  0.877074  1
  Tm  Tm11  1  0.525443  0.321823  0.903051  1
  Tm  Tm12  1  0.023897  0.178983  0.596526  1
  Tm  Tm13  1  0.476592  0.678643  0.403258  1
  Tm  Tm14  1  0.975421  0.820923  0.097381  1
  Tm  Tm15  1  0.475771  0.677898  0.096422  1
  Lu  Lu16  1  0.199456  0.504675  0.750228  1
  Lu  Lu17  1  0.698922  0.995620  0.750210  1
  Lu  Lu18  1  0.801000  0.495682  0.249538  1
  Lu  Lu19  1  0.301300  0.004519  0.249636  1
  Sn  Sn20  1  0.292578  0.035088  0.042479  1
  Sn  Sn21  1  0.792875  0.462806  0.457808  1
  Sn  Sn22  1  0.706900  0.963768  0.541793  1
  Sn  Sn23  1  0.209620  0.536271  0.958804  1
  Sn  Sn24  1  0.705295  0.960454  0.959359  1
  Sn  Sn25  1  0.204347  0.539898  0.540648  1
  Sn  Sn26  1  0.295353  0.039176  0.458902  1
  Sn  Sn27  1  0.791857  0.463472  0.041466  1
  Sn  Sn28  1  0.565449  0.618745  0.750151  1
  Sn  Sn29  1  0.064946  0.881402  0.749919  1
  Sn  Sn30  1  0.435200  0.381981  0.249983  1
  Sn  Sn31  1  0.935207  0.118628  0.249889  1
  Sn  Sn32  1  0.333534  0.150393  0.750563  1
  Sn  Sn33  1  0.833950  0.349493  0.749415  1
  Sn  Sn34  1  0.665311  0.848440  0.249696  1
  Sn  Sn35  1  0.167395  0.650626  0.249454  1
