# generated using pymatgen
data_Tb3ErAl2(CdPd2)2
_symmetry_space_group_name_H-M   'P 1'
_cell_length_a   4.39316800
_cell_length_b   6.99537356
_cell_length_c   8.21459487
_cell_angle_alpha   88.15257249
_cell_angle_beta   90.00000000
_cell_angle_gamma   90.00000000
_symmetry_Int_Tables_number   1
_chemical_formula_structural   Tb3ErAl2(CdPd2)2
_chemical_formula_sum   'Tb3 Er1 Al2 Cd2 Pd4'
_cell_volume   252.31848900
_cell_formula_units_Z   1
loop_
 _symmetry_equiv_pos_site_id
 _symmetry_equiv_pos_as_xyz
  1  'x, y, z'
loop_
 _atom_site_type_symbol
 _atom_site_label
 _atom_site_symmetry_multiplicity
 _atom_site_fract_x
 _atom_site_fract_y
 _atom_site_fract_z
 _atom_site_occupancy
  Tb  Tb0  1  0.750000  0.462420  0.176308  1
  Tb  Tb1  1  0.250000  0.037337  0.687838  1
  Tb  Tb2  1  0.750000  0.962475  0.312513  1
  Er  Er3  1  0.250000  0.539068  0.822694  1
  Al  Al4  1  0.250000  0.141416  0.056584  1
  Al  Al5  1  0.750000  0.858393  0.942870  1
  Cd  Cd6  1  0.250000  0.642497  0.436647  1
  Cd  Cd7  1  0.750000  0.357603  0.564408  1
  Pd  Pd8  1  0.750000  0.757303  0.641701  1
  Pd  Pd9  1  0.250000  0.241169  0.359598  1
  Pd  Pd10  1  0.750000  0.229219  0.897553  1
  Pd  Pd11  1  0.250000  0.771097  0.101287  1
