# generated using pymatgen
data_TmCd(Pd2Au)2
_symmetry_space_group_name_H-M   'P 1'
_cell_length_a   5.98866901
_cell_length_b   5.96825128
_cell_length_c   7.87080400
_cell_angle_alpha   90.00148801
_cell_angle_beta   90.00234400
_cell_angle_gamma   89.96253077
_symmetry_Int_Tables_number   1
_chemical_formula_structural   TmCd(Pd2Au)2
_chemical_formula_sum   'Tm2 Cd2 Pd8 Au4'
_cell_volume   281.31728295
_cell_formula_units_Z   2
loop_
 _symmetry_equiv_pos_site_id
 _symmetry_equiv_pos_as_xyz
  1  'x, y, z'
loop_
 _atom_site_type_symbol
 _atom_site_label
 _atom_site_symmetry_multiplicity
 _atom_site_fract_x
 _atom_site_fract_y
 _atom_site_fract_z
 _atom_site_occupancy
  Tm  Tm0  1  0.250366  0.249947  0.999995  1
  Tm  Tm1  1  0.749634  0.750054  0.000005  1
  Cd  Cd2  1  0.750698  0.750076  0.499988  1
  Cd  Cd3  1  0.249301  0.249925  0.500012  1
  Pd  Pd4  1  0.000137  0.000031  0.251816  1
  Pd  Pd5  1  0.000159  0.500031  0.251774  1
  Pd  Pd6  1  0.500151  0.000026  0.252878  1
  Pd  Pd7  1  0.500148  0.500010  0.252903  1
  Pd  Pd8  1  0.499850  0.999974  0.747122  1
  Pd  Pd9  1  0.499853  0.499989  0.747097  1
  Pd  Pd10  1  0.999862  0.999969  0.748184  1
  Pd  Pd11  1  0.999840  0.499968  0.748226  1
  Au  Au12  1  0.749583  0.249961  0.999994  1
  Au  Au13  1  0.250416  0.750040  0.000006  1
  Au  Au14  1  0.249531  0.750052  0.499983  1
  Au  Au15  1  0.750468  0.249949  0.500017  1
