# generated using pymatgen
data_Ho3Sc(CuTe)12
_symmetry_space_group_name_H-M   'P 1'
_cell_length_a   6.90012701
_cell_length_b   7.60358016
_cell_length_c   13.02639900
_cell_angle_alpha   90.01920766
_cell_angle_beta   89.99637133
_cell_angle_gamma   90.36788044
_symmetry_Int_Tables_number   1
_chemical_formula_structural   Ho3Sc(CuTe)12
_chemical_formula_sum   'Ho3 Sc1 Cu12 Te12'
_cell_volume   683.42460891
_cell_formula_units_Z   1
loop_
 _symmetry_equiv_pos_site_id
 _symmetry_equiv_pos_as_xyz
  1  'x, y, z'
loop_
 _atom_site_type_symbol
 _atom_site_label
 _atom_site_symmetry_multiplicity
 _atom_site_fract_x
 _atom_site_fract_y
 _atom_site_fract_z
 _atom_site_occupancy
  Ho  Ho0  1  0.244126  0.750136  0.841021  1
  Ho  Ho1  1  0.744109  0.249905  0.336510  1
  Ho  Ho2  1  0.744004  0.250064  0.659608  1
  Sc  Sc3  1  0.244289  0.749752  0.159526  1
  Cu  Cu4  1  0.368466  0.118472  0.826845  1
  Cu  Cu5  1  0.617393  0.621515  0.000795  1
  Cu  Cu6  1  0.868551  0.881253  0.674407  1
  Cu  Cu7  1  0.620344  0.618967  0.674974  1
  Cu  Cu8  1  0.870866  0.878639  0.000007  1
  Cu  Cu9  1  0.114655  0.379474  0.497397  1
  Cu  Cu10  1  0.623218  0.618016  0.326411  1
  Cu  Cu11  1  0.372827  0.121236  0.497948  1
  Cu  Cu12  1  0.865378  0.881864  0.326269  1
  Cu  Cu13  1  0.369096  0.117063  0.174395  1
  Cu  Cu14  1  0.120360  0.382098  0.826786  1
  Cu  Cu15  1  0.118581  0.381733  0.174550  1
  Te  Te16  1  0.014869  0.569717  0.333821  1
  Te  Te17  1  0.503164  0.440297  0.164145  1
  Te  Te18  1  0.984454  0.059102  0.163961  1
  Te  Te19  1  0.012965  0.566642  0.663450  1
  Te  Te20  1  0.000731  0.554398  0.003551  1
  Te  Te21  1  0.512930  0.433970  0.837212  1
  Te  Te22  1  0.473342  0.930210  0.334013  1
  Te  Te23  1  0.475554  0.933343  0.663536  1
  Te  Te24  1  0.990093  0.051081  0.499180  1
  Te  Te25  1  0.487606  0.945659  0.003503  1
  Te  Te26  1  0.975872  0.066356  0.836864  1
  Te  Te27  1  0.498158  0.449040  0.499313  1
