# generated using pymatgen
data_Lu4Si4Ge2Ir7
_symmetry_space_group_name_H-M   'P 1'
_cell_length_a   7.13889731
_cell_length_b   7.15134918
_cell_length_c   7.15134924
_cell_angle_alpha   109.77565657
_cell_angle_beta   109.35426511
_cell_angle_gamma   109.35425753
_symmetry_Int_Tables_number   1
_chemical_formula_structural   Lu4Si4Ge2Ir7
_chemical_formula_sum   'Lu4 Si4 Ge2 Ir7'
_cell_volume   280.80239250
_cell_formula_units_Z   1
loop_
 _symmetry_equiv_pos_site_id
 _symmetry_equiv_pos_as_xyz
  1  'x, y, z'
loop_
 _atom_site_type_symbol
 _atom_site_label
 _atom_site_symmetry_multiplicity
 _atom_site_fract_x
 _atom_site_fract_y
 _atom_site_fract_z
 _atom_site_occupancy
  Lu  Lu0  1  0.000000  0.000221  0.519654  1
  Lu  Lu1  1  0.000000  0.480346  0.999779  1
  Lu  Lu2  1  0.500000  0.000424  0.999576  1
  Lu  Lu3  1  0.500000  0.500424  0.499576  1
  Si  Si4  1  0.000000  0.321954  0.324904  1
  Si  Si5  1  0.329145  0.327522  0.001623  1
  Si  Si6  1  0.670855  0.998377  0.672478  1
  Si  Si7  1  0.000000  0.675096  0.678046  1
  Ge  Ge8  1  0.692354  0.690493  0.001861  1
  Ge  Ge9  1  0.307646  0.998139  0.309507  1
  Ir  Ir10  1  0.751605  0.250488  0.501117  1
  Ir  Ir11  1  0.750738  0.498463  0.252275  1
  Ir  Ir12  1  0.500000  0.248769  0.751231  1
  Ir  Ir13  1  0.248395  0.498883  0.749512  1
  Ir  Ir14  1  0.249262  0.747725  0.501537  1
  Ir  Ir15  1  0.500000  0.748769  0.251231  1
  Ir  Ir16  1  0.000000  0.013906  0.986094  1
