# generated using pymatgen
data_La2Zn21Co
_symmetry_space_group_name_H-M   'P 1'
_cell_length_a   8.29167521
_cell_length_b   8.27593631
_cell_length_c   8.29167611
_cell_angle_alpha   100.19181730
_cell_angle_beta   99.63997581
_cell_angle_gamma   131.08534726
_symmetry_Int_Tables_number   1
_chemical_formula_structural   La2Zn21Co
_chemical_formula_sum   'La2 Zn21 Co1'
_cell_volume   390.00048833
_cell_formula_units_Z   1
loop_
 _symmetry_equiv_pos_site_id
 _symmetry_equiv_pos_as_xyz
  1  'x, y, z'
loop_
 _atom_site_type_symbol
 _atom_site_label
 _atom_site_symmetry_multiplicity
 _atom_site_fract_x
 _atom_site_fract_y
 _atom_site_fract_z
 _atom_site_occupancy
  La  La0  1  0.251090  0.756360  0.505270  1
  La  La1  1  0.998910  0.993640  0.994730  1
  Zn  Zn2  1  0.904667  0.572902  0.087618  1
  Zn  Zn3  1  0.429711  0.520914  0.328750  1
  Zn  Zn4  1  0.485284  0.572902  0.668236  1
  Zn  Zn5  1  0.427068  0.098912  0.916692  1
  Zn  Zn6  1  0.764716  0.177098  0.831764  1
  Zn  Zn7  1  0.494852  0.817562  0.927016  1
  Zn  Zn8  1  0.510510  0.522439  0.011930  1
  Zn  Zn9  1  0.755148  0.932438  0.572984  1
  Zn  Zn10  1  0.739490  0.227561  0.488070  1
  Zn  Zn11  1  0.067780  0.651088  0.828156  1
  Zn  Zn12  1  0.125000  0.375000  0.750000  1
  Zn  Zn13  1  0.345333  0.177098  0.412382  1
  Zn  Zn14  1  0.822932  0.651088  0.583308  1
  Zn  Zn15  1  0.890545  0.817562  0.322710  1
  Zn  Zn16  1  0.182220  0.098912  0.671844  1
  Zn  Zn17  1  0.057836  0.229086  0.408798  1
  Zn  Zn18  1  0.359455  0.932438  0.177290  1
  Zn  Zn19  1  0.820289  0.229086  0.171250  1
  Zn  Zn20  1  0.192164  0.520914  0.091202  1
  Zn  Zn21  1  0.625000  0.375000  0.250000  1
  Zn  Zn22  1  0.625000  0.375000  0.750000  1
  Co  Co23  1  0.625000  0.875000  0.250000  1
