# generated using pymatgen
data_Yb2Y4Al17Si7Os8
_symmetry_space_group_name_H-M   'P 1'
_cell_length_a   8.68752070
_cell_length_b   8.67889381
_cell_length_c   9.53823400
_cell_angle_alpha   90.00000000
_cell_angle_beta   90.00000000
_cell_angle_gamma   120.18868328
_symmetry_Int_Tables_number   1
_chemical_formula_structural   Yb2Y4Al17Si7Os8
_chemical_formula_sum   'Yb2 Y4 Al17 Si7 Os8'
_cell_volume   621.62713542
_cell_formula_units_Z   1
loop_
 _symmetry_equiv_pos_site_id
 _symmetry_equiv_pos_as_xyz
  1  'x, y, z'
loop_
 _atom_site_type_symbol
 _atom_site_label
 _atom_site_symmetry_multiplicity
 _atom_site_fract_x
 _atom_site_fract_y
 _atom_site_fract_z
 _atom_site_occupancy
  Yb  Yb0  1  0.609743  0.807265  0.250000  1
  Yb  Yb1  1  0.196920  0.805342  0.250000  1
  Y  Y2  1  0.192178  0.387358  0.250000  1
  Y  Y3  1  0.807003  0.614007  0.750000  1
  Y  Y4  1  0.389106  0.191832  0.750000  1
  Y  Y5  1  0.802232  0.192392  0.750000  1
  Al  Al6  1  0.165082  0.331928  0.577819  1
  Al  Al7  1  0.834016  0.670012  0.420083  1
  Al  Al8  1  0.669309  0.834149  0.575372  1
  Al  Al9  1  0.834016  0.670012  0.079917  1
  Al  Al10  1  0.331427  0.166004  0.420988  1
  Al  Al11  1  0.165082  0.331928  0.922181  1
  Al  Al12  1  0.164371  0.833215  0.574153  1
  Al  Al13  1  0.331427  0.166004  0.079012  1
  Al  Al14  1  0.834309  0.164121  0.420329  1
  Al  Al15  1  0.669309  0.834149  0.924628  1
  Al  Al16  1  0.834309  0.164121  0.079671  1
  Al  Al17  1  0.164371  0.833215  0.925847  1
  Al  Al18  1  0.126591  0.566727  0.750000  1
  Al  Al19  1  0.565220  0.435782  0.250000  1
  Al  Al20  1  0.438846  0.567491  0.750000  1
  Al  Al21  1  0.998343  0.997134  0.250000  1
  Al  Al22  1  0.999894  0.001107  0.750000  1
  Si  Si23  1  0.333856  0.665183  0.040538  1
  Si  Si24  1  0.666748  0.336265  0.960559  1
  Si  Si25  1  0.666748  0.336265  0.539441  1
  Si  Si26  1  0.333856  0.665183  0.459462  1
  Si  Si27  1  0.564635  0.123951  0.250000  1
  Si  Si28  1  0.435693  0.872347  0.750000  1
  Si  Si29  1  0.874075  0.435346  0.250000  1
  Os  Os30  1  0.501694  0.002330  0.998729  1
  Os  Os31  1  0.997113  0.497871  0.004865  1
  Os  Os32  1  0.501694  0.002330  0.501271  1
  Os  Os33  1  0.500572  0.498851  0.998712  1
  Os  Os34  1  0.997113  0.497871  0.495135  1
  Os  Os35  1  0.500572  0.498851  0.501288  1
  Os  Os36  1  0.001265  0.001028  0.999812  1
  Os  Os37  1  0.001265  0.001028  0.500188  1
