# generated using pymatgen
data_Er17Sc3GaBi11
_symmetry_space_group_name_H-M   'P 1'
_cell_length_a   8.02018111
_cell_length_b   9.31608200
_cell_length_c   11.71204600
_cell_angle_alpha   90.00000000
_cell_angle_beta   89.68773636
_cell_angle_gamma   90.00000000
_symmetry_Int_Tables_number   1
_chemical_formula_structural   Er17Sc3GaBi11
_chemical_formula_sum   'Er17 Sc3 Ga1 Bi11'
_cell_volume   875.07201985
_cell_formula_units_Z   1
loop_
 _symmetry_equiv_pos_site_id
 _symmetry_equiv_pos_as_xyz
  1  'x, y, z'
loop_
 _atom_site_type_symbol
 _atom_site_label
 _atom_site_symmetry_multiplicity
 _atom_site_fract_x
 _atom_site_fract_y
 _atom_site_fract_z
 _atom_site_occupancy
  Er  Er0  1  0.525853  0.250000  0.987830  1
  Er  Er1  1  0.352841  0.250000  0.295511  1
  Er  Er2  1  0.653127  0.750000  0.715079  1
  Er  Er3  1  0.146080  0.750000  0.781609  1
  Er  Er4  1  0.852296  0.250000  0.215292  1
  Er  Er5  1  0.194274  0.250000  0.772694  1
  Er  Er6  1  0.813796  0.750000  0.220175  1
  Er  Er7  1  0.313901  0.750000  0.280897  1
  Er  Er8  1  0.673121  0.250000  0.711813  1
  Er  Er9  1  0.193134  0.064257  0.061713  1
  Er  Er10  1  0.805219  0.934345  0.941696  1
  Er  Er11  1  0.306545  0.949240  0.557034  1
  Er  Er12  1  0.805219  0.565655  0.941696  1
  Er  Er13  1  0.687345  0.070813  0.446560  1
  Er  Er14  1  0.193134  0.435743  0.061713  1
  Er  Er15  1  0.687345  0.429187  0.446560  1
  Er  Er16  1  0.306545  0.550760  0.557034  1
  Sc  Sc17  1  0.034964  0.250000  0.510302  1
  Sc  Sc18  1  0.980627  0.750000  0.489566  1
  Sc  Sc19  1  0.476197  0.750000  0.012226  1
  Ga  Ga20  1  0.401794  0.250000  0.540340  1
  Bi  Bi21  1  0.598367  0.750000  0.457619  1
  Bi  Bi22  1  0.099215  0.750000  0.042429  1
  Bi  Bi23  1  0.909661  0.250000  0.952000  1
  Bi  Bi24  1  0.061196  0.003034  0.329569  1
  Bi  Bi25  1  0.935729  0.998141  0.670052  1
  Bi  Bi26  1  0.434215  0.991702  0.826965  1
  Bi  Bi27  1  0.935729  0.501859  0.670052  1
  Bi  Bi28  1  0.563560  0.001697  0.173716  1
  Bi  Bi29  1  0.061196  0.496966  0.329569  1
  Bi  Bi30  1  0.563560  0.498303  0.173716  1
  Bi  Bi31  1  0.434215  0.508298  0.826965  1
