# generated using pymatgen
data_CeHo3(TcB6)2
_symmetry_space_group_name_H-M   'P 1'
_cell_length_a   3.70581400
_cell_length_b   9.17056380
_cell_length_c   11.55441301
_cell_angle_alpha   90.11313300
_cell_angle_beta   90.00000000
_cell_angle_gamma   90.00000000
_symmetry_Int_Tables_number   1
_chemical_formula_structural   CeHo3(TcB6)2
_chemical_formula_sum   'Ce2 Ho6 Tc4 B24'
_cell_volume   392.66907104
_cell_formula_units_Z   2
loop_
 _symmetry_equiv_pos_site_id
 _symmetry_equiv_pos_as_xyz
  1  'x, y, z'
loop_
 _atom_site_type_symbol
 _atom_site_label
 _atom_site_symmetry_multiplicity
 _atom_site_fract_x
 _atom_site_fract_y
 _atom_site_fract_z
 _atom_site_occupancy
  Ce  Ce0  1  0.000000  0.322372  0.413710  1
  Ce  Ce1  1  0.000000  0.677628  0.586290  1
  Ho  Ho2  1  0.000000  0.824429  0.085284  1
  Ho  Ho3  1  0.000000  0.175571  0.914716  1
  Ho  Ho4  1  0.000000  0.943199  0.369536  1
  Ho  Ho5  1  0.000000  0.056801  0.630464  1
  Ho  Ho6  1  0.000000  0.442537  0.129185  1
  Ho  Ho7  1  0.000000  0.557463  0.870815  1
  Tc  Tc8  1  0.000000  0.638092  0.321302  1
  Tc  Tc9  1  0.000000  0.361908  0.678698  1
  Tc  Tc10  1  0.000000  0.139207  0.179754  1
  Tc  Tc11  1  0.000000  0.860793  0.820246  1
  B  B12  1  0.500000  0.554291  0.431340  1
  B  B13  1  0.500000  0.445709  0.568660  1
  B  B14  1  0.500000  0.053436  0.066574  1
  B  B15  1  0.500000  0.946564  0.933426  1
  B  B16  1  0.500000  0.749388  0.417174  1
  B  B17  1  0.500000  0.250612  0.582826  1
  B  B18  1  0.500000  0.248521  0.080512  1
  B  B19  1  0.500000  0.751479  0.919488  1
  B  B20  1  0.500000  0.792037  0.264482  1
  B  B21  1  0.500000  0.207963  0.735518  1
  B  B22  1  0.500000  0.290996  0.233397  1
  B  B23  1  0.500000  0.709004  0.766603  1
  B  B24  1  0.500000  0.631266  0.184722  1
  B  B25  1  0.500000  0.368734  0.815278  1
  B  B26  1  0.500000  0.130838  0.313365  1
  B  B27  1  0.500000  0.869162  0.686635  1
  B  B28  1  0.500000  0.982381  0.211085  1
  B  B29  1  0.500000  0.017619  0.788915  1
  B  B30  1  0.500000  0.483674  0.286707  1
  B  B31  1  0.500000  0.516326  0.713293  1
  B  B32  1  0.500000  0.602109  0.028400  1
  B  B33  1  0.500000  0.397891  0.971600  1
  B  B34  1  0.500000  0.102290  0.471554  1
  B  B35  1  0.500000  0.897710  0.528446  1
