# generated using pymatgen
data_Ac3NiIr8
_symmetry_space_group_name_H-M   'P 1'
_cell_length_a   5.50094777
_cell_length_b   5.50094696
_cell_length_c   9.38472857
_cell_angle_alpha   72.95756778
_cell_angle_beta   72.95757136
_cell_angle_gamma   60.00000284
_symmetry_Int_Tables_number   1
_chemical_formula_structural   Ac3NiIr8
_chemical_formula_sum   'Ac3 Ni1 Ir8'
_cell_volume   231.42742690
_cell_formula_units_Z   1
loop_
 _symmetry_equiv_pos_site_id
 _symmetry_equiv_pos_as_xyz
  1  'x, y, z'
loop_
 _atom_site_type_symbol
 _atom_site_label
 _atom_site_symmetry_multiplicity
 _atom_site_fract_x
 _atom_site_fract_y
 _atom_site_fract_z
 _atom_site_occupancy
  Ac  Ac0  1  0.140368  0.140368  0.578897  1
  Ac  Ac1  1  0.860787  0.860787  0.417641  1
  Ac  Ac2  1  0.000472  0.000472  0.998583  1
  Ni  Ni3  1  0.667890  0.667890  0.996331  1
  Ir  Ir4  1  0.078303  0.578584  0.764531  1
  Ir  Ir5  1  0.578584  0.578584  0.764531  1
  Ir  Ir6  1  0.578584  0.078303  0.764531  1
  Ir  Ir7  1  0.912408  0.426096  0.235400  1
  Ir  Ir8  1  0.426096  0.426096  0.235400  1
  Ir  Ir9  1  0.426096  0.912408  0.235400  1
  Ir  Ir10  1  0.331326  0.331326  0.006020  1
  Ir  Ir11  1  0.499088  0.499088  0.502737  1
