# generated using pymatgen
data_Zr2Ti2Co10Si7
_symmetry_space_group_name_H-M   'P 1'
_cell_length_a   9.17720400
_cell_length_b   9.17993599
_cell_length_c   3.64343200
_cell_angle_alpha   90.00000000
_cell_angle_beta   90.00000000
_cell_angle_gamma   120.26154039
_symmetry_Int_Tables_number   1
_chemical_formula_structural   Zr2Ti2Co10Si7
_chemical_formula_sum   'Zr2 Ti2 Co10 Si7'
_cell_volume   265.11892600
_cell_formula_units_Z   1
loop_
 _symmetry_equiv_pos_site_id
 _symmetry_equiv_pos_as_xyz
  1  'x, y, z'
loop_
 _atom_site_type_symbol
 _atom_site_label
 _atom_site_symmetry_multiplicity
 _atom_site_fract_x
 _atom_site_fract_y
 _atom_site_fract_z
 _atom_site_occupancy
  Zr  Zr0  1  0.994953  0.997215  0.000000  1
  Zr  Zr1  1  0.335968  0.669900  0.500000  1
  Ti  Ti2  1  0.888012  0.440369  0.500000  1
  Ti  Ti3  1  0.551095  0.441030  0.500000  1
  Co  Co4  1  0.297499  0.391215  0.000000  1
  Co  Co5  1  0.098964  0.707556  0.000000  1
  Co  Co6  1  0.378360  0.169380  0.000000  1
  Co  Co7  1  0.784877  0.609281  0.000000  1
  Co  Co8  1  0.826971  0.210625  0.000000  1
  Co  Co9  1  0.231754  0.947208  0.500000  1
  Co  Co10  1  0.051500  0.283065  0.500000  1
  Co  Co11  1  0.717174  0.774082  0.500000  1
  Co  Co12  1  0.569529  0.117220  0.500000  1
  Co  Co13  1  0.612414  0.911023  0.000000  1
  Si  Si14  1  0.655882  0.315857  0.000000  1
  Si  Si15  1  0.091637  0.452456  0.000000  1
  Si  Si16  1  0.248000  0.205338  0.500000  1
  Si  Si17  1  0.783543  0.046276  0.500000  1
  Si  Si18  1  0.956912  0.745737  0.500000  1
  Si  Si19  1  0.551547  0.640969  0.000000  1
  Si  Si20  1  0.373407  0.924197  0.000000  1
