# generated using pymatgen
data_Th8CoNi2Os5
_symmetry_space_group_name_H-M   'P 1'
_cell_length_a   4.21228000
_cell_length_b   5.83127545
_cell_length_c   14.70207325
_cell_angle_alpha   90.02454924
_cell_angle_beta   90.00000000
_cell_angle_gamma   90.00000000
_symmetry_Int_Tables_number   1
_chemical_formula_structural   Th8CoNi2Os5
_chemical_formula_sum   'Th8 Co1 Ni2 Os5'
_cell_volume   361.12647708
_cell_formula_units_Z   1
loop_
 _symmetry_equiv_pos_site_id
 _symmetry_equiv_pos_as_xyz
  1  'x, y, z'
loop_
 _atom_site_type_symbol
 _atom_site_label
 _atom_site_symmetry_multiplicity
 _atom_site_fract_x
 _atom_site_fract_y
 _atom_site_fract_z
 _atom_site_occupancy
  Th  Th0  1  0.250000  0.543708  0.284025  1
  Th  Th1  1  0.750000  0.460096  0.717505  1
  Th  Th2  1  0.250000  0.956085  0.788040  1
  Th  Th3  1  0.250000  0.753210  0.536362  1
  Th  Th4  1  0.250000  0.744191  0.031303  1
  Th  Th5  1  0.750000  0.251238  0.963756  1
  Th  Th6  1  0.750000  0.041831  0.213443  1
  Th  Th7  1  0.750000  0.243434  0.462540  1
  Co  Co8  1  0.750000  0.772081  0.905578  1
  Ni  Ni9  1  0.250000  0.238713  0.098889  1
  Ni  Ni10  1  0.250000  0.254254  0.603752  1
  Os  Os11  1  0.250000  0.055762  0.347022  1
  Os  Os12  1  0.750000  0.540906  0.138775  1
  Os  Os13  1  0.750000  0.727243  0.404168  1
  Os  Os14  1  0.250000  0.454820  0.853694  1
  Os  Os15  1  0.750000  0.962430  0.651152  1
