# generated using pymatgen
data_Dy6VB14Os
_symmetry_space_group_name_H-M   'P 1'
_cell_length_a   8.10994827
_cell_length_b   8.10994883
_cell_length_c   9.36926500
_cell_angle_alpha   90.00000000
_cell_angle_beta   90.00000000
_cell_angle_gamma   155.19642137
_symmetry_Int_Tables_number   1
_chemical_formula_structural   Dy6VB14Os
_chemical_formula_sum   'Dy6 V1 B14 Os1'
_cell_volume   258.51323112
_cell_formula_units_Z   1
loop_
 _symmetry_equiv_pos_site_id
 _symmetry_equiv_pos_as_xyz
  1  'x, y, z'
loop_
 _atom_site_type_symbol
 _atom_site_label
 _atom_site_symmetry_multiplicity
 _atom_site_fract_x
 _atom_site_fract_y
 _atom_site_fract_z
 _atom_site_occupancy
  Dy  Dy0  1  0.893789  0.106211  0.439337  1
  Dy  Dy1  1  0.105602  0.894398  0.561246  1
  Dy  Dy2  1  0.893789  0.106211  0.060663  1
  Dy  Dy3  1  0.105602  0.894398  0.938754  1
  Dy  Dy4  1  0.242722  0.757278  0.250000  1
  Dy  Dy5  1  0.756569  0.243431  0.750000  1
  V  V6  1  0.052604  0.947396  0.250000  1
  B  B7  1  0.727888  0.272112  0.467702  1
  B  B8  1  0.273484  0.726516  0.534759  1
  B  B9  1  0.727888  0.272112  0.032298  1
  B  B10  1  0.273484  0.726516  0.965241  1
  B  B11  1  0.632734  0.367266  0.149456  1
  B  B12  1  0.368554  0.631446  0.850203  1
  B  B13  1  0.632734  0.367266  0.350544  1
  B  B14  1  0.368554  0.631446  0.649797  1
  B  B15  1  0.520861  0.479139  0.093854  1
  B  B16  1  0.478837  0.521163  0.904715  1
  B  B17  1  0.520861  0.479139  0.406146  1
  B  B18  1  0.478837  0.521163  0.595285  1
  B  B19  1  0.458226  0.541774  0.250000  1
  B  B20  1  0.540988  0.459012  0.750000  1
  Os  Os21  1  0.945393  0.054607  0.750000  1
