# generated using pymatgen
data_Tb7Ho7Th2Cd3InIr4
_symmetry_space_group_name_H-M   'P 1'
_cell_length_a   9.69567675
_cell_length_b   9.69566829
_cell_length_c   9.68515700
_cell_angle_alpha   60.03538876
_cell_angle_beta   60.03555398
_cell_angle_gamma   60.21387239
_symmetry_Int_Tables_number   1
_chemical_formula_structural   Tb7Ho7Th2Cd3InIr4
_chemical_formula_sum   'Tb7 Ho7 Th2 Cd3 In1 Ir4'
_cell_volume   645.17568552
_cell_formula_units_Z   1
loop_
 _symmetry_equiv_pos_site_id
 _symmetry_equiv_pos_as_xyz
  1  'x, y, z'
loop_
 _atom_site_type_symbol
 _atom_site_label
 _atom_site_symmetry_multiplicity
 _atom_site_fract_x
 _atom_site_fract_y
 _atom_site_fract_z
 _atom_site_occupancy
  Tb  Tb0  1  0.061118  0.061120  0.439339  1
  Tb  Tb1  1  0.189666  0.814576  0.812981  1
  Tb  Tb2  1  0.814033  0.189331  0.184657  1
  Tb  Tb3  1  0.814581  0.189647  0.812987  1
  Tb  Tb4  1  0.189333  0.814039  0.184638  1
  Tb  Tb5  1  0.815459  0.815476  0.186084  1
  Tb  Tb6  1  0.193546  0.193539  0.806853  1
  Ho  Ho7  1  0.603259  0.196809  0.600392  1
  Ho  Ho8  1  0.196819  0.603253  0.600398  1
  Ho  Ho9  1  0.062816  0.437717  0.438010  1
  Ho  Ho10  1  0.440051  0.061198  0.060060  1
  Ho  Ho11  1  0.437702  0.062830  0.438019  1
  Ho  Ho12  1  0.061194  0.440061  0.060047  1
  Ho  Ho13  1  0.434504  0.434516  0.064981  1
  Th  Th14  1  0.595939  0.595959  0.600548  1
  Th  Th15  1  0.596306  0.596305  0.206483  1
  Cd  Cd16  1  0.831194  0.831188  0.506303  1
  Cd  Cd17  1  0.831244  0.503997  0.831710  1
  Cd  Cd18  1  0.503988  0.831208  0.831707  1
  In  In19  1  0.831791  0.831785  0.830654  1
  Ir  Ir20  1  0.389874  0.389887  0.397538  1
  Ir  Ir21  1  0.389944  0.389934  0.822385  1
  Ir  Ir22  1  0.393727  0.821911  0.391626  1
  Ir  Ir23  1  0.821912  0.393715  0.391601  1
