# generated using pymatgen
data_In5Te8Au
_symmetry_space_group_name_H-M   'P 1'
_cell_length_a   7.76238528
_cell_length_b   7.76238531
_cell_length_c   9.09811082
_cell_angle_alpha   89.84969437
_cell_angle_beta   90.15030430
_cell_angle_gamma   71.13919868
_symmetry_Int_Tables_number   1
_chemical_formula_structural   In5Te8Au
_chemical_formula_sum   'In5 Te8 Au1'
_cell_volume   518.76316689
_cell_formula_units_Z   1
loop_
 _symmetry_equiv_pos_site_id
 _symmetry_equiv_pos_as_xyz
  1  'x, y, z'
loop_
 _atom_site_type_symbol
 _atom_site_label
 _atom_site_symmetry_multiplicity
 _atom_site_fract_x
 _atom_site_fract_y
 _atom_site_fract_z
 _atom_site_occupancy
  In  In0  1  0.490022  0.490022  0.000000  1
  In  In1  1  0.011427  0.011427  0.500000  1
  In  In2  1  0.499406  0.499406  0.500000  1
  In  In3  1  0.011716  0.487894  0.753999  1
  In  In4  1  0.487894  0.011716  0.246001  1
  Te  Te5  1  0.624478  0.107180  0.981099  1
  Te  Te6  1  0.111171  0.617858  0.477333  1
  Te  Te7  1  0.107180  0.624478  0.018901  1
  Te  Te8  1  0.617858  0.111171  0.522667  1
  Te  Te9  1  0.105456  0.160884  0.241103  1
  Te  Te10  1  0.617819  0.655303  0.751563  1
  Te  Te11  1  0.160884  0.105456  0.758897  1
  Te  Te12  1  0.655303  0.617819  0.248437  1
  Au  Au13  1  0.999387  0.999387  0.000000  1
