# generated using pymatgen
data_Gd5Y11(ErPb4)4
_symmetry_space_group_name_H-M   'P 1'
_cell_length_a   8.21660838
_cell_length_b   8.29933399
_cell_length_c   15.68509800
_cell_angle_alpha   90.00634446
_cell_angle_beta   89.96673799
_cell_angle_gamma   89.97268590
_symmetry_Int_Tables_number   1
_chemical_formula_structural   Gd5Y11(ErPb4)4
_chemical_formula_sum   'Gd5 Y11 Er4 Pb16'
_cell_volume   1069.60381217
_cell_formula_units_Z   1
loop_
 _symmetry_equiv_pos_site_id
 _symmetry_equiv_pos_as_xyz
  1  'x, y, z'
loop_
 _atom_site_type_symbol
 _atom_site_label
 _atom_site_symmetry_multiplicity
 _atom_site_fract_x
 _atom_site_fract_y
 _atom_site_fract_z
 _atom_site_occupancy
  Gd  Gd0  1  0.967772  0.822137  0.099050  1
  Gd  Gd1  1  0.468216  0.678251  0.098026  1
  Gd  Gd2  1  0.964359  0.819334  0.402062  1
  Gd  Gd3  1  0.532656  0.323585  0.598495  1
  Gd  Gd4  1  0.032918  0.178251  0.901729  1
  Y  Y5  1  0.375531  0.842392  0.878936  1
  Y  Y6  1  0.876096  0.658086  0.621129  1
  Y  Y7  1  0.623365  0.158298  0.379051  1
  Y  Y8  1  0.124969  0.342584  0.121115  1
  Y  Y9  1  0.624950  0.157087  0.121466  1
  Y  Y10  1  0.124131  0.341444  0.379306  1
  Y  Y11  1  0.376115  0.843317  0.621325  1
  Y  Y12  1  0.875442  0.657923  0.878660  1
  Y  Y13  1  0.534543  0.323030  0.900343  1
  Y  Y14  1  0.034969  0.175594  0.599730  1
  Y  Y15  1  0.464900  0.677693  0.400556  1
  Er  Er16  1  0.208494  0.504381  0.749547  1
  Er  Er17  1  0.708089  0.996430  0.749772  1
  Er  Er18  1  0.791487  0.495192  0.249652  1
  Er  Er19  1  0.291991  0.003978  0.250686  1
  Pb  Pb20  1  0.284385  0.035246  0.044148  1
  Pb  Pb21  1  0.781434  0.466734  0.455769  1
  Pb  Pb22  1  0.717015  0.966901  0.544036  1
  Pb  Pb23  1  0.217675  0.533035  0.955700  1
  Pb  Pb24  1  0.715967  0.966052  0.956327  1
  Pb  Pb25  1  0.216661  0.536143  0.542662  1
  Pb  Pb26  1  0.280827  0.032745  0.456418  1
  Pb  Pb27  1  0.783549  0.463318  0.042785  1
  Pb  Pb28  1  0.570899  0.626098  0.750050  1
  Pb  Pb29  1  0.070661  0.874545  0.749867  1
  Pb  Pb30  1  0.429374  0.374926  0.250038  1
  Pb  Pb31  1  0.929836  0.125445  0.250087  1
  Pb  Pb32  1  0.345728  0.153924  0.750562  1
  Pb  Pb33  1  0.846293  0.346567  0.749261  1
  Pb  Pb34  1  0.654127  0.846295  0.250858  1
  Pb  Pb35  1  0.154579  0.653037  0.250802  1
