# generated using pymatgen
data_Tb2Cr2Co10As7
_symmetry_space_group_name_H-M   'P 1'
_cell_length_a   3.75517500
_cell_length_b   9.39352466
_cell_length_c   9.43043625
_cell_angle_alpha   119.88120747
_cell_angle_beta   90.00000000
_cell_angle_gamma   90.00000000
_symmetry_Int_Tables_number   1
_chemical_formula_structural   Tb2Cr2Co10As7
_chemical_formula_sum   'Tb2 Cr2 Co10 As7'
_cell_volume   288.42957961
_cell_formula_units_Z   1
loop_
 _symmetry_equiv_pos_site_id
 _symmetry_equiv_pos_as_xyz
  1  'x, y, z'
loop_
 _atom_site_type_symbol
 _atom_site_label
 _atom_site_symmetry_multiplicity
 _atom_site_fract_x
 _atom_site_fract_y
 _atom_site_fract_z
 _atom_site_occupancy
  Tb  Tb0  1  0.000000  0.671228  0.337316  1
  Tb  Tb1  1  0.500000  0.332268  0.666651  1
  Cr  Cr2  1  0.500000  0.775102  0.892485  1
  Cr  Cr3  1  0.500000  0.120082  0.223102  1
  Co  Co4  1  0.000000  0.569334  0.941653  1
  Co  Co5  1  0.000000  0.370806  0.430491  1
  Co  Co6  1  0.000000  0.058194  0.628301  1
  Co  Co7  1  0.500000  0.096031  0.878617  1
  Co  Co8  1  0.000000  0.879437  0.156073  1
  Co  Co9  1  0.000000  0.281091  0.123048  1
  Co  Co10  1  0.000000  0.842285  0.722119  1
  Co  Co11  1  0.500000  0.948478  0.381600  1
  Co  Co12  1  0.500000  0.432411  0.048670  1
  Co  Co13  1  0.500000  0.618449  0.566222  1
  As  As14  1  0.000000  0.002282  0.998524  1
  As  As15  1  0.500000  0.707878  0.116528  1
  As  As16  1  0.500000  0.411623  0.291811  1
  As  As17  1  0.500000  0.888190  0.596893  1
  As  As18  1  0.000000  0.586791  0.701412  1
  As  As19  1  0.000000  0.113516  0.412670  1
  As  As20  1  0.000000  0.294520  0.885811  1
