# generated using pymatgen
data_Nd17Y2TmSn16
_symmetry_space_group_name_H-M   'P 1'
_cell_length_a   8.25907100
_cell_length_b   8.41309050
_cell_length_c   15.95970000
_cell_angle_alpha   90.00000000
_cell_angle_beta   90.00000000
_cell_angle_gamma   89.96706763
_symmetry_Int_Tables_number   1
_chemical_formula_structural   Nd17Y2TmSn16
_chemical_formula_sum   'Nd17 Y2 Tm1 Sn16'
_cell_volume   1108.94858716
_cell_formula_units_Z   1
loop_
 _symmetry_equiv_pos_site_id
 _symmetry_equiv_pos_as_xyz
  1  'x, y, z'
loop_
 _atom_site_type_symbol
 _atom_site_label
 _atom_site_symmetry_multiplicity
 _atom_site_fract_x
 _atom_site_fract_y
 _atom_site_fract_z
 _atom_site_occupancy
  Nd  Nd0  1  0.017964  0.180988  0.401506  1
  Nd  Nd1  1  0.367154  0.837831  0.120713  1
  Nd  Nd2  1  0.133436  0.336915  0.620641  1
  Nd  Nd3  1  0.481372  0.681726  0.901997  1
  Nd  Nd4  1  0.866897  0.662189  0.121871  1
  Nd  Nd5  1  0.133436  0.336915  0.879359  1
  Nd  Nd6  1  0.481372  0.681726  0.598003  1
  Nd  Nd7  1  0.631910  0.162265  0.620181  1
  Nd  Nd8  1  0.803345  0.498089  0.750000  1
  Nd  Nd9  1  0.866897  0.662189  0.378129  1
  Nd  Nd10  1  0.017964  0.180988  0.098494  1
  Nd  Nd11  1  0.982359  0.819765  0.901870  1
  Nd  Nd12  1  0.631910  0.162265  0.879819  1
  Nd  Nd13  1  0.518317  0.319105  0.099071  1
  Nd  Nd14  1  0.367154  0.837831  0.379287  1
  Nd  Nd15  1  0.982359  0.819765  0.598130  1
  Nd  Nd16  1  0.518317  0.319105  0.400929  1
  Y  Y17  1  0.198666  0.502200  0.250000  1
  Y  Y18  1  0.698954  0.997977  0.250000  1
  Tm  Tm19  1  0.301166  0.002858  0.750000  1
  Sn  Sn20  1  0.792215  0.463547  0.541503  1
  Sn  Sn21  1  0.708076  0.964873  0.455706  1
  Sn  Sn22  1  0.674187  0.857956  0.750000  1
  Sn  Sn23  1  0.207550  0.534512  0.455727  1
  Sn  Sn24  1  0.292216  0.034749  0.955855  1
  Sn  Sn25  1  0.824763  0.352385  0.250000  1
  Sn  Sn26  1  0.792215  0.463547  0.958497  1
  Sn  Sn27  1  0.563548  0.616917  0.250000  1
  Sn  Sn28  1  0.207550  0.534512  0.044273  1
  Sn  Sn29  1  0.432200  0.382074  0.750000  1
  Sn  Sn30  1  0.178240  0.648637  0.750000  1
  Sn  Sn31  1  0.937347  0.114231  0.750000  1
  Sn  Sn32  1  0.292216  0.034749  0.544145  1
  Sn  Sn33  1  0.708076  0.964873  0.044294  1
  Sn  Sn34  1  0.324195  0.146413  0.250000  1
  Sn  Sn35  1  0.064465  0.883332  0.250000  1
