# generated using pymatgen
data_Sr4Ga14NiPd
_symmetry_space_group_name_H-M   'P 1'
_cell_length_a   6.20671613
_cell_length_b   6.22937483
_cell_length_c   11.72709706
_cell_angle_alpha   74.59754761
_cell_angle_beta   74.65494432
_cell_angle_gamma   89.99999705
_symmetry_Int_Tables_number   1
_chemical_formula_structural   Sr4Ga14NiPd
_chemical_formula_sum   'Sr4 Ga14 Ni1 Pd1'
_cell_volume   420.34092128
_cell_formula_units_Z   1
loop_
 _symmetry_equiv_pos_site_id
 _symmetry_equiv_pos_as_xyz
  1  'x, y, z'
loop_
 _atom_site_type_symbol
 _atom_site_label
 _atom_site_symmetry_multiplicity
 _atom_site_fract_x
 _atom_site_fract_y
 _atom_site_fract_z
 _atom_site_occupancy
  Sr  Sr0  1  0.000696  0.000696  0.998608  1
  Sr  Sr1  1  0.500101  0.500101  0.999798  1
  Sr  Sr2  1  0.750411  0.250411  0.499179  1
  Sr  Sr3  1  0.245972  0.745972  0.508057  1
  Ga  Ga4  1  0.197327  0.197327  0.605347  1
  Ga  Ga5  1  0.809414  0.809414  0.381174  1
  Ga  Ga6  1  0.615473  0.120605  0.250078  1
  Ga  Ga7  1  0.134448  0.629315  0.250078  1
  Ga  Ga8  1  0.615473  0.629315  0.250078  1
  Ga  Ga9  1  0.134448  0.120605  0.250078  1
  Ga  Ga10  1  0.860695  0.355330  0.757139  1
  Ga  Ga11  1  0.382166  0.887530  0.757139  1
  Ga  Ga12  1  0.860695  0.887530  0.757139  1
  Ga  Ga13  1  0.382166  0.355330  0.757139  1
  Ga  Ga14  1  0.690389  0.690389  0.619221  1
  Ga  Ga15  1  0.061099  0.561099  0.877801  1
  Ga  Ga16  1  0.454150  0.954150  0.091697  1
  Ga  Ga17  1  0.941786  0.441786  0.116427  1
  Ni  Ni18  1  0.564349  0.064349  0.871302  1
  Pd  Pd19  1  0.313571  0.313571  0.372856  1
