# generated using pymatgen
data_Ti4GaCo8Si2Ge
_symmetry_space_group_name_H-M   'P 1'
_cell_length_a   13.55912799
_cell_length_b   13.55912765
_cell_length_c   13.55912709
_cell_angle_alpha   17.39397026
_cell_angle_beta   17.39397586
_cell_angle_gamma   17.39396884
_symmetry_Int_Tables_number   1
_chemical_formula_structural   Ti4GaCo8Si2Ge
_chemical_formula_sum   'Ti4 Ga1 Co8 Si2 Ge1'
_cell_volume   194.40940059
_cell_formula_units_Z   1
loop_
 _symmetry_equiv_pos_site_id
 _symmetry_equiv_pos_as_xyz
  1  'x, y, z'
loop_
 _atom_site_type_symbol
 _atom_site_label
 _atom_site_symmetry_multiplicity
 _atom_site_fract_x
 _atom_site_fract_y
 _atom_site_fract_z
 _atom_site_occupancy
  Ti  Ti0  1  0.875181  0.875181  0.875181  1
  Ti  Ti1  1  0.124819  0.124819  0.124819  1
  Ti  Ti2  1  0.374908  0.374908  0.374908  1
  Ti  Ti3  1  0.625092  0.625092  0.625092  1
  Ga  Ga4  1  0.000000  0.000000  0.000000  1
  Co  Co5  1  0.188807  0.188807  0.188807  1
  Co  Co6  1  0.436822  0.436822  0.436822  1
  Co  Co7  1  0.689530  0.689530  0.689530  1
  Co  Co8  1  0.936066  0.936066  0.936066  1
  Co  Co9  1  0.811193  0.811193  0.811193  1
  Co  Co10  1  0.063934  0.063934  0.063934  1
  Co  Co11  1  0.310470  0.310470  0.310470  1
  Co  Co12  1  0.563178  0.563178  0.563178  1
  Si  Si13  1  0.249997  0.249997  0.249997  1
  Si  Si14  1  0.750003  0.750003  0.750003  1
  Ge  Ge15  1  0.500000  0.500000  0.500000  1
