# generated using pymatgen
data_MnPt5
_symmetry_space_group_name_H-M   'P 1'
_cell_length_a   3.93707119
_cell_length_b   3.94542592
_cell_length_c   6.26802365
_cell_angle_alpha   89.99655967
_cell_angle_beta   108.20637839
_cell_angle_gamma   90.00272753
_symmetry_Int_Tables_number   1
_chemical_formula_structural   MnPt5
_chemical_formula_sum   'Mn1 Pt5'
_cell_volume   92.48956061
_cell_formula_units_Z   1
loop_
 _symmetry_equiv_pos_site_id
 _symmetry_equiv_pos_as_xyz
  1  'x, y, z'
loop_
 _atom_site_type_symbol
 _atom_site_label
 _atom_site_symmetry_multiplicity
 _atom_site_fract_x
 _atom_site_fract_y
 _atom_site_fract_z
 _atom_site_occupancy
  Mn  Mn0  1  0.179559  0.757584  0.975700  1
  Pt  Pt1  1  0.840625  0.757869  0.296140  1
  Pt  Pt2  1  0.012933  0.257605  0.642700  1
  Pt  Pt3  1  0.346737  0.257955  0.308726  1
  Pt  Pt4  1  0.679352  0.257657  0.975711  1
  Pt  Pt5  1  0.519175  0.757597  0.655309  1
