# generated using pymatgen
data_LiLu2U3(P2Ru3)6
_symmetry_space_group_name_H-M   'P 1'
_cell_length_a   12.66175340
_cell_length_b   12.42606007
_cell_length_c   3.92140500
_cell_angle_alpha   90.00000000
_cell_angle_beta   90.00000000
_cell_angle_gamma   119.38612010
_symmetry_Int_Tables_number   1
_chemical_formula_structural   LiLu2U3(P2Ru3)6
_chemical_formula_sum   'Li1 Lu2 U3 P12 Ru18'
_cell_volume   537.59226877
_cell_formula_units_Z   1
loop_
 _symmetry_equiv_pos_site_id
 _symmetry_equiv_pos_as_xyz
  1  'x, y, z'
loop_
 _atom_site_type_symbol
 _atom_site_label
 _atom_site_symmetry_multiplicity
 _atom_site_fract_x
 _atom_site_fract_y
 _atom_site_fract_z
 _atom_site_occupancy
  Li  Li0  1  0.000000  0.561621  0.000000  1
  Lu  Lu1  1  0.657920  0.328623  0.000000  1
  Lu  Lu2  1  0.342080  0.670705  0.000000  1
  U  U3  1  0.000000  0.182795  0.500000  1
  U  U4  1  0.815200  0.813684  0.500000  1
  U  U5  1  0.184800  0.998483  0.500000  1
  P  P6  1  0.000000  0.807411  0.000000  1
  P  P7  1  0.181070  0.182308  0.000000  1
  P  P8  1  0.818930  0.001237  0.000000  1
  P  P9  1  0.691192  0.175552  0.500000  1
  P  P10  1  0.816387  0.514841  0.500000  1
  P  P11  1  0.477145  0.308867  0.500000  1
  P  P12  1  0.183613  0.698455  0.500000  1
  P  P13  1  0.522855  0.831724  0.500000  1
  P  P14  1  0.308808  0.484360  0.500000  1
  P  P15  1  0.000000  0.368806  0.000000  1
  P  P16  1  0.625262  0.624493  0.000000  1
  P  P17  1  0.374738  0.999231  0.000000  1
  Ru  Ru18  1  0.442254  0.443515  0.000000  1
  Ru  Ru19  1  0.557746  0.001260  0.000000  1
  Ru  Ru20  1  0.000000  0.710117  0.500000  1
  Ru  Ru21  1  0.280647  0.283252  0.500000  1
  Ru  Ru22  1  0.719353  0.002605  0.500000  1
  Ru  Ru23  1  0.809999  0.185805  0.000000  1
  Ru  Ru24  1  0.813315  0.621721  0.000000  1
  Ru  Ru25  1  0.367627  0.185176  0.000000  1
  Ru  Ru26  1  0.186685  0.808407  0.000000  1
  Ru  Ru27  1  0.632373  0.817547  0.000000  1
  Ru  Ru28  1  0.190001  0.375806  0.000000  1
  Ru  Ru29  1  0.873668  0.366831  0.500000  1
  Ru  Ru30  1  0.631116  0.509613  0.500000  1
  Ru  Ru31  1  0.493082  0.130398  0.500000  1
  Ru  Ru32  1  0.368884  0.878497  0.500000  1
  Ru  Ru33  1  0.506918  0.637315  0.500000  1
  Ru  Ru34  1  0.126332  0.493164  0.500000  1
  Ru  Ru35  1  0.000000  0.995775  0.000000  1
