# generated using pymatgen
data_Tm8Ta11TiSi16
_symmetry_space_group_name_H-M   'P 1'
_cell_length_a   7.01066508
_cell_length_b   7.00722037
_cell_length_c   12.90616515
_cell_angle_alpha   89.97312903
_cell_angle_beta   90.00443548
_cell_angle_gamma   89.98999839
_symmetry_Int_Tables_number   1
_chemical_formula_structural   Tm8Ta11TiSi16
_chemical_formula_sum   'Tm8 Ta11 Ti1 Si16'
_cell_volume   634.01883264
_cell_formula_units_Z   1
loop_
 _symmetry_equiv_pos_site_id
 _symmetry_equiv_pos_as_xyz
  1  'x, y, z'
loop_
 _atom_site_type_symbol
 _atom_site_label
 _atom_site_symmetry_multiplicity
 _atom_site_fract_x
 _atom_site_fract_y
 _atom_site_fract_z
 _atom_site_occupancy
  Tm  Tm0  1  0.342661  0.001661  0.468024  1
  Tm  Tm1  1  0.498466  0.842387  0.717943  1
  Tm  Tm2  1  0.501753  0.158140  0.218241  1
  Tm  Tm3  1  0.841873  0.498106  0.281859  1
  Tm  Tm4  1  0.157700  0.501346  0.782136  1
  Tm  Tm5  1  0.658175  0.997765  0.968155  1
  Tm  Tm6  1  0.002260  0.341792  0.531891  1
  Tm  Tm7  1  0.997905  0.658893  0.031563  1
  Ta  Ta8  1  0.328679  0.328929  0.999811  1
  Ta  Ta9  1  0.171452  0.828320  0.250088  1
  Ta  Ta10  1  0.827224  0.172497  0.749986  1
  Ta  Ta11  1  0.671121  0.671357  0.499827  1
  Ta  Ta12  1  0.151729  0.006116  0.873612  1
  Ta  Ta13  1  0.493680  0.652331  0.123874  1
  Ta  Ta14  1  0.506450  0.347406  0.623613  1
  Ta  Ta15  1  0.652561  0.492462  0.876514  1
  Ta  Ta16  1  0.348173  0.506564  0.376261  1
  Ta  Ta17  1  0.846574  0.992569  0.373803  1
  Ta  Ta18  1  0.007212  0.152539  0.126036  1
  Ti  Ti19  1  0.993204  0.846574  0.626663  1
  Si  Si20  1  0.202732  0.132686  0.680878  1
  Si  Si21  1  0.365186  0.704837  0.930620  1
  Si  Si22  1  0.635290  0.295509  0.431385  1
  Si  Si23  1  0.704435  0.364976  0.069256  1
  Si  Si24  1  0.294651  0.636315  0.569177  1
  Si  Si25  1  0.796044  0.864870  0.180740  1
  Si  Si26  1  0.135036  0.204064  0.319443  1
  Si  Si27  1  0.864626  0.796644  0.818137  1
  Si  Si28  1  0.295506  0.954314  0.063664  1
  Si  Si29  1  0.545164  0.795532  0.313812  1
  Si  Si30  1  0.453885  0.204713  0.813540  1
  Si  Si31  1  0.796597  0.547099  0.685285  1
  Si  Si32  1  0.204573  0.454731  0.186251  1
  Si  Si33  1  0.707685  0.044618  0.564542  1
  Si  Si34  1  0.954293  0.295569  0.936007  1
  Si  Si35  1  0.045441  0.705773  0.437360  1
