# generated using pymatgen
data_Tb10Co2Si3Au
_symmetry_space_group_name_H-M   'P 1'
_cell_length_a   7.61967700
_cell_length_b   8.60954217
_cell_length_c   11.85066951
_cell_angle_alpha   89.28985820
_cell_angle_beta   90.00000000
_cell_angle_gamma   90.00000000
_symmetry_Int_Tables_number   1
_chemical_formula_structural   Tb10Co2Si3Au
_chemical_formula_sum   'Tb20 Co4 Si6 Au2'
_cell_volume   777.36708452
_cell_formula_units_Z   2
loop_
 _symmetry_equiv_pos_site_id
 _symmetry_equiv_pos_as_xyz
  1  'x, y, z'
loop_
 _atom_site_type_symbol
 _atom_site_label
 _atom_site_symmetry_multiplicity
 _atom_site_fract_x
 _atom_site_fract_y
 _atom_site_fract_z
 _atom_site_occupancy
  Tb  Tb0  1  0.160317  0.758453  0.216714  1
  Tb  Tb1  1  0.660317  0.241547  0.283286  1
  Tb  Tb2  1  0.841013  0.249010  0.785513  1
  Tb  Tb3  1  0.341013  0.750990  0.714487  1
  Tb  Tb4  1  0.463488  0.753031  0.995877  1
  Tb  Tb5  1  0.963488  0.246969  0.504123  1
  Tb  Tb6  1  0.542695  0.241878  0.998217  1
  Tb  Tb7  1  0.042695  0.758122  0.501783  1
  Tb  Tb8  1  0.629161  0.760007  0.305027  1
  Tb  Tb9  1  0.129161  0.239993  0.194973  1
  Tb  Tb10  1  0.367605  0.248919  0.699729  1
  Tb  Tb11  1  0.867605  0.751081  0.800271  1
  Tb  Tb12  1  0.818326  0.962398  0.074827  1
  Tb  Tb13  1  0.318326  0.037602  0.425173  1
  Tb  Tb14  1  0.181834  0.467128  0.917068  1
  Tb  Tb15  1  0.681834  0.532872  0.582932  1
  Tb  Tb16  1  0.181549  0.028314  0.925344  1
  Tb  Tb17  1  0.681549  0.971686  0.574656  1
  Tb  Tb18  1  0.823972  0.532685  0.072952  1
  Tb  Tb19  1  0.323972  0.467315  0.427048  1
  Co  Co20  1  0.430866  0.753540  0.491286  1
  Co  Co21  1  0.930866  0.246460  0.008714  1
  Co  Co22  1  0.572770  0.253900  0.507783  1
  Co  Co23  1  0.072770  0.746100  0.992217  1
  Si  Si24  1  0.929488  0.995528  0.331308  1
  Si  Si25  1  0.429488  0.004472  0.168692  1
  Si  Si26  1  0.066579  0.496129  0.667081  1
  Si  Si27  1  0.566579  0.503871  0.832919  1
  Si  Si28  1  0.068877  0.005467  0.670078  1
  Si  Si29  1  0.568877  0.994533  0.829922  1
  Au  Au30  1  0.921460  0.510687  0.332270  1
  Au  Au31  1  0.421460  0.489313  0.167730  1
