# generated using pymatgen
data_Rb3Ta2SbSe11
_symmetry_space_group_name_H-M   'P 1'
_cell_length_a   10.47106942
_cell_length_b   10.47106914
_cell_length_c   10.19443402
_cell_angle_alpha   83.70093951
_cell_angle_beta   83.70093697
_cell_angle_gamma   83.24083523
_symmetry_Int_Tables_number   1
_chemical_formula_structural   Rb3Ta2SbSe11
_chemical_formula_sum   'Rb6 Ta4 Sb2 Se22'
_cell_volume   1097.96248474
_cell_formula_units_Z   2
loop_
 _symmetry_equiv_pos_site_id
 _symmetry_equiv_pos_as_xyz
  1  'x, y, z'
loop_
 _atom_site_type_symbol
 _atom_site_label
 _atom_site_symmetry_multiplicity
 _atom_site_fract_x
 _atom_site_fract_y
 _atom_site_fract_z
 _atom_site_occupancy
  Rb  Rb0  1  0.523593  0.355106  0.926229  1
  Rb  Rb1  1  0.979950  0.138279  0.024615  1
  Rb  Rb2  1  0.753433  0.886303  0.686630  1
  Rb  Rb3  1  0.355106  0.523593  0.426229  1
  Rb  Rb4  1  0.886303  0.753433  0.186630  1
  Rb  Rb5  1  0.138279  0.979950  0.524615  1
  Ta  Ta6  1  0.794721  0.252955  0.411413  1
  Ta  Ta7  1  0.252955  0.794721  0.911413  1
  Ta  Ta8  1  0.497144  0.907071  0.099392  1
  Ta  Ta9  1  0.907071  0.497144  0.599392  1
  Sb  Sb10  1  0.129021  0.450594  0.875755  1
  Sb  Sb11  1  0.450594  0.129021  0.375755  1
  Se  Se12  1  0.575259  0.664341  0.157178  1
  Se  Se13  1  0.401089  0.895132  0.709422  1
  Se  Se14  1  0.352973  0.020162  0.897544  1
  Se  Se15  1  0.286713  0.605938  0.752725  1
  Se  Se16  1  0.826063  0.237503  0.666652  1
  Se  Se17  1  0.891335  0.537894  0.853111  1
  Se  Se18  1  0.664341  0.575259  0.657178  1
  Se  Se19  1  0.537894  0.891335  0.353111  1
  Se  Se20  1  0.237503  0.826063  0.166652  1
  Se  Se21  1  0.040123  0.872330  0.856860  1
  Se  Se22  1  0.222318  0.610354  0.102324  1
  Se  Se23  1  0.678004  0.018188  0.013772  1
  Se  Se24  1  0.100712  0.316552  0.672610  1
  Se  Se25  1  0.727836  0.523374  0.434910  1
  Se  Se26  1  0.872330  0.040123  0.356860  1
  Se  Se27  1  0.523374  0.727836  0.934910  1
  Se  Se28  1  0.895132  0.401089  0.209422  1
  Se  Se29  1  0.610354  0.222318  0.602324  1
  Se  Se30  1  0.316552  0.100712  0.172610  1
  Se  Se31  1  0.020162  0.352973  0.397544  1
  Se  Se32  1  0.605938  0.286713  0.252725  1
  Se  Se33  1  0.018188  0.678004  0.513772  1
