# generated using pymatgen
data_Hf5Zr5(Sn3B)2
_symmetry_space_group_name_H-M   'P 1'
_cell_length_a   8.54038566
_cell_length_b   8.54619254
_cell_length_c   5.80601200
_cell_angle_alpha   90.00000000
_cell_angle_beta   90.00000000
_cell_angle_gamma   120.02249254
_symmetry_Int_Tables_number   1
_chemical_formula_structural   Hf5Zr5(Sn3B)2
_chemical_formula_sum   'Hf5 Zr5 Sn6 B2'
_cell_volume   366.91058334
_cell_formula_units_Z   1
loop_
 _symmetry_equiv_pos_site_id
 _symmetry_equiv_pos_as_xyz
  1  'x, y, z'
loop_
 _atom_site_type_symbol
 _atom_site_label
 _atom_site_symmetry_multiplicity
 _atom_site_fract_x
 _atom_site_fract_y
 _atom_site_fract_z
 _atom_site_occupancy
  Hf  Hf0  1  0.774024  0.774521  0.750000  1
  Hf  Hf1  1  0.225976  0.000497  0.750000  1
  Hf  Hf2  1  0.000000  0.225772  0.750000  1
  Hf  Hf3  1  0.225635  0.225790  0.250000  1
  Hf  Hf4  1  0.774365  0.000155  0.250000  1
  Zr  Zr5  1  0.666550  0.333246  0.000013  1
  Zr  Zr6  1  0.333450  0.666696  0.000013  1
  Zr  Zr7  1  0.333450  0.666696  0.499987  1
  Zr  Zr8  1  0.666550  0.333246  0.499987  1
  Zr  Zr9  1  0.000000  0.771302  0.250000  1
  Sn  Sn10  1  0.398332  0.398322  0.750000  1
  Sn  Sn11  1  0.601668  0.999990  0.750000  1
  Sn  Sn12  1  0.000000  0.602076  0.750000  1
  Sn  Sn13  1  0.601219  0.601765  0.250000  1
  Sn  Sn14  1  0.398781  0.000547  0.250000  1
  Sn  Sn15  1  0.000000  0.397327  0.250000  1
  B  B16  1  0.000000  0.001026  0.999209  1
  B  B17  1  0.000000  0.001026  0.500791  1
