# generated using pymatgen
data_AcLa3(FeN3)2
_symmetry_space_group_name_H-M   'P 1'
_cell_length_a   6.19352310
_cell_length_b   6.19352277
_cell_length_c   12.16880000
_cell_angle_alpha   91.11279829
_cell_angle_beta   88.88720177
_cell_angle_gamma   127.65195123
_symmetry_Int_Tables_number   1
_chemical_formula_structural   AcLa3(FeN3)2
_chemical_formula_sum   'Ac2 La6 Fe4 N12'
_cell_volume   369.48940091
_cell_formula_units_Z   2
loop_
 _symmetry_equiv_pos_site_id
 _symmetry_equiv_pos_as_xyz
  1  'x, y, z'
loop_
 _atom_site_type_symbol
 _atom_site_label
 _atom_site_symmetry_multiplicity
 _atom_site_fract_x
 _atom_site_fract_y
 _atom_site_fract_z
 _atom_site_occupancy
  Ac  Ac0  1  0.447632  0.552368  0.349698  1
  Ac  Ac1  1  0.552368  0.447632  0.650302  1
  La  La2  1  0.060714  0.939286  0.859040  1
  La  La3  1  0.939286  0.060714  0.140960  1
  La  La4  1  0.145900  0.854100  0.430388  1
  La  La5  1  0.854100  0.145900  0.569612  1
  La  La6  1  0.356305  0.643695  0.931023  1
  La  La7  1  0.643695  0.356305  0.068977  1
  Fe  Fe8  1  0.254198  0.745802  0.162544  1
  Fe  Fe9  1  0.745802  0.254198  0.837456  1
  Fe  Fe10  1  0.240514  0.759486  0.663819  1
  Fe  Fe11  1  0.759486  0.240514  0.336181  1
  N  N12  1  0.149161  0.850839  0.036880  1
  N  N13  1  0.850839  0.149161  0.963120  1
  N  N14  1  0.344212  0.655788  0.535961  1
  N  N15  1  0.655788  0.344212  0.464039  1
  N  N16  1  0.432558  0.567442  0.125344  1
  N  N17  1  0.567442  0.432558  0.874656  1
  N  N18  1  0.064717  0.935283  0.629083  1
  N  N19  1  0.935283  0.064717  0.370917  1
  N  N20  1  0.988744  0.509403  0.249567  1
  N  N21  1  0.509403  0.988744  0.750433  1
  N  N22  1  0.011256  0.490597  0.750433  1
  N  N23  1  0.490597  0.011256  0.249567  1
