# generated using pymatgen
data_MnCd2Co(SnO4)2
_symmetry_space_group_name_H-M   'P 1'
_cell_length_a   6.44436963
_cell_length_b   6.50294978
_cell_length_c   6.44436949
_cell_angle_alpha   121.30420817
_cell_angle_beta   119.66623742
_cell_angle_gamma   88.90683881
_symmetry_Int_Tables_number   1
_chemical_formula_structural   MnCd2Co(SnO4)2
_chemical_formula_sum   'Mn1 Cd2 Co1 Sn2 O8'
_cell_volume   189.91497508
_cell_formula_units_Z   1
loop_
 _symmetry_equiv_pos_site_id
 _symmetry_equiv_pos_as_xyz
  1  'x, y, z'
loop_
 _atom_site_type_symbol
 _atom_site_label
 _atom_site_symmetry_multiplicity
 _atom_site_fract_x
 _atom_site_fract_y
 _atom_site_fract_z
 _atom_site_occupancy
  Mn  Mn0  1  0.500000  0.000000  0.000000  1
  Cd  Cd1  1  0.891424  0.140916  0.749493  1
  Cd  Cd2  1  0.108576  0.859084  0.250507  1
  Co  Co3  1  0.500000  0.500000  0.500000  1
  Sn  Sn4  1  0.500000  0.500000  0.000000  1
  Sn  Sn5  1  0.000000  0.500000  0.500000  1
  O  O6  1  0.744226  0.274227  0.030001  1
  O  O7  1  0.743702  0.714874  0.471173  1
  O  O8  1  0.748758  0.285183  0.479799  1
  O  O9  1  0.305383  0.285183  0.036425  1
  O  O10  1  0.694617  0.714817  0.963575  1
  O  O11  1  0.251242  0.714817  0.520201  1
  O  O12  1  0.256298  0.285126  0.528827  1
  O  O13  1  0.255774  0.725773  0.969999  1
