# generated using pymatgen
data_SbI27
_symmetry_space_group_name_H-M   'P 1'
_cell_length_a   22.94826877
_cell_length_b   22.94826984
_cell_length_c   22.94826900
_cell_angle_alpha   119.69477972
_cell_angle_beta   119.69478124
_cell_angle_gamma   119.69478602
_symmetry_Int_Tables_number   1
_chemical_formula_structural   SbI27
_chemical_formula_sum   'Sb1 I27'
_cell_volume   1737.23163434
_cell_formula_units_Z   1
loop_
 _symmetry_equiv_pos_site_id
 _symmetry_equiv_pos_as_xyz
  1  'x, y, z'
loop_
 _atom_site_type_symbol
 _atom_site_label
 _atom_site_symmetry_multiplicity
 _atom_site_fract_x
 _atom_site_fract_y
 _atom_site_fract_z
 _atom_site_occupancy
  Sb  Sb0  1  0.455867  0.455867  0.455867  1
  I  I1  1  0.051205  0.677857  0.677857  1
  I  I2  1  0.677857  0.677857  0.051205  1
  I  I3  1  0.677857  0.051205  0.677857  1
  I  I4  1  0.154935  0.766901  0.643873  1
  I  I5  1  0.766901  0.643873  0.154935  1
  I  I6  1  0.643873  0.154935  0.766901  1
  I  I7  1  0.766901  0.154935  0.643873  1
  I  I8  1  0.154935  0.643873  0.766901  1
  I  I9  1  0.643873  0.766901  0.154935  1
  I  I10  1  0.186195  0.783769  0.544737  1
  I  I11  1  0.783769  0.544737  0.186195  1
  I  I12  1  0.544737  0.186195  0.783769  1
  I  I13  1  0.783769  0.186195  0.544737  1
  I  I14  1  0.186195  0.544737  0.783769  1
  I  I15  1  0.544737  0.783769  0.186195  1
  I  I16  1  0.277056  0.626725  0.482398  1
  I  I17  1  0.626725  0.482398  0.277056  1
  I  I18  1  0.482398  0.277056  0.626725  1
  I  I19  1  0.626725  0.277056  0.482398  1
  I  I20  1  0.277056  0.482398  0.626725  1
  I  I21  1  0.482398  0.626725  0.277056  1
  I  I22  1  0.278099  0.555121  0.555121  1
  I  I23  1  0.555121  0.555121  0.278099  1
  I  I24  1  0.555121  0.278099  0.555121  1
  I  I25  1  0.024079  0.919358  0.919358  1
  I  I26  1  0.919358  0.919358  0.024079  1
  I  I27  1  0.919358  0.024079  0.919358  1
