# generated using pymatgen
data_Dy3Ho17Bi12
_symmetry_space_group_name_H-M   'P 1'
_cell_length_a   8.24101201
_cell_length_b   9.50979800
_cell_length_c   12.00963901
_cell_angle_alpha   90.00000000
_cell_angle_beta   90.00431646
_cell_angle_gamma   90.00000000
_symmetry_Int_Tables_number   1
_chemical_formula_structural   Dy3Ho17Bi12
_chemical_formula_sum   'Dy3 Ho17 Bi12'
_cell_volume   941.19972379
_cell_formula_units_Z   1
loop_
 _symmetry_equiv_pos_site_id
 _symmetry_equiv_pos_as_xyz
  1  'x, y, z'
loop_
 _atom_site_type_symbol
 _atom_site_label
 _atom_site_symmetry_multiplicity
 _atom_site_fract_x
 _atom_site_fract_y
 _atom_site_fract_z
 _atom_site_occupancy
  Dy  Dy0  1  0.812496  0.250000  0.281325  1
  Dy  Dy1  1  0.687457  0.750000  0.781297  1
  Dy  Dy2  1  0.187449  0.750000  0.718687  1
  Ho  Ho3  1  0.352576  0.750000  0.215335  1
  Ho  Ho4  1  0.852531  0.750000  0.284723  1
  Ho  Ho5  1  0.647440  0.250000  0.784671  1
  Ho  Ho6  1  0.147469  0.250000  0.715281  1
  Ho  Ho7  1  0.692848  0.564001  0.058500  1
  Ho  Ho8  1  0.192843  0.936011  0.441492  1
  Ho  Ho9  1  0.307169  0.063988  0.941541  1
  Ho  Ho10  1  0.807181  0.436010  0.558478  1
  Ho  Ho11  1  0.307169  0.436012  0.941541  1
  Ho  Ho12  1  0.807181  0.063990  0.558478  1
  Ho  Ho13  1  0.692848  0.935999  0.058500  1
  Ho  Ho14  1  0.192843  0.563989  0.441492  1
  Ho  Ho15  1  0.475587  0.250000  0.488330  1
  Ho  Ho16  1  0.975628  0.250000  0.011662  1
  Ho  Ho17  1  0.524390  0.750000  0.511596  1
  Ho  Ho18  1  0.024413  0.750000  0.988409  1
  Ho  Ho19  1  0.312494  0.250000  0.218595  1
  Bi  Bi20  1  0.407139  0.750000  0.956995  1
  Bi  Bi21  1  0.907130  0.750000  0.542996  1
  Bi  Bi22  1  0.592682  0.250000  0.043148  1
  Bi  Bi23  1  0.092956  0.250000  0.456941  1
  Bi  Bi24  1  0.564651  0.995471  0.325343  1
  Bi  Bi25  1  0.064897  0.504493  0.174630  1
  Bi  Bi26  1  0.435255  0.495386  0.674617  1
  Bi  Bi27  1  0.935237  0.004629  0.825403  1
  Bi  Bi28  1  0.435255  0.004614  0.674617  1
  Bi  Bi29  1  0.935237  0.495371  0.825403  1
  Bi  Bi30  1  0.564651  0.504529  0.325343  1
  Bi  Bi31  1  0.064897  0.995507  0.174630  1
