# generated using pymatgen
data_Zr3Sc4URu8
_symmetry_space_group_name_H-M   'P 1'
_cell_length_a   6.49617200
_cell_length_b   4.63062400
_cell_length_c   9.22080401
_cell_angle_alpha   90.00000000
_cell_angle_beta   90.00393660
_cell_angle_gamma   90.00000000
_symmetry_Int_Tables_number   1
_chemical_formula_structural   Zr3Sc4URu8
_chemical_formula_sum   'Zr3 Sc4 U1 Ru8'
_cell_volume   277.37404740
_cell_formula_units_Z   1
loop_
 _symmetry_equiv_pos_site_id
 _symmetry_equiv_pos_as_xyz
  1  'x, y, z'
loop_
 _atom_site_type_symbol
 _atom_site_label
 _atom_site_symmetry_multiplicity
 _atom_site_fract_x
 _atom_site_fract_y
 _atom_site_fract_z
 _atom_site_occupancy
  Zr  Zr0  1  0.249908  0.750000  0.378266  1
  Zr  Zr1  1  0.750100  0.250000  0.625044  1
  Zr  Zr2  1  0.250084  0.750000  0.871712  1
  Sc  Sc3  1  0.249884  0.250000  0.124998  1
  Sc  Sc4  1  0.749880  0.750000  0.381852  1
  Sc  Sc5  1  0.250116  0.250000  0.625020  1
  Sc  Sc6  1  0.750108  0.750000  0.868160  1
  U  U7  1  0.749895  0.250000  0.125032  1
  Ru  Ru8  1  0.506623  0.750000  0.124942  1
  Ru  Ru9  1  0.993223  0.750000  0.124954  1
  Ru  Ru10  1  0.505480  0.250000  0.368861  1
  Ru  Ru11  1  0.994350  0.250000  0.368820  1
  Ru  Ru12  1  0.000639  0.750000  0.624983  1
  Ru  Ru13  1  0.499539  0.750000  0.624993  1
  Ru  Ru14  1  0.994611  0.250000  0.881151  1
  Ru  Ru15  1  0.505558  0.250000  0.881214  1
