# generated using pymatgen
data_NdY(BrO3)6
_symmetry_space_group_name_H-M   'P 1'
_cell_length_a   9.95023100
_cell_length_b   9.95022991
_cell_length_c   5.91783900
_cell_angle_alpha   90.00000000
_cell_angle_beta   90.00000000
_cell_angle_gamma   119.99998701
_symmetry_Int_Tables_number   1
_chemical_formula_structural   NdY(BrO3)6
_chemical_formula_sum   'Nd1 Y1 Br6 O18'
_cell_volume   507.41127455
_cell_formula_units_Z   1
loop_
 _symmetry_equiv_pos_site_id
 _symmetry_equiv_pos_as_xyz
  1  'x, y, z'
loop_
 _atom_site_type_symbol
 _atom_site_label
 _atom_site_symmetry_multiplicity
 _atom_site_fract_x
 _atom_site_fract_y
 _atom_site_fract_z
 _atom_site_occupancy
  Nd  Nd0  1  0.666667  0.333333  0.699285  1
  Y  Y1  1  0.333333  0.666667  0.198093  1
  Br  Br2  1  0.684837  0.014669  0.366477  1
  Br  Br3  1  0.305386  0.971543  0.871106  1
  Br  Br4  1  0.028457  0.333842  0.871106  1
  Br  Br5  1  0.329831  0.315163  0.366477  1
  Br  Br6  1  0.985331  0.670169  0.366477  1
  Br  Br7  1  0.666158  0.694614  0.871106  1
  O  O8  1  0.771106  0.829201  0.056062  1
  O  O9  1  0.956806  0.774851  0.553226  1
  O  O10  1  0.818045  0.043194  0.553226  1
  O  O11  1  0.170799  0.941905  0.056062  1
  O  O12  1  0.058095  0.228894  0.056062  1
  O  O13  1  0.225149  0.181955  0.553226  1
  O  O14  1  0.708420  0.549789  0.916597  1
  O  O15  1  0.170529  0.706679  0.419127  1
  O  O16  1  0.518864  0.397650  0.453455  1
  O  O17  1  0.128784  0.522415  0.963958  1
  O  O18  1  0.393632  0.871216  0.963958  1
  O  O19  1  0.602350  0.121214  0.453455  1
  O  O20  1  0.878786  0.481136  0.453455  1
  O  O21  1  0.477585  0.606368  0.963958  1
  O  O22  1  0.293321  0.463850  0.419127  1
  O  O23  1  0.841369  0.291580  0.916597  1
  O  O24  1  0.450211  0.158631  0.916597  1
  O  O25  1  0.536150  0.829471  0.419127  1
