# generated using pymatgen
data_Ho5SnSb2
_symmetry_space_group_name_H-M   'P 1'
_cell_length_a   8.93006711
_cell_length_b   8.91942420
_cell_length_c   6.39837200
_cell_angle_alpha   90.00000000
_cell_angle_beta   90.00000000
_cell_angle_gamma   119.96058545
_symmetry_Int_Tables_number   1
_chemical_formula_structural   Ho5SnSb2
_chemical_formula_sum   'Ho10 Sn2 Sb4'
_cell_volume   441.53385618
_cell_formula_units_Z   2
loop_
 _symmetry_equiv_pos_site_id
 _symmetry_equiv_pos_as_xyz
  1  'x, y, z'
loop_
 _atom_site_type_symbol
 _atom_site_label
 _atom_site_symmetry_multiplicity
 _atom_site_fract_x
 _atom_site_fract_y
 _atom_site_fract_z
 _atom_site_occupancy
  Ho  Ho0  1  0.333703  0.666852  0.000000  1
  Ho  Ho1  1  0.665186  0.332593  0.500000  1
  Ho  Ho2  1  0.665186  0.332593  0.000000  1
  Ho  Ho3  1  0.333703  0.666852  0.500000  1
  Ho  Ho4  1  0.755015  0.999231  0.750000  1
  Ho  Ho5  1  0.755015  0.755784  0.250000  1
  Ho  Ho6  1  0.000793  0.244044  0.250000  1
  Ho  Ho7  1  0.000793  0.756749  0.750000  1
  Ho  Ho8  1  0.244237  0.242772  0.750000  1
  Ho  Ho9  1  0.244237  0.001465  0.250000  1
  Sn  Sn10  1  0.391456  0.999157  0.750000  1
  Sn  Sn11  1  0.391456  0.392299  0.250000  1
  Sb  Sb12  1  0.999350  0.609649  0.250000  1
  Sb  Sb13  1  0.999350  0.389702  0.750000  1
  Sb  Sb14  1  0.610260  0.610120  0.750000  1
  Sb  Sb15  1  0.610260  0.000140  0.250000  1
