# generated using pymatgen
data_Sr2Ti3P7Rh9
_symmetry_space_group_name_H-M   'P 1'
_cell_length_a   9.82274500
_cell_length_b   9.82274464
_cell_length_c   3.84156500
_cell_angle_alpha   90.00000000
_cell_angle_beta   90.00000000
_cell_angle_gamma   120.00000458
_symmetry_Int_Tables_number   1
_chemical_formula_structural   Sr2Ti3P7Rh9
_chemical_formula_sum   'Sr2 Ti3 P7 Rh9'
_cell_volume   320.99962224
_cell_formula_units_Z   1
loop_
 _symmetry_equiv_pos_site_id
 _symmetry_equiv_pos_as_xyz
  1  'x, y, z'
loop_
 _atom_site_type_symbol
 _atom_site_label
 _atom_site_symmetry_multiplicity
 _atom_site_fract_x
 _atom_site_fract_y
 _atom_site_fract_z
 _atom_site_occupancy
  Sr  Sr0  1  0.000000  0.000000  0.762795  1
  Sr  Sr1  1  0.333333  0.666667  0.261936  1
  Ti  Ti2  1  0.785298  0.551851  0.766912  1
  Ti  Ti3  1  0.448149  0.233447  0.766912  1
  Ti  Ti4  1  0.766553  0.214702  0.766912  1
  P  P5  1  0.666667  0.333333  0.270965  1
  P  P6  1  0.071227  0.624332  0.762574  1
  P  P7  1  0.375668  0.446894  0.762574  1
  P  P8  1  0.553106  0.928773  0.762574  1
  P  P9  1  0.254176  0.033162  0.263169  1
  P  P10  1  0.966838  0.221014  0.263169  1
  P  P11  1  0.778986  0.745824  0.263169  1
  Rh  Rh12  1  0.510132  0.063364  0.262432  1
  Rh  Rh13  1  0.936636  0.446768  0.262432  1
  Rh  Rh14  1  0.553232  0.489868  0.262432  1
  Rh  Rh15  1  0.100227  0.377545  0.763089  1
  Rh  Rh16  1  0.622455  0.722683  0.763089  1
  Rh  Rh17  1  0.277317  0.899773  0.763089  1
  Rh  Rh18  1  0.237192  0.269940  0.263238  1
  Rh  Rh19  1  0.730060  0.967252  0.263238  1
  Rh  Rh20  1  0.032748  0.762808  0.263238  1
