# generated using pymatgen
data_Yb3ZnSiPd2
_symmetry_space_group_name_H-M   'P 1'
_cell_length_a   5.67479800
_cell_length_b   8.01541100
_cell_length_c   13.53127700
_cell_angle_alpha   90.00000000
_cell_angle_beta   90.00000000
_cell_angle_gamma   90.00000000
_symmetry_Int_Tables_number   1
_chemical_formula_structural   Yb3ZnSiPd2
_chemical_formula_sum   'Yb12 Zn4 Si4 Pd8'
_cell_volume   615.48147778
_cell_formula_units_Z   4
loop_
 _symmetry_equiv_pos_site_id
 _symmetry_equiv_pos_as_xyz
  1  'x, y, z'
loop_
 _atom_site_type_symbol
 _atom_site_label
 _atom_site_symmetry_multiplicity
 _atom_site_fract_x
 _atom_site_fract_y
 _atom_site_fract_z
 _atom_site_occupancy
  Yb  Yb0  1  0.648601  0.246421  0.250000  1
  Yb  Yb1  1  0.351399  0.753579  0.750000  1
  Yb  Yb2  1  0.351399  0.746421  0.250000  1
  Yb  Yb3  1  0.648601  0.253579  0.750000  1
  Yb  Yb4  1  0.145143  0.393727  0.101000  1
  Yb  Yb5  1  0.854857  0.606273  0.899000  1
  Yb  Yb6  1  0.854857  0.606273  0.601000  1
  Yb  Yb7  1  0.854857  0.893727  0.399000  1
  Yb  Yb8  1  0.145143  0.393727  0.399000  1
  Yb  Yb9  1  0.145143  0.106273  0.601000  1
  Yb  Yb10  1  0.145143  0.106273  0.899000  1
  Yb  Yb11  1  0.854857  0.893727  0.101000  1
  Zn  Zn12  1  0.638492  0.250000  0.000000  1
  Zn  Zn13  1  0.361508  0.750000  0.000000  1
  Zn  Zn14  1  0.361508  0.750000  0.500000  1
  Zn  Zn15  1  0.638492  0.250000  0.500000  1
  Si  Si16  1  0.154856  0.100591  0.250000  1
  Si  Si17  1  0.845144  0.899409  0.750000  1
  Si  Si18  1  0.845144  0.600591  0.250000  1
  Si  Si19  1  0.154856  0.399409  0.750000  1
  Pd  Pd20  1  0.366239  0.032516  0.095793  1
  Pd  Pd21  1  0.633761  0.967484  0.904207  1
  Pd  Pd22  1  0.633761  0.967484  0.595793  1
  Pd  Pd23  1  0.633761  0.532516  0.404207  1
  Pd  Pd24  1  0.366239  0.032516  0.404207  1
  Pd  Pd25  1  0.366239  0.467484  0.595793  1
  Pd  Pd26  1  0.366239  0.467484  0.904207  1
  Pd  Pd27  1  0.633761  0.532516  0.095793  1
