# generated using pymatgen
data_Tm6Al19Si5Os8
_symmetry_space_group_name_H-M   'P 1'
_cell_length_a   8.66063000
_cell_length_b   8.64691873
_cell_length_c   9.53552500
_cell_angle_alpha   90.00000000
_cell_angle_beta   90.00000000
_cell_angle_gamma   120.05246783
_symmetry_Int_Tables_number   1
_chemical_formula_structural   Tm6Al19Si5Os8
_chemical_formula_sum   'Tm6 Al19 Si5 Os8'
_cell_volume   618.09644905
_cell_formula_units_Z   1
loop_
 _symmetry_equiv_pos_site_id
 _symmetry_equiv_pos_as_xyz
  1  'x, y, z'
loop_
 _atom_site_type_symbol
 _atom_site_label
 _atom_site_symmetry_multiplicity
 _atom_site_fract_x
 _atom_site_fract_y
 _atom_site_fract_z
 _atom_site_occupancy
  Tm  Tm0  1  0.195478  0.390957  0.250000  1
  Tm  Tm1  1  0.804936  0.609872  0.750000  1
  Tm  Tm2  1  0.606780  0.805729  0.250000  1
  Tm  Tm3  1  0.391106  0.196040  0.750000  1
  Tm  Tm4  1  0.198949  0.805729  0.250000  1
  Tm  Tm5  1  0.804934  0.196040  0.750000  1
  Al  Al6  1  0.164524  0.329048  0.578983  1
  Al  Al7  1  0.834846  0.669692  0.421149  1
  Al  Al8  1  0.670094  0.835451  0.577638  1
  Al  Al9  1  0.834846  0.669692  0.078851  1
  Al  Al10  1  0.328836  0.165320  0.421313  1
  Al  Al11  1  0.164524  0.329048  0.921017  1
  Al  Al12  1  0.165357  0.835451  0.577638  1
  Al  Al13  1  0.328836  0.165320  0.078687  1
  Al  Al14  1  0.836484  0.165320  0.421313  1
  Al  Al15  1  0.670094  0.835451  0.922362  1
  Al  Al16  1  0.836484  0.165320  0.078687  1
  Al  Al17  1  0.165357  0.835451  0.922362  1
  Al  Al18  1  0.437459  0.874918  0.750000  1
  Al  Al19  1  0.873533  0.434057  0.250000  1
  Al  Al20  1  0.127131  0.564253  0.750000  1
  Al  Al21  1  0.560525  0.434057  0.250000  1
  Al  Al22  1  0.437122  0.564253  0.750000  1
  Al  Al23  1  0.999835  0.999670  0.250000  1
  Al  Al24  1  0.000361  0.000722  0.750000  1
  Si  Si25  1  0.332589  0.665179  0.038920  1
  Si  Si26  1  0.667196  0.334391  0.959772  1
  Si  Si27  1  0.667196  0.334391  0.540228  1
  Si  Si28  1  0.332589  0.665179  0.461080  1
  Si  Si29  1  0.563560  0.127120  0.250000  1
  Os  Os30  1  0.500679  0.001357  0.006264  1
  Os  Os31  1  0.999109  0.499000  0.000428  1
  Os  Os32  1  0.500679  0.001357  0.493736  1
  Os  Os33  1  0.499891  0.499000  0.000428  1
  Os  Os34  1  0.999109  0.499000  0.499572  1
  Os  Os35  1  0.499891  0.499000  0.499572  1
  Os  Os36  1  0.999541  0.999081  0.999963  1
  Os  Os37  1  0.999541  0.999081  0.500037  1
