# generated using pymatgen
data_Lu12InFe3Ag
_symmetry_space_group_name_H-M   'P 1'
_cell_length_a   8.12052543
_cell_length_b   8.12052652
_cell_length_c   8.12052538
_cell_angle_alpha   110.24558987
_cell_angle_beta   106.57676421
_cell_angle_gamma   111.63271588
_symmetry_Int_Tables_number   1
_chemical_formula_structural   Lu12InFe3Ag
_chemical_formula_sum   'Lu12 In1 Fe3 Ag1'
_cell_volume   411.37381859
_cell_formula_units_Z   1
loop_
 _symmetry_equiv_pos_site_id
 _symmetry_equiv_pos_as_xyz
  1  'x, y, z'
loop_
 _atom_site_type_symbol
 _atom_site_label
 _atom_site_symmetry_multiplicity
 _atom_site_fract_x
 _atom_site_fract_y
 _atom_site_fract_z
 _atom_site_occupancy
  Lu  Lu0  1  0.309652  0.308733  0.618385  1
  Lu  Lu1  1  0.690348  0.691267  0.381615  1
  Lu  Lu2  1  0.690348  0.308733  0.999081  1
  Lu  Lu3  1  0.309652  0.691267  0.000919  1
  Lu  Lu4  1  0.192695  0.440352  0.247657  1
  Lu  Lu5  1  0.807305  0.559648  0.752343  1
  Lu  Lu6  1  0.192695  0.945037  0.752343  1
  Lu  Lu7  1  0.960009  0.189282  0.770728  1
  Lu  Lu8  1  0.807305  0.054963  0.247657  1
  Lu  Lu9  1  0.039991  0.810718  0.229272  1
  Lu  Lu10  1  0.418554  0.189282  0.229272  1
  Lu  Lu11  1  0.581446  0.810718  0.770728  1
  In  In12  1  0.500000  0.000000  0.500000  1
  Fe  Fe13  1  0.381981  0.381981  0.000000  1
  Fe  Fe14  1  0.618019  0.618019  0.000000  1
  Fe  Fe15  1  0.000000  0.000000  0.000000  1
  Ag  Ag16  1  0.000000  0.500000  0.500000  1
