# generated using pymatgen
data_Tb4Nd16Ir5Pt7
_symmetry_space_group_name_H-M   'P 1'
_cell_length_a   11.37217886
_cell_length_b   11.37217886
_cell_length_c   6.49765085
_cell_angle_alpha   90.04149019
_cell_angle_beta   90.04149019
_cell_angle_gamma   89.98363836
_symmetry_Int_Tables_number   1
_chemical_formula_structural   Tb4Nd16Ir5Pt7
_chemical_formula_sum   'Tb4 Nd16 Ir5 Pt7'
_cell_volume   840.31765652
_cell_formula_units_Z   1
loop_
 _symmetry_equiv_pos_site_id
 _symmetry_equiv_pos_as_xyz
  1  'x, y, z'
loop_
 _atom_site_type_symbol
 _atom_site_label
 _atom_site_symmetry_multiplicity
 _atom_site_fract_x
 _atom_site_fract_y
 _atom_site_fract_z
 _atom_site_occupancy
  Tb  Tb0  1  0.999786  0.999618  0.500337  1
  Tb  Tb1  1  0.000382  0.000214  0.999663  1
  Tb  Tb2  1  0.497915  0.501596  0.999578  1
  Tb  Tb3  1  0.498404  0.502085  0.500422  1
  Nd  Nd4  1  0.293537  0.088121  0.376040  1
  Nd  Nd5  1  0.294347  0.907818  0.876559  1
  Nd  Nd6  1  0.706303  0.087935  0.876144  1
  Nd  Nd7  1  0.706137  0.911107  0.375954  1
  Nd  Nd8  1  0.585160  0.791662  0.875463  1
  Nd  Nd9  1  0.588468  0.207360  0.376623  1
  Nd  Nd10  1  0.409749  0.790661  0.381961  1
  Nd  Nd11  1  0.411183  0.205992  0.876567  1
  Nd  Nd12  1  0.208338  0.414840  0.624537  1
  Nd  Nd13  1  0.209339  0.590251  0.118039  1
  Nd  Nd14  1  0.792640  0.411532  0.123377  1
  Nd  Nd15  1  0.794008  0.588817  0.623433  1
  Nd  Nd16  1  0.911879  0.706463  0.123960  1
  Nd  Nd17  1  0.912065  0.293697  0.623856  1
  Nd  Nd18  1  0.092182  0.705653  0.623441  1
  Nd  Nd19  1  0.088893  0.293863  0.124046  1
  Ir  Ir20  1  0.351754  0.648246  0.750000  1
  Ir  Ir21  1  0.500333  0.000286  0.119003  1
  Ir  Ir22  1  0.500217  0.001148  0.617302  1
  Ir  Ir23  1  0.998852  0.499783  0.882698  1
  Ir  Ir24  1  0.999714  0.499667  0.380997  1
  Pt  Pt25  1  0.851256  0.148744  0.250000  1
  Pt  Pt26  1  0.851137  0.851411  0.750202  1
  Pt  Pt27  1  0.148589  0.148863  0.749798  1
  Pt  Pt28  1  0.148225  0.851775  0.250000  1
  Pt  Pt29  1  0.648616  0.351384  0.750000  1
  Pt  Pt30  1  0.650131  0.649535  0.250081  1
  Pt  Pt31  1  0.350465  0.349869  0.249919  1
