# generated using pymatgen
data_Y4Pd2RuPtO14
_symmetry_space_group_name_H-M   'P 1'
_cell_length_a   7.23529359
_cell_length_b   7.23634585
_cell_length_c   7.29014523
_cell_angle_alpha   60.24381243
_cell_angle_beta   60.20735788
_cell_angle_gamma   59.99519233
_symmetry_Int_Tables_number   1
_chemical_formula_structural   Y4Pd2RuPtO14
_chemical_formula_sum   'Y4 Pd2 Ru1 Pt1 O14'
_cell_volume   270.80277874
_cell_formula_units_Z   1
loop_
 _symmetry_equiv_pos_site_id
 _symmetry_equiv_pos_as_xyz
  1  'x, y, z'
loop_
 _atom_site_type_symbol
 _atom_site_label
 _atom_site_symmetry_multiplicity
 _atom_site_fract_x
 _atom_site_fract_y
 _atom_site_fract_z
 _atom_site_occupancy
  Y  Y0  1  0.125000  0.625000  0.125000  1
  Y  Y1  1  0.125000  0.125000  0.625000  1
  Y  Y2  1  0.625000  0.125000  0.125000  1
  Y  Y3  1  0.125000  0.125000  0.125000  1
  Pd  Pd4  1  0.625000  0.125000  0.625000  1
  Pd  Pd5  1  0.625000  0.625000  0.625000  1
  Ru  Ru6  1  0.625000  0.625000  0.125000  1
  Pt  Pt7  1  0.125000  0.625000  0.625000  1
  O  O8  1  0.000007  0.999770  0.000453  1
  O  O9  1  0.249993  0.250230  0.249547  1
  O  O10  1  0.282257  0.284350  0.719067  1
  O  O11  1  0.538834  0.539309  0.964283  1
  O  O12  1  0.714418  0.283314  0.718954  1
  O  O13  1  0.711166  0.292425  0.285717  1
  O  O14  1  0.282257  0.714326  0.719067  1
  O  O15  1  0.289679  0.711240  0.287842  1
  O  O16  1  0.711166  0.710691  0.285717  1
  O  O17  1  0.967743  0.535674  0.530933  1
  O  O18  1  0.538834  0.957575  0.964283  1
  O  O19  1  0.967743  0.965650  0.530933  1
  O  O20  1  0.960321  0.538760  0.962158  1
  O  O21  1  0.535582  0.966686  0.531046  1
