# generated using pymatgen
data_ErAs4(Ru2Rh)2
_symmetry_space_group_name_H-M   'P 1'
_cell_length_a   7.17684051
_cell_length_b   7.20012711
_cell_length_c   3.86178600
_cell_angle_alpha   90.00000000
_cell_angle_beta   90.00000000
_cell_angle_gamma   120.10738772
_symmetry_Int_Tables_number   1
_chemical_formula_structural   ErAs4(Ru2Rh)2
_chemical_formula_sum   'Er1 As4 Ru4 Rh2'
_cell_volume   172.63200798
_cell_formula_units_Z   1
loop_
 _symmetry_equiv_pos_site_id
 _symmetry_equiv_pos_as_xyz
  1  'x, y, z'
loop_
 _atom_site_type_symbol
 _atom_site_label
 _atom_site_symmetry_multiplicity
 _atom_site_fract_x
 _atom_site_fract_y
 _atom_site_fract_z
 _atom_site_occupancy
  Er  Er0  1  0.331201  0.665601  0.000000  1
  As  As1  1  0.671346  0.335673  0.000000  1
  As  As2  1  0.720123  0.860062  0.500000  1
  As  As3  1  0.139378  0.282740  0.500000  1
  As  As4  1  0.139378  0.856640  0.500000  1
  Ru  Ru5  1  0.266903  0.133452  0.000000  1
  Ru  Ru6  1  0.867683  0.735887  0.000000  1
  Ru  Ru7  1  0.867683  0.131796  0.000000  1
  Ru  Ru8  1  0.935387  0.467694  0.500000  1
  Rh  Rh9  1  0.530458  0.059892  0.500000  1
  Rh  Rh10  1  0.530458  0.470565  0.500000  1
