# generated using pymatgen
data_Nd2Ga2SiPIr6
_symmetry_space_group_name_H-M   'P 1'
_cell_length_a   6.78160815
_cell_length_b   6.76544044
_cell_length_c   6.78160846
_cell_angle_alpha   130.58462942
_cell_angle_beta   113.30854588
_cell_angle_gamma   87.43177500
_symmetry_Int_Tables_number   1
_chemical_formula_structural   Nd2Ga2SiPIr6
_chemical_formula_sum   'Nd2 Ga2 Si1 P1 Ir6'
_cell_volume   206.68371865
_cell_formula_units_Z   1
loop_
 _symmetry_equiv_pos_site_id
 _symmetry_equiv_pos_as_xyz
  1  'x, y, z'
loop_
 _atom_site_type_symbol
 _atom_site_label
 _atom_site_symmetry_multiplicity
 _atom_site_fract_x
 _atom_site_fract_y
 _atom_site_fract_z
 _atom_site_occupancy
  Nd  Nd0  1  0.248674  0.989015  0.740341  1
  Nd  Nd1  1  0.747830  0.012741  0.264911  1
  Ga  Ga2  1  0.059855  0.288657  0.228801  1
  Ga  Ga3  1  0.920875  0.687836  0.766962  1
  Si  Si4  1  0.609347  0.372375  0.763026  1
  P  P5  1  0.413399  0.647349  0.233951  1
  Ir  Ir6  1  0.481648  0.498277  0.480795  1
  Ir  Ir7  1  0.017482  0.498277  0.016629  1
  Ir  Ir8  1  0.286019  0.000459  0.288516  1
  Ir  Ir9  1  0.711943  0.000459  0.714440  1
  Ir  Ir10  1  0.269868  0.502278  0.769218  1
  Ir  Ir11  1  0.733060  0.502278  0.232410  1
