# generated using pymatgen
data_Fe3Cu5(AsO5)4
_symmetry_space_group_name_H-M   'P 1'
_cell_length_a   5.91667300
_cell_length_b   8.47934370
_cell_length_c   8.84490046
_cell_angle_alpha   89.18487051
_cell_angle_beta   90.00000000
_cell_angle_gamma   90.00000000
_symmetry_Int_Tables_number   1
_chemical_formula_structural   Fe3Cu5(AsO5)4
_chemical_formula_sum   'Fe3 Cu5 As4 O20'
_cell_volume   443.69936239
_cell_formula_units_Z   1
loop_
 _symmetry_equiv_pos_site_id
 _symmetry_equiv_pos_as_xyz
  1  'x, y, z'
loop_
 _atom_site_type_symbol
 _atom_site_label
 _atom_site_symmetry_multiplicity
 _atom_site_fract_x
 _atom_site_fract_y
 _atom_site_fract_z
 _atom_site_occupancy
  Fe  Fe0  1  0.500000  0.842619  0.616704  1
  Fe  Fe1  1  0.500000  0.157372  0.384429  1
  Fe  Fe2  1  0.000000  0.655208  0.114970  1
  Cu  Cu3  1  0.000000  0.346393  0.889424  1
  Cu  Cu4  1  0.257443  0.494401  0.508663  1
  Cu  Cu5  1  0.243010  0.004068  0.998045  1
  Cu  Cu6  1  0.742557  0.494401  0.508663  1
  Cu  Cu7  1  0.756990  0.004068  0.998045  1
  As  As8  1  0.500000  0.770993  0.242845  1
  As  As9  1  0.500000  0.234073  0.750332  1
  As  As10  1  0.000000  0.728331  0.743550  1
  As  As11  1  0.000000  0.271007  0.261162  1
  O  O12  1  0.500000  0.904489  0.390616  1
  O  O13  1  0.500000  0.090972  0.605788  1
  O  O14  1  0.000000  0.593861  0.894397  1
  O  O15  1  0.000000  0.408735  0.114906  1
  O  O16  1  0.500000  0.875257  0.071308  1
  O  O17  1  0.500000  0.128592  0.923308  1
  O  O18  1  0.000000  0.626798  0.574504  1
  O  O19  1  0.000000  0.367582  0.433126  1
  O  O20  1  0.500000  0.630719  0.565299  1
  O  O21  1  0.500000  0.370200  0.432957  1
  O  O22  1  0.000000  0.873309  0.062271  1
  O  O23  1  0.000000  0.132321  0.936303  1
  O  O24  1  0.736624  0.655506  0.247328  1
  O  O25  1  0.740565  0.343671  0.739381  1
  O  O26  1  0.764590  0.845658  0.747722  1
  O  O27  1  0.765414  0.152281  0.254763  1
  O  O28  1  0.259435  0.343671  0.739381  1
  O  O29  1  0.263376  0.655506  0.247328  1
  O  O30  1  0.234586  0.152281  0.254763  1
  O  O31  1  0.235410  0.845658  0.747722  1
