# generated using pymatgen
data_Ho10In8PdAu3
_symmetry_space_group_name_H-M   'P 1'
_cell_length_a   3.67372800
_cell_length_b   8.15475801
_cell_length_c   18.26141903
_cell_angle_alpha   90.00639829
_cell_angle_beta   90.00000000
_cell_angle_gamma   90.00000000
_symmetry_Int_Tables_number   1
_chemical_formula_structural   Ho10In8PdAu3
_chemical_formula_sum   'Ho10 In8 Pd1 Au3'
_cell_volume   547.08221390
_cell_formula_units_Z   1
loop_
 _symmetry_equiv_pos_site_id
 _symmetry_equiv_pos_as_xyz
  1  'x, y, z'
loop_
 _atom_site_type_symbol
 _atom_site_label
 _atom_site_symmetry_multiplicity
 _atom_site_fract_x
 _atom_site_fract_y
 _atom_site_fract_z
 _atom_site_occupancy
  Ho  Ho0  1  0.000000  0.499650  0.500031  1
  Ho  Ho1  1  0.000000  0.999918  0.000084  1
  Ho  Ho2  1  0.000000  0.746280  0.281972  1
  Ho  Ho3  1  0.000000  0.263467  0.718176  1
  Ho  Ho4  1  0.000000  0.763334  0.781929  1
  Ho  Ho5  1  0.000000  0.231774  0.220376  1
  Ho  Ho6  1  0.000000  0.617319  0.079934  1
  Ho  Ho7  1  0.000000  0.382315  0.920498  1
  Ho  Ho8  1  0.000000  0.881876  0.579392  1
  Ho  Ho9  1  0.000000  0.114097  0.416958  1
  In  In10  1  0.500000  0.712680  0.932955  1
  In  In11  1  0.500000  0.286867  0.067411  1
  In  In12  1  0.500000  0.789002  0.431441  1
  In  In13  1  0.500000  0.212512  0.566716  1
  In  In14  1  0.500000  0.581213  0.646858  1
  In  In15  1  0.500000  0.416838  0.352676  1
  In  In16  1  0.500000  0.921614  0.148511  1
  In  In17  1  0.500000  0.081029  0.853178  1
  Pd  Pd18  1  0.500000  0.024854  0.303977  1
  Au  Au19  1  0.500000  0.525570  0.197163  1
  Au  Au20  1  0.500000  0.473933  0.803307  1
  Au  Au21  1  0.500000  0.973858  0.696457  1
