# generated using pymatgen
data_YEr11TcOs3
_symmetry_space_group_name_H-M   'P 1'
_cell_length_a   6.26178793
_cell_length_b   7.38106621
_cell_length_c   8.98967400
_cell_angle_alpha   90.00000000
_cell_angle_beta   90.00000000
_cell_angle_gamma   90.01309711
_symmetry_Int_Tables_number   1
_chemical_formula_structural   YEr11TcOs3
_chemical_formula_sum   'Y1 Er11 Tc1 Os3'
_cell_volume   415.49077718
_cell_formula_units_Z   1
loop_
 _symmetry_equiv_pos_site_id
 _symmetry_equiv_pos_as_xyz
  1  'x, y, z'
loop_
 _atom_site_type_symbol
 _atom_site_label
 _atom_site_symmetry_multiplicity
 _atom_site_fract_x
 _atom_site_fract_y
 _atom_site_fract_z
 _atom_site_occupancy
  Y  Y0  1  0.871707  0.538937  0.250000  1
  Er  Er1  1  0.335186  0.675131  0.062350  1
  Er  Er2  1  0.166058  0.175321  0.437538  1
  Er  Er3  1  0.666616  0.324052  0.562600  1
  Er  Er4  1  0.834166  0.825096  0.936911  1
  Er  Er5  1  0.666616  0.324052  0.937400  1
  Er  Er6  1  0.834166  0.825096  0.563089  1
  Er  Er7  1  0.335186  0.675131  0.437650  1
  Er  Er8  1  0.166058  0.175321  0.062462  1
  Er  Er9  1  0.627275  0.039562  0.250000  1
  Er  Er10  1  0.129871  0.460160  0.750000  1
  Er  Er11  1  0.369610  0.960878  0.750000  1
  Tc  Tc12  1  0.039446  0.883591  0.250000  1
  Os  Os13  1  0.458752  0.381495  0.250000  1
  Os  Os14  1  0.959776  0.118580  0.750000  1
  Os  Os15  1  0.539510  0.617599  0.750000  1
