# generated using pymatgen
data_MnFe2Ag(PO4)3
_symmetry_space_group_name_H-M   'P 1'
_cell_length_a   6.48648257
_cell_length_b   8.84326989
_cell_length_c   8.84332403
_cell_angle_alpha   92.57278226
_cell_angle_beta   106.32628753
_cell_angle_gamma   106.32639713
_symmetry_Int_Tables_number   1
_chemical_formula_structural   MnFe2Ag(PO4)3
_chemical_formula_sum   'Mn2 Fe4 Ag2 P6 O24'
_cell_volume   462.93538189
_cell_formula_units_Z   2
loop_
 _symmetry_equiv_pos_site_id
 _symmetry_equiv_pos_as_xyz
  1  'x, y, z'
loop_
 _atom_site_type_symbol
 _atom_site_label
 _atom_site_symmetry_multiplicity
 _atom_site_fract_x
 _atom_site_fract_y
 _atom_site_fract_z
 _atom_site_occupancy
  Mn  Mn0  1  0.250163  0.743711  0.256634  1
  Mn  Mn1  1  0.750005  0.256651  0.743370  1
  Fe  Fe2  1  0.625815  0.370667  0.067317  1
  Fe  Fe3  1  0.125815  0.067311  0.370669  1
  Fe  Fe4  1  0.874150  0.932618  0.629248  1
  Fe  Fe5  1  0.374161  0.629259  0.932636  1
  Ag  Ag6  1  0.000003  0.499991  0.500001  1
  Ag  Ag7  1  0.499980  0.499990  0.499999  1
  P  P8  1  0.130739  0.353631  0.135546  1
  P  P9  1  0.749993  0.718915  0.281075  1
  P  P10  1  0.630750  0.135541  0.353625  1
  P  P11  1  0.369263  0.864456  0.646387  1
  P  P12  1  0.249996  0.281064  0.718936  1
  P  P13  1  0.869268  0.646370  0.864474  1
  O  O14  1  0.896671  0.335771  0.010567  1
  O  O15  1  0.317261  0.401677  0.049215  1
  O  O16  1  0.532776  0.739761  0.164201  1
  O  O17  1  0.625997  0.198852  0.193803  1
  O  O18  1  0.125997  0.193789  0.198864  1
  O  O19  1  0.967221  0.835811  0.260244  1
  O  O20  1  0.757091  0.545617  0.252785  1
  O  O21  1  0.183209  0.488050  0.270002  1
  O  O22  1  0.396675  0.010564  0.335785  1
  O  O23  1  0.817251  0.049202  0.401684  1
  O  O24  1  0.742907  0.747214  0.454382  1
  O  O25  1  0.683199  0.269992  0.488041  1
  O  O26  1  0.316786  0.729990  0.511959  1
  O  O27  1  0.257088  0.252769  0.545629  1
  O  O28  1  0.182734  0.950774  0.598318  1
  O  O29  1  0.603316  0.989422  0.664218  1
  O  O30  1  0.816783  0.511949  0.730000  1
  O  O31  1  0.242907  0.454370  0.747231  1
  O  O32  1  0.032767  0.164179  0.739761  1
  O  O33  1  0.873992  0.806191  0.801137  1
  O  O34  1  0.373994  0.801127  0.806200  1
  O  O35  1  0.467226  0.260231  0.835817  1
  O  O36  1  0.682731  0.598306  0.950794  1
  O  O37  1  0.103317  0.664213  0.989442  1
