# generated using pymatgen
data_CaHo(NiB4)2
_symmetry_space_group_name_H-M   'P 1'
_cell_length_a   6.83118118
_cell_length_b   6.83118136
_cell_length_c   6.83118195
_cell_angle_alpha   112.90603080
_cell_angle_beta   112.90603573
_cell_angle_gamma   102.80056687
_symmetry_Int_Tables_number   1
_chemical_formula_structural   CaHo(NiB4)2
_chemical_formula_sum   'Ca2 Ho2 Ni4 B16'
_cell_volume   242.94037229
_cell_formula_units_Z   2
loop_
 _symmetry_equiv_pos_site_id
 _symmetry_equiv_pos_as_xyz
  1  'x, y, z'
loop_
 _atom_site_type_symbol
 _atom_site_label
 _atom_site_symmetry_multiplicity
 _atom_site_fract_x
 _atom_site_fract_y
 _atom_site_fract_z
 _atom_site_occupancy
  Ca  Ca0  1  0.797872  0.797872  0.000000  1
  Ca  Ca1  1  0.202128  0.202128  0.000000  1
  Ho  Ho2  1  0.750000  0.250000  0.500000  1
  Ho  Ho3  1  0.250000  0.750000  0.500000  1
  Ni  Ni4  1  0.272083  0.500000  0.772083  1
  Ni  Ni5  1  0.727917  0.500000  0.227917  1
  Ni  Ni6  1  0.500000  0.727917  0.227917  1
  Ni  Ni7  1  0.500000  0.272083  0.772083  1
  B  B8  1  0.276973  0.112193  0.389167  1
  B  B9  1  0.723027  0.887807  0.610833  1
  B  B10  1  0.276973  0.887807  0.164780  1
  B  B11  1  0.723027  0.112193  0.835220  1
  B  B12  1  0.112193  0.723027  0.835220  1
  B  B13  1  0.887807  0.276973  0.164780  1
  B  B14  1  0.112193  0.276973  0.389167  1
  B  B15  1  0.887807  0.723027  0.610833  1
  B  B16  1  0.113293  0.113293  0.530582  1
  B  B17  1  0.582712  0.582712  0.469418  1
  B  B18  1  0.113293  0.582712  0.000000  1
  B  B19  1  0.582712  0.113293  0.000000  1
  B  B20  1  0.886707  0.886707  0.469418  1
  B  B21  1  0.417288  0.417288  0.530582  1
  B  B22  1  0.886707  0.417288  0.000000  1
  B  B23  1  0.417288  0.886707  0.000000  1
