# generated using pymatgen
data_Pr10Hg2Os3Au
_symmetry_space_group_name_H-M   'P 1'
_cell_length_a   8.02679220
_cell_length_b   8.02679145
_cell_length_c   9.14966300
_cell_angle_alpha   116.56458620
_cell_angle_beta   116.56457553
_cell_angle_gamma   88.88083467
_symmetry_Int_Tables_number   1
_chemical_formula_structural   Pr10Hg2Os3Au
_chemical_formula_sum   'Pr10 Hg2 Os3 Au1'
_cell_volume   459.45424542
_cell_formula_units_Z   1
loop_
 _symmetry_equiv_pos_site_id
 _symmetry_equiv_pos_as_xyz
  1  'x, y, z'
loop_
 _atom_site_type_symbol
 _atom_site_label
 _atom_site_symmetry_multiplicity
 _atom_site_fract_x
 _atom_site_fract_y
 _atom_site_fract_z
 _atom_site_occupancy
  Pr  Pr0  1  0.505400  0.494354  0.000000  1
  Pr  Pr1  1  0.994354  0.005400  0.000000  1
  Pr  Pr2  1  0.957612  0.797692  0.269314  1
  Pr  Pr3  1  0.297692  0.457612  0.269314  1
  Pr  Pr4  1  0.799225  0.299225  0.264550  1
  Pr  Pr5  1  0.483451  0.983451  0.266250  1
  Pr  Pr6  1  0.028377  0.188298  0.730686  1
  Pr  Pr7  1  0.688298  0.528377  0.730686  1
  Pr  Pr8  1  0.217201  0.717201  0.733750  1
  Pr  Pr9  1  0.534675  0.034675  0.735450  1
  Hg  Hg10  1  0.747015  0.747015  0.500000  1
  Hg  Hg11  1  0.247015  0.247015  0.500000  1
  Os  Os12  1  0.633791  0.862399  0.000000  1
  Os  Os13  1  0.362399  0.133791  0.000000  1
  Os  Os14  1  0.869502  0.369502  0.000000  1
  Au  Au15  1  0.133992  0.633992  0.000000  1
