# generated using pymatgen
data_Gd5TcSb2
_symmetry_space_group_name_H-M   'P 1'
_cell_length_a   8.08600400
_cell_length_b   8.96219400
_cell_length_c   12.35596900
_cell_angle_alpha   90.00000000
_cell_angle_beta   90.00000000
_cell_angle_gamma   90.00000000
_symmetry_Int_Tables_number   1
_chemical_formula_structural   Gd5TcSb2
_chemical_formula_sum   'Gd20 Tc4 Sb8'
_cell_volume   895.41651968
_cell_formula_units_Z   4
loop_
 _symmetry_equiv_pos_site_id
 _symmetry_equiv_pos_as_xyz
  1  'x, y, z'
loop_
 _atom_site_type_symbol
 _atom_site_label
 _atom_site_symmetry_multiplicity
 _atom_site_fract_x
 _atom_site_fract_y
 _atom_site_fract_z
 _atom_site_occupancy
  Gd  Gd0  1  0.660433  0.750000  0.709765  1
  Gd  Gd1  1  0.339567  0.250000  0.290235  1
  Gd  Gd2  1  0.160433  0.250000  0.790235  1
  Gd  Gd3  1  0.839567  0.750000  0.209765  1
  Gd  Gd4  1  0.128065  0.750000  0.800796  1
  Gd  Gd5  1  0.871935  0.250000  0.199204  1
  Gd  Gd6  1  0.628065  0.250000  0.699204  1
  Gd  Gd7  1  0.371935  0.750000  0.300796  1
  Gd  Gd8  1  0.545278  0.750000  0.996734  1
  Gd  Gd9  1  0.454722  0.250000  0.003266  1
  Gd  Gd10  1  0.045278  0.250000  0.503266  1
  Gd  Gd11  1  0.954722  0.750000  0.496734  1
  Gd  Gd12  1  0.823246  0.462346  0.935513  1
  Gd  Gd13  1  0.176754  0.537654  0.064487  1
  Gd  Gd14  1  0.323246  0.537654  0.564487  1
  Gd  Gd15  1  0.176754  0.962346  0.064487  1
  Gd  Gd16  1  0.676754  0.462346  0.435513  1
  Gd  Gd17  1  0.823246  0.037654  0.935513  1
  Gd  Gd18  1  0.676754  0.037654  0.435513  1
  Gd  Gd19  1  0.323246  0.962346  0.564487  1
  Tc  Tc20  1  0.917398  0.750000  0.982894  1
  Tc  Tc21  1  0.082602  0.250000  0.017106  1
  Tc  Tc22  1  0.417398  0.250000  0.517106  1
  Tc  Tc23  1  0.582602  0.750000  0.482894  1
  Sb  Sb24  1  0.929032  0.006264  0.671558  1
  Sb  Sb25  1  0.070968  0.993736  0.328442  1
  Sb  Sb26  1  0.429032  0.993736  0.828442  1
  Sb  Sb27  1  0.070968  0.506264  0.328442  1
  Sb  Sb28  1  0.570968  0.006264  0.171558  1
  Sb  Sb29  1  0.929032  0.493736  0.671558  1
  Sb  Sb30  1  0.570968  0.493736  0.171558  1
  Sb  Sb31  1  0.429032  0.506264  0.828442  1
