# generated using pymatgen
data_LiNdCo3NiP3
_symmetry_space_group_name_H-M   'P 1'
_cell_length_a   3.73991700
_cell_length_b   10.43381700
_cell_length_c   12.09243100
_cell_angle_alpha   90.00000000
_cell_angle_beta   90.00000000
_cell_angle_gamma   90.00000000
_symmetry_Int_Tables_number   1
_chemical_formula_structural   LiNdCo3NiP3
_chemical_formula_sum   'Li4 Nd4 Co12 Ni4 P12'
_cell_volume   471.86612127
_cell_formula_units_Z   4
loop_
 _symmetry_equiv_pos_site_id
 _symmetry_equiv_pos_as_xyz
  1  'x, y, z'
loop_
 _atom_site_type_symbol
 _atom_site_label
 _atom_site_symmetry_multiplicity
 _atom_site_fract_x
 _atom_site_fract_y
 _atom_site_fract_z
 _atom_site_occupancy
  Li  Li0  1  0.250000  0.701296  0.992852  1
  Li  Li1  1  0.250000  0.798704  0.492852  1
  Li  Li2  1  0.750000  0.298704  0.007148  1
  Li  Li3  1  0.750000  0.201296  0.507148  1
  Nd  Nd4  1  0.250000  0.583202  0.703083  1
  Nd  Nd5  1  0.250000  0.916798  0.203083  1
  Nd  Nd6  1  0.750000  0.416798  0.296917  1
  Nd  Nd7  1  0.750000  0.083202  0.796917  1
  Co  Co8  1  0.250000  0.217750  0.172535  1
  Co  Co9  1  0.250000  0.282250  0.672535  1
  Co  Co10  1  0.750000  0.782250  0.827465  1
  Co  Co11  1  0.750000  0.717750  0.327465  1
  Co  Co12  1  0.250000  0.883348  0.697877  1
  Co  Co13  1  0.250000  0.616652  0.197877  1
  Co  Co14  1  0.750000  0.116652  0.302123  1
  Co  Co15  1  0.750000  0.383348  0.802123  1
  Co  Co16  1  0.250000  0.469288  0.933530  1
  Co  Co17  1  0.250000  0.030712  0.433530  1
  Co  Co18  1  0.750000  0.530712  0.066470  1
  Co  Co19  1  0.750000  0.969288  0.566470  1
  Ni  Ni20  1  0.250000  0.408095  0.489260  1
  Ni  Ni21  1  0.250000  0.091905  0.989260  1
  Ni  Ni22  1  0.750000  0.591905  0.510740  1
  Ni  Ni23  1  0.750000  0.908095  0.010740  1
  P  P24  1  0.250000  0.420676  0.111632  1
  P  P25  1  0.250000  0.079324  0.611632  1
  P  P26  1  0.750000  0.579324  0.888368  1
  P  P27  1  0.750000  0.920676  0.388368  1
  P  P28  1  0.250000  0.281030  0.856565  1
  P  P29  1  0.250000  0.218970  0.356565  1
  P  P30  1  0.750000  0.718970  0.143435  1
  P  P31  1  0.750000  0.781030  0.643435  1
  P  P32  1  0.250000  0.606944  0.388545  1
  P  P33  1  0.250000  0.893056  0.888545  1
  P  P34  1  0.750000  0.393056  0.611455  1
  P  P35  1  0.750000  0.106944  0.111455  1
