# generated using pymatgen
data_Dy2Tm3V3Fe15CoP12
_symmetry_space_group_name_H-M   'P 1'
_cell_length_a   12.03207200
_cell_length_b   12.03207236
_cell_length_c   3.65972800
_cell_angle_alpha   90.00000000
_cell_angle_beta   90.00000000
_cell_angle_gamma   119.99999352
_symmetry_Int_Tables_number   1
_chemical_formula_structural   Dy2Tm3V3Fe15CoP12
_chemical_formula_sum   'Dy2 Tm3 V3 Fe15 Co1 P12'
_cell_volume   458.83900126
_cell_formula_units_Z   1
loop_
 _symmetry_equiv_pos_site_id
 _symmetry_equiv_pos_as_xyz
  1  'x, y, z'
loop_
 _atom_site_type_symbol
 _atom_site_label
 _atom_site_symmetry_multiplicity
 _atom_site_fract_x
 _atom_site_fract_y
 _atom_site_fract_z
 _atom_site_occupancy
  Dy  Dy0  1  0.666667  0.333333  0.000000  1
  Dy  Dy1  1  0.333333  0.666667  0.000000  1
  Tm  Tm2  1  0.181751  0.181751  0.500000  1
  Tm  Tm3  1  0.818249  0.000000  0.500000  1
  Tm  Tm4  1  0.000000  0.818249  0.500000  1
  V  V5  1  0.560735  0.560735  0.000000  1
  V  V6  1  0.439265  0.000000  0.000000  1
  V  V7  1  0.000000  0.439265  0.000000  1
  Fe  Fe8  1  0.818889  0.198667  0.000000  1
  Fe  Fe9  1  0.801333  0.620223  0.000000  1
  Fe  Fe10  1  0.379777  0.181111  0.000000  1
  Fe  Fe11  1  0.198667  0.818889  0.000000  1
  Fe  Fe12  1  0.620223  0.801333  0.000000  1
  Fe  Fe13  1  0.181111  0.379777  0.000000  1
  Fe  Fe14  1  0.646028  0.122309  0.500000  1
  Fe  Fe15  1  0.877691  0.523719  0.500000  1
  Fe  Fe16  1  0.476281  0.353972  0.500000  1
  Fe  Fe17  1  0.122309  0.646028  0.500000  1
  Fe  Fe18  1  0.523719  0.877691  0.500000  1
  Fe  Fe19  1  0.353972  0.476281  0.500000  1
  Fe  Fe20  1  0.717197  0.717197  0.500000  1
  Fe  Fe21  1  0.282803  0.000000  0.500000  1
  Fe  Fe22  1  0.000000  0.282803  0.500000  1
  Co  Co23  1  0.000000  0.000000  0.000000  1
  P  P24  1  0.360677  0.360677  0.000000  1
  P  P25  1  0.639323  0.000000  0.000000  1
  P  P26  1  0.000000  0.639323  0.000000  1
  P  P27  1  0.836472  0.315977  0.500000  1
  P  P28  1  0.684023  0.520495  0.500000  1
  P  P29  1  0.479505  0.163528  0.500000  1
  P  P30  1  0.315977  0.836472  0.500000  1
  P  P31  1  0.520495  0.684023  0.500000  1
  P  P32  1  0.163528  0.479505  0.500000  1
  P  P33  1  0.818136  0.818136  0.000000  1
  P  P34  1  0.181864  0.000000  0.000000  1
  P  P35  1  0.000000  0.181864  0.000000  1
