# generated using pymatgen
data_RbTe7W6
_symmetry_space_group_name_H-M   'P 1'
_cell_length_a   10.44989018
_cell_length_b   10.44988994
_cell_length_c   10.44989021
_cell_angle_alpha   60.39757689
_cell_angle_beta   60.39758028
_cell_angle_gamma   60.39757624
_symmetry_Int_Tables_number   1
_chemical_formula_structural   RbTe7W6
_chemical_formula_sum   'Rb2 Te14 W12'
_cell_volume   814.15586127
_cell_formula_units_Z   2
loop_
 _symmetry_equiv_pos_site_id
 _symmetry_equiv_pos_as_xyz
  1  'x, y, z'
loop_
 _atom_site_type_symbol
 _atom_site_label
 _atom_site_symmetry_multiplicity
 _atom_site_fract_x
 _atom_site_fract_y
 _atom_site_fract_z
 _atom_site_occupancy
  Rb  Rb0  1  0.620043  0.620043  0.620043  1
  Rb  Rb1  1  0.379958  0.379958  0.379958  1
  Te  Te2  1  0.426955  0.799730  0.165511  1
  Te  Te3  1  0.165511  0.426955  0.799730  1
  Te  Te4  1  0.799730  0.165511  0.426955  1
  Te  Te5  1  0.573045  0.200270  0.834489  1
  Te  Te6  1  0.834489  0.573045  0.200270  1
  Te  Te7  1  0.200270  0.834489  0.573045  1
  Te  Te8  1  0.627787  0.980472  0.250275  1
  Te  Te9  1  0.250275  0.627787  0.980472  1
  Te  Te10  1  0.980472  0.250275  0.627787  1
  Te  Te11  1  0.372213  0.019528  0.749725  1
  Te  Te12  1  0.749725  0.372213  0.019528  1
  Te  Te13  1  0.019528  0.749725  0.372213  1
  Te  Te14  1  0.774082  0.774082  0.774082  1
  Te  Te15  1  0.225918  0.225918  0.225918  1
  W  W16  1  0.711229  0.881619  0.000205  1
  W  W17  1  0.000205  0.711229  0.881619  1
  W  W18  1  0.881619  0.000205  0.711229  1
  W  W19  1  0.288771  0.118381  0.999795  1
  W  W20  1  0.999795  0.288771  0.118381  1
  W  W21  1  0.118381  0.999795  0.288771  1
  W  W22  1  0.944149  0.813531  0.109338  1
  W  W23  1  0.109338  0.944149  0.813531  1
  W  W24  1  0.813531  0.109338  0.944149  1
  W  W25  1  0.055851  0.186469  0.890662  1
  W  W26  1  0.890662  0.055851  0.186469  1
  W  W27  1  0.186469  0.890662  0.055851  1
