# generated using pymatgen
data_Ho16Cd3Co4Ag
_symmetry_space_group_name_H-M   'P 1'
_cell_length_a   9.44044545
_cell_length_b   9.43463221
_cell_length_c   9.44044700
_cell_angle_alpha   59.97962061
_cell_angle_beta   60.00000508
_cell_angle_gamma   59.97961891
_symmetry_Int_Tables_number   1
_chemical_formula_structural   Ho16Cd3Co4Ag
_chemical_formula_sum   'Ho16 Cd3 Co4 Ag1'
_cell_volume   594.37589370
_cell_formula_units_Z   1
loop_
 _symmetry_equiv_pos_site_id
 _symmetry_equiv_pos_as_xyz
  1  'x, y, z'
loop_
 _atom_site_type_symbol
 _atom_site_label
 _atom_site_symmetry_multiplicity
 _atom_site_fract_x
 _atom_site_fract_y
 _atom_site_fract_z
 _atom_site_occupancy
  Ho  Ho0  1  0.153444  0.539668  0.153444  1
  Ho  Ho1  1  0.687384  0.312614  0.687384  1
  Ho  Ho2  1  0.687384  0.312614  0.312618  1
  Ho  Ho3  1  0.937509  0.559674  0.565308  1
  Ho  Ho4  1  0.539730  0.152610  0.153829  1
  Ho  Ho5  1  0.153829  0.152610  0.539730  1
  Ho  Ho6  1  0.937344  0.935774  0.563441  1
  Ho  Ho7  1  0.312272  0.687903  0.312272  1
  Ho  Ho8  1  0.563441  0.935774  0.937344  1
  Ho  Ho9  1  0.563441  0.935774  0.563441  1
  Ho  Ho10  1  0.687553  0.687903  0.312272  1
  Ho  Ho11  1  0.565308  0.559674  0.937509  1
  Ho  Ho12  1  0.937509  0.559674  0.937509  1
  Ho  Ho13  1  0.312272  0.687903  0.687553  1
  Ho  Ho14  1  0.153829  0.152610  0.153829  1
  Ho  Ho15  1  0.312618  0.312614  0.687384  1
  Cd  Cd16  1  0.919348  0.922065  0.919348  1
  Cd  Cd17  1  0.919348  0.922065  0.239239  1
  Cd  Cd18  1  0.239239  0.922065  0.919348  1
  Co  Co19  1  0.358617  0.359392  0.923375  1
  Co  Co20  1  0.358956  0.923132  0.358956  1
  Co  Co21  1  0.923375  0.359392  0.358617  1
  Co  Co22  1  0.358617  0.359392  0.358617  1
  Ag  Ag23  1  0.917632  0.247104  0.917632  1
