# generated using pymatgen
data_BaSr2(SnIr)4
_symmetry_space_group_name_H-M   'P 1'
_cell_length_a   7.12221581
_cell_length_b   7.12221544
_cell_length_c   7.12221517
_cell_angle_alpha   110.72157677
_cell_angle_beta   110.72157604
_cell_angle_gamma   106.99843916
_symmetry_Int_Tables_number   1
_chemical_formula_structural   BaSr2(SnIr)4
_chemical_formula_sum   'Ba1 Sr2 Sn4 Ir4'
_cell_volume   277.72799627
_cell_formula_units_Z   1
loop_
 _symmetry_equiv_pos_site_id
 _symmetry_equiv_pos_as_xyz
  1  'x, y, z'
loop_
 _atom_site_type_symbol
 _atom_site_label
 _atom_site_symmetry_multiplicity
 _atom_site_fract_x
 _atom_site_fract_y
 _atom_site_fract_z
 _atom_site_occupancy
  Ba  Ba0  1  0.500000  0.500000  0.000000  1
  Sr  Sr1  1  0.000000  0.500000  0.500000  1
  Sr  Sr2  1  0.500000  0.000000  0.500000  1
  Sn  Sn3  1  0.385433  0.995648  0.000000  1
  Sn  Sn4  1  0.004352  0.004352  0.389785  1
  Sn  Sn5  1  0.995648  0.385433  0.000000  1
  Sn  Sn6  1  0.614566  0.614566  0.610215  1
  Ir  Ir7  1  0.008242  0.755134  0.000000  1
  Ir  Ir8  1  0.991758  0.991758  0.746892  1
  Ir  Ir9  1  0.244866  0.244866  0.253108  1
  Ir  Ir10  1  0.755134  0.008242  0.000000  1
