# generated using pymatgen
data_Ca4LaIr
_symmetry_space_group_name_H-M   'P 1'
_cell_length_a   6.79575600
_cell_length_b   7.63392900
_cell_length_c   16.24211200
_cell_angle_alpha   90.00000000
_cell_angle_beta   90.00000000
_cell_angle_gamma   90.00000000
_symmetry_Int_Tables_number   1
_chemical_formula_structural   Ca4LaIr
_chemical_formula_sum   'Ca16 La4 Ir4'
_cell_volume   842.61346441
_cell_formula_units_Z   4
loop_
 _symmetry_equiv_pos_site_id
 _symmetry_equiv_pos_as_xyz
  1  'x, y, z'
loop_
 _atom_site_type_symbol
 _atom_site_label
 _atom_site_symmetry_multiplicity
 _atom_site_fract_x
 _atom_site_fract_y
 _atom_site_fract_z
 _atom_site_occupancy
  Ca  Ca0  1  0.856877  0.191072  0.560710  1
  Ca  Ca1  1  0.825606  0.462119  0.145141  1
  Ca  Ca2  1  0.174394  0.537881  0.645141  1
  Ca  Ca3  1  0.356877  0.308928  0.060710  1
  Ca  Ca4  1  0.825606  0.462119  0.354859  1
  Ca  Ca5  1  0.325606  0.037881  0.854859  1
  Ca  Ca6  1  0.143123  0.808928  0.060710  1
  Ca  Ca7  1  0.643123  0.691072  0.560710  1
  Ca  Ca8  1  0.674394  0.962119  0.354859  1
  Ca  Ca9  1  0.643123  0.691072  0.939290  1
  Ca  Ca10  1  0.325606  0.037881  0.645141  1
  Ca  Ca11  1  0.143123  0.808928  0.439290  1
  Ca  Ca12  1  0.174394  0.537881  0.854859  1
  Ca  Ca13  1  0.356877  0.308928  0.439290  1
  Ca  Ca14  1  0.674394  0.962119  0.145141  1
  Ca  Ca15  1  0.856877  0.191072  0.939290  1
  La  La16  1  0.162206  0.088214  0.250000  1
  La  La17  1  0.837794  0.911786  0.750000  1
  La  La18  1  0.337794  0.588214  0.250000  1
  La  La19  1  0.662206  0.411786  0.750000  1
  Ir  Ir20  1  0.021001  0.232737  0.750000  1
  Ir  Ir21  1  0.478999  0.732737  0.750000  1
  Ir  Ir22  1  0.521001  0.267263  0.250000  1
  Ir  Ir23  1  0.978999  0.767263  0.250000  1
