# generated using pymatgen
data_Nd6P13Ir17Rh3
_symmetry_space_group_name_H-M   'P 1'
_cell_length_a   13.44393000
_cell_length_b   13.44393008
_cell_length_c   4.00787700
_cell_angle_alpha   90.00000000
_cell_angle_beta   90.00000000
_cell_angle_gamma   119.99999980
_symmetry_Int_Tables_number   1
_chemical_formula_structural   Nd6P13Ir17Rh3
_chemical_formula_sum   'Nd6 P13 Ir17 Rh3'
_cell_volume   627.33209192
_cell_formula_units_Z   1
loop_
 _symmetry_equiv_pos_site_id
 _symmetry_equiv_pos_as_xyz
  1  'x, y, z'
loop_
 _atom_site_type_symbol
 _atom_site_label
 _atom_site_symmetry_multiplicity
 _atom_site_fract_x
 _atom_site_fract_y
 _atom_site_fract_z
 _atom_site_occupancy
  Nd  Nd0  1  0.529132  0.717344  0.245420  1
  Nd  Nd1  1  0.282656  0.811788  0.245420  1
  Nd  Nd2  1  0.188212  0.470868  0.245420  1
  Nd  Nd3  1  0.472015  0.283637  0.752598  1
  Nd  Nd4  1  0.716363  0.188379  0.752598  1
  Nd  Nd5  1  0.811621  0.527985  0.752598  1
  P  P6  1  0.522553  0.137906  0.249812  1
  P  P7  1  0.862094  0.384647  0.249812  1
  P  P8  1  0.615353  0.477447  0.249812  1
  P  P9  1  0.945786  0.712829  0.256610  1
  P  P10  1  0.287171  0.232957  0.256610  1
  P  P11  1  0.767043  0.054214  0.256610  1
  P  P12  1  0.386572  0.523695  0.747596  1
  P  P13  1  0.476305  0.862876  0.747596  1
  P  P14  1  0.137124  0.613428  0.747596  1
  P  P15  1  0.717146  0.769910  0.740059  1
  P  P16  1  0.230090  0.947236  0.740059  1
  P  P17  1  0.052764  0.282854  0.740059  1
  P  P18  1  0.000000  0.000000  0.051215  1
  Ir  Ir19  1  0.333333  0.666667  0.749233  1
  Ir  Ir20  1  0.919820  0.245612  0.254668  1
  Ir  Ir21  1  0.754388  0.674207  0.254668  1
  Ir  Ir22  1  0.325793  0.080180  0.254668  1
  Ir  Ir23  1  0.437464  0.024315  0.751229  1
  Ir  Ir24  1  0.975685  0.413150  0.751229  1
  Ir  Ir25  1  0.586850  0.562536  0.751229  1
  Ir  Ir26  1  0.666667  0.333333  0.247949  1
  Ir  Ir27  1  0.098544  0.189165  0.245291  1
  Ir  Ir28  1  0.810835  0.909379  0.245291  1
  Ir  Ir29  1  0.090621  0.901456  0.245291  1
  Ir  Ir30  1  0.024794  0.584765  0.246569  1
  Ir  Ir31  1  0.415235  0.440028  0.246569  1
  Ir  Ir32  1  0.559972  0.975206  0.246569  1
  Ir  Ir33  1  0.673088  0.922485  0.743190  1
  Ir  Ir34  1  0.077515  0.750603  0.743190  1
  Ir  Ir35  1  0.249397  0.326912  0.743190  1
  Rh  Rh36  1  0.906646  0.820034  0.750827  1
  Rh  Rh37  1  0.179966  0.086613  0.750827  1
  Rh  Rh38  1  0.913387  0.093354  0.750827  1
