# generated using pymatgen
data_BaInGeRh3
_symmetry_space_group_name_H-M   'P 1'
_cell_length_a   7.17510416
_cell_length_b   7.17699340
_cell_length_c   7.17510361
_cell_angle_alpha   130.46337500
_cell_angle_beta   114.69396032
_cell_angle_gamma   86.16482607
_symmetry_Int_Tables_number   1
_chemical_formula_structural   BaInGeRh3
_chemical_formula_sum   'Ba2 In2 Ge2 Rh6'
_cell_volume   244.00402119
_cell_formula_units_Z   2
loop_
 _symmetry_equiv_pos_site_id
 _symmetry_equiv_pos_as_xyz
  1  'x, y, z'
loop_
 _atom_site_type_symbol
 _atom_site_label
 _atom_site_symmetry_multiplicity
 _atom_site_fract_x
 _atom_site_fract_y
 _atom_site_fract_z
 _atom_site_occupancy
  Ba  Ba0  1  0.758186  0.007854  0.249668  1
  Ba  Ba1  1  0.241814  0.992146  0.750332  1
  In  In2  1  0.567381  0.317158  0.749777  1
  In  In3  1  0.432619  0.682842  0.250223  1
  Ge  Ge4  1  0.100497  0.350817  0.250320  1
  Ge  Ge5  1  0.899503  0.649183  0.749680  1
  Rh  Rh6  1  0.214320  0.500000  0.714320  1
  Rh  Rh7  1  0.785844  0.000000  0.785844  1
  Rh  Rh8  1  0.785680  0.500000  0.285680  1
  Rh  Rh9  1  0.214156  0.000000  0.214156  1
  Rh  Rh10  1  0.500000  0.500000  0.500000  1
  Rh  Rh11  1  0.000000  0.500000  0.000000  1
