# generated using pymatgen
data_Ho8Si12RuPt3
_symmetry_space_group_name_H-M   'P 1'
_cell_length_a   8.16556200
_cell_length_b   8.16556239
_cell_length_c   7.89979500
_cell_angle_alpha   90.00000000
_cell_angle_beta   90.00000000
_cell_angle_gamma   120.00000653
_symmetry_Int_Tables_number   1
_chemical_formula_structural   Ho8Si12RuPt3
_chemical_formula_sum   'Ho8 Si12 Ru1 Pt3'
_cell_volume   456.16147755
_cell_formula_units_Z   1
loop_
 _symmetry_equiv_pos_site_id
 _symmetry_equiv_pos_as_xyz
  1  'x, y, z'
loop_
 _atom_site_type_symbol
 _atom_site_label
 _atom_site_symmetry_multiplicity
 _atom_site_fract_x
 _atom_site_fract_y
 _atom_site_fract_z
 _atom_site_occupancy
  Ho  Ho0  1  0.000000  0.000000  0.249878  1
  Ho  Ho1  1  0.000000  0.000000  0.751524  1
  Ho  Ho2  1  0.507896  0.492104  0.245767  1
  Ho  Ho3  1  0.507896  0.015792  0.245767  1
  Ho  Ho4  1  0.984208  0.492104  0.245767  1
  Ho  Ho5  1  0.488811  0.511189  0.753440  1
  Ho  Ho6  1  0.488811  0.977621  0.753440  1
  Ho  Ho7  1  0.022379  0.511189  0.753440  1
  Si  Si8  1  0.165174  0.834826  0.500179  1
  Si  Si9  1  0.165174  0.330347  0.500179  1
  Si  Si10  1  0.669653  0.834826  0.500179  1
  Si  Si11  1  0.834885  0.165115  0.500357  1
  Si  Si12  1  0.834885  0.669771  0.500357  1
  Si  Si13  1  0.330229  0.165115  0.500357  1
  Si  Si14  1  0.836306  0.163694  0.998554  1
  Si  Si15  1  0.836306  0.672612  0.998554  1
  Si  Si16  1  0.327388  0.163694  0.998554  1
  Si  Si17  1  0.168549  0.831451  0.001091  1
  Si  Si18  1  0.168549  0.337098  0.001091  1
  Si  Si19  1  0.662902  0.831451  0.001091  1
  Ru  Ru20  1  0.333333  0.666667  0.036943  1
  Pt  Pt21  1  0.333333  0.666667  0.462474  1
  Pt  Pt22  1  0.666667  0.333333  0.531057  1
  Pt  Pt23  1  0.666667  0.333333  0.969963  1
