# generated using pymatgen
data_Ca5Sm3(Si3Pd)4
_symmetry_space_group_name_H-M   'P 1'
_cell_length_a   8.27143700
_cell_length_b   8.27786696
_cell_length_c   8.30624800
_cell_angle_alpha   90.00000000
_cell_angle_beta   90.00000000
_cell_angle_gamma   119.97431212
_symmetry_Int_Tables_number   1
_chemical_formula_structural   Ca5Sm3(Si3Pd)4
_chemical_formula_sum   'Ca5 Sm3 Si12 Pd4'
_cell_volume   492.65998828
_cell_formula_units_Z   1
loop_
 _symmetry_equiv_pos_site_id
 _symmetry_equiv_pos_as_xyz
  1  'x, y, z'
loop_
 _atom_site_type_symbol
 _atom_site_label
 _atom_site_symmetry_multiplicity
 _atom_site_fract_x
 _atom_site_fract_y
 _atom_site_fract_z
 _atom_site_occupancy
  Ca  Ca0  1  0.499007  0.500942  0.750000  1
  Ca  Ca1  1  0.501157  0.499202  0.250000  1
  Ca  Ca2  1  0.001935  0.500942  0.750000  1
  Ca  Ca3  1  0.998045  0.499202  0.250000  1
  Ca  Ca4  1  0.499020  0.998040  0.750000  1
  Sm  Sm5  1  0.500902  0.001805  0.250000  1
  Sm  Sm6  1  0.000121  0.000240  0.750000  1
  Sm  Sm7  1  0.999958  0.999916  0.250000  1
  Si  Si8  1  0.835680  0.164586  0.001396  1
  Si  Si9  1  0.164318  0.835398  0.002372  1
  Si  Si10  1  0.328906  0.164586  0.001396  1
  Si  Si11  1  0.164318  0.835398  0.497628  1
  Si  Si12  1  0.671080  0.835398  0.002372  1
  Si  Si13  1  0.835680  0.164586  0.498604  1
  Si  Si14  1  0.834900  0.669802  0.000147  1
  Si  Si15  1  0.671080  0.835398  0.497628  1
  Si  Si16  1  0.165086  0.330173  0.001423  1
  Si  Si17  1  0.328906  0.164586  0.498604  1
  Si  Si18  1  0.165086  0.330173  0.498577  1
  Si  Si19  1  0.834900  0.669802  0.499853  1
  Pd  Pd20  1  0.666174  0.332348  0.999672  1
  Pd  Pd21  1  0.333781  0.667563  0.004208  1
  Pd  Pd22  1  0.333781  0.667563  0.495792  1
  Pd  Pd23  1  0.666174  0.332348  0.500328  1
