# generated using pymatgen
data_Y2Er3Tm11(Ga3Co)2
_symmetry_space_group_name_H-M   'P 1'
_cell_length_a   9.89656227
_cell_length_b   9.89456132
_cell_length_c   6.89633900
_cell_angle_alpha   89.99762243
_cell_angle_beta   89.99937961
_cell_angle_gamma   119.97986174
_symmetry_Int_Tables_number   1
_chemical_formula_structural   Y2Er3Tm11(Ga3Co)2
_chemical_formula_sum   'Y2 Er3 Tm11 Ga6 Co2'
_cell_volume   584.94931005
_cell_formula_units_Z   1
loop_
 _symmetry_equiv_pos_site_id
 _symmetry_equiv_pos_as_xyz
  1  'x, y, z'
loop_
 _atom_site_type_symbol
 _atom_site_label
 _atom_site_symmetry_multiplicity
 _atom_site_fract_x
 _atom_site_fract_y
 _atom_site_fract_z
 _atom_site_occupancy
  Y  Y0  1  0.999938  0.000017  0.269982  1
  Y  Y1  1  0.000102  0.000033  0.769935  1
  Er  Er2  1  0.072607  0.536293  0.293237  1
  Er  Er3  1  0.927481  0.463823  0.793265  1
  Er  Er4  1  0.536071  0.072339  0.793326  1
  Tm  Tm5  1  0.174347  0.826032  0.990190  1
  Tm  Tm6  1  0.825620  0.173830  0.489650  1
  Tm  Tm7  1  0.174678  0.348424  0.989938  1
  Tm  Tm8  1  0.651320  0.825386  0.990240  1
  Tm  Tm9  1  0.348586  0.174476  0.489684  1
  Tm  Tm10  1  0.825306  0.651533  0.489942  1
  Tm  Tm11  1  0.333807  0.666694  0.672928  1
  Tm  Tm12  1  0.666215  0.333349  0.173307  1
  Tm  Tm13  1  0.463752  0.536427  0.293471  1
  Tm  Tm14  1  0.536253  0.463743  0.793484  1
  Tm  Tm15  1  0.463659  0.927121  0.293433  1
  Ga  Ga16  1  0.163922  0.836342  0.540913  1
  Ga  Ga17  1  0.836296  0.163689  0.041239  1
  Ga  Ga18  1  0.163935  0.327560  0.541089  1
  Ga  Ga19  1  0.672248  0.836115  0.540857  1
  Ga  Ga20  1  0.327566  0.163923  0.041179  1
  Ga  Ga21  1  0.836053  0.672392  0.040992  1
  Co  Co22  1  0.333827  0.666892  0.057049  1
  Co  Co23  1  0.666411  0.333566  0.556789  1
