# generated using pymatgen
data_Li8Nd8Sn6BiPb
_symmetry_space_group_name_H-M   'P 1'
_cell_length_a   9.59256401
_cell_length_b   9.58975215
_cell_length_c   7.64726069
_cell_angle_alpha   90.07715231
_cell_angle_beta   90.00582166
_cell_angle_gamma   120.00896997
_symmetry_Int_Tables_number   1
_chemical_formula_structural   Li8Nd8Sn6BiPb
_chemical_formula_sum   'Li8 Nd8 Sn6 Bi1 Pb1'
_cell_volume   609.17039142
_cell_formula_units_Z   1
loop_
 _symmetry_equiv_pos_site_id
 _symmetry_equiv_pos_as_xyz
  1  'x, y, z'
loop_
 _atom_site_type_symbol
 _atom_site_label
 _atom_site_symmetry_multiplicity
 _atom_site_fract_x
 _atom_site_fract_y
 _atom_site_fract_z
 _atom_site_occupancy
  Li  Li0  1  0.166826  0.333579  0.284744  1
  Li  Li1  1  0.167731  0.833515  0.287315  1
  Li  Li2  1  0.665726  0.833457  0.287837  1
  Li  Li3  1  0.832221  0.665853  0.787008  1
  Li  Li4  1  0.829707  0.165032  0.789994  1
  Li  Li5  1  0.335803  0.165975  0.790230  1
  Li  Li6  1  0.335424  0.669408  0.665966  1
  Li  Li7  1  0.666294  0.332665  0.168114  1
  Nd  Nd8  1  0.513342  0.025149  0.494156  1
  Nd  Nd9  1  0.516868  0.490669  0.492087  1
  Nd  Nd10  1  0.973157  0.489539  0.491501  1
  Nd  Nd11  1  0.488808  0.975879  0.996483  1
  Nd  Nd12  1  0.492799  0.514185  0.997172  1
  Nd  Nd13  1  0.020884  0.513081  0.997910  1
  Nd  Nd14  1  0.996961  0.995755  0.496327  1
  Nd  Nd15  1  0.997499  0.996524  0.002094  1
  Sn  Sn16  1  0.666535  0.832961  0.729687  1
  Sn  Sn17  1  0.833352  0.666605  0.230512  1
  Sn  Sn18  1  0.833817  0.167179  0.229738  1
  Sn  Sn19  1  0.333334  0.167132  0.229747  1
  Sn  Sn20  1  0.332841  0.665776  0.266172  1
  Sn  Sn21  1  0.666863  0.333705  0.766279  1
  Bi  Bi22  1  0.166749  0.333536  0.731545  1
  Pb  Pb23  1  0.166456  0.832842  0.729351  1
