# generated using pymatgen
data_Lu3In3Pd2Pt
_symmetry_space_group_name_H-M   'P 1'
_cell_length_a   7.72389900
_cell_length_b   7.72389897
_cell_length_c   3.70371300
_cell_angle_alpha   90.00000000
_cell_angle_beta   90.00000000
_cell_angle_gamma   119.99999586
_symmetry_Int_Tables_number   1
_chemical_formula_structural   Lu3In3Pd2Pt
_chemical_formula_sum   'Lu3 In3 Pd2 Pt1'
_cell_volume   191.35558672
_cell_formula_units_Z   1
loop_
 _symmetry_equiv_pos_site_id
 _symmetry_equiv_pos_as_xyz
  1  'x, y, z'
loop_
 _atom_site_type_symbol
 _atom_site_label
 _atom_site_symmetry_multiplicity
 _atom_site_fract_x
 _atom_site_fract_y
 _atom_site_fract_z
 _atom_site_occupancy
  Lu  Lu0  1  0.009715  0.598323  0.500000  1
  Lu  Lu1  1  0.588608  0.990285  0.500000  1
  Lu  Lu2  1  0.401677  0.411392  0.500000  1
  In  In3  1  0.995585  0.261048  0.000000  1
  In  In4  1  0.265463  0.004415  0.000000  1
  In  In5  1  0.738952  0.734537  0.000000  1
  Pd  Pd6  1  0.000000  0.000000  0.500000  1
  Pd  Pd7  1  0.666667  0.333333  0.000000  1
  Pt  Pt8  1  0.333333  0.666667  0.000000  1
