# generated using pymatgen
data_Lu4MnOs3Ru4
_symmetry_space_group_name_H-M   'P 1'
_cell_length_a   5.32415223
_cell_length_b   5.19348416
_cell_length_c   8.82557100
_cell_angle_alpha   90.00000000
_cell_angle_beta   90.00000000
_cell_angle_gamma   121.15223317
_symmetry_Int_Tables_number   1
_chemical_formula_structural   Lu4MnOs3Ru4
_chemical_formula_sum   'Lu4 Mn1 Os3 Ru4'
_cell_volume   208.84412266
_cell_formula_units_Z   1
loop_
 _symmetry_equiv_pos_site_id
 _symmetry_equiv_pos_as_xyz
  1  'x, y, z'
loop_
 _atom_site_type_symbol
 _atom_site_label
 _atom_site_symmetry_multiplicity
 _atom_site_fract_x
 _atom_site_fract_y
 _atom_site_fract_z
 _atom_site_occupancy
  Lu  Lu0  1  0.330990  0.661672  0.433861  1
  Lu  Lu1  1  0.668392  0.337286  0.565565  1
  Lu  Lu2  1  0.668392  0.337286  0.934435  1
  Lu  Lu3  1  0.330990  0.661672  0.066139  1
  Mn  Mn4  1  0.164261  0.332781  0.750000  1
  Os  Os5  1  0.173959  0.827596  0.750000  1
  Os  Os6  1  0.347502  0.175612  0.250000  1
  Os  Os7  1  0.832008  0.669134  0.250000  1
  Ru  Ru8  1  0.649294  0.827014  0.750000  1
  Ru  Ru9  1  0.004239  0.998194  0.997341  1
  Ru  Ru10  1  0.825736  0.173562  0.250000  1
  Ru  Ru11  1  0.004239  0.998194  0.502659  1
