# generated using pymatgen
data_Er6Al24Fe2Os5Rh
_symmetry_space_group_name_H-M   'P 1'
_cell_length_a   8.75252158
_cell_length_b   8.75252220
_cell_length_c   9.51553418
_cell_angle_alpha   89.77542142
_cell_angle_beta   90.22457037
_cell_angle_gamma   119.83520839
_symmetry_Int_Tables_number   1
_chemical_formula_structural   Er6Al24Fe2Os5Rh
_chemical_formula_sum   'Er6 Al24 Fe2 Os5 Rh1'
_cell_volume   632.33109073
_cell_formula_units_Z   1
loop_
 _symmetry_equiv_pos_site_id
 _symmetry_equiv_pos_as_xyz
  1  'x, y, z'
loop_
 _atom_site_type_symbol
 _atom_site_label
 _atom_site_symmetry_multiplicity
 _atom_site_fract_x
 _atom_site_fract_y
 _atom_site_fract_z
 _atom_site_occupancy
  Er  Er0  1  0.191065  0.387486  0.251457  1
  Er  Er1  1  0.808935  0.612514  0.748543  1
  Er  Er2  1  0.612514  0.808935  0.251457  1
  Er  Er3  1  0.387486  0.191065  0.748543  1
  Er  Er4  1  0.194467  0.805533  0.250651  1
  Er  Er5  1  0.805533  0.194467  0.749349  1
  Al  Al6  1  0.332950  0.667050  0.018456  1
  Al  Al7  1  0.667050  0.332950  0.981544  1
  Al  Al8  1  0.666536  0.333464  0.517313  1
  Al  Al9  1  0.333464  0.666536  0.482687  1
  Al  Al10  1  0.159881  0.318826  0.576220  1
  Al  Al11  1  0.840119  0.681174  0.423780  1
  Al  Al12  1  0.681174  0.840119  0.576220  1
  Al  Al13  1  0.842521  0.682183  0.076541  1
  Al  Al14  1  0.318826  0.159881  0.423780  1
  Al  Al15  1  0.157479  0.317817  0.923459  1
  Al  Al16  1  0.159661  0.840339  0.575451  1
  Al  Al17  1  0.317817  0.157479  0.076541  1
  Al  Al18  1  0.840339  0.159661  0.424549  1
  Al  Al19  1  0.682183  0.842521  0.923459  1
  Al  Al20  1  0.840368  0.159632  0.075640  1
  Al  Al21  1  0.159632  0.840368  0.924360  1
  Al  Al22  1  0.561318  0.124483  0.249553  1
  Al  Al23  1  0.438682  0.875517  0.750447  1
  Al  Al24  1  0.875517  0.438682  0.249553  1
  Al  Al25  1  0.124483  0.561318  0.750447  1
  Al  Al26  1  0.561074  0.438926  0.249943  1
  Al  Al27  1  0.438926  0.561074  0.750057  1
  Al  Al28  1  0.999707  0.000293  0.250219  1
  Al  Al29  1  0.000293  0.999707  0.749781  1
  Fe  Fe30  1  0.000000  0.000000  0.000000  1
  Fe  Fe31  1  0.000000  0.000000  0.500000  1
  Os  Os32  1  0.500000  0.000000  0.000000  1
  Os  Os33  1  0.000000  0.500000  0.000000  1
  Os  Os34  1  0.500000  0.000000  0.500000  1
  Os  Os35  1  0.000000  0.500000  0.500000  1
  Os  Os36  1  0.500000  0.500000  0.500000  1
  Rh  Rh37  1  0.500000  0.500000  0.000000  1
