# generated using pymatgen
data_Tb3Ni8Ir
_symmetry_space_group_name_H-M   'P 1'
_cell_length_a   4.96726936
_cell_length_b   4.96727015
_cell_length_c   8.78619322
_cell_angle_alpha   73.58009682
_cell_angle_beta   73.58009758
_cell_angle_gamma   59.99999934
_symmetry_Int_Tables_number   1
_chemical_formula_structural   Tb3Ni8Ir
_chemical_formula_sum   'Tb3 Ni8 Ir1'
_cell_volume   177.46161736
_cell_formula_units_Z   1
loop_
 _symmetry_equiv_pos_site_id
 _symmetry_equiv_pos_as_xyz
  1  'x, y, z'
loop_
 _atom_site_type_symbol
 _atom_site_label
 _atom_site_symmetry_multiplicity
 _atom_site_fract_x
 _atom_site_fract_y
 _atom_site_fract_z
 _atom_site_occupancy
  Tb  Tb0  1  0.138409  0.138409  0.584775  1
  Tb  Tb1  1  0.861591  0.861591  0.415225  1
  Tb  Tb2  1  0.000000  0.000000  0.000000  1
  Ni  Ni3  1  0.077785  0.581103  0.760007  1
  Ni  Ni4  1  0.581103  0.581103  0.760007  1
  Ni  Ni5  1  0.581103  0.077785  0.760007  1
  Ni  Ni6  1  0.922215  0.418897  0.239993  1
  Ni  Ni7  1  0.418897  0.418897  0.239993  1
  Ni  Ni8  1  0.418897  0.922215  0.239993  1
  Ni  Ni9  1  0.333169  0.333169  0.000492  1
  Ni  Ni10  1  0.666831  0.666831  0.999508  1
  Ir  Ir11  1  0.500000  0.500000  0.500000  1
