# generated using pymatgen
data_Tb2NdY(WO6)2
_symmetry_space_group_name_H-M   'P 1'
_cell_length_a   5.46445000
_cell_length_b   7.79093222
_cell_length_c   11.58397105
_cell_angle_alpha   75.58072715
_cell_angle_beta   90.00000000
_cell_angle_gamma   90.00000000
_symmetry_Int_Tables_number   1
_chemical_formula_structural   Tb2NdY(WO6)2
_chemical_formula_sum   'Tb4 Nd2 Y2 W4 O24'
_cell_volume   477.63124196
_cell_formula_units_Z   2
loop_
 _symmetry_equiv_pos_site_id
 _symmetry_equiv_pos_as_xyz
  1  'x, y, z'
loop_
 _atom_site_type_symbol
 _atom_site_label
 _atom_site_symmetry_multiplicity
 _atom_site_fract_x
 _atom_site_fract_y
 _atom_site_fract_z
 _atom_site_occupancy
  Tb  Tb0  1  0.186706  0.796639  0.076926  1
  Tb  Tb1  1  0.258961  0.000000  0.750000  1
  Tb  Tb2  1  0.741001  0.000000  0.250000  1
  Tb  Tb3  1  0.186706  0.203361  0.423074  1
  Nd  Nd4  1  0.315103  0.500000  0.750000  1
  Nd  Nd5  1  0.684926  0.500000  0.250000  1
  Y  Y6  1  0.813164  0.203595  0.922888  1
  Y  Y7  1  0.813164  0.796405  0.577112  1
  W  W8  1  0.746119  0.726560  0.884664  1
  W  W9  1  0.253916  0.726638  0.384718  1
  W  W10  1  0.746119  0.273440  0.615336  1
  W  W11  1  0.253916  0.273362  0.115282  1
  O  O12  1  0.852450  0.359812  0.454465  1
  O  O13  1  0.469211  0.846552  0.930328  1
  O  O14  1  0.852450  0.640188  0.045535  1
  O  O15  1  0.013645  0.283448  0.729138  1
  O  O16  1  0.986360  0.283525  0.229101  1
  O  O17  1  0.147267  0.359693  0.954450  1
  O  O18  1  0.647989  0.493539  0.887568  1
  O  O19  1  0.531101  0.153407  0.069452  1
  O  O20  1  0.147267  0.640307  0.545550  1
  O  O21  1  0.013645  0.716552  0.770862  1
  O  O22  1  0.455892  0.207028  0.271906  1
  O  O23  1  0.043153  0.940026  0.395649  1
  O  O24  1  0.469211  0.153448  0.569672  1
  O  O25  1  0.986360  0.716475  0.270899  1
  O  O26  1  0.956617  0.059706  0.604348  1
  O  O27  1  0.544290  0.206970  0.772115  1
  O  O28  1  0.544290  0.793030  0.727885  1
  O  O29  1  0.043153  0.059974  0.104351  1
  O  O30  1  0.647989  0.506461  0.612432  1
  O  O31  1  0.352122  0.506301  0.112449  1
  O  O32  1  0.455892  0.792972  0.228094  1
  O  O33  1  0.352122  0.493699  0.387551  1
  O  O34  1  0.531101  0.846593  0.430548  1
  O  O35  1  0.956617  0.940294  0.895652  1
