# generated using pymatgen
data_SrLiP5PbO15
_symmetry_space_group_name_H-M   'P 1'
_cell_length_a   5.63470583
_cell_length_b   9.65693201
_cell_length_c   12.50082733
_cell_angle_alpha   89.23263282
_cell_angle_beta   91.35380101
_cell_angle_gamma   90.36991607
_symmetry_Int_Tables_number   1
_chemical_formula_structural   SrLiP5PbO15
_chemical_formula_sum   'Sr2 Li2 P10 Pb2 O30'
_cell_volume   679.95596905
_cell_formula_units_Z   2
loop_
 _symmetry_equiv_pos_site_id
 _symmetry_equiv_pos_as_xyz
  1  'x, y, z'
loop_
 _atom_site_type_symbol
 _atom_site_label
 _atom_site_symmetry_multiplicity
 _atom_site_fract_x
 _atom_site_fract_y
 _atom_site_fract_z
 _atom_site_occupancy
  Sr  Sr0  1  0.088632  0.677497  0.094748  1
  Sr  Sr1  1  0.906795  0.318605  0.908105  1
  Li  Li2  1  0.558141  0.018387  0.474217  1
  Li  Li3  1  0.056713  0.984090  0.971215  1
  P  P4  1  0.887397  0.461281  0.344732  1
  P  P5  1  0.103832  0.536588  0.655416  1
  P  P6  1  0.599982  0.461450  0.150910  1
  P  P7  1  0.391531  0.540057  0.849014  1
  P  P8  1  0.261641  0.998740  0.252657  1
  P  P9  1  0.762287  0.000660  0.749466  1
  P  P10  1  0.076795  0.188883  0.416012  1
  P  P11  1  0.920715  0.806313  0.581947  1
  P  P12  1  0.421346  0.190633  0.077639  1
  P  P13  1  0.576196  0.814117  0.920232  1
  Pb  Pb14  1  0.399572  0.690305  0.412745  1
  Pb  Pb15  1  0.595414  0.316200  0.590517  1
  O  O16  1  0.727086  0.385790  0.253637  1
  O  O17  1  0.258519  0.614372  0.747222  1
  O  O18  1  0.306074  0.168256  0.478556  1
  O  O19  1  0.691345  0.834016  0.521133  1
  O  O20  1  0.192482  0.163564  0.017063  1
  O  O21  1  0.805585  0.834761  0.981806  1
  O  O22  1  0.419569  0.933963  0.338665  1
  O  O23  1  0.618650  0.081749  0.668095  1
  O  O24  1  0.122289  0.907786  0.178677  1
  O  O25  1  0.915971  0.074540  0.830481  1
  O  O26  1  0.842348  0.164499  0.469220  1
  O  O27  1  0.151074  0.824730  0.525790  1
  O  O28  1  0.652615  0.174691  0.024203  1
  O  O29  1  0.341028  0.837235  0.970724  1
  O  O30  1  0.087650  0.346285  0.368681  1
  O  O31  1  0.900139  0.649352  0.630317  1
  O  O32  1  0.398910  0.348635  0.122524  1
  O  O33  1  0.588124  0.655207  0.877337  1
  O  O34  1  0.734779  0.480538  0.441251  1
  O  O35  1  0.260594  0.517927  0.560215  1
  O  O36  1  0.781562  0.476706  0.064418  1
  O  O37  1  0.212591  0.522893  0.936349  1
  O  O38  1  0.008669  0.587631  0.298913  1
  O  O39  1  0.984648  0.409108  0.700849  1
  O  O40  1  0.476474  0.591311  0.183682  1
  O  O41  1  0.519288  0.412190  0.814861  1
  O  O42  1  0.431450  0.104559  0.189187  1
  O  O43  1  0.575321  0.899241  0.808342  1
  O  O44  1  0.072080  0.100239  0.308182  1
  O  O45  1  0.936104  0.894420  0.690044  1
