# generated using pymatgen
data_Er5Zr3(Si4Os3)4
_symmetry_space_group_name_H-M   'P 1'
_cell_length_a   10.16690941
_cell_length_b   10.16810626
_cell_length_c   13.60729538
_cell_angle_alpha   53.32487103
_cell_angle_beta   53.28261486
_cell_angle_gamma   30.87907463
_symmetry_Int_Tables_number   1
_chemical_formula_structural   Er5Zr3(Si4Os3)4
_chemical_formula_sum   'Er5 Zr3 Si16 Os12'
_cell_volume   566.47899897
_cell_formula_units_Z   1
loop_
 _symmetry_equiv_pos_site_id
 _symmetry_equiv_pos_as_xyz
  1  'x, y, z'
loop_
 _atom_site_type_symbol
 _atom_site_label
 _atom_site_symmetry_multiplicity
 _atom_site_fract_x
 _atom_site_fract_y
 _atom_site_fract_z
 _atom_site_occupancy
  Er  Er0  1  0.039075  0.291162  0.638800  1
  Er  Er1  1  0.709191  0.960806  0.860796  1
  Er  Er2  1  0.960495  0.709442  0.360428  1
  Er  Er3  1  0.291515  0.038537  0.139589  1
  Er  Er4  1  0.298184  0.557582  0.645677  1
  Zr  Zr5  1  0.444502  0.705335  0.851926  1
  Zr  Zr6  1  0.706676  0.443837  0.350635  1
  Zr  Zr7  1  0.555191  0.294956  0.148684  1
  Si  Si8  1  0.975028  0.250699  0.894898  1
  Si  Si9  1  0.748641  0.024396  0.605631  1
  Si  Si10  1  0.025633  0.748273  0.105258  1
  Si  Si11  1  0.248887  0.976251  0.394248  1
  Si  Si12  1  0.142837  0.382600  0.898362  1
  Si  Si13  1  0.619008  0.853159  0.603199  1
  Si  Si14  1  0.855703  0.617311  0.103097  1
  Si  Si15  1  0.382250  0.145172  0.396934  1
  Si  Si16  1  0.083147  0.574272  0.566802  1
  Si  Si17  1  0.424791  0.916149  0.933404  1
  Si  Si18  1  0.914915  0.426129  0.433280  1
  Si  Si19  1  0.575045  0.083923  0.067063  1
  Si  Si20  1  0.620107  0.380773  0.750962  1
  Si  Si21  1  0.382722  0.616540  0.250298  1
  Si  Si22  1  0.127757  0.873319  0.750642  1
  Si  Si23  1  0.869325  0.130694  0.249272  1
  Os  Os24  1  0.893923  0.143999  0.584610  1
  Os  Os25  1  0.859061  0.105444  0.915599  1
  Os  Os26  1  0.102951  0.862849  0.411333  1
  Os  Os27  1  0.142337  0.892045  0.085557  1
  Os  Os28  1  0.831832  0.638606  0.784787  1
  Os  Os29  1  0.358925  0.164213  0.716525  1
  Os  Os30  1  0.167624  0.360577  0.216055  1
  Os  Os31  1  0.638537  0.832507  0.284329  1
  Os  Os32  1  0.245895  0.509444  0.928454  1
  Os  Os33  1  0.492246  0.754398  0.573081  1
  Os  Os34  1  0.755857  0.489465  0.072195  1
  Os  Os35  1  0.510185  0.245135  0.427591  1
