# generated using pymatgen
data_Tb3Dy2ScCoTe2
_symmetry_space_group_name_H-M   'P 1'
_cell_length_a   8.21731998
_cell_length_b   8.35299070
_cell_length_c   3.95975300
_cell_angle_alpha   90.00000000
_cell_angle_beta   90.00000000
_cell_angle_gamma   120.54768154
_symmetry_Int_Tables_number   1
_chemical_formula_structural   Tb3Dy2ScCoTe2
_chemical_formula_sum   'Tb3 Dy2 Sc1 Co1 Te2'
_cell_volume   234.07098692
_cell_formula_units_Z   1
loop_
 _symmetry_equiv_pos_site_id
 _symmetry_equiv_pos_as_xyz
  1  'x, y, z'
loop_
 _atom_site_type_symbol
 _atom_site_label
 _atom_site_symmetry_multiplicity
 _atom_site_fract_x
 _atom_site_fract_y
 _atom_site_fract_z
 _atom_site_occupancy
  Tb  Tb0  1  0.000000  0.411838  0.500000  1
  Tb  Tb1  1  0.613530  0.611009  0.500000  1
  Tb  Tb2  1  0.386470  0.997479  0.500000  1
  Dy  Dy3  1  0.229441  0.235368  0.000000  1
  Dy  Dy4  1  0.770559  0.005927  0.000000  1
  Sc  Sc5  1  0.000000  0.767361  0.000000  1
  Co  Co6  1  0.000000  0.962487  0.500000  1
  Te  Te7  1  0.331281  0.669906  0.000000  1
  Te  Te8  1  0.668719  0.338624  0.000000  1
