# generated using pymatgen
data_La16Cd4Tc3Au
_symmetry_space_group_name_H-M   'P 1'
_cell_length_a   10.23285428
_cell_length_b   10.21755653
_cell_length_c   10.11377865
_cell_angle_alpha   59.58560902
_cell_angle_beta   59.60987179
_cell_angle_gamma   59.95461349
_symmetry_Int_Tables_number   1
_chemical_formula_structural   La16Cd4Tc3Au
_chemical_formula_sum   'La16 Cd4 Tc3 Au1'
_cell_volume   742.89491882
_cell_formula_units_Z   1
loop_
 _symmetry_equiv_pos_site_id
 _symmetry_equiv_pos_as_xyz
  1  'x, y, z'
loop_
 _atom_site_type_symbol
 _atom_site_label
 _atom_site_symmetry_multiplicity
 _atom_site_fract_x
 _atom_site_fract_y
 _atom_site_fract_z
 _atom_site_occupancy
  La  La0  1  0.896158  0.896696  0.911256  1
  La  La1  1  0.438330  0.438065  0.059818  1
  La  La2  1  0.059821  0.059309  0.424376  1
  La  La3  1  0.438342  0.063512  0.059711  1
  La  La4  1  0.308173  0.690113  0.311521  1
  La  La5  1  0.690155  0.690145  0.311582  1
  La  La6  1  0.690619  0.307585  0.311140  1
  La  La7  1  0.295884  0.896718  0.911252  1
  La  La8  1  0.896150  0.296261  0.911526  1
  La  La9  1  0.309576  0.686218  0.694593  1
  La  La10  1  0.905297  0.906188  0.283269  1
  La  La11  1  0.063795  0.438046  0.059776  1
  La  La12  1  0.309276  0.309020  0.695159  1
  La  La13  1  0.059839  0.456543  0.423784  1
  La  La14  1  0.456392  0.059358  0.424422  1
  La  La15  1  0.686592  0.309058  0.695110  1
  Cd  Cd16  1  0.670415  0.670680  0.988491  1
  Cd  Cd17  1  0.987425  0.671106  0.670259  1
  Cd  Cd18  1  0.671036  0.987654  0.670278  1
  Cd  Cd19  1  0.671218  0.671124  0.670280  1
  Tc  Tc20  1  0.114658  0.115331  0.113371  1
  Tc  Tc21  1  0.114851  0.656263  0.114037  1
  Tc  Tc22  1  0.656672  0.115332  0.113357  1
  Au  Au23  1  0.109326  0.109674  0.671631  1
