# generated using pymatgen
data_BaLaSiPt8
_symmetry_space_group_name_H-M   'P 1'
_cell_length_a   4.30227200
_cell_length_b   9.48272904
_cell_length_c   9.48251657
_cell_angle_alpha   145.93648552
_cell_angle_beta   90.00000000
_cell_angle_gamma   90.00000000
_symmetry_Int_Tables_number   1
_chemical_formula_structural   BaLaSiPt8
_chemical_formula_sum   'Ba1 La1 Si1 Pt8'
_cell_volume   216.68525831
_cell_formula_units_Z   1
loop_
 _symmetry_equiv_pos_site_id
 _symmetry_equiv_pos_as_xyz
  1  'x, y, z'
loop_
 _atom_site_type_symbol
 _atom_site_label
 _atom_site_symmetry_multiplicity
 _atom_site_fract_x
 _atom_site_fract_y
 _atom_site_fract_z
 _atom_site_occupancy
  Ba  Ba0  1  0.500000  0.616069  0.376450  1
  La  La1  1  0.500000  0.370117  0.618840  1
  Si  Si2  1  0.000000  0.217368  0.217515  1
  Pt  Pt3  1  0.000000  0.890057  0.111014  1
  Pt  Pt4  1  0.500000  0.793469  0.191385  1
  Pt  Pt5  1  0.000000  0.998339  0.490346  1
  Pt  Pt6  1  0.000000  0.626982  0.642629  1
  Pt  Pt7  1  0.500000  0.197647  0.788274  1
  Pt  Pt8  1  0.000000  0.107805  0.885320  1
  Pt  Pt9  1  0.000000  0.493150  0.985188  1
  Pt  Pt10  1  0.500000  0.002581  0.006623  1
