# generated using pymatgen
data_Ho7Sc(Si3Pt)4
_symmetry_space_group_name_H-M   'P 1'
_cell_length_a   8.12948900
_cell_length_b   8.12686707
_cell_length_c   8.10125600
_cell_angle_alpha   90.00000000
_cell_angle_beta   90.00000000
_cell_angle_gamma   120.01067699
_symmetry_Int_Tables_number   1
_chemical_formula_structural   Ho7Sc(Si3Pt)4
_chemical_formula_sum   'Ho7 Sc1 Si12 Pt4'
_cell_volume   463.47109788
_cell_formula_units_Z   1
loop_
 _symmetry_equiv_pos_site_id
 _symmetry_equiv_pos_as_xyz
  1  'x, y, z'
loop_
 _atom_site_type_symbol
 _atom_site_label
 _atom_site_symmetry_multiplicity
 _atom_site_fract_x
 _atom_site_fract_y
 _atom_site_fract_z
 _atom_site_occupancy
  Ho  Ho0  1  0.000003  0.000004  0.250000  1
  Ho  Ho1  1  0.000032  0.000065  0.750000  1
  Ho  Ho2  1  0.499054  0.500937  0.250000  1
  Ho  Ho3  1  0.499075  0.998148  0.250000  1
  Ho  Ho4  1  0.001884  0.500937  0.250000  1
  Ho  Ho5  1  0.500988  0.498675  0.750000  1
  Ho  Ho6  1  0.997685  0.498675  0.750000  1
  Sc  Sc7  1  0.501251  0.002501  0.750000  1
  Si  Si8  1  0.833595  0.164908  0.501923  1
  Si  Si9  1  0.834526  0.669055  0.498965  1
  Si  Si10  1  0.331310  0.164908  0.501923  1
  Si  Si11  1  0.833595  0.164908  0.998077  1
  Si  Si12  1  0.834526  0.669055  0.001035  1
  Si  Si13  1  0.331310  0.164908  0.998077  1
  Si  Si14  1  0.166376  0.835034  0.996253  1
  Si  Si15  1  0.668661  0.835034  0.996253  1
  Si  Si16  1  0.165500  0.330999  0.999015  1
  Si  Si17  1  0.166376  0.835034  0.503747  1
  Si  Si18  1  0.668661  0.835034  0.503747  1
  Si  Si19  1  0.165500  0.330999  0.500985  1
  Pt  Pt20  1  0.666030  0.332058  0.500448  1
  Pt  Pt21  1  0.666030  0.332058  0.999552  1
  Pt  Pt22  1  0.334016  0.668033  0.993918  1
  Pt  Pt23  1  0.334016  0.668033  0.506082  1
