# generated using pymatgen
data_MgFe2B2Rh5
_symmetry_space_group_name_H-M   'P 1'
_cell_length_a   9.37411391
_cell_length_b   9.37411391
_cell_length_c   2.90634000
_cell_angle_alpha   90.00000000
_cell_angle_beta   90.00000000
_cell_angle_gamma   90.94226842
_symmetry_Int_Tables_number   1
_chemical_formula_structural   MgFe2B2Rh5
_chemical_formula_sum   'Mg2 Fe4 B4 Rh10'
_cell_volume   255.35721917
_cell_formula_units_Z   2
loop_
 _symmetry_equiv_pos_site_id
 _symmetry_equiv_pos_as_xyz
  1  'x, y, z'
loop_
 _atom_site_type_symbol
 _atom_site_label
 _atom_site_symmetry_multiplicity
 _atom_site_fract_x
 _atom_site_fract_y
 _atom_site_fract_z
 _atom_site_occupancy
  Mg  Mg0  1  0.177342  0.322658  0.000000  1
  Mg  Mg1  1  0.822658  0.677342  0.000000  1
  Fe  Fe2  1  0.677284  0.177284  0.000000  1
  Fe  Fe3  1  0.322716  0.822716  0.000000  1
  Fe  Fe4  1  0.000000  0.000000  0.000000  1
  Fe  Fe5  1  0.500000  0.500000  0.000000  1
  B  B6  1  0.126711  0.626711  0.000000  1
  B  B7  1  0.873289  0.373289  0.000000  1
  B  B8  1  0.625908  0.874092  0.000000  1
  B  B9  1  0.374092  0.125908  0.000000  1
  Rh  Rh10  1  0.500000  0.000000  0.500000  1
  Rh  Rh11  1  0.000000  0.500000  0.500000  1
  Rh  Rh12  1  0.217742  0.063707  0.500000  1
  Rh  Rh13  1  0.782258  0.936293  0.500000  1
  Rh  Rh14  1  0.077778  0.787883  0.500000  1
  Rh  Rh15  1  0.712117  0.422222  0.500000  1
  Rh  Rh16  1  0.922222  0.212117  0.500000  1
  Rh  Rh17  1  0.287883  0.577778  0.500000  1
  Rh  Rh18  1  0.563707  0.717742  0.500000  1
  Rh  Rh19  1  0.436293  0.282258  0.500000  1
