# generated using pymatgen
data_BaMn2Sn4O11
_symmetry_space_group_name_H-M   'P 1'
_cell_length_a   6.28798344
_cell_length_b   6.28798324
_cell_length_c   14.29642792
_cell_angle_alpha   90.06203322
_cell_angle_beta   90.06203210
_cell_angle_gamma   120.27196219
_symmetry_Int_Tables_number   1
_chemical_formula_structural   BaMn2Sn4O11
_chemical_formula_sum   'Ba2 Mn4 Sn8 O22'
_cell_volume   488.18361842
_cell_formula_units_Z   2
loop_
 _symmetry_equiv_pos_site_id
 _symmetry_equiv_pos_as_xyz
  1  'x, y, z'
loop_
 _atom_site_type_symbol
 _atom_site_label
 _atom_site_symmetry_multiplicity
 _atom_site_fract_x
 _atom_site_fract_y
 _atom_site_fract_z
 _atom_site_occupancy
  Ba  Ba0  1  0.331615  0.668385  0.750000  1
  Ba  Ba1  1  0.668385  0.331615  0.250000  1
  Mn  Mn2  1  0.332892  0.667108  0.250000  1
  Mn  Mn3  1  0.667108  0.332892  0.750000  1
  Mn  Mn4  1  0.000000  0.500000  0.000000  1
  Mn  Mn5  1  0.500000  0.000000  0.500000  1
  Sn  Sn6  1  0.500000  0.000000  0.000000  1
  Sn  Sn7  1  0.500000  0.500000  0.000000  1
  Sn  Sn8  1  0.000000  0.500000  0.500000  1
  Sn  Sn9  1  0.500000  0.500000  0.500000  1
  Sn  Sn10  1  0.012470  0.006569  0.853111  1
  Sn  Sn11  1  0.987530  0.993431  0.146889  1
  Sn  Sn12  1  0.006569  0.012470  0.353111  1
  Sn  Sn13  1  0.993431  0.987530  0.646889  1
  O  O14  1  0.288696  0.142930  0.745554  1
  O  O15  1  0.857070  0.711304  0.754446  1
  O  O16  1  0.857448  0.142552  0.750000  1
  O  O17  1  0.711304  0.857070  0.254446  1
  O  O18  1  0.142930  0.288696  0.245554  1
  O  O19  1  0.142552  0.857448  0.250000  1
  O  O20  1  0.325677  0.650835  0.422577  1
  O  O21  1  0.674323  0.349165  0.577423  1
  O  O22  1  0.650835  0.325677  0.922577  1
  O  O23  1  0.349165  0.674323  0.077423  1
  O  O24  1  0.656436  0.828930  0.917919  1
  O  O25  1  0.183853  0.348955  0.916501  1
  O  O26  1  0.183640  0.836386  0.917118  1
  O  O27  1  0.343564  0.171070  0.082081  1
  O  O28  1  0.816147  0.651045  0.083499  1
  O  O29  1  0.816360  0.163614  0.082882  1
  O  O30  1  0.348955  0.183853  0.416501  1
  O  O31  1  0.828930  0.656436  0.417919  1
  O  O32  1  0.836386  0.183640  0.417118  1
  O  O33  1  0.651045  0.816147  0.583499  1
  O  O34  1  0.171070  0.343564  0.582081  1
  O  O35  1  0.163614  0.816360  0.582882  1
