# generated using pymatgen
data_Dy5Sc3AsP11Ir16
_symmetry_space_group_name_H-M   'P 1'
_cell_length_a   12.91079452
_cell_length_b   12.89428356
_cell_length_c   3.97001300
_cell_angle_alpha   90.00000000
_cell_angle_beta   90.00000000
_cell_angle_gamma   119.95770426
_symmetry_Int_Tables_number   1
_chemical_formula_structural   Dy5Sc3AsP11Ir16
_chemical_formula_sum   'Dy5 Sc3 As1 P11 Ir16'
_cell_volume   572.60836069
_cell_formula_units_Z   1
loop_
 _symmetry_equiv_pos_site_id
 _symmetry_equiv_pos_as_xyz
  1  'x, y, z'
loop_
 _atom_site_type_symbol
 _atom_site_label
 _atom_site_symmetry_multiplicity
 _atom_site_fract_x
 _atom_site_fract_y
 _atom_site_fract_z
 _atom_site_occupancy
  Dy  Dy0  1  0.334206  0.666720  0.500000  1
  Dy  Dy1  1  0.665794  0.332513  0.500000  1
  Dy  Dy2  1  0.000000  0.815217  0.000000  1
  Dy  Dy3  1  0.189137  0.189014  0.000000  1
  Dy  Dy4  1  0.810863  0.999878  0.000000  1
  Sc  Sc5  1  0.000000  0.440997  0.500000  1
  Sc  Sc6  1  0.553931  0.555841  0.500000  1
  Sc  Sc7  1  0.446069  0.001910  0.500000  1
  As  As8  1  0.000000  0.644870  0.500000  1
  P  P9  1  0.354865  0.354516  0.500000  1
  P  P10  1  0.645135  0.999651  0.500000  1
  P  P11  1  0.517029  0.687315  0.000000  1
  P  P12  1  0.314904  0.831272  0.000000  1
  P  P13  1  0.170821  0.481948  0.000000  1
  P  P14  1  0.482971  0.170286  0.000000  1
  P  P15  1  0.685096  0.516368  0.000000  1
  P  P16  1  0.829179  0.311127  0.000000  1
  P  P17  1  0.000000  0.176143  0.500000  1
  P  P18  1  0.822415  0.823361  0.500000  1
  P  P19  1  0.177585  0.000946  0.500000  1
  Ir  Ir20  1  0.510636  0.868799  0.000000  1
  Ir  Ir21  1  0.137226  0.642276  0.000000  1
  Ir  Ir22  1  0.358418  0.490235  0.000000  1
  Ir  Ir23  1  0.489364  0.358163  0.000000  1
  Ir  Ir24  1  0.862774  0.505049  0.000000  1
  Ir  Ir25  1  0.641582  0.131816  0.000000  1
  Ir  Ir26  1  0.000000  0.276896  0.000000  1
  Ir  Ir27  1  0.721728  0.724133  0.000000  1
  Ir  Ir28  1  0.278272  0.002405  0.000000  1
  Ir  Ir29  1  0.627205  0.807240  0.500000  1
  Ir  Ir30  1  0.202059  0.826221  0.500000  1
  Ir  Ir31  1  0.179103  0.371246  0.500000  1
  Ir  Ir32  1  0.372795  0.180035  0.500000  1
  Ir  Ir33  1  0.797941  0.624162  0.500000  1
  Ir  Ir34  1  0.820897  0.192143  0.500000  1
  Ir  Ir35  1  0.000000  0.999285  0.500000  1
