# generated using pymatgen
data_Pr4Ga18IrPd2Ru3
_symmetry_space_group_name_H-M   'P 1'
_cell_length_a   7.65129657
_cell_length_b   7.65130387
_cell_length_c   9.76354428
_cell_angle_alpha   89.92952528
_cell_angle_beta   89.92952556
_cell_angle_gamma   119.20081488
_symmetry_Int_Tables_number   1
_chemical_formula_structural   Pr4Ga18IrPd2Ru3
_chemical_formula_sum   'Pr4 Ga18 Ir1 Pd2 Ru3'
_cell_volume   498.94046626
_cell_formula_units_Z   1
loop_
 _symmetry_equiv_pos_site_id
 _symmetry_equiv_pos_as_xyz
  1  'x, y, z'
loop_
 _atom_site_type_symbol
 _atom_site_label
 _atom_site_symmetry_multiplicity
 _atom_site_fract_x
 _atom_site_fract_y
 _atom_site_fract_z
 _atom_site_occupancy
  Pr  Pr0  1  0.996833  0.672866  0.249802  1
  Pr  Pr1  1  0.003858  0.327579  0.750505  1
  Pr  Pr2  1  0.672425  0.996142  0.249495  1
  Pr  Pr3  1  0.327130  0.003167  0.750198  1
  Ga  Ga4  1  0.137114  0.136752  0.249115  1
  Ga  Ga5  1  0.863248  0.862886  0.750885  1
  Ga  Ga6  1  0.006794  0.341100  0.074705  1
  Ga  Ga7  1  0.996080  0.660289  0.925163  1
  Ga  Ga8  1  0.994869  0.658746  0.574795  1
  Ga  Ga9  1  0.341254  0.005131  0.425205  1
  Ga  Ga10  1  0.006072  0.341566  0.425004  1
  Ga  Ga11  1  0.658434  0.993928  0.574996  1
  Ga  Ga12  1  0.658900  0.993206  0.925295  1
  Ga  Ga13  1  0.339711  0.003920  0.074837  1
  Ga  Ga14  1  0.343670  0.343812  0.560057  1
  Ga  Ga15  1  0.656188  0.656330  0.439943  1
  Ga  Ga16  1  0.657675  0.659612  0.060059  1
  Ga  Ga17  1  0.340388  0.342325  0.939941  1
  Ga  Ga18  1  0.334963  0.547827  0.249442  1
  Ga  Ga19  1  0.665331  0.453223  0.749142  1
  Ga  Ga20  1  0.546778  0.334669  0.250858  1
  Ga  Ga21  1  0.452172  0.665037  0.750558  1
  Ir  Ir22  1  0.672526  0.327474  0.000000  1
  Pd  Pd23  1  0.000034  0.999966  0.000000  1
  Pd  Pd24  1  0.999876  0.000124  0.500000  1
  Ru  Ru25  1  0.327499  0.672501  0.000000  1
  Ru  Ru26  1  0.327538  0.672462  0.500000  1
  Ru  Ru27  1  0.672640  0.327360  0.500000  1
