# generated using pymatgen
data_TbNd2Zr(NiAs)4
_symmetry_space_group_name_H-M   'P 1'
_cell_length_a   4.06377700
_cell_length_b   4.06377715
_cell_length_c   15.62881700
_cell_angle_alpha   90.00000000
_cell_angle_beta   90.00000000
_cell_angle_gamma   120.00000693
_symmetry_Int_Tables_number   1
_chemical_formula_structural   TbNd2Zr(NiAs)4
_chemical_formula_sum   'Tb1 Nd2 Zr1 Ni4 As4'
_cell_volume   223.52003625
_cell_formula_units_Z   1
loop_
 _symmetry_equiv_pos_site_id
 _symmetry_equiv_pos_as_xyz
  1  'x, y, z'
loop_
 _atom_site_type_symbol
 _atom_site_label
 _atom_site_symmetry_multiplicity
 _atom_site_fract_x
 _atom_site_fract_y
 _atom_site_fract_z
 _atom_site_occupancy
  Tb  Tb0  1  0.000000  0.000000  0.750000  1
  Nd  Nd1  1  0.000000  0.000000  0.007414  1
  Nd  Nd2  1  0.000000  0.000000  0.492586  1
  Zr  Zr3  1  0.000000  0.000000  0.250000  1
  Ni  Ni4  1  0.333333  0.666667  0.161818  1
  Ni  Ni5  1  0.666667  0.333333  0.868102  1
  Ni  Ni6  1  0.666667  0.333333  0.631898  1
  Ni  Ni7  1  0.333333  0.666667  0.338182  1
  As  As8  1  0.333333  0.666667  0.621930  1
  As  As9  1  0.666667  0.333333  0.370613  1
  As  As10  1  0.666667  0.333333  0.129387  1
  As  As11  1  0.333333  0.666667  0.878070  1
