# generated using pymatgen
data_Ho8Er2Si5P
_symmetry_space_group_name_H-M   'P 1'
_cell_length_a   8.36164900
_cell_length_b   8.36797586
_cell_length_c   6.26473202
_cell_angle_alpha   90.00758019
_cell_angle_beta   90.00000000
_cell_angle_gamma   119.97498038
_symmetry_Int_Tables_number   1
_chemical_formula_structural   Ho8Er2Si5P
_chemical_formula_sum   'Ho8 Er2 Si5 P1'
_cell_volume   379.71251651
_cell_formula_units_Z   1
loop_
 _symmetry_equiv_pos_site_id
 _symmetry_equiv_pos_as_xyz
  1  'x, y, z'
loop_
 _atom_site_type_symbol
 _atom_site_label
 _atom_site_symmetry_multiplicity
 _atom_site_fract_x
 _atom_site_fract_y
 _atom_site_fract_z
 _atom_site_occupancy
  Ho  Ho0  1  0.000986  0.757138  0.750031  1
  Ho  Ho1  1  0.000769  0.243955  0.250007  1
  Ho  Ho2  1  0.756814  0.756045  0.249993  1
  Ho  Ho3  1  0.755584  0.000000  0.750000  1
  Ho  Ho4  1  0.243847  0.242862  0.749969  1
  Ho  Ho5  1  0.243312  0.000000  0.250000  1
  Ho  Ho6  1  0.333684  0.667380  0.500431  1
  Ho  Ho7  1  0.666305  0.332620  0.999569  1
  Er  Er8  1  0.666402  0.332787  0.500289  1
  Er  Er9  1  0.333614  0.667213  0.999711  1
  Si  Si10  1  0.394612  0.394071  0.250020  1
  Si  Si11  1  0.000541  0.605929  0.249980  1
  Si  Si12  1  0.000093  0.394071  0.750005  1
  Si  Si13  1  0.606024  0.605929  0.749995  1
  Si  Si14  1  0.606555  0.000000  0.250000  1
  P  P15  1  0.390861  0.000000  0.750000  1
