# generated using pymatgen
data_Tm12Fe3AgAu
_symmetry_space_group_name_H-M   'P 1'
_cell_length_a   8.12687652
_cell_length_b   8.12687666
_cell_length_c   8.12687611
_cell_angle_alpha   108.36737692
_cell_angle_beta   108.63251685
_cell_angle_gamma   111.43183305
_symmetry_Int_Tables_number   1
_chemical_formula_structural   Tm12Fe3AgAu
_chemical_formula_sum   'Tm12 Fe3 Ag1 Au1'
_cell_volume   412.82296222
_cell_formula_units_Z   1
loop_
 _symmetry_equiv_pos_site_id
 _symmetry_equiv_pos_as_xyz
  1  'x, y, z'
loop_
 _atom_site_type_symbol
 _atom_site_label
 _atom_site_symmetry_multiplicity
 _atom_site_fract_x
 _atom_site_fract_y
 _atom_site_fract_z
 _atom_site_occupancy
  Tm  Tm0  1  0.187994  0.428287  0.240293  1
  Tm  Tm1  1  0.812006  0.571713  0.759707  1
  Tm  Tm2  1  0.187994  0.947702  0.759707  1
  Tm  Tm3  1  0.944216  0.188935  0.755281  1
  Tm  Tm4  1  0.812006  0.052298  0.240293  1
  Tm  Tm5  1  0.055784  0.811065  0.244719  1
  Tm  Tm6  1  0.433654  0.188935  0.244719  1
  Tm  Tm7  1  0.566346  0.811065  0.755281  1
  Tm  Tm8  1  0.312931  0.308300  0.621231  1
  Tm  Tm9  1  0.687069  0.691700  0.378769  1
  Tm  Tm10  1  0.687069  0.308300  0.995370  1
  Tm  Tm11  1  0.312931  0.691700  0.004630  1
  Fe  Fe12  1  0.378856  0.378856  0.000000  1
  Fe  Fe13  1  0.621144  0.621144  0.000000  1
  Fe  Fe14  1  0.000000  0.000000  0.000000  1
  Ag  Ag15  1  0.000000  0.500000  0.500000  1
  Au  Au16  1  0.500000  0.000000  0.500000  1
