# generated using pymatgen
data_LaY7Al8
_symmetry_space_group_name_H-M   'P 1'
_cell_length_a   5.64729300
_cell_length_b   5.90244557
_cell_length_c   11.54899135
_cell_angle_alpha   90.19349882
_cell_angle_beta   90.00000000
_cell_angle_gamma   90.00000000
_symmetry_Int_Tables_number   1
_chemical_formula_structural   LaY7Al8
_chemical_formula_sum   'La1 Y7 Al8'
_cell_volume   384.95848035
_cell_formula_units_Z   1
loop_
 _symmetry_equiv_pos_site_id
 _symmetry_equiv_pos_as_xyz
  1  'x, y, z'
loop_
 _atom_site_type_symbol
 _atom_site_label
 _atom_site_symmetry_multiplicity
 _atom_site_fract_x
 _atom_site_fract_y
 _atom_site_fract_z
 _atom_site_occupancy
  La  La0  1  0.750000  0.590059  0.665703  1
  Y  Y1  1  0.750000  0.162209  0.481910  1
  Y  Y2  1  0.250000  0.843345  0.512751  1
  Y  Y3  1  0.250000  0.161020  0.016077  1
  Y  Y4  1  0.750000  0.838672  0.986298  1
  Y  Y5  1  0.750000  0.395113  0.167898  1
  Y  Y6  1  0.250000  0.605350  0.832854  1
  Y  Y7  1  0.250000  0.396755  0.333250  1
  Al  Al8  1  0.499555  0.931030  0.249238  1
  Al  Al9  1  0.001169  0.073986  0.752596  1
  Al  Al10  1  0.498831  0.073986  0.752596  1
  Al  Al11  1  0.000445  0.931030  0.249238  1
  Al  Al12  1  0.750000  0.663666  0.396933  1
  Al  Al13  1  0.250000  0.336828  0.596770  1
  Al  Al14  1  0.250000  0.660177  0.099698  1
  Al  Al15  1  0.750000  0.336773  0.906189  1
