# generated using pymatgen
data_Pr9Nd5Th2Mg2(CdIr2)2
_symmetry_space_group_name_H-M   'P 1'
_cell_length_a   10.03370112
_cell_length_b   10.03022942
_cell_length_c   10.07594874
_cell_angle_alpha   59.84986756
_cell_angle_beta   59.90249789
_cell_angle_gamma   60.22333455
_symmetry_Int_Tables_number   1
_chemical_formula_structural   Pr9Nd5Th2Mg2(CdIr2)2
_chemical_formula_sum   'Pr9 Nd5 Th2 Mg2 Cd2 Ir4'
_cell_volume   716.88975073
_cell_formula_units_Z   1
loop_
 _symmetry_equiv_pos_site_id
 _symmetry_equiv_pos_as_xyz
  1  'x, y, z'
loop_
 _atom_site_type_symbol
 _atom_site_label
 _atom_site_symmetry_multiplicity
 _atom_site_fract_x
 _atom_site_fract_y
 _atom_site_fract_z
 _atom_site_occupancy
  Pr  Pr0  1  0.810857  0.188179  0.810208  1
  Pr  Pr1  1  0.187857  0.187121  0.812992  1
  Pr  Pr2  1  0.807027  0.806766  0.191147  1
  Pr  Pr3  1  0.943555  0.560675  0.562814  1
  Pr  Pr4  1  0.558030  0.941277  0.937677  1
  Pr  Pr5  1  0.560432  0.943025  0.563126  1
  Pr  Pr6  1  0.941391  0.558595  0.937127  1
  Pr  Pr7  1  0.560730  0.561216  0.940372  1
  Pr  Pr8  1  0.939283  0.938906  0.558232  1
  Nd  Nd9  1  0.349402  0.952633  0.349540  1
  Nd  Nd10  1  0.952873  0.349596  0.349011  1
  Nd  Nd11  1  0.810393  0.190215  0.188804  1
  Nd  Nd12  1  0.188874  0.810493  0.810047  1
  Nd  Nd13  1  0.190248  0.810547  0.188240  1
  Th  Th14  1  0.343096  0.343126  0.346085  1
  Th  Th15  1  0.343968  0.344729  0.966222  1
  Mg  Mg16  1  0.578036  0.268236  0.575897  1
  Mg  Mg17  1  0.268129  0.578204  0.576206  1
  Cd  Cd18  1  0.579228  0.579768  0.583286  1
  Cd  Cd19  1  0.579081  0.579061  0.258066  1
  Ir  Ir20  1  0.145119  0.145391  0.140431  1
  Ir  Ir21  1  0.145571  0.144449  0.570134  1
  Ir  Ir22  1  0.151445  0.566239  0.141609  1
  Ir  Ir23  1  0.565375  0.151555  0.142726  1
