# generated using pymatgen
data_La2Mg3PaRh3
_symmetry_space_group_name_H-M   'P 1'
_cell_length_a   7.54097284
_cell_length_b   7.35623570
_cell_length_c   8.33201500
_cell_angle_alpha   90.00000000
_cell_angle_beta   90.00000000
_cell_angle_gamma   119.19816709
_symmetry_Int_Tables_number   1
_chemical_formula_structural   La2Mg3PaRh3
_chemical_formula_sum   'La4 Mg6 Pa2 Rh6'
_cell_volume   403.47469099
_cell_formula_units_Z   2
loop_
 _symmetry_equiv_pos_site_id
 _symmetry_equiv_pos_as_xyz
  1  'x, y, z'
loop_
 _atom_site_type_symbol
 _atom_site_label
 _atom_site_symmetry_multiplicity
 _atom_site_fract_x
 _atom_site_fract_y
 _atom_site_fract_z
 _atom_site_occupancy
  La  La0  1  0.584934  0.999890  0.750000  1
  La  La1  1  0.414756  0.414736  0.750000  1
  La  La2  1  0.999515  0.590209  0.750000  1
  La  La3  1  0.999446  0.582801  0.250000  1
  Mg  Mg4  1  0.233760  0.000618  0.005659  1
  Mg  Mg5  1  0.766244  0.767141  0.494564  1
  Mg  Mg6  1  0.000114  0.242506  0.503016  1
  Mg  Mg7  1  0.000114  0.242506  0.996984  1
  Mg  Mg8  1  0.766244  0.767141  0.005436  1
  Mg  Mg9  1  0.233760  0.000618  0.494341  1
  Pa  Pa10  1  0.586763  0.004513  0.250000  1
  Pa  Pa11  1  0.413860  0.417910  0.250000  1
  Rh  Rh12  1  0.638684  0.306893  0.033514  1
  Rh  Rh13  1  0.638684  0.306893  0.466486  1
  Rh  Rh14  1  0.361513  0.668324  0.034504  1
  Rh  Rh15  1  0.361513  0.668324  0.465496  1
  Rh  Rh16  1  0.000272  0.994633  0.750000  1
  Rh  Rh17  1  0.999822  0.024343  0.250000  1
