# generated using pymatgen
data_Cs4YNbBr12
_symmetry_space_group_name_H-M   'P 1'
_cell_length_a   13.56090859
_cell_length_b   13.56090842
_cell_length_c   13.56090000
_cell_angle_alpha   131.65836523
_cell_angle_beta   131.65837026
_cell_angle_gamma   70.76930804
_symmetry_Int_Tables_number   1
_chemical_formula_structural   Cs4YNbBr12
_chemical_formula_sum   'Cs8 Y2 Nb2 Br24'
_cell_volume   1363.49630411
_cell_formula_units_Z   2
loop_
 _symmetry_equiv_pos_site_id
 _symmetry_equiv_pos_as_xyz
  1  'x, y, z'
loop_
 _atom_site_type_symbol
 _atom_site_label
 _atom_site_symmetry_multiplicity
 _atom_site_fract_x
 _atom_site_fract_y
 _atom_site_fract_z
 _atom_site_occupancy
  Cs  Cs0  1  0.375000  0.846708  0.971713  1
  Cs  Cs1  1  0.596708  0.624999  0.471712  1
  Cs  Cs2  1  0.875001  0.846709  0.471701  1
  Cs  Cs3  1  0.596708  0.125001  0.971701  1
  Cs  Cs4  1  0.874999  0.403292  0.028299  1
  Cs  Cs5  1  0.153291  0.124999  0.528299  1
  Cs  Cs6  1  0.375001  0.403292  0.528288  1
  Cs  Cs7  1  0.153292  0.625000  0.028287  1
  Y  Y8  1  0.500005  0.499995  0.000000  1
  Y  Y9  1  0.249998  0.750002  0.500000  1
  Nb  Nb10  1  0.999999  0.000001  0.000000  1
  Nb  Nb11  1  0.750001  0.249999  0.500000  1
  Br  Br12  1  0.746892  0.494873  0.252024  1
  Br  Br13  1  0.505127  0.253108  0.747976  1
  Br  Br14  1  0.373337  0.373335  0.000009  1
  Br  Br15  1  0.123335  0.623337  0.500009  1
  Br  Br16  1  0.376663  0.876665  0.499991  1
  Br  Br17  1  0.626665  0.626663  0.999991  1
  Br  Br18  1  0.115158  0.115153  0.999963  1
  Br  Br19  1  0.865153  0.365158  0.499963  1
  Br  Br20  1  0.634842  0.134847  0.500037  1
  Br  Br21  1  0.884847  0.884842  0.000037  1
  Br  Br22  1  0.231673  0.001875  0.229811  1
  Br  Br23  1  0.751887  0.022083  0.270195  1
  Br  Br24  1  0.505101  0.757109  0.252022  1
  Br  Br25  1  0.518326  0.248125  0.270188  1
  Br  Br26  1  0.977917  0.248113  0.729805  1
  Br  Br27  1  0.998112  0.227917  0.229804  1
  Br  Br28  1  0.998125  0.768327  0.770189  1
  Br  Br29  1  0.772083  0.001888  0.770196  1
  Br  Br30  1  0.751875  0.481674  0.729812  1
  Br  Br31  1  0.244898  0.492891  0.247977  1
  Br  Br32  1  0.244872  0.996892  0.752023  1
  Br  Br33  1  0.003108  0.755128  0.247977  1
  Br  Br34  1  0.507109  0.755102  0.752023  1
  Br  Br35  1  0.242891  0.494899  0.747978  1
