# generated using pymatgen
data_Ca7La9Mg3AlIr4
_symmetry_space_group_name_H-M   'P 1'
_cell_length_a   10.14257193
_cell_length_b   10.14257207
_cell_length_c   10.11491163
_cell_angle_alpha   60.19483224
_cell_angle_beta   60.19482816
_cell_angle_gamma   60.66600990
_symmetry_Int_Tables_number   1
_chemical_formula_structural   Ca7La9Mg3AlIr4
_chemical_formula_sum   'Ca7 La9 Mg3 Al1 Ir4'
_cell_volume   741.59586599
_cell_formula_units_Z   1
loop_
 _symmetry_equiv_pos_site_id
 _symmetry_equiv_pos_as_xyz
  1  'x, y, z'
loop_
 _atom_site_type_symbol
 _atom_site_label
 _atom_site_symmetry_multiplicity
 _atom_site_fract_x
 _atom_site_fract_y
 _atom_site_fract_z
 _atom_site_occupancy
  Ca  Ca0  1  0.803402  0.803402  0.199288  1
  Ca  Ca1  1  0.932633  0.562042  0.561709  1
  Ca  Ca2  1  0.559238  0.938039  0.938994  1
  Ca  Ca3  1  0.562042  0.932633  0.561709  1
  Ca  Ca4  1  0.938039  0.559238  0.938994  1
  Ca  Ca5  1  0.558703  0.558703  0.936609  1
  Ca  Ca6  1  0.941807  0.941807  0.556929  1
  La  La7  1  0.345478  0.345478  0.345429  1
  La  La8  1  0.346824  0.346824  0.961674  1
  La  La9  1  0.347895  0.963843  0.345324  1
  La  La10  1  0.963843  0.347895  0.345324  1
  La  La11  1  0.807988  0.189090  0.189875  1
  La  La12  1  0.193486  0.803664  0.809013  1
  La  La13  1  0.189090  0.807988  0.189875  1
  La  La14  1  0.803664  0.193486  0.809013  1
  La  La15  1  0.190139  0.190139  0.809171  1
  Mg  Mg16  1  0.577090  0.577090  0.275121  1
  Mg  Mg17  1  0.578908  0.273257  0.577011  1
  Mg  Mg18  1  0.273257  0.578908  0.577011  1
  Al  Al19  1  0.578256  0.578256  0.579935  1
  Ir  Ir20  1  0.138339  0.138339  0.140719  1
  Ir  Ir21  1  0.138690  0.138690  0.580839  1
  Ir  Ir22  1  0.152226  0.578962  0.135218  1
  Ir  Ir23  1  0.578962  0.152226  0.135218  1
