# generated using pymatgen
data_Gd3MgSn3Rh2
_symmetry_space_group_name_H-M   'P 1'
_cell_length_a   7.59091000
_cell_length_b   7.59091045
_cell_length_c   3.90654300
_cell_angle_alpha   90.00000000
_cell_angle_beta   90.00000000
_cell_angle_gamma   119.99998930
_symmetry_Int_Tables_number   1
_chemical_formula_structural   Gd3MgSn3Rh2
_chemical_formula_sum   'Gd3 Mg1 Sn3 Rh2'
_cell_volume   194.94450509
_cell_formula_units_Z   1
loop_
 _symmetry_equiv_pos_site_id
 _symmetry_equiv_pos_as_xyz
  1  'x, y, z'
loop_
 _atom_site_type_symbol
 _atom_site_label
 _atom_site_symmetry_multiplicity
 _atom_site_fract_x
 _atom_site_fract_y
 _atom_site_fract_z
 _atom_site_occupancy
  Gd  Gd0  1  0.388205  0.413989  0.500000  1
  Gd  Gd1  1  0.586011  0.974215  0.500000  1
  Gd  Gd2  1  0.025785  0.611795  0.500000  1
  Mg  Mg3  1  0.666667  0.333333  0.000000  1
  Sn  Sn4  1  0.745777  0.743293  0.000000  1
  Sn  Sn5  1  0.256707  0.002484  0.000000  1
  Sn  Sn6  1  0.997516  0.254223  0.000000  1
  Rh  Rh7  1  0.333333  0.666667  0.000000  1
  Rh  Rh8  1  0.000000  0.000000  0.500000  1
