# generated using pymatgen
data_Hf3Zr3AlBiPb
_symmetry_space_group_name_H-M   'P 1'
_cell_length_a   3.97636700
_cell_length_b   7.72401699
_cell_length_c   7.71929908
_cell_angle_alpha   119.99673822
_cell_angle_beta   90.00000000
_cell_angle_gamma   90.00000000
_symmetry_Int_Tables_number   1
_chemical_formula_structural   Hf3Zr3AlBiPb
_chemical_formula_sum   'Hf3 Zr3 Al1 Bi1 Pb1'
_cell_volume   205.33002232
_cell_formula_units_Z   1
loop_
 _symmetry_equiv_pos_site_id
 _symmetry_equiv_pos_as_xyz
  1  'x, y, z'
loop_
 _atom_site_type_symbol
 _atom_site_label
 _atom_site_symmetry_multiplicity
 _atom_site_fract_x
 _atom_site_fract_y
 _atom_site_fract_z
 _atom_site_occupancy
  Hf  Hf0  1  0.500000  0.763307  0.760471  1
  Hf  Hf1  1  0.500000  0.996940  0.236615  1
  Hf  Hf2  1  0.500000  0.239631  0.003020  1
  Zr  Zr3  1  0.000000  0.390615  0.390484  1
  Zr  Zr4  1  0.000000  0.999998  0.609356  1
  Zr  Zr5  1  0.000000  0.609511  0.000044  1
  Al  Al6  1  0.000000  0.999992  0.999928  1
  Bi  Bi7  1  0.500000  0.333311  0.666661  1
  Pb  Pb8  1  0.500000  0.666695  0.333421  1
