# generated using pymatgen
data_Tm3AlIn2Ga2Pt
_symmetry_space_group_name_H-M   'P 1'
_cell_length_a   7.14887325
_cell_length_b   7.03662028
_cell_length_c   4.34034200
_cell_angle_alpha   90.00000000
_cell_angle_beta   90.00000000
_cell_angle_gamma   119.48191607
_symmetry_Int_Tables_number   1
_chemical_formula_structural   Tm3AlIn2Ga2Pt
_chemical_formula_sum   'Tm3 Al1 In2 Ga2 Pt1'
_cell_volume   190.06404339
_cell_formula_units_Z   1
loop_
 _symmetry_equiv_pos_site_id
 _symmetry_equiv_pos_as_xyz
  1  'x, y, z'
loop_
 _atom_site_type_symbol
 _atom_site_label
 _atom_site_symmetry_multiplicity
 _atom_site_fract_x
 _atom_site_fract_y
 _atom_site_fract_z
 _atom_site_occupancy
  Tm  Tm0  1  0.410593  0.411526  0.500000  1
  Tm  Tm1  1  0.589407  0.000933  0.500000  1
  Tm  Tm2  1  0.000000  0.582723  0.500000  1
  Al  Al3  1  0.000000  0.239359  0.000000  1
  In  In4  1  0.748256  0.752347  0.000000  1
  In  In5  1  0.251744  0.004091  0.000000  1
  Ga  Ga6  1  0.678991  0.331589  0.000000  1
  Ga  Ga7  1  0.321009  0.652599  0.000000  1
  Pt  Pt8  1  0.000000  0.024833  0.500000  1
