# generated using pymatgen
data_Ac3(AgGe2)2
_symmetry_space_group_name_H-M   'P 1'
_cell_length_a   6.34402879
_cell_length_b   6.34402927
_cell_length_c   8.95979303
_cell_angle_alpha   79.35053666
_cell_angle_beta   79.35053441
_cell_angle_gamma   42.10890778
_symmetry_Int_Tables_number   1
_chemical_formula_structural   Ac3(AgGe2)2
_chemical_formula_sum   'Ac3 Ag2 Ge4'
_cell_volume   237.01077259
_cell_formula_units_Z   1
loop_
 _symmetry_equiv_pos_site_id
 _symmetry_equiv_pos_as_xyz
  1  'x, y, z'
loop_
 _atom_site_type_symbol
 _atom_site_label
 _atom_site_symmetry_multiplicity
 _atom_site_fract_x
 _atom_site_fract_y
 _atom_site_fract_z
 _atom_site_occupancy
  Ac  Ac0  1  0.662673  0.662673  0.330884  1
  Ac  Ac1  1  0.000000  0.000000  0.000000  1
  Ac  Ac2  1  0.337327  0.337327  0.669116  1
  Ag  Ag3  1  0.388763  0.388763  0.279983  1
  Ag  Ag4  1  0.611237  0.611237  0.720017  1
  Ge  Ge5  1  0.715444  0.715444  0.951027  1
  Ge  Ge6  1  0.061132  0.061132  0.604427  1
  Ge  Ge7  1  0.284556  0.284556  0.048973  1
  Ge  Ge8  1  0.938868  0.938868  0.395573  1
