# generated using pymatgen
data_AgBi3PdRu2RhO14
_symmetry_space_group_name_H-M   'P 1'
_cell_length_a   7.39485370
_cell_length_b   7.22333552
_cell_length_c   7.38321100
_cell_angle_alpha   58.95065366
_cell_angle_beta   59.94781676
_cell_angle_gamma   59.21136360
_symmetry_Int_Tables_number   1
_chemical_formula_structural   AgBi3PdRu2RhO14
_chemical_formula_sum   'Ag1 Bi3 Pd1 Ru2 Rh1 O14'
_cell_volume   274.82241517
_cell_formula_units_Z   1
loop_
 _symmetry_equiv_pos_site_id
 _symmetry_equiv_pos_as_xyz
  1  'x, y, z'
loop_
 _atom_site_type_symbol
 _atom_site_label
 _atom_site_symmetry_multiplicity
 _atom_site_fract_x
 _atom_site_fract_y
 _atom_site_fract_z
 _atom_site_occupancy
  Ag  Ag0  1  0.125000  0.625000  0.125000  1
  Bi  Bi1  1  0.125000  0.125000  0.125000  1
  Bi  Bi2  1  0.625000  0.125000  0.125000  1
  Bi  Bi3  1  0.125000  0.125000  0.625000  1
  Pd  Pd4  1  0.625000  0.125000  0.625000  1
  Ru  Ru5  1  0.625000  0.625000  0.625000  1
  Ru  Ru6  1  0.125000  0.625000  0.625000  1
  Rh  Rh7  1  0.625000  0.625000  0.125000  1
  O  O8  1  0.245796  0.263259  0.245146  1
  O  O9  1  0.296404  0.703834  0.304921  1
  O  O10  1  0.960421  0.957747  0.543365  1
  O  O11  1  0.538468  0.957747  0.543365  1
  O  O12  1  0.694842  0.703834  0.304921  1
  O  O13  1  0.943971  0.546767  0.565290  1
  O  O14  1  0.711532  0.292253  0.706635  1
  O  O15  1  0.289579  0.292253  0.706635  1
  O  O16  1  0.712247  0.287784  0.287723  1
  O  O17  1  0.306029  0.703233  0.684710  1
  O  O18  1  0.953596  0.546166  0.945079  1
  O  O19  1  0.555158  0.546166  0.945079  1
  O  O20  1  0.004204  0.986741  0.004854  1
  O  O21  1  0.537753  0.962216  0.962277  1
