# generated using pymatgen
data_Dy7Lu(Ge4Mo3)4
_symmetry_space_group_name_H-M   'P 1'
_cell_length_a   6.93701224
_cell_length_b   7.05053133
_cell_length_c   13.13864620
_cell_angle_alpha   90.03668006
_cell_angle_beta   89.98275952
_cell_angle_gamma   90.01210771
_symmetry_Int_Tables_number   1
_chemical_formula_structural   Dy7Lu(Ge4Mo3)4
_chemical_formula_sum   'Dy7 Lu1 Ge16 Mo12'
_cell_volume   642.60604669
_cell_formula_units_Z   1
loop_
 _symmetry_equiv_pos_site_id
 _symmetry_equiv_pos_as_xyz
  1  'x, y, z'
loop_
 _atom_site_type_symbol
 _atom_site_label
 _atom_site_symmetry_multiplicity
 _atom_site_fract_x
 _atom_site_fract_y
 _atom_site_fract_z
 _atom_site_occupancy
  Dy  Dy0  1  0.488549  0.669651  0.592268  1
  Dy  Dy1  1  0.989029  0.830577  0.908004  1
  Dy  Dy2  1  0.511622  0.330465  0.092295  1
  Dy  Dy3  1  0.010993  0.169673  0.408481  1
  Dy  Dy4  1  0.510918  0.329936  0.408582  1
  Dy  Dy5  1  0.011255  0.169842  0.092272  1
  Dy  Dy6  1  0.488284  0.669725  0.906899  1
  Lu  Lu7  1  0.986719  0.829086  0.592233  1
  Ge  Ge8  1  0.670871  0.953172  0.452666  1
  Ge  Ge9  1  0.170352  0.546745  0.048130  1
  Ge  Ge10  1  0.330659  0.047429  0.951264  1
  Ge  Ge11  1  0.830712  0.454782  0.548550  1
  Ge  Ge12  1  0.326835  0.044944  0.548677  1
  Ge  Ge13  1  0.829817  0.453299  0.951467  1
  Ge  Ge14  1  0.669787  0.952896  0.048319  1
  Ge  Ge15  1  0.169527  0.547792  0.452409  1
  Ge  Ge16  1  0.468525  0.366471  0.749652  1
  Ge  Ge17  1  0.968924  0.131299  0.748785  1
  Ge  Ge18  1  0.532056  0.632959  0.250316  1
  Ge  Ge19  1  0.032004  0.867469  0.250305  1
  Ge  Ge20  1  0.689603  0.855344  0.749274  1
  Ge  Ge21  1  0.186195  0.645682  0.748649  1
  Ge  Ge22  1  0.312002  0.144480  0.250373  1
  Ge  Ge23  1  0.812071  0.356115  0.250700  1
  Mo  Mo24  1  0.669114  0.154930  0.626640  1
  Mo  Mo25  1  0.167982  0.344364  0.872056  1
  Mo  Mo26  1  0.331645  0.844428  0.127063  1
  Mo  Mo27  1  0.831860  0.656747  0.373784  1
  Mo  Mo28  1  0.331538  0.844198  0.373271  1
  Mo  Mo29  1  0.832037  0.655940  0.127404  1
  Mo  Mo30  1  0.669508  0.155425  0.872441  1
  Mo  Mo31  1  0.168799  0.344396  0.626852  1
  Mo  Mo32  1  0.832731  0.494515  0.749603  1
  Mo  Mo33  1  0.332495  0.004695  0.749476  1
  Mo  Mo34  1  0.167568  0.505815  0.250331  1
  Mo  Mo35  1  0.667413  0.994713  0.250511  1
