# generated using pymatgen
data_Lu6Fe4Co19
_symmetry_space_group_name_H-M   'P 1'
_cell_length_a   8.26642908
_cell_length_b   8.28859631
_cell_length_c   8.26642995
_cell_angle_alpha   119.77538324
_cell_angle_beta   90.24352056
_cell_angle_gamma   119.77538535
_symmetry_Int_Tables_number   1
_chemical_formula_structural   Lu6Fe4Co19
_chemical_formula_sum   'Lu6 Fe4 Co19'
_cell_volume   402.36157259
_cell_formula_units_Z   1
loop_
 _symmetry_equiv_pos_site_id
 _symmetry_equiv_pos_as_xyz
  1  'x, y, z'
loop_
 _atom_site_type_symbol
 _atom_site_label
 _atom_site_symmetry_multiplicity
 _atom_site_fract_x
 _atom_site_fract_y
 _atom_site_fract_z
 _atom_site_occupancy
  Lu  Lu0  1  0.285841  0.998614  0.285841  1
  Lu  Lu1  1  0.712005  0.000000  0.287994  1
  Lu  Lu2  1  0.288351  0.578579  0.288351  1
  Lu  Lu3  1  0.287994  0.000000  0.712005  1
  Lu  Lu4  1  0.711648  0.421420  0.711648  1
  Lu  Lu5  1  0.714159  0.001386  0.714159  1
  Fe  Fe6  1  0.000000  0.000000  0.000000  1
  Fe  Fe7  1  0.500001  0.500001  0.000000  1
  Fe  Fe8  1  0.000000  0.500001  0.500001  1
  Fe  Fe9  1  0.500001  0.500001  0.500001  1
  Co  Co10  1  0.500001  0.000000  0.000000  1
  Co  Co11  1  0.000000  0.500001  0.000000  1
  Co  Co12  1  0.676474  0.351666  0.028877  1
  Co  Co13  1  0.876752  0.753621  0.122752  1
  Co  Co14  1  0.366836  0.244608  0.122051  1
  Co  Co15  1  0.877247  0.246378  0.123247  1
  Co  Co16  1  0.674778  0.350693  0.322873  1
  Co  Co17  1  0.677128  0.649308  0.325223  1
  Co  Co18  1  0.971124  0.648335  0.323527  1
  Co  Co19  1  0.122051  0.244608  0.366836  1
  Co  Co20  1  0.000000  0.000000  0.500001  1
  Co  Co21  1  0.877948  0.755391  0.633164  1
  Co  Co22  1  0.028877  0.351666  0.676474  1
  Co  Co23  1  0.322873  0.350693  0.674778  1
  Co  Co24  1  0.325223  0.649308  0.677128  1
  Co  Co25  1  0.123247  0.246378  0.877247  1
  Co  Co26  1  0.122752  0.753621  0.876752  1
  Co  Co27  1  0.633164  0.755391  0.877948  1
  Co  Co28  1  0.323527  0.648335  0.971124  1
