# generated using pymatgen
data_Tb3SmFe8(PRh)12
_symmetry_space_group_name_H-M   'P 1'
_cell_length_a   3.81880400
_cell_length_b   10.58517810
_cell_length_c   12.30037712
_cell_angle_alpha   90.01608792
_cell_angle_beta   90.00000000
_cell_angle_gamma   90.00000000
_symmetry_Int_Tables_number   1
_chemical_formula_structural   Tb3SmFe8(PRh)12
_chemical_formula_sum   'Tb3 Sm1 Fe8 P12 Rh12'
_cell_volume   497.21468664
_cell_formula_units_Z   1
loop_
 _symmetry_equiv_pos_site_id
 _symmetry_equiv_pos_as_xyz
  1  'x, y, z'
loop_
 _atom_site_type_symbol
 _atom_site_label
 _atom_site_symmetry_multiplicity
 _atom_site_fract_x
 _atom_site_fract_y
 _atom_site_fract_z
 _atom_site_occupancy
  Tb  Tb0  1  0.250000  0.921279  0.210094  1
  Tb  Tb1  1  0.750000  0.421061  0.290027  1
  Tb  Tb2  1  0.750000  0.078908  0.790007  1
  Sm  Sm3  1  0.250000  0.578864  0.709957  1
  Fe  Fe4  1  0.250000  0.876571  0.698067  1
  Fe  Fe5  1  0.250000  0.623999  0.198281  1
  Fe  Fe6  1  0.750000  0.124013  0.301827  1
  Fe  Fe7  1  0.750000  0.375163  0.802271  1
  Fe  Fe8  1  0.250000  0.458729  0.935308  1
  Fe  Fe9  1  0.250000  0.040872  0.434577  1
  Fe  Fe10  1  0.750000  0.540879  0.065660  1
  Fe  Fe11  1  0.750000  0.959540  0.565110  1
  P  P12  1  0.250000  0.440860  0.111694  1
  P  P13  1  0.250000  0.059178  0.611245  1
  P  P14  1  0.750000  0.558843  0.889572  1
  P  P15  1  0.750000  0.940995  0.388561  1
  P  P16  1  0.250000  0.272950  0.864032  1
  P  P17  1  0.250000  0.226891  0.363979  1
  P  P18  1  0.750000  0.727098  0.136020  1
  P  P19  1  0.750000  0.774057  0.635607  1
  P  P20  1  0.250000  0.602344  0.381200  1
  P  P21  1  0.250000  0.897716  0.881136  1
  P  P22  1  0.750000  0.396439  0.618282  1
  P  P23  1  0.750000  0.102356  0.118926  1
  Rh  Rh24  1  0.250000  0.713678  0.990972  1
  Rh  Rh25  1  0.250000  0.786426  0.490715  1
  Rh  Rh26  1  0.750000  0.286101  0.009147  1
  Rh  Rh27  1  0.750000  0.213593  0.508880  1
  Rh  Rh28  1  0.250000  0.407609  0.479302  1
  Rh  Rh29  1  0.250000  0.092081  0.979498  1
  Rh  Rh30  1  0.750000  0.592005  0.518968  1
  Rh  Rh31  1  0.750000  0.907984  0.020678  1
  Rh  Rh32  1  0.250000  0.232041  0.173929  1
  Rh  Rh33  1  0.250000  0.267569  0.673911  1
  Rh  Rh34  1  0.750000  0.768960  0.826590  1
  Rh  Rh35  1  0.750000  0.732350  0.325972  1
