# generated using pymatgen
data_DyHo2Lu2CoSb2
_symmetry_space_group_name_H-M   'P 1'
_cell_length_a   7.75954500
_cell_length_b   8.76319300
_cell_length_c   12.11788500
_cell_angle_alpha   90.00000000
_cell_angle_beta   90.00000000
_cell_angle_gamma   90.00000000
_symmetry_Int_Tables_number   1
_chemical_formula_structural   DyHo2Lu2CoSb2
_chemical_formula_sum   'Dy4 Ho8 Lu8 Co4 Sb8'
_cell_volume   823.99667538
_cell_formula_units_Z   4
loop_
 _symmetry_equiv_pos_site_id
 _symmetry_equiv_pos_as_xyz
  1  'x, y, z'
loop_
 _atom_site_type_symbol
 _atom_site_label
 _atom_site_symmetry_multiplicity
 _atom_site_fract_x
 _atom_site_fract_y
 _atom_site_fract_z
 _atom_site_occupancy
  Dy  Dy0  1  0.622322  0.750000  0.308414  1
  Dy  Dy1  1  0.877678  0.750000  0.808414  1
  Dy  Dy2  1  0.377678  0.250000  0.691586  1
  Dy  Dy3  1  0.122322  0.250000  0.191586  1
  Ho  Ho4  1  0.153488  0.750000  0.203484  1
  Ho  Ho5  1  0.346512  0.750000  0.703484  1
  Ho  Ho6  1  0.846512  0.250000  0.796516  1
  Ho  Ho7  1  0.653488  0.250000  0.296516  1
  Ho  Ho8  1  0.451294  0.750000  0.997774  1
  Ho  Ho9  1  0.048706  0.750000  0.497774  1
  Ho  Ho10  1  0.548706  0.250000  0.002226  1
  Ho  Ho11  1  0.951294  0.250000  0.502226  1
  Lu  Lu12  1  0.824690  0.536017  0.064843  1
  Lu  Lu13  1  0.675310  0.963983  0.564843  1
  Lu  Lu14  1  0.175310  0.036017  0.935157  1
  Lu  Lu15  1  0.324690  0.463983  0.435157  1
  Lu  Lu16  1  0.175310  0.463983  0.935157  1
  Lu  Lu17  1  0.324690  0.036017  0.435157  1
  Lu  Lu18  1  0.824690  0.963983  0.064843  1
  Lu  Lu19  1  0.675310  0.536017  0.564843  1
  Co  Co20  1  0.435319  0.750000  0.491795  1
  Co  Co21  1  0.064681  0.750000  0.991795  1
  Co  Co22  1  0.564681  0.250000  0.508205  1
  Co  Co23  1  0.935319  0.250000  0.008205  1
  Sb  Sb24  1  0.930483  0.508038  0.327537  1
  Sb  Sb25  1  0.569517  0.991962  0.827537  1
  Sb  Sb26  1  0.069517  0.008038  0.672463  1
  Sb  Sb27  1  0.430483  0.491962  0.172463  1
  Sb  Sb28  1  0.069517  0.491962  0.672463  1
  Sb  Sb29  1  0.430483  0.008038  0.172463  1
  Sb  Sb30  1  0.930483  0.991962  0.327537  1
  Sb  Sb31  1  0.569517  0.508038  0.827537  1
