# generated using pymatgen
data_Hf18Ta5As2W3
_symmetry_space_group_name_H-M   'P 1'
_cell_length_a   8.72630609
_cell_length_b   8.76662392
_cell_length_c   8.85166300
_cell_angle_alpha   90.00000000
_cell_angle_beta   90.00000000
_cell_angle_gamma   120.15295238
_symmetry_Int_Tables_number   1
_chemical_formula_structural   Hf18Ta5As2W3
_chemical_formula_sum   'Hf18 Ta5 As2 W3'
_cell_volume   585.52696489
_cell_formula_units_Z   1
loop_
 _symmetry_equiv_pos_site_id
 _symmetry_equiv_pos_as_xyz
  1  'x, y, z'
loop_
 _atom_site_type_symbol
 _atom_site_label
 _atom_site_symmetry_multiplicity
 _atom_site_fract_x
 _atom_site_fract_y
 _atom_site_fract_z
 _atom_site_occupancy
  Hf  Hf0  1  0.196976  0.393548  0.045907  1
  Hf  Hf1  1  0.803567  0.607023  0.547607  1
  Hf  Hf2  1  0.607482  0.803741  0.044004  1
  Hf  Hf3  1  0.196976  0.803427  0.045907  1
  Hf  Hf4  1  0.803567  0.196545  0.547607  1
  Hf  Hf5  1  0.393185  0.196593  0.546247  1
  Hf  Hf6  1  0.803567  0.607023  0.952393  1
  Hf  Hf7  1  0.803567  0.196545  0.952393  1
  Hf  Hf8  1  0.393185  0.196593  0.953753  1
  Hf  Hf9  1  0.607482  0.803741  0.455996  1
  Hf  Hf10  1  0.196976  0.803427  0.454093  1
  Hf  Hf11  1  0.196976  0.393548  0.454093  1
  Hf  Hf12  1  0.539933  0.079601  0.250000  1
  Hf  Hf13  1  0.462281  0.920391  0.750000  1
  Hf  Hf14  1  0.919934  0.459966  0.250000  1
  Hf  Hf15  1  0.539933  0.460331  0.250000  1
  Hf  Hf16  1  0.462281  0.541891  0.750000  1
  Hf  Hf17  1  0.079425  0.539713  0.750000  1
  Ta  Ta18  1  0.888811  0.777861  0.250000  1
  Ta  Ta19  1  0.108389  0.221055  0.750000  1
  Ta  Ta20  1  0.221943  0.110971  0.250000  1
  Ta  Ta21  1  0.888811  0.110949  0.250000  1
  Ta  Ta22  1  0.108389  0.887335  0.750000  1
  As  As23  1  0.334277  0.667139  0.250000  1
  As  As24  1  0.666904  0.333451  0.750000  1
  W  W25  1  0.998974  0.999487  0.999103  1
  W  W26  1  0.998974  0.999487  0.500897  1
  W  W27  1  0.777231  0.888616  0.750000  1
