# generated using pymatgen
data_Nb12FeSi4Os7N4
_symmetry_space_group_name_H-M   'P 1'
_cell_length_a   8.22320372
_cell_length_b   8.22320386
_cell_length_c   8.22320468
_cell_angle_alpha   60.13947603
_cell_angle_beta   60.13947211
_cell_angle_gamma   60.13946767
_symmetry_Int_Tables_number   1
_chemical_formula_structural   Nb12FeSi4Os7N4
_chemical_formula_sum   'Nb12 Fe1 Si4 Os7 N4'
_cell_volume   394.43745689
_cell_formula_units_Z   1
loop_
 _symmetry_equiv_pos_site_id
 _symmetry_equiv_pos_as_xyz
  1  'x, y, z'
loop_
 _atom_site_type_symbol
 _atom_site_label
 _atom_site_symmetry_multiplicity
 _atom_site_fract_x
 _atom_site_fract_y
 _atom_site_fract_z
 _atom_site_occupancy
  Nb  Nb0  1  0.804883  0.804883  0.191086  1
  Nb  Nb1  1  0.196830  0.196830  0.802761  1
  Nb  Nb2  1  0.804883  0.191086  0.804883  1
  Nb  Nb3  1  0.196830  0.802761  0.196830  1
  Nb  Nb4  1  0.191086  0.804883  0.804883  1
  Nb  Nb5  1  0.802761  0.196830  0.196830  1
  Nb  Nb6  1  0.445778  0.445778  0.053465  1
  Nb  Nb7  1  0.053770  0.053770  0.445195  1
  Nb  Nb8  1  0.445778  0.053465  0.445778  1
  Nb  Nb9  1  0.053770  0.445195  0.053770  1
  Nb  Nb10  1  0.053465  0.445778  0.445778  1
  Nb  Nb11  1  0.445195  0.053770  0.053770  1
  Fe  Fe12  1  0.831689  0.831689  0.831689  1
  Si  Si13  1  0.120066  0.630187  0.630187  1
  Si  Si14  1  0.630187  0.120066  0.630187  1
  Si  Si15  1  0.630187  0.630187  0.120066  1
  Si  Si16  1  0.625024  0.625024  0.625024  1
  Os  Os17  1  0.749268  0.416824  0.416824  1
  Os  Os18  1  0.416824  0.749268  0.416824  1
  Os  Os19  1  0.416824  0.416824  0.749268  1
  Os  Os20  1  0.416785  0.416785  0.416785  1
  Os  Os21  1  0.502160  0.833639  0.833639  1
  Os  Os22  1  0.833639  0.502160  0.833639  1
  Os  Os23  1  0.833639  0.833639  0.502160  1
  N  N24  1  0.625094  0.124568  0.124568  1
  N  N25  1  0.124568  0.625094  0.124568  1
  N  N26  1  0.124568  0.124568  0.625094  1
  N  N27  1  0.124445  0.124445  0.124445  1
