# generated using pymatgen
data_Sc5As2Os
_symmetry_space_group_name_H-M   'P 1'
_cell_length_a   5.81026900
_cell_length_b   7.84763003
_cell_length_c   7.99936000
_cell_angle_alpha   119.37450955
_cell_angle_beta   90.00000000
_cell_angle_gamma   90.00000000
_symmetry_Int_Tables_number   1
_chemical_formula_structural   Sc5As2Os
_chemical_formula_sum   'Sc10 As4 Os2'
_cell_volume   317.85098953
_cell_formula_units_Z   2
loop_
 _symmetry_equiv_pos_site_id
 _symmetry_equiv_pos_as_xyz
  1  'x, y, z'
loop_
 _atom_site_type_symbol
 _atom_site_label
 _atom_site_symmetry_multiplicity
 _atom_site_fract_x
 _atom_site_fract_y
 _atom_site_fract_z
 _atom_site_occupancy
  Sc  Sc0  1  0.750000  0.250658  0.000000  1
  Sc  Sc1  1  0.249998  0.749343  0.000000  1
  Sc  Sc2  1  0.750000  0.976623  0.233339  1
  Sc  Sc3  1  0.250000  0.256715  0.233339  1
  Sc  Sc4  1  0.000000  0.662382  0.324766  1
  Sc  Sc5  1  0.500000  0.662384  0.324766  1
  Sc  Sc6  1  0.000000  0.337617  0.675235  1
  Sc  Sc7  1  0.500000  0.337619  0.675235  1
  Sc  Sc8  1  0.250000  0.023377  0.766662  1
  Sc  Sc9  1  0.750000  0.743285  0.766662  1
  As  As10  1  0.249998  0.009148  0.387846  1
  As  As11  1  0.750000  0.378698  0.387846  1
  As  As12  1  0.750000  0.990852  0.612154  1
  As  As13  1  0.249998  0.621303  0.612154  1
  Os  Os14  1  0.250000  0.409174  0.000000  1
  Os  Os15  1  0.750000  0.590827  0.000000  1
