# generated using pymatgen
data_Tb9Ho7MgTl(CdPt2)2
_symmetry_space_group_name_H-M   'P 1'
_cell_length_a   9.70586319
_cell_length_b   9.70086124
_cell_length_c   9.71101000
_cell_angle_alpha   60.03612979
_cell_angle_beta   60.08603803
_cell_angle_gamma   60.09319543
_symmetry_Int_Tables_number   1
_chemical_formula_structural   Tb9Ho7MgTl(CdPt2)2
_chemical_formula_sum   'Tb9 Ho7 Mg1 Tl1 Cd2 Pt4'
_cell_volume   647.58916352
_cell_formula_units_Z   1
loop_
 _symmetry_equiv_pos_site_id
 _symmetry_equiv_pos_as_xyz
  1  'x, y, z'
loop_
 _atom_site_type_symbol
 _atom_site_label
 _atom_site_symmetry_multiplicity
 _atom_site_fract_x
 _atom_site_fract_y
 _atom_site_fract_z
 _atom_site_occupancy
  Tb  Tb0  1  0.811297  0.190368  0.811141  1
  Tb  Tb1  1  0.190868  0.189970  0.810753  1
  Tb  Tb2  1  0.811875  0.811936  0.189912  1
  Tb  Tb3  1  0.936011  0.567305  0.565140  1
  Tb  Tb4  1  0.562934  0.939240  0.934319  1
  Tb  Tb5  1  0.566501  0.935799  0.565371  1
  Tb  Tb6  1  0.939232  0.563637  0.933870  1
  Tb  Tb7  1  0.564826  0.565546  0.935167  1
  Tb  Tb8  1  0.938652  0.938220  0.561635  1
  Ho  Ho9  1  0.348154  0.348588  0.350198  1
  Ho  Ho10  1  0.349828  0.351028  0.947897  1
  Ho  Ho11  1  0.353012  0.945009  0.352227  1
  Ho  Ho12  1  0.945867  0.353277  0.351488  1
  Ho  Ho13  1  0.808546  0.191893  0.193000  1
  Ho  Ho14  1  0.191156  0.810906  0.810867  1
  Ho  Ho15  1  0.192011  0.808797  0.192153  1
  Mg  Mg16  1  0.574624  0.574993  0.576555  1
  Tl  Tl17  1  0.583651  0.583148  0.249613  1
  Cd  Cd18  1  0.579834  0.252724  0.584053  1
  Cd  Cd19  1  0.252987  0.579379  0.584060  1
  Pt  Pt20  1  0.142008  0.142529  0.146357  1
  Pt  Pt21  1  0.141882  0.140050  0.570740  1
  Pt  Pt22  1  0.143247  0.572478  0.140907  1
  Pt  Pt23  1  0.571002  0.143181  0.142575  1
