# generated using pymatgen
data_NdU(TaS2)8
_symmetry_space_group_name_H-M   'P 1'
_cell_length_a   6.67549900
_cell_length_b   6.67549863
_cell_length_c   14.13236700
_cell_angle_alpha   90.00000000
_cell_angle_beta   90.00000000
_cell_angle_gamma   120.00000679
_symmetry_Int_Tables_number   1
_chemical_formula_structural   NdU(TaS2)8
_chemical_formula_sum   'Nd1 U1 Ta8 S16'
_cell_volume   545.39726430
_cell_formula_units_Z   1
loop_
 _symmetry_equiv_pos_site_id
 _symmetry_equiv_pos_as_xyz
  1  'x, y, z'
loop_
 _atom_site_type_symbol
 _atom_site_label
 _atom_site_symmetry_multiplicity
 _atom_site_fract_x
 _atom_site_fract_y
 _atom_site_fract_z
 _atom_site_occupancy
  Nd  Nd0  1  0.000000  0.000000  0.500000  1
  U  U1  1  0.000000  0.000000  0.000000  1
  Ta  Ta2  1  0.504858  0.495142  0.753910  1
  Ta  Ta3  1  0.009716  0.504858  0.246090  1
  Ta  Ta4  1  0.495142  0.990284  0.246090  1
  Ta  Ta5  1  0.504858  0.009716  0.753910  1
  Ta  Ta6  1  0.990284  0.495142  0.753910  1
  Ta  Ta7  1  0.495142  0.504858  0.246090  1
  Ta  Ta8  1  0.000000  0.000000  0.752834  1
  Ta  Ta9  1  0.000000  0.000000  0.247166  1
  S  S10  1  0.829988  0.170012  0.357421  1
  S  S11  1  0.829988  0.659977  0.357421  1
  S  S12  1  0.340023  0.170012  0.357421  1
  S  S13  1  0.664720  0.832359  0.864526  1
  S  S14  1  0.170012  0.340023  0.642579  1
  S  S15  1  0.167641  0.832359  0.864526  1
  S  S16  1  0.167641  0.335280  0.864526  1
  S  S17  1  0.832359  0.167641  0.135474  1
  S  S18  1  0.335280  0.167641  0.135474  1
  S  S19  1  0.659977  0.829988  0.642579  1
  S  S20  1  0.333333  0.666667  0.132099  1
  S  S21  1  0.666667  0.333333  0.639566  1
  S  S22  1  0.666667  0.333333  0.867901  1
  S  S23  1  0.333333  0.666667  0.360434  1
  S  S24  1  0.832359  0.664720  0.135474  1
  S  S25  1  0.170012  0.829988  0.642579  1
