# generated using pymatgen
data_Dy4ZnTc4Ru3
_symmetry_space_group_name_H-M   'P 1'
_cell_length_a   5.15059900
_cell_length_b   5.23233580
_cell_length_c   9.01904700
_cell_angle_alpha   90.00000000
_cell_angle_beta   90.00000000
_cell_angle_gamma   117.58658876
_symmetry_Int_Tables_number   1
_chemical_formula_structural   Dy4ZnTc4Ru3
_chemical_formula_sum   'Dy4 Zn1 Tc4 Ru3'
_cell_volume   215.42724439
_cell_formula_units_Z   1
loop_
 _symmetry_equiv_pos_site_id
 _symmetry_equiv_pos_as_xyz
  1  'x, y, z'
loop_
 _atom_site_type_symbol
 _atom_site_label
 _atom_site_symmetry_multiplicity
 _atom_site_fract_x
 _atom_site_fract_y
 _atom_site_fract_z
 _atom_site_occupancy
  Dy  Dy0  1  0.663347  0.330989  0.562161  1
  Dy  Dy1  1  0.332495  0.672789  0.437550  1
  Dy  Dy2  1  0.332495  0.672789  0.062450  1
  Dy  Dy3  1  0.663347  0.330989  0.937839  1
  Zn  Zn4  1  0.836076  0.660290  0.250000  1
  Tc  Tc5  1  0.164600  0.334864  0.750000  1
  Tc  Tc6  1  0.170832  0.825900  0.750000  1
  Tc  Tc7  1  0.658687  0.829341  0.750000  1
  Tc  Tc8  1  0.837695  0.161087  0.250000  1
  Ru  Ru9  1  0.992583  0.010290  0.496290  1
  Ru  Ru10  1  0.992583  0.010290  0.003710  1
  Ru  Ru11  1  0.355262  0.160380  0.250000  1
