# generated using pymatgen
data_Pr2Th3P12Ru19
_symmetry_space_group_name_H-M   'P 1'
_cell_length_a   12.65587006
_cell_length_b   12.65333909
_cell_length_c   4.02576400
_cell_angle_alpha   90.00000000
_cell_angle_beta   90.00000000
_cell_angle_gamma   119.99337733
_symmetry_Int_Tables_number   1
_chemical_formula_structural   Pr2Th3P12Ru19
_chemical_formula_sum   'Pr2 Th3 P12 Ru19'
_cell_volume   558.34814294
_cell_formula_units_Z   1
loop_
 _symmetry_equiv_pos_site_id
 _symmetry_equiv_pos_as_xyz
  1  'x, y, z'
loop_
 _atom_site_type_symbol
 _atom_site_label
 _atom_site_symmetry_multiplicity
 _atom_site_fract_x
 _atom_site_fract_y
 _atom_site_fract_z
 _atom_site_occupancy
  Pr  Pr0  1  0.187009  0.187271  0.500000  1
  Pr  Pr1  1  0.812991  0.000263  0.500000  1
  Th  Th2  1  0.000000  0.815704  0.500000  1
  Th  Th3  1  0.332949  0.666318  0.000000  1
  Th  Th4  1  0.667051  0.333368  0.000000  1
  P  P5  1  0.811582  0.813052  0.000000  1
  P  P6  1  0.188418  0.001471  0.000000  1
  P  P7  1  0.000000  0.187598  0.000000  1
  P  P8  1  0.171186  0.474872  0.500000  1
  P  P9  1  0.524740  0.695884  0.500000  1
  P  P10  1  0.304375  0.829124  0.500000  1
  P  P11  1  0.695625  0.524748  0.500000  1
  P  P12  1  0.828814  0.303687  0.500000  1
  P  P13  1  0.475260  0.171142  0.500000  1
  P  P14  1  0.374666  0.374461  0.000000  1
  P  P15  1  0.625334  0.999795  0.000000  1
  P  P16  1  0.000000  0.625630  0.000000  1
  Ru  Ru17  1  0.555315  0.553755  0.000000  1
  Ru  Ru18  1  0.444685  0.998440  0.000000  1
  Ru  Ru19  1  0.000000  0.446095  0.000000  1
  Ru  Ru20  1  0.715744  0.715084  0.500000  1
  Ru  Ru21  1  0.284256  0.999340  0.500000  1
  Ru  Ru22  1  0.000000  0.284562  0.500000  1
  Ru  Ru23  1  0.184722  0.379532  0.000000  1
  Ru  Ru24  1  0.620378  0.804611  0.000000  1
  Ru  Ru25  1  0.192016  0.815638  0.000000  1
  Ru  Ru26  1  0.807984  0.623623  0.000000  1
  Ru  Ru27  1  0.815278  0.194810  0.000000  1
  Ru  Ru28  1  0.379622  0.184233  0.000000  1
  Ru  Ru29  1  0.368505  0.493715  0.500000  1
  Ru  Ru30  1  0.506084  0.873453  0.500000  1
  Ru  Ru31  1  0.126015  0.632633  0.500000  1
  Ru  Ru32  1  0.873985  0.506617  0.500000  1
  Ru  Ru33  1  0.631495  0.125210  0.500000  1
  Ru  Ru34  1  0.493916  0.367368  0.500000  1
  Ru  Ru35  1  0.000000  0.996892  0.000000  1
