# generated using pymatgen
data_NdDyY4(RuO7)2
_symmetry_space_group_name_H-M   'P 1'
_cell_length_a   6.48668945
_cell_length_b   6.48196796
_cell_length_c   7.47527860
_cell_angle_alpha   90.06834758
_cell_angle_beta   89.92716571
_cell_angle_gamma   108.85879420
_symmetry_Int_Tables_number   1
_chemical_formula_structural   NdDyY4(RuO7)2
_chemical_formula_sum   'Nd1 Dy1 Y4 Ru2 O14'
_cell_volume   297.43632235
_cell_formula_units_Z   1
loop_
 _symmetry_equiv_pos_site_id
 _symmetry_equiv_pos_as_xyz
  1  'x, y, z'
loop_
 _atom_site_type_symbol
 _atom_site_label
 _atom_site_symmetry_multiplicity
 _atom_site_fract_x
 _atom_site_fract_y
 _atom_site_fract_z
 _atom_site_occupancy
  Nd  Nd0  1  0.485326  0.485639  0.000271  1
  Dy  Dy1  1  0.000151  0.536648  0.246485  1
  Y  Y2  1  0.533381  0.533173  0.499907  1
  Y  Y3  1  0.002224  0.463079  0.741946  1
  Y  Y4  1  0.536004  0.000038  0.753442  1
  Y  Y5  1  0.463427  0.002347  0.258008  1
  Ru  Ru6  1  0.999980  0.999963  0.499880  1
  Ru  Ru7  1  0.999763  0.999584  0.000090  1
  O  O8  1  0.931146  0.068914  0.750315  1
  O  O9  1  0.068323  0.929808  0.249675  1
  O  O10  1  0.359476  0.640377  0.258578  1
  O  O11  1  0.640608  0.360194  0.741875  1
  O  O12  1  0.367673  0.633409  0.741626  1
  O  O13  1  0.633808  0.368112  0.258175  1
  O  O14  1  0.322370  0.073551  0.974529  1
  O  O15  1  0.675889  0.921727  0.474878  1
  O  O16  1  0.307451  0.055566  0.536665  1
  O  O17  1  0.686457  0.936199  0.035103  1
  O  O18  1  0.053985  0.307326  0.462178  1
  O  O19  1  0.937425  0.686312  0.965053  1
  O  O20  1  0.922099  0.675627  0.524834  1
  O  O21  1  0.073035  0.322406  0.026484  1
