# generated using pymatgen
data_Th4Zn4GaSi3
_symmetry_space_group_name_H-M   'P 1'
_cell_length_a   4.19855900
_cell_length_b   8.46563753
_cell_length_c   7.25930875
_cell_angle_alpha   90.00729785
_cell_angle_beta   90.00000000
_cell_angle_gamma   90.00000000
_symmetry_Int_Tables_number   1
_chemical_formula_structural   Th4Zn4GaSi3
_chemical_formula_sum   'Th4 Zn4 Ga1 Si3'
_cell_volume   258.02108345
_cell_formula_units_Z   1
loop_
 _symmetry_equiv_pos_site_id
 _symmetry_equiv_pos_as_xyz
  1  'x, y, z'
loop_
 _atom_site_type_symbol
 _atom_site_label
 _atom_site_symmetry_multiplicity
 _atom_site_fract_x
 _atom_site_fract_y
 _atom_site_fract_z
 _atom_site_occupancy
  Th  Th0  1  0.750000  0.999849  0.751461  1
  Th  Th1  1  0.750000  0.499675  0.752187  1
  Th  Th2  1  0.250000  0.000622  0.248392  1
  Th  Th3  1  0.250000  0.498941  0.247788  1
  Zn  Zn4  1  0.750000  0.751275  0.081078  1
  Zn  Zn5  1  0.250000  0.750433  0.585514  1
  Zn  Zn6  1  0.250000  0.249756  0.916436  1
  Zn  Zn7  1  0.750000  0.251509  0.417186  1
  Ga  Ga8  1  0.750000  0.748773  0.416749  1
  Si  Si9  1  0.250000  0.749923  0.916377  1
  Si  Si10  1  0.250000  0.249863  0.583315  1
  Si  Si11  1  0.750000  0.249378  0.083517  1
