# generated using pymatgen
data_NdPa(Co5P3)2
_symmetry_space_group_name_H-M   'P 1'
_cell_length_a   3.70154500
_cell_length_b   10.39363200
_cell_length_c   11.76848200
_cell_angle_alpha   90.00000000
_cell_angle_beta   90.00000000
_cell_angle_gamma   90.00000000
_symmetry_Int_Tables_number   1
_chemical_formula_structural   NdPa(Co5P3)2
_chemical_formula_sum   'Nd2 Pa2 Co20 P12'
_cell_volume   452.76288328
_cell_formula_units_Z   2
loop_
 _symmetry_equiv_pos_site_id
 _symmetry_equiv_pos_as_xyz
  1  'x, y, z'
loop_
 _atom_site_type_symbol
 _atom_site_label
 _atom_site_symmetry_multiplicity
 _atom_site_fract_x
 _atom_site_fract_y
 _atom_site_fract_z
 _atom_site_occupancy
  Nd  Nd0  1  0.750000  0.416824  0.297977  1
  Nd  Nd1  1  0.750000  0.083176  0.797977  1
  Pa  Pa2  1  0.250000  0.582849  0.701350  1
  Pa  Pa3  1  0.250000  0.917151  0.201350  1
  Co  Co4  1  0.250000  0.716256  0.989886  1
  Co  Co5  1  0.250000  0.783744  0.489886  1
  Co  Co6  1  0.750000  0.285193  0.006472  1
  Co  Co7  1  0.750000  0.214807  0.506472  1
  Co  Co8  1  0.250000  0.409347  0.491726  1
  Co  Co9  1  0.250000  0.090653  0.991726  1
  Co  Co10  1  0.750000  0.594846  0.519567  1
  Co  Co11  1  0.750000  0.905154  0.019567  1
  Co  Co12  1  0.250000  0.220331  0.176740  1
  Co  Co13  1  0.250000  0.279669  0.676740  1
  Co  Co14  1  0.750000  0.777862  0.823532  1
  Co  Co15  1  0.750000  0.722138  0.323532  1
  Co  Co16  1  0.250000  0.879142  0.697043  1
  Co  Co17  1  0.250000  0.620858  0.197043  1
  Co  Co18  1  0.750000  0.111610  0.299719  1
  Co  Co19  1  0.750000  0.388390  0.799719  1
  Co  Co20  1  0.250000  0.471029  0.929190  1
  Co  Co21  1  0.250000  0.028971  0.429190  1
  Co  Co22  1  0.750000  0.530571  0.066474  1
  Co  Co23  1  0.750000  0.969429  0.566474  1
  P  P24  1  0.250000  0.418060  0.109648  1
  P  P25  1  0.250000  0.081940  0.609648  1
  P  P26  1  0.750000  0.583620  0.889074  1
  P  P27  1  0.750000  0.916380  0.389074  1
  P  P28  1  0.250000  0.274699  0.871378  1
  P  P29  1  0.250000  0.225301  0.371378  1
  P  P30  1  0.750000  0.723113  0.130318  1
  P  P31  1  0.750000  0.776887  0.630318  1
  P  P32  1  0.250000  0.604938  0.392074  1
  P  P33  1  0.250000  0.895062  0.892074  1
  P  P34  1  0.750000  0.392376  0.607833  1
  P  P35  1  0.750000  0.107624  0.107833  1
