# generated using pymatgen
data_Sm11Dy(SiI3)4
_symmetry_space_group_name_H-M   'P 1'
_cell_length_a   10.67104672
_cell_length_b   10.67104594
_cell_length_c   10.68229338
_cell_angle_alpha   109.40184452
_cell_angle_beta   109.40184076
_cell_angle_gamma   109.56319951
_symmetry_Int_Tables_number   1
_chemical_formula_structural   Sm11Dy(SiI3)4
_chemical_formula_sum   'Sm11 Dy1 Si4 I12'
_cell_volume   936.92800795
_cell_formula_units_Z   1
loop_
 _symmetry_equiv_pos_site_id
 _symmetry_equiv_pos_as_xyz
  1  'x, y, z'
loop_
 _atom_site_type_symbol
 _atom_site_label
 _atom_site_symmetry_multiplicity
 _atom_site_fract_x
 _atom_site_fract_y
 _atom_site_fract_z
 _atom_site_occupancy
  Sm  Sm0  1  0.463786  0.481639  0.231843  1
  Sm  Sm1  1  0.750684  0.231666  0.268976  1
  Sm  Sm2  1  0.749516  0.017967  0.481551  1
  Sm  Sm3  1  0.232065  0.463661  0.481797  1
  Sm  Sm4  1  0.268334  0.749316  0.231024  1
  Sm  Sm5  1  0.036339  0.267935  0.018203  1
  Sm  Sm6  1  0.018361  0.036214  0.268157  1
  Sm  Sm7  1  0.482033  0.750484  0.018449  1
  Sm  Sm8  1  0.481867  0.231627  0.463436  1
  Sm  Sm9  1  0.018510  0.481490  0.750000  1
  Sm  Sm10  1  0.268373  0.018133  0.036564  1
  Dy  Dy11  1  0.229825  0.270175  0.750000  1
  Si  Si12  1  0.250012  0.249988  0.250000  1
  Si  Si13  1  0.500007  0.999993  0.250000  1
  Si  Si14  1  0.002117  0.249756  0.502067  1
  Si  Si15  1  0.250244  0.497883  0.997933  1
  I  I16  1  0.249955  0.757113  0.742739  1
  I  I17  1  0.511303  0.503855  0.757381  1
  I  I18  1  0.985547  0.742703  0.992704  1
  I  I19  1  0.742887  0.250045  0.757261  1
  I  I20  1  0.996145  0.988697  0.742619  1
  I  I21  1  0.250175  0.995372  0.509687  1
  I  I22  1  0.757297  0.514453  0.507296  1
  I  I23  1  0.504628  0.249825  0.990313  1
  I  I24  1  0.757204  0.742796  0.250000  1
  I  I25  1  0.742789  0.992747  0.985544  1
  I  I26  1  0.992746  0.507254  0.250000  1
  I  I27  1  0.507253  0.757211  0.514456  1
