# generated using pymatgen
data_K6Ba6AlGaAs8
_symmetry_space_group_name_H-M   'P 1'
_cell_length_a   10.47847400
_cell_length_b   10.47847341
_cell_length_c   8.03035800
_cell_angle_alpha   90.00000000
_cell_angle_beta   90.00000000
_cell_angle_gamma   120.00000185
_symmetry_Int_Tables_number   1
_chemical_formula_structural   K6Ba6AlGaAs8
_chemical_formula_sum   'K6 Ba6 Al1 Ga1 As8'
_cell_volume   763.59238108
_cell_formula_units_Z   1
loop_
 _symmetry_equiv_pos_site_id
 _symmetry_equiv_pos_as_xyz
  1  'x, y, z'
loop_
 _atom_site_type_symbol
 _atom_site_label
 _atom_site_symmetry_multiplicity
 _atom_site_fract_x
 _atom_site_fract_y
 _atom_site_fract_z
 _atom_site_occupancy
  K  K0  1  0.135976  0.864024  0.174316  1
  K  K1  1  0.272443  0.136221  0.673929  1
  K  K2  1  0.863779  0.727557  0.673929  1
  K  K3  1  0.135976  0.271952  0.174316  1
  K  K4  1  0.728048  0.864024  0.174316  1
  K  K5  1  0.863779  0.136221  0.673929  1
  Ba  Ba6  1  0.475795  0.951588  0.499416  1
  Ba  Ba7  1  0.523573  0.047147  0.998881  1
  Ba  Ba8  1  0.952853  0.476427  0.998881  1
  Ba  Ba9  1  0.475795  0.524205  0.499416  1
  Ba  Ba10  1  0.523573  0.476427  0.998881  1
  Ba  Ba11  1  0.048412  0.524205  0.499416  1
  Al  Al12  1  0.666667  0.333333  0.377633  1
  Ga  Ga13  1  0.333333  0.666667  0.876900  1
  As  As14  1  0.198464  0.801536  0.778566  1
  As  As15  1  0.399663  0.199831  0.279206  1
  As  As16  1  0.800169  0.600337  0.279206  1
  As  As17  1  0.198464  0.396927  0.778566  1
  As  As18  1  0.603073  0.801536  0.778566  1
  As  As19  1  0.800169  0.199831  0.279206  1
  As  As20  1  0.333333  0.666667  0.208316  1
  As  As21  1  0.666667  0.333333  0.705575  1
