# generated using pymatgen
data_Sr3Ca7(Mn2N7)2
_symmetry_space_group_name_H-M   'P 1'
_cell_length_a   6.07655272
_cell_length_b   8.70867197
_cell_length_c   8.87292095
_cell_angle_alpha   115.98851323
_cell_angle_beta   96.61648126
_cell_angle_gamma   89.64844136
_symmetry_Int_Tables_number   1
_chemical_formula_structural   Sr3Ca7(Mn2N7)2
_chemical_formula_sum   'Sr3 Ca7 Mn4 N14'
_cell_volume   418.73547520
_cell_formula_units_Z   1
loop_
 _symmetry_equiv_pos_site_id
 _symmetry_equiv_pos_as_xyz
  1  'x, y, z'
loop_
 _atom_site_type_symbol
 _atom_site_label
 _atom_site_symmetry_multiplicity
 _atom_site_fract_x
 _atom_site_fract_y
 _atom_site_fract_z
 _atom_site_occupancy
  Sr  Sr0  1  0.884895  0.835920  0.760469  1
  Sr  Sr1  1  0.113640  0.165675  0.239798  1
  Sr  Sr2  1  0.725673  0.010769  0.422322  1
  Ca  Ca3  1  0.832640  0.587634  0.316678  1
  Ca  Ca4  1  0.262945  0.976758  0.561347  1
  Ca  Ca5  1  0.717536  0.418493  0.855842  1
  Ca  Ca6  1  0.286857  0.579866  0.146691  1
  Ca  Ca7  1  0.409833  0.792874  0.937325  1
  Ca  Ca8  1  0.591824  0.204824  0.067035  1
  Ca  Ca9  1  0.165736  0.403852  0.685572  1
  Mn  Mn10  1  0.572259  0.373328  0.487121  1
  Mn  Mn11  1  0.414936  0.633958  0.517664  1
  Mn  Mn12  1  0.128041  0.215880  0.908545  1
  Mn  Mn13  1  0.884571  0.780270  0.088522  1
  N  N14  1  0.525680  0.565652  0.679358  1
  N  N15  1  0.461832  0.439304  0.324917  1
  N  N16  1  0.149203  0.691405  0.534348  1
  N  N17  1  0.838081  0.323103  0.465399  1
  N  N18  1  0.414053  0.209380  0.488655  1
  N  N19  1  0.573763  0.798929  0.518356  1
  N  N20  1  0.964321  0.147537  0.714592  1
  N  N21  1  0.064582  0.851918  0.276086  1
  N  N22  1  0.238836  0.046212  0.943758  1
  N  N23  1  0.765437  0.953587  0.060392  1
  N  N24  1  0.364631  0.327515  0.901536  1
  N  N25  1  0.970936  0.346370  0.072305  1
  N  N26  1  0.029406  0.646481  0.920137  1
  N  N27  1  0.647852  0.672507  0.105229  1
