# generated using pymatgen
data_Ho16Tl4FePd3
_symmetry_space_group_name_H-M   'P 1'
_cell_length_a   9.65065283
_cell_length_b   9.65065174
_cell_length_c   9.65065400
_cell_angle_alpha   59.88932480
_cell_angle_beta   59.88933542
_cell_angle_gamma   59.88932611
_symmetry_Int_Tables_number   1
_chemical_formula_structural   Ho16Tl4FePd3
_chemical_formula_sum   'Ho16 Tl4 Fe1 Pd3'
_cell_volume   633.96200090
_cell_formula_units_Z   1
loop_
 _symmetry_equiv_pos_site_id
 _symmetry_equiv_pos_as_xyz
  1  'x, y, z'
loop_
 _atom_site_type_symbol
 _atom_site_label
 _atom_site_symmetry_multiplicity
 _atom_site_fract_x
 _atom_site_fract_y
 _atom_site_fract_z
 _atom_site_occupancy
  Ho  Ho0  1  0.353298  0.353298  0.353298  1
  Ho  Ho1  1  0.345143  0.345143  0.950778  1
  Ho  Ho2  1  0.345143  0.950778  0.345143  1
  Ho  Ho3  1  0.950778  0.345143  0.345143  1
  Ho  Ho4  1  0.822554  0.187396  0.187396  1
  Ho  Ho5  1  0.189113  0.810931  0.810931  1
  Ho  Ho6  1  0.187396  0.822554  0.187396  1
  Ho  Ho7  1  0.810931  0.189113  0.810931  1
  Ho  Ho8  1  0.187396  0.187396  0.822554  1
  Ho  Ho9  1  0.810931  0.810931  0.189113  1
  Ho  Ho10  1  0.935424  0.562651  0.562651  1
  Ho  Ho11  1  0.557920  0.938203  0.938203  1
  Ho  Ho12  1  0.562651  0.935424  0.562651  1
  Ho  Ho13  1  0.938203  0.557920  0.938203  1
  Ho  Ho14  1  0.562651  0.562651  0.935424  1
  Ho  Ho15  1  0.938203  0.938203  0.557920  1
  Tl  Tl16  1  0.585085  0.585085  0.585085  1
  Tl  Tl17  1  0.585915  0.585915  0.243404  1
  Tl  Tl18  1  0.585915  0.243404  0.585915  1
  Tl  Tl19  1  0.243404  0.585915  0.585915  1
  Fe  Fe20  1  0.142492  0.142492  0.142492  1
  Pd  Pd21  1  0.144649  0.144649  0.570161  1
  Pd  Pd22  1  0.144649  0.570161  0.144649  1
  Pd  Pd23  1  0.570161  0.144649  0.144649  1
