# generated using pymatgen
data_Zn6CuNi2Pt3
_symmetry_space_group_name_H-M   'P 1'
_cell_length_a   3.90601302
_cell_length_b   7.11515600
_cell_length_c   11.73896607
_cell_angle_alpha   90.00000000
_cell_angle_beta   90.01210547
_cell_angle_gamma   90.00000000
_symmetry_Int_Tables_number   1
_chemical_formula_structural   Zn6CuNi2Pt3
_chemical_formula_sum   'Zn12 Cu2 Ni4 Pt6'
_cell_volume   326.24806966
_cell_formula_units_Z   2
loop_
 _symmetry_equiv_pos_site_id
 _symmetry_equiv_pos_as_xyz
  1  'x, y, z'
loop_
 _atom_site_type_symbol
 _atom_site_label
 _atom_site_symmetry_multiplicity
 _atom_site_fract_x
 _atom_site_fract_y
 _atom_site_fract_z
 _atom_site_occupancy
  Zn  Zn0  1  0.499864  0.246137  0.002692  1
  Zn  Zn1  1  0.499864  0.753864  0.002692  1
  Zn  Zn2  1  0.999805  0.248392  0.166879  1
  Zn  Zn3  1  0.999805  0.751609  0.166879  1
  Zn  Zn4  1  0.499750  0.251585  0.333155  1
  Zn  Zn5  1  0.499750  0.748414  0.333155  1
  Zn  Zn6  1  0.999879  0.253866  0.497321  1
  Zn  Zn7  1  0.999879  0.746133  0.497321  1
  Zn  Zn8  1  0.500071  0.252794  0.663994  1
  Zn  Zn9  1  0.500071  0.747205  0.663994  1
  Zn  Zn10  1  0.000058  0.247255  0.836028  1
  Zn  Zn11  1  0.000058  0.752746  0.836028  1
  Cu  Cu12  1  0.001306  0.000000  0.665772  1
  Cu  Cu13  1  0.501126  0.500000  0.834258  1
  Ni  Ni14  1  0.999777  0.000000  0.999423  1
  Ni  Ni15  1  0.500232  0.500000  0.165844  1
  Ni  Ni16  1  0.999417  0.000000  0.334056  1
  Ni  Ni17  1  0.499749  0.500000  0.500322  1
  Pt  Pt18  1  0.999964  0.500000  0.000654  1
  Pt  Pt19  1  0.499763  0.000000  0.168958  1
  Pt  Pt20  1  0.999808  0.500000  0.331086  1
  Pt  Pt21  1  0.499952  0.000000  0.499426  1
  Pt  Pt22  1  0.000017  0.500000  0.668769  1
  Pt  Pt23  1  0.500037  0.000000  0.831288  1
