# generated using pymatgen
data_Yb8Si12Pd3Pt
_symmetry_space_group_name_H-M   'P 1'
_cell_length_a   8.24221500
_cell_length_b   8.24221512
_cell_length_c   8.23187400
_cell_angle_alpha   90.00000000
_cell_angle_beta   90.00000000
_cell_angle_gamma   119.99999551
_symmetry_Int_Tables_number   1
_chemical_formula_structural   Yb8Si12Pd3Pt
_chemical_formula_sum   'Yb8 Si12 Pd3 Pt1'
_cell_volume   484.30310116
_cell_formula_units_Z   1
loop_
 _symmetry_equiv_pos_site_id
 _symmetry_equiv_pos_as_xyz
  1  'x, y, z'
loop_
 _atom_site_type_symbol
 _atom_site_label
 _atom_site_symmetry_multiplicity
 _atom_site_fract_x
 _atom_site_fract_y
 _atom_site_fract_z
 _atom_site_occupancy
  Yb  Yb0  1  0.499924  0.500076  0.750071  1
  Yb  Yb1  1  0.501172  0.498828  0.249968  1
  Yb  Yb2  1  0.000153  0.500076  0.750071  1
  Yb  Yb3  1  0.997656  0.498828  0.249968  1
  Yb  Yb4  1  0.499924  0.999847  0.750071  1
  Yb  Yb5  1  0.501172  0.002344  0.249968  1
  Yb  Yb6  1  0.000000  0.000000  0.749345  1
  Yb  Yb7  1  0.000000  0.000000  0.250586  1
  Si  Si8  1  0.835487  0.164513  0.999145  1
  Si  Si9  1  0.164370  0.835630  0.000737  1
  Si  Si10  1  0.329026  0.164513  0.999145  1
  Si  Si11  1  0.164082  0.835918  0.499391  1
  Si  Si12  1  0.671260  0.835630  0.000737  1
  Si  Si13  1  0.836122  0.163878  0.500591  1
  Si  Si14  1  0.835487  0.670974  0.999145  1
  Si  Si15  1  0.671837  0.835918  0.499391  1
  Si  Si16  1  0.164370  0.328740  0.000737  1
  Si  Si17  1  0.327756  0.163878  0.500591  1
  Si  Si18  1  0.164082  0.328163  0.499391  1
  Si  Si19  1  0.836122  0.672244  0.500591  1
  Pd  Pd20  1  0.333333  0.666667  0.001343  1
  Pd  Pd21  1  0.333333  0.666667  0.498390  1
  Pd  Pd22  1  0.666667  0.333333  0.501153  1
  Pt  Pt23  1  0.666667  0.333333  0.999475  1
