# generated using pymatgen
data_Tm2(CO3)3
_symmetry_space_group_name_H-M   'P 1'
_cell_length_a   8.07090511
_cell_length_b   8.26321712
_cell_length_c   8.30403705
_cell_angle_alpha   119.87868666
_cell_angle_beta   90.03926375
_cell_angle_gamma   89.95226496
_symmetry_Int_Tables_number   1
_chemical_formula_structural   Tm2(CO3)3
_chemical_formula_sum   'Tm4 C6 O18'
_cell_volume   480.19843790
_cell_formula_units_Z   2
loop_
 _symmetry_equiv_pos_site_id
 _symmetry_equiv_pos_as_xyz
  1  'x, y, z'
loop_
 _atom_site_type_symbol
 _atom_site_label
 _atom_site_symmetry_multiplicity
 _atom_site_fract_x
 _atom_site_fract_y
 _atom_site_fract_z
 _atom_site_occupancy
  Tm  Tm0  1  0.965671  0.665307  0.332258  1
  Tm  Tm1  1  0.534362  0.667883  0.334029  1
  Tm  Tm2  1  0.465638  0.332117  0.665971  1
  Tm  Tm3  1  0.034329  0.334693  0.667742  1
  C  C4  1  0.249249  0.965552  0.372534  1
  C  C5  1  0.250200  0.408434  0.035794  1
  C  C6  1  0.749739  0.369536  0.406787  1
  C  C7  1  0.250261  0.630464  0.593213  1
  C  C8  1  0.749800  0.591566  0.964206  1
  C  C9  1  0.750751  0.034448  0.627466  1
  O  O10  1  0.109985  0.879688  0.321197  1
  O  O11  1  0.389150  0.880861  0.321088  1
  O  O12  1  0.749791  0.663882  0.145281  1
  O  O13  1  0.389533  0.444135  0.121365  1
  O  O14  1  0.110714  0.440496  0.120680  1
  O  O15  1  0.749425  0.478518  0.333876  1
  O  O16  1  0.751071  0.852447  0.517934  1
  O  O17  1  0.110582  0.681025  0.558249  1
  O  O18  1  0.389571  0.682565  0.559423  1
  O  O19  1  0.610429  0.317435  0.440577  1
  O  O20  1  0.889418  0.318975  0.441751  1
  O  O21  1  0.248929  0.147553  0.482066  1
  O  O22  1  0.250575  0.521482  0.666124  1
  O  O23  1  0.889286  0.559504  0.879320  1
  O  O24  1  0.610467  0.555865  0.878635  1
  O  O25  1  0.250209  0.336118  0.854719  1
  O  O26  1  0.610850  0.119139  0.678912  1
  O  O27  1  0.890015  0.120312  0.678803  1
