# generated using pymatgen
data_Tb9Ho11(Bi2Ir)4
_symmetry_space_group_name_H-M   'P 1'
_cell_length_a   8.00285139
_cell_length_b   8.99470700
_cell_length_c   12.52305761
_cell_angle_alpha   90.00000000
_cell_angle_beta   89.96439809
_cell_angle_gamma   90.00000000
_symmetry_Int_Tables_number   1
_chemical_formula_structural   Tb9Ho11(Bi2Ir)4
_chemical_formula_sum   'Tb9 Ho11 Bi8 Ir4'
_cell_volume   901.45088080
_cell_formula_units_Z   1
loop_
 _symmetry_equiv_pos_site_id
 _symmetry_equiv_pos_as_xyz
  1  'x, y, z'
loop_
 _atom_site_type_symbol
 _atom_site_label
 _atom_site_symmetry_multiplicity
 _atom_site_fract_x
 _atom_site_fract_y
 _atom_site_fract_z
 _atom_site_occupancy
  Tb  Tb0  1  0.839213  0.750000  0.794013  1
  Tb  Tb1  1  0.160766  0.250000  0.206212  1
  Tb  Tb2  1  0.339176  0.250000  0.706274  1
  Tb  Tb3  1  0.660517  0.750000  0.293549  1
  Tb  Tb4  1  0.375109  0.750000  0.691603  1
  Tb  Tb5  1  0.624812  0.250000  0.308452  1
  Tb  Tb6  1  0.875244  0.250000  0.808520  1
  Tb  Tb7  1  0.124810  0.750000  0.191463  1
  Tb  Tb8  1  0.948017  0.750000  0.501802  1
  Ho  Ho9  1  0.052764  0.250000  0.498134  1
  Ho  Ho10  1  0.447161  0.250000  0.998103  1
  Ho  Ho11  1  0.552716  0.750000  0.001894  1
  Ho  Ho12  1  0.675292  0.041860  0.565913  1
  Ho  Ho13  1  0.324569  0.958634  0.434156  1
  Ho  Ho14  1  0.175601  0.958591  0.934177  1
  Ho  Ho15  1  0.324569  0.541366  0.434156  1
  Ho  Ho16  1  0.824485  0.041621  0.065788  1
  Ho  Ho17  1  0.675292  0.458140  0.565913  1
  Ho  Ho18  1  0.824485  0.458379  0.065788  1
  Ho  Ho19  1  0.175601  0.541409  0.934177  1
  Bi  Bi20  1  0.566194  0.491572  0.827369  1
  Bi  Bi21  1  0.433772  0.508357  0.172641  1
  Bi  Bi22  1  0.066528  0.507967  0.673037  1
  Bi  Bi23  1  0.433772  0.991643  0.172641  1
  Bi  Bi24  1  0.933756  0.491201  0.326924  1
  Bi  Bi25  1  0.566194  0.008428  0.827369  1
  Bi  Bi26  1  0.933756  0.008799  0.326924  1
  Bi  Bi27  1  0.066528  0.992033  0.673037  1
  Ir  Ir28  1  0.570633  0.750000  0.508702  1
  Ir  Ir29  1  0.428646  0.250000  0.491242  1
  Ir  Ir30  1  0.071439  0.250000  0.991253  1
  Ir  Ir31  1  0.928585  0.750000  0.008774  1
