# generated using pymatgen
data_TbDy3(Tm3Ru2)2
_symmetry_space_group_name_H-M   'P 1'
_cell_length_a   6.30763426
_cell_length_b   7.23409808
_cell_length_c   8.41116592
_cell_angle_alpha   96.79544618
_cell_angle_beta   112.10581318
_cell_angle_gamma   89.91054160
_symmetry_Int_Tables_number   1
_chemical_formula_structural   TbDy3(Tm3Ru2)2
_chemical_formula_sum   'Tb1 Dy3 Tm6 Ru4'
_cell_volume   352.70543884
_cell_formula_units_Z   1
loop_
 _symmetry_equiv_pos_site_id
 _symmetry_equiv_pos_as_xyz
  1  'x, y, z'
loop_
 _atom_site_type_symbol
 _atom_site_label
 _atom_site_symmetry_multiplicity
 _atom_site_fract_x
 _atom_site_fract_y
 _atom_site_fract_z
 _atom_site_occupancy
  Tb  Tb0  1  0.788874  0.083245  0.811356  1
  Dy  Dy1  1  0.977142  0.416387  0.187927  1
  Dy  Dy2  1  0.210505  0.916735  0.188398  1
  Dy  Dy3  1  0.023515  0.583466  0.812290  1
  Tm  Tm4  1  0.204814  0.184428  0.566160  1
  Tm  Tm5  1  0.639816  0.316184  0.434352  1
  Tm  Tm6  1  0.794852  0.815279  0.433731  1
  Tm  Tm7  1  0.359797  0.684204  0.565729  1
  Tm  Tm8  1  0.420642  0.249519  0.999676  1
  Tm  Tm9  1  0.579621  0.750339  0.000379  1
  Ru  Ru10  1  0.599513  0.424911  0.778102  1
  Ru  Ru11  1  0.821906  0.076676  0.221777  1
  Ru  Ru12  1  0.399835  0.575155  0.221472  1
  Ru  Ru13  1  0.179167  0.923469  0.778648  1
