# generated using pymatgen
data_CsRb7Hf3ZrTe12
_symmetry_space_group_name_H-M   'P 1'
_cell_length_a   14.66711624
_cell_length_b   6.98392669
_cell_length_c   10.00312372
_cell_angle_alpha   71.69204472
_cell_angle_beta   89.40380018
_cell_angle_gamma   89.53270841
_symmetry_Int_Tables_number   1
_chemical_formula_structural   CsRb7Hf3ZrTe12
_chemical_formula_sum   'Cs1 Rb7 Hf3 Zr1 Te12'
_cell_volume   972.72866331
_cell_formula_units_Z   1
loop_
 _symmetry_equiv_pos_site_id
 _symmetry_equiv_pos_as_xyz
  1  'x, y, z'
loop_
 _atom_site_type_symbol
 _atom_site_label
 _atom_site_symmetry_multiplicity
 _atom_site_fract_x
 _atom_site_fract_y
 _atom_site_fract_z
 _atom_site_occupancy
  Cs  Cs0  1  0.950365  0.674278  0.657224  1
  Rb  Rb1  1  0.455885  0.822640  0.353967  1
  Rb  Rb2  1  0.043841  0.321427  0.354123  1
  Rb  Rb3  1  0.543694  0.178134  0.645628  1
  Rb  Rb4  1  0.864133  0.078806  0.904396  1
  Rb  Rb5  1  0.365482  0.421813  0.093943  1
  Rb  Rb6  1  0.135980  0.921676  0.093872  1
  Rb  Rb7  1  0.635258  0.577475  0.906173  1
  Hf  Hf8  1  0.747746  0.672381  0.295641  1
  Hf  Hf9  1  0.249719  0.827777  0.702991  1
  Hf  Hf10  1  0.253336  0.328234  0.702421  1
  Zr  Zr11  1  0.750634  0.173410  0.295822  1
  Te  Te12  1  0.909394  0.905020  0.269999  1
  Te  Te13  1  0.410893  0.590251  0.724472  1
  Te  Te14  1  0.091854  0.095563  0.726194  1
  Te  Te15  1  0.588891  0.413895  0.273278  1
  Te  Te16  1  0.809635  0.298587  0.524401  1
  Te  Te17  1  0.313775  0.199744  0.475951  1
  Te  Te18  1  0.189880  0.701302  0.477168  1
  Te  Te19  1  0.686442  0.796461  0.523605  1
  Te  Te20  1  0.848074  0.493405  0.094423  1
  Te  Te21  1  0.347457  0.007902  0.902324  1
  Te  Te22  1  0.156104  0.509617  0.905964  1
  Te  Te23  1  0.651525  0.990201  0.096021  1
