# generated using pymatgen
data_HoScNb4(B2Ru5)2
_symmetry_space_group_name_H-M   'P 1'
_cell_length_a   9.51175563
_cell_length_b   9.51175632
_cell_length_c   3.07707600
_cell_angle_alpha   90.00000000
_cell_angle_beta   90.00000000
_cell_angle_gamma   89.68758142
_symmetry_Int_Tables_number   1
_chemical_formula_structural   HoScNb4(B2Ru5)2
_chemical_formula_sum   'Ho1 Sc1 Nb4 B4 Ru10'
_cell_volume   278.38970205
_cell_formula_units_Z   1
loop_
 _symmetry_equiv_pos_site_id
 _symmetry_equiv_pos_as_xyz
  1  'x, y, z'
loop_
 _atom_site_type_symbol
 _atom_site_label
 _atom_site_symmetry_multiplicity
 _atom_site_fract_x
 _atom_site_fract_y
 _atom_site_fract_z
 _atom_site_occupancy
  Ho  Ho0  1  0.174363  0.174363  0.000000  1
  Sc  Sc1  1  0.823920  0.823920  0.000000  1
  Nb  Nb2  1  0.501417  0.999384  0.000000  1
  Nb  Nb3  1  0.999384  0.501417  0.000000  1
  Nb  Nb4  1  0.676073  0.324289  0.000000  1
  Nb  Nb5  1  0.324289  0.676073  0.000000  1
  B  B6  1  0.379640  0.379640  0.000000  1
  B  B7  1  0.624070  0.624070  0.000000  1
  B  B8  1  0.878182  0.118767  0.000000  1
  B  B9  1  0.118767  0.878182  0.000000  1
  Ru  Ru10  1  0.501504  0.501504  0.500000  1
  Ru  Ru11  1  0.994749  0.994749  0.500000  1
  Ru  Ru12  1  0.439715  0.222914  0.500000  1
  Ru  Ru13  1  0.565438  0.779815  0.500000  1
  Ru  Ru14  1  0.919136  0.284146  0.500000  1
  Ru  Ru15  1  0.077157  0.715321  0.500000  1
  Ru  Ru16  1  0.715321  0.077157  0.500000  1
  Ru  Ru17  1  0.284146  0.919136  0.500000  1
  Ru  Ru18  1  0.779815  0.565438  0.500000  1
  Ru  Ru19  1  0.222914  0.439715  0.500000  1
