# generated using pymatgen
data_TbErIrRu3
_symmetry_space_group_name_H-M   'P 1'
_cell_length_a   5.25479300
_cell_length_b   5.25479255
_cell_length_c   8.97307800
_cell_angle_alpha   90.00000000
_cell_angle_beta   90.00000000
_cell_angle_gamma   119.99999653
_symmetry_Int_Tables_number   1
_chemical_formula_structural   TbErIrRu3
_chemical_formula_sum   'Tb2 Er2 Ir2 Ru6'
_cell_volume   214.57705386
_cell_formula_units_Z   2
loop_
 _symmetry_equiv_pos_site_id
 _symmetry_equiv_pos_as_xyz
  1  'x, y, z'
loop_
 _atom_site_type_symbol
 _atom_site_label
 _atom_site_symmetry_multiplicity
 _atom_site_fract_x
 _atom_site_fract_y
 _atom_site_fract_z
 _atom_site_occupancy
  Tb  Tb0  1  0.333333  0.666667  0.430419  1
  Tb  Tb1  1  0.666667  0.333333  0.569581  1
  Er  Er2  1  0.666667  0.333333  0.931049  1
  Er  Er3  1  0.333333  0.666667  0.068951  1
  Ir  Ir4  1  0.000000  0.000000  0.000000  1
  Ir  Ir5  1  0.000000  0.000000  0.500000  1
  Ru  Ru6  1  0.170045  0.340090  0.751412  1
  Ru  Ru7  1  0.170045  0.829955  0.751412  1
  Ru  Ru8  1  0.340090  0.170045  0.248588  1
  Ru  Ru9  1  0.829955  0.659910  0.248588  1
  Ru  Ru10  1  0.659910  0.829955  0.751412  1
  Ru  Ru11  1  0.829955  0.170045  0.248588  1
