# generated using pymatgen
data_Sm2P7(RuRh)6
_symmetry_space_group_name_H-M   'P 1'
_cell_length_a   3.89302009
_cell_length_b   9.57499002
_cell_length_c   9.57308545
_cell_angle_alpha   119.96165825
_cell_angle_beta   89.99802643
_cell_angle_gamma   89.99900517
_symmetry_Int_Tables_number   1
_chemical_formula_structural   Sm2P7(RuRh)6
_chemical_formula_sum   'Sm2 P7 Ru6 Rh6'
_cell_volume   309.15423844
_cell_formula_units_Z   1
loop_
 _symmetry_equiv_pos_site_id
 _symmetry_equiv_pos_as_xyz
  1  'x, y, z'
loop_
 _atom_site_type_symbol
 _atom_site_label
 _atom_site_symmetry_multiplicity
 _atom_site_fract_x
 _atom_site_fract_y
 _atom_site_fract_z
 _atom_site_occupancy
  Sm  Sm0  1  0.253319  0.666834  0.333445  1
  Sm  Sm1  1  0.746681  0.333166  0.666555  1
  P  P2  1  0.500000  0.000000  0.000000  1
  P  P3  1  0.753703  0.884052  0.599061  1
  P  P4  1  0.753712  0.401237  0.285109  1
  P  P5  1  0.753982  0.715005  0.116024  1
  P  P6  1  0.246297  0.115948  0.400939  1
  P  P7  1  0.246288  0.598763  0.714891  1
  P  P8  1  0.246018  0.284995  0.883976  1
  Ru  Ru9  1  0.742346  0.114770  0.852151  1
  Ru  Ru10  1  0.742742  0.148034  0.262336  1
  Ru  Ru11  1  0.742529  0.737828  0.885541  1
  Ru  Ru12  1  0.257654  0.885230  0.147849  1
  Ru  Ru13  1  0.257258  0.851966  0.737664  1
  Ru  Ru14  1  0.257471  0.262172  0.114459  1
  Rh  Rh15  1  0.753007  0.616811  0.554481  1
  Rh  Rh16  1  0.753109  0.445912  0.062815  1
  Rh  Rh17  1  0.752990  0.937679  0.383200  1
  Rh  Rh18  1  0.246993  0.383189  0.445519  1
  Rh  Rh19  1  0.246891  0.554088  0.937185  1
  Rh  Rh20  1  0.247010  0.062321  0.616800  1
