# generated using pymatgen
data_Dy7ErSc12Si13Ge3
_symmetry_space_group_name_H-M   'P 1'
_cell_length_a   7.11963613
_cell_length_b   7.39360109
_cell_length_c   14.01682763
_cell_angle_alpha   89.99045071
_cell_angle_beta   89.34840055
_cell_angle_gamma   90.04136951
_symmetry_Int_Tables_number   1
_chemical_formula_structural   Dy7ErSc12Si13Ge3
_chemical_formula_sum   'Dy7 Er1 Sc12 Si13 Ge3'
_cell_volume   737.79437683
_cell_formula_units_Z   1
loop_
 _symmetry_equiv_pos_site_id
 _symmetry_equiv_pos_as_xyz
  1  'x, y, z'
loop_
 _atom_site_type_symbol
 _atom_site_label
 _atom_site_symmetry_multiplicity
 _atom_site_fract_x
 _atom_site_fract_y
 _atom_site_fract_z
 _atom_site_occupancy
  Dy  Dy0  1  0.011402  0.175625  0.096548  1
  Dy  Dy1  1  0.988449  0.824391  0.903304  1
  Dy  Dy2  1  0.488766  0.675719  0.903464  1
  Dy  Dy3  1  0.991667  0.823465  0.598307  1
  Dy  Dy4  1  0.511126  0.324395  0.096608  1
  Dy  Dy5  1  0.005175  0.176806  0.402213  1
  Dy  Dy6  1  0.506667  0.321607  0.401790  1
  Er  Er7  1  0.494628  0.679085  0.598768  1
  Sc  Sc8  1  0.164268  0.501827  0.750689  1
  Sc  Sc9  1  0.835729  0.498277  0.249151  1
  Sc  Sc10  1  0.335715  0.001877  0.249132  1
  Sc  Sc11  1  0.664461  0.998077  0.749359  1
  Sc  Sc12  1  0.339254  0.172341  0.627257  1
  Sc  Sc13  1  0.662999  0.828484  0.373229  1
  Sc  Sc14  1  0.162999  0.672501  0.373312  1
  Sc  Sc15  1  0.668196  0.823489  0.124923  1
  Sc  Sc16  1  0.836090  0.325471  0.626294  1
  Sc  Sc17  1  0.332141  0.176722  0.875005  1
  Sc  Sc18  1  0.831734  0.323045  0.875036  1
  Sc  Sc19  1  0.168145  0.676555  0.125038  1
  Si  Si20  1  0.036815  0.116178  0.751381  1
  Si  Si21  1  0.963975  0.884251  0.248847  1
  Si  Si22  1  0.463754  0.616057  0.248849  1
  Si  Si23  1  0.536375  0.384987  0.751234  1
  Si  Si24  1  0.288382  0.871561  0.750992  1
  Si  Si25  1  0.711686  0.128268  0.248707  1
  Si  Si26  1  0.211191  0.371762  0.249114  1
  Si  Si27  1  0.788369  0.627664  0.750752  1
  Si  Si28  1  0.842910  0.534927  0.039407  1
  Si  Si29  1  0.669691  0.038015  0.540288  1
  Si  Si30  1  0.157134  0.465122  0.960513  1
  Si  Si31  1  0.657272  0.034895  0.960408  1
  Si  Si32  1  0.342713  0.964890  0.039345  1
  Ge  Ge33  1  0.174839  0.460836  0.540912  1
  Ge  Ge34  1  0.825394  0.540000  0.459575  1
  Ge  Ge35  1  0.329890  0.960827  0.460247  1
