# generated using pymatgen
data_GeB12Te
_symmetry_space_group_name_H-M   'P 1'
_cell_length_a   5.41705229
_cell_length_b   5.41705349
_cell_length_c   5.41705303
_cell_angle_alpha   71.33464059
_cell_angle_beta   71.33464280
_cell_angle_gamma   71.33464640
_symmetry_Int_Tables_number   1
_chemical_formula_structural   GeB12Te
_chemical_formula_sum   'Ge1 B12 Te1'
_cell_volume   138.42197493
_cell_formula_units_Z   1
loop_
 _symmetry_equiv_pos_site_id
 _symmetry_equiv_pos_as_xyz
  1  'x, y, z'
loop_
 _atom_site_type_symbol
 _atom_site_label
 _atom_site_symmetry_multiplicity
 _atom_site_fract_x
 _atom_site_fract_y
 _atom_site_fract_z
 _atom_site_occupancy
  Ge  Ge0  1  0.618371  0.618371  0.618371  1
  B  B1  1  0.015843  0.015843  0.322390  1
  B  B2  1  0.322390  0.015843  0.015843  1
  B  B3  1  0.268340  0.821127  0.821127  1
  B  B4  1  0.821127  0.821127  0.268340  1
  B  B5  1  0.821127  0.268340  0.821127  1
  B  B6  1  0.166550  0.742294  0.166550  1
  B  B7  1  0.742294  0.166550  0.166550  1
  B  B8  1  0.166550  0.166550  0.742294  1
  B  B9  1  0.675219  0.981735  0.981735  1
  B  B10  1  0.981735  0.981735  0.675219  1
  B  B11  1  0.981735  0.675219  0.981735  1
  B  B12  1  0.015843  0.322390  0.015843  1
  Te  Te13  1  0.402879  0.402879  0.402879  1
