# generated using pymatgen
data_La8Zn3Si12Rh
_symmetry_space_group_name_H-M   'P 1'
_cell_length_a   11.35387973
_cell_length_b   9.70760038
_cell_length_c   8.31432720
_cell_angle_alpha   77.73375026
_cell_angle_beta   56.59734823
_cell_angle_gamma   45.70924047
_symmetry_Int_Tables_number   1
_chemical_formula_structural   La8Zn3Si12Rh
_chemical_formula_sum   'La8 Zn3 Si12 Rh1'
_cell_volume   524.44425809
_cell_formula_units_Z   1
loop_
 _symmetry_equiv_pos_site_id
 _symmetry_equiv_pos_as_xyz
  1  'x, y, z'
loop_
 _atom_site_type_symbol
 _atom_site_label
 _atom_site_symmetry_multiplicity
 _atom_site_fract_x
 _atom_site_fract_y
 _atom_site_fract_z
 _atom_site_occupancy
  La  La0  1  0.128076  0.123706  0.870537  1
  La  La1  1  0.871689  0.876861  0.127718  1
  La  La2  1  0.128168  0.125391  0.374718  1
  La  La3  1  0.374641  0.371842  0.127875  1
  La  La4  1  0.620523  0.627268  0.378068  1
  La  La5  1  0.377212  0.374721  0.621187  1
  La  La6  1  0.627637  0.627768  0.871868  1
  La  La7  1  0.872277  0.872056  0.628148  1
  Zn  Zn8  1  0.083052  0.417456  0.082371  1
  Zn  Zn9  1  0.833405  0.167503  0.832510  1
  Zn  Zn10  1  0.166448  0.832531  0.167362  1
  Si  Si11  1  0.915601  0.588547  0.421016  1
  Si  Si12  1  0.085896  0.409501  0.583648  1
  Si  Si13  1  0.420288  0.073278  0.916462  1
  Si  Si14  1  0.584531  0.921781  0.085037  1
  Si  Si15  1  0.331373  0.663498  0.834545  1
  Si  Si16  1  0.664947  0.332430  0.168935  1
  Si  Si17  1  0.835441  0.171135  0.330257  1
  Si  Si18  1  0.167368  0.833166  0.666401  1
  Si  Si19  1  0.913510  0.585812  0.914196  1
  Si  Si20  1  0.581366  0.919855  0.580030  1
  Si  Si21  1  0.335028  0.667361  0.332951  1
  Si  Si22  1  0.665129  0.333313  0.666806  1
  Rh  Rh23  1  0.416400  0.083226  0.417351  1
