# generated using pymatgen
data_Ca4CoH12Pd
_symmetry_space_group_name_H-M   'P 1'
_cell_length_a   7.16268766
_cell_length_b   7.16268558
_cell_length_c   5.09846550
_cell_angle_alpha   89.80423467
_cell_angle_beta   89.80423770
_cell_angle_gamma   138.28976178
_symmetry_Int_Tables_number   1
_chemical_formula_structural   Ca4CoH12Pd
_chemical_formula_sum   'Ca4 Co1 H12 Pd1'
_cell_volume   174.03256725
_cell_formula_units_Z   1
loop_
 _symmetry_equiv_pos_site_id
 _symmetry_equiv_pos_as_xyz
  1  'x, y, z'
loop_
 _atom_site_type_symbol
 _atom_site_label
 _atom_site_symmetry_multiplicity
 _atom_site_fract_x
 _atom_site_fract_y
 _atom_site_fract_z
 _atom_site_occupancy
  Ca  Ca0  1  0.149059  0.850941  0.500000  1
  Ca  Ca1  1  0.649182  0.350818  0.000000  1
  Ca  Ca2  1  0.850941  0.149059  0.500000  1
  Ca  Ca3  1  0.350818  0.649182  0.000000  1
  Co  Co4  1  0.000000  0.000000  0.000000  1
  H  H5  1  0.999944  0.499629  0.749259  1
  H  H6  1  0.500371  0.000056  0.250741  1
  H  H7  1  0.000056  0.500371  0.250741  1
  H  H8  1  0.499629  0.999944  0.749259  1
  H  H9  1  0.374375  0.625625  0.500000  1
  H  H10  1  0.883065  0.116935  0.000000  1
  H  H11  1  0.625625  0.374375  0.500000  1
  H  H12  1  0.116935  0.883065  0.000000  1
  H  H13  1  0.230181  0.230181  0.769763  1
  H  H14  1  0.769819  0.769819  0.230237  1
  H  H15  1  0.225601  0.225601  0.226946  1
  H  H16  1  0.774399  0.774399  0.773054  1
  Pd  Pd17  1  0.500000  0.500000  0.500000  1
