# generated using pymatgen
data_Sm4Tm4Re3B24Ru
_symmetry_space_group_name_H-M   'P 1'
_cell_length_a   3.68429600
_cell_length_b   9.16906740
_cell_length_c   11.59452805
_cell_angle_alpha   89.91130016
_cell_angle_beta   90.00000000
_cell_angle_gamma   90.00000000
_symmetry_Int_Tables_number   1
_chemical_formula_structural   Sm4Tm4Re3B24Ru
_chemical_formula_sum   'Sm4 Tm4 Re3 B24 Ru1'
_cell_volume   391.68075647
_cell_formula_units_Z   1
loop_
 _symmetry_equiv_pos_site_id
 _symmetry_equiv_pos_as_xyz
  1  'x, y, z'
loop_
 _atom_site_type_symbol
 _atom_site_label
 _atom_site_symmetry_multiplicity
 _atom_site_fract_x
 _atom_site_fract_y
 _atom_site_fract_z
 _atom_site_occupancy
  Sm  Sm0  1  0.000000  0.322448  0.413814  1
  Sm  Sm1  1  0.000000  0.676065  0.584482  1
  Sm  Sm2  1  0.000000  0.822417  0.087227  1
  Sm  Sm3  1  0.000000  0.178454  0.914401  1
  Tm  Tm4  1  0.000000  0.943133  0.370670  1
  Tm  Tm5  1  0.000000  0.056964  0.630594  1
  Tm  Tm6  1  0.000000  0.443624  0.129550  1
  Tm  Tm7  1  0.000000  0.557985  0.869499  1
  Re  Re8  1  0.000000  0.639216  0.319491  1
  Re  Re9  1  0.000000  0.360798  0.680998  1
  Re  Re10  1  0.000000  0.138693  0.179561  1
  B  B11  1  0.500000  0.553932  0.431350  1
  B  B12  1  0.500000  0.445658  0.568286  1
  B  B13  1  0.500000  0.054040  0.068367  1
  B  B14  1  0.500000  0.945082  0.931162  1
  B  B15  1  0.500000  0.749884  0.417283  1
  B  B16  1  0.500000  0.249217  0.582991  1
  B  B17  1  0.500000  0.250657  0.082649  1
  B  B18  1  0.500000  0.750299  0.916836  1
  B  B19  1  0.500000  0.792163  0.266277  1
  B  B20  1  0.500000  0.208161  0.734483  1
  B  B21  1  0.500000  0.292043  0.233776  1
  B  B22  1  0.500000  0.709077  0.765908  1
  B  B23  1  0.500000  0.630005  0.185477  1
  B  B24  1  0.500000  0.370303  0.814924  1
  B  B25  1  0.500000  0.129415  0.314095  1
  B  B26  1  0.500000  0.869870  0.685852  1
  B  B27  1  0.500000  0.982312  0.213135  1
  B  B28  1  0.500000  0.015928  0.787206  1
  B  B29  1  0.500000  0.482827  0.286486  1
  B  B30  1  0.500000  0.517125  0.712963  1
  B  B31  1  0.500000  0.599006  0.026894  1
  B  B32  1  0.500000  0.403037  0.972573  1
  B  B33  1  0.500000  0.097772  0.473464  1
  B  B34  1  0.500000  0.901679  0.527749  1
  Ru  Ru35  1  0.000000  0.860707  0.819526  1
