# generated using pymatgen
data_La3Nd(B2Ir5)2
_symmetry_space_group_name_H-M   'P 1'
_cell_length_a   11.16199395
_cell_length_b   11.16199347
_cell_length_c   11.16199287
_cell_angle_alpha   28.86473928
_cell_angle_beta   28.86474325
_cell_angle_gamma   28.86474552
_symmetry_Int_Tables_number   1
_chemical_formula_structural   La3Nd(B2Ir5)2
_chemical_formula_sum   'La3 Nd1 B4 Ir10'
_cell_volume   286.59408266
_cell_formula_units_Z   1
loop_
 _symmetry_equiv_pos_site_id
 _symmetry_equiv_pos_as_xyz
  1  'x, y, z'
loop_
 _atom_site_type_symbol
 _atom_site_label
 _atom_site_symmetry_multiplicity
 _atom_site_fract_x
 _atom_site_fract_y
 _atom_site_fract_z
 _atom_site_occupancy
  La  La0  1  0.151722  0.151722  0.151722  1
  La  La1  1  0.949943  0.949943  0.949943  1
  La  La2  1  0.848458  0.848458  0.848458  1
  Nd  Nd3  1  0.049867  0.049867  0.049867  1
  B  B4  1  0.618424  0.618424  0.618424  1
  B  B5  1  0.716327  0.716327  0.716327  1
  B  B6  1  0.381675  0.381675  0.381675  1
  B  B7  1  0.283816  0.283816  0.283816  1
  Ir  Ir8  1  0.408753  0.898333  0.408753  1
  Ir  Ir9  1  0.898333  0.408753  0.408753  1
  Ir  Ir10  1  0.500251  0.500251  0.000084  1
  Ir  Ir11  1  0.500251  0.000084  0.500251  1
  Ir  Ir12  1  0.000084  0.500251  0.500251  1
  Ir  Ir13  1  0.499892  0.499892  0.499892  1
  Ir  Ir14  1  0.590992  0.101467  0.590992  1
  Ir  Ir15  1  0.590992  0.590992  0.101467  1
  Ir  Ir16  1  0.101467  0.590992  0.590992  1
  Ir  Ir17  1  0.408753  0.408753  0.898333  1
