# generated using pymatgen
data_Er4Sc4IrPt3
_symmetry_space_group_name_H-M   'P 1'
_cell_length_a   4.53863100
_cell_length_b   6.96215197
_cell_length_c   8.41258412
_cell_angle_alpha   89.52522482
_cell_angle_beta   90.00000000
_cell_angle_gamma   90.00000000
_symmetry_Int_Tables_number   1
_chemical_formula_structural   Er4Sc4IrPt3
_chemical_formula_sum   'Er4 Sc4 Ir1 Pt3'
_cell_volume   265.81708026
_cell_formula_units_Z   1
loop_
 _symmetry_equiv_pos_site_id
 _symmetry_equiv_pos_as_xyz
  1  'x, y, z'
loop_
 _atom_site_type_symbol
 _atom_site_label
 _atom_site_symmetry_multiplicity
 _atom_site_fract_x
 _atom_site_fract_y
 _atom_site_fract_z
 _atom_site_occupancy
  Er  Er0  1  0.250000  0.482544  0.175901  1
  Er  Er1  1  0.750000  0.521687  0.822354  1
  Er  Er2  1  0.750000  0.011043  0.672547  1
  Er  Er3  1  0.250000  0.981615  0.327497  1
  Sc  Sc4  1  0.250000  0.860285  0.926097  1
  Sc  Sc5  1  0.750000  0.142470  0.071529  1
  Sc  Sc6  1  0.750000  0.642185  0.430425  1
  Sc  Sc7  1  0.250000  0.358321  0.574809  1
  Ir  Ir8  1  0.250000  0.744523  0.599501  1
  Pt  Pt9  1  0.750000  0.253955  0.398102  1
  Pt  Pt10  1  0.750000  0.753254  0.099556  1
  Pt  Pt11  1  0.250000  0.248115  0.901679  1
