# generated using pymatgen
data_Zr4P4Ru3Pt
_symmetry_space_group_name_H-M   'P 1'
_cell_length_a   3.86350500
_cell_length_b   6.54279164
_cell_length_c   7.42634622
_cell_angle_alpha   89.52941723
_cell_angle_beta   90.00000000
_cell_angle_gamma   90.00000000
_symmetry_Int_Tables_number   1
_chemical_formula_structural   Zr4P4Ru3Pt
_chemical_formula_sum   'Zr4 P4 Ru3 Pt1'
_cell_volume   187.71765188
_cell_formula_units_Z   1
loop_
 _symmetry_equiv_pos_site_id
 _symmetry_equiv_pos_as_xyz
  1  'x, y, z'
loop_
 _atom_site_type_symbol
 _atom_site_label
 _atom_site_symmetry_multiplicity
 _atom_site_fract_x
 _atom_site_fract_y
 _atom_site_fract_z
 _atom_site_occupancy
  Zr  Zr0  1  0.750000  0.526935  0.322156  1
  Zr  Zr1  1  0.250000  0.974555  0.819662  1
  Zr  Zr2  1  0.750000  0.022375  0.179204  1
  Zr  Zr3  1  0.250000  0.481111  0.677027  1
  P  P4  1  0.250000  0.739351  0.121529  1
  P  P5  1  0.250000  0.227670  0.390588  1
  P  P6  1  0.750000  0.268983  0.864195  1
  P  P7  1  0.750000  0.773627  0.620121  1
  Ru  Ru8  1  0.250000  0.850834  0.439845  1
  Ru  Ru9  1  0.750000  0.145746  0.557222  1
  Ru  Ru10  1  0.750000  0.643101  0.942817  1
  Pt  Pt11  1  0.250000  0.345712  0.065632  1
