# generated using pymatgen
data_Lu12Mn2In2Ga
_symmetry_space_group_name_H-M   'P 1'
_cell_length_a   8.24228282
_cell_length_b   8.24228405
_cell_length_c   8.24228375
_cell_angle_alpha   109.42095129
_cell_angle_beta   109.42095386
_cell_angle_gamma   109.57179823
_symmetry_Int_Tables_number   1
_chemical_formula_structural   Lu12Mn2In2Ga
_chemical_formula_sum   'Lu12 Mn2 In2 Ga1'
_cell_volume   431.04219453
_cell_formula_units_Z   1
loop_
 _symmetry_equiv_pos_site_id
 _symmetry_equiv_pos_as_xyz
  1  'x, y, z'
loop_
 _atom_site_type_symbol
 _atom_site_label
 _atom_site_symmetry_multiplicity
 _atom_site_fract_x
 _atom_site_fract_y
 _atom_site_fract_z
 _atom_site_occupancy
  Lu  Lu0  1  0.306251  0.306251  0.612503  1
  Lu  Lu1  1  0.693749  0.693749  0.387497  1
  Lu  Lu2  1  0.693749  0.306251  0.000000  1
  Lu  Lu3  1  0.306251  0.693749  0.000000  1
  Lu  Lu4  1  0.202610  0.445831  0.243221  1
  Lu  Lu5  1  0.797390  0.554169  0.756779  1
  Lu  Lu6  1  0.202610  0.959387  0.756779  1
  Lu  Lu7  1  0.959387  0.202610  0.756779  1
  Lu  Lu8  1  0.797390  0.040613  0.243221  1
  Lu  Lu9  1  0.040613  0.797390  0.243221  1
  Lu  Lu10  1  0.445831  0.202610  0.243221  1
  Lu  Lu11  1  0.554169  0.797390  0.756779  1
  Mn  Mn12  1  0.389353  0.389353  0.000000  1
  Mn  Mn13  1  0.610647  0.610647  0.000000  1
  In  In14  1  0.000000  0.500000  0.500000  1
  In  In15  1  0.500000  0.000000  0.500000  1
  Ga  Ga16  1  0.000000  0.000000  0.000000  1
