# generated using pymatgen
data_ThTe5
_symmetry_space_group_name_H-M   'P 1'
_cell_length_a   4.41442900
_cell_length_b   10.32975700
_cell_length_c   19.36783200
_cell_angle_alpha   90.00000000
_cell_angle_beta   90.00000000
_cell_angle_gamma   90.00000000
_symmetry_Int_Tables_number   1
_chemical_formula_structural   ThTe5
_chemical_formula_sum   'Th4 Te20'
_cell_volume   883.17272984
_cell_formula_units_Z   4
loop_
 _symmetry_equiv_pos_site_id
 _symmetry_equiv_pos_as_xyz
  1  'x, y, z'
loop_
 _atom_site_type_symbol
 _atom_site_label
 _atom_site_symmetry_multiplicity
 _atom_site_fract_x
 _atom_site_fract_y
 _atom_site_fract_z
 _atom_site_occupancy
  Th  Th0  1  0.381453  0.246223  0.594504  1
  Th  Th1  1  0.618547  0.746223  0.405496  1
  Th  Th2  1  0.881453  0.746223  0.905496  1
  Th  Th3  1  0.118547  0.246223  0.094504  1
  Te  Te4  1  0.616439  0.441788  0.158031  1
  Te  Te5  1  0.368628  0.752435  0.030885  1
  Te  Te6  1  0.131372  0.752435  0.530885  1
  Te  Te7  1  0.116439  0.941788  0.341969  1
  Te  Te8  1  0.048453  0.990615  0.000944  1
  Te  Te9  1  0.624684  0.757219  0.747597  1
  Te  Te10  1  0.631372  0.252435  0.969115  1
  Te  Te11  1  0.124684  0.257219  0.752403  1
  Te  Te12  1  0.548453  0.490615  0.499056  1
  Te  Te13  1  0.451547  0.990615  0.500944  1
  Te  Te14  1  0.384448  0.560419  0.833700  1
  Te  Te15  1  0.951547  0.490615  0.999056  1
  Te  Te16  1  0.115552  0.560419  0.333700  1
  Te  Te17  1  0.383561  0.941788  0.841969  1
  Te  Te18  1  0.884448  0.060419  0.666300  1
  Te  Te19  1  0.875316  0.757219  0.247597  1
  Te  Te20  1  0.615552  0.060419  0.166300  1
  Te  Te21  1  0.883561  0.441788  0.658031  1
  Te  Te22  1  0.868628  0.252435  0.469115  1
  Te  Te23  1  0.375316  0.257219  0.252403  1
