# generated using pymatgen
data_Y12TcOsRu2
_symmetry_space_group_name_H-M   'P 1'
_cell_length_a   6.33841986
_cell_length_b   7.42648036
_cell_length_c   9.18182200
_cell_angle_alpha   90.00000000
_cell_angle_beta   90.00000000
_cell_angle_gamma   90.06453782
_symmetry_Int_Tables_number   1
_chemical_formula_structural   Y12TcOsRu2
_chemical_formula_sum   'Y12 Tc1 Os1 Ru2'
_cell_volume   432.20783388
_cell_formula_units_Z   1
loop_
 _symmetry_equiv_pos_site_id
 _symmetry_equiv_pos_as_xyz
  1  'x, y, z'
loop_
 _atom_site_type_symbol
 _atom_site_label
 _atom_site_symmetry_multiplicity
 _atom_site_fract_x
 _atom_site_fract_y
 _atom_site_fract_z
 _atom_site_occupancy
  Y  Y0  1  0.632729  0.042447  0.250000  1
  Y  Y1  1  0.368189  0.958516  0.750000  1
  Y  Y2  1  0.127196  0.456817  0.750000  1
  Y  Y3  1  0.869394  0.542520  0.250000  1
  Y  Y4  1  0.167915  0.177007  0.064958  1
  Y  Y5  1  0.834248  0.823808  0.935288  1
  Y  Y6  1  0.664906  0.324676  0.937219  1
  Y  Y7  1  0.834248  0.823808  0.564712  1
  Y  Y8  1  0.334884  0.675081  0.063028  1
  Y  Y9  1  0.167915  0.177007  0.435042  1
  Y  Y10  1  0.334884  0.675081  0.436972  1
  Y  Y11  1  0.664906  0.324676  0.562781  1
  Tc  Tc12  1  0.537619  0.614753  0.750000  1
  Os  Os13  1  0.461343  0.383379  0.250000  1
  Ru  Ru14  1  0.962159  0.115259  0.750000  1
  Ru  Ru15  1  0.037465  0.885167  0.250000  1
