# generated using pymatgen
data_Cs2Zn2Cd3Sb4
_symmetry_space_group_name_H-M   'P 1'
_cell_length_a   7.66805664
_cell_length_b   7.66805615
_cell_length_c   13.27657700
_cell_angle_alpha   90.00000000
_cell_angle_beta   90.00000000
_cell_angle_gamma   116.25597130
_symmetry_Int_Tables_number   1
_chemical_formula_structural   Cs2Zn2Cd3Sb4
_chemical_formula_sum   'Cs4 Zn4 Cd6 Sb8'
_cell_volume   700.10828342
_cell_formula_units_Z   2
loop_
 _symmetry_equiv_pos_site_id
 _symmetry_equiv_pos_as_xyz
  1  'x, y, z'
loop_
 _atom_site_type_symbol
 _atom_site_label
 _atom_site_symmetry_multiplicity
 _atom_site_fract_x
 _atom_site_fract_y
 _atom_site_fract_z
 _atom_site_occupancy
  Cs  Cs0  1  0.217165  0.782835  0.500000  1
  Cs  Cs1  1  0.217165  0.782835  0.000000  1
  Cs  Cs2  1  0.782835  0.217165  0.500000  1
  Cs  Cs3  1  0.782835  0.217165  0.000000  1
  Zn  Zn4  1  0.534655  0.249274  0.250000  1
  Zn  Zn5  1  0.750726  0.465345  0.750000  1
  Zn  Zn6  1  0.465345  0.750726  0.750000  1
  Zn  Zn7  1  0.249274  0.534655  0.250000  1
  Cd  Cd8  1  0.658563  0.658563  0.393232  1
  Cd  Cd9  1  0.341437  0.341437  0.606768  1
  Cd  Cd10  1  0.658563  0.658563  0.106768  1
  Cd  Cd11  1  0.341437  0.341437  0.893232  1
  Cd  Cd12  1  0.994140  0.994140  0.250000  1
  Cd  Cd13  1  0.005860  0.005860  0.750000  1
  Sb  Sb14  1  0.571047  0.909908  0.250000  1
  Sb  Sb15  1  0.090092  0.428953  0.750000  1
  Sb  Sb16  1  0.428953  0.090092  0.750000  1
  Sb  Sb17  1  0.909908  0.571047  0.250000  1
  Sb  Sb18  1  0.283409  0.283409  0.392167  1
  Sb  Sb19  1  0.716591  0.716591  0.607833  1
  Sb  Sb20  1  0.283409  0.283409  0.107833  1
  Sb  Sb21  1  0.716591  0.716591  0.892167  1
