# generated using pymatgen
data_Tb5Nd2ThSb20
_symmetry_space_group_name_H-M   'P 1'
_cell_length_a   4.24876800
_cell_length_b   13.37134582
_cell_length_c   14.90665065
_cell_angle_alpha   78.28093294
_cell_angle_beta   90.00000000
_cell_angle_gamma   90.00000000
_symmetry_Int_Tables_number   1
_chemical_formula_structural   Tb5Nd2ThSb20
_chemical_formula_sum   'Tb5 Nd2 Th1 Sb20'
_cell_volume   829.22001988
_cell_formula_units_Z   1
loop_
 _symmetry_equiv_pos_site_id
 _symmetry_equiv_pos_as_xyz
  1  'x, y, z'
loop_
 _atom_site_type_symbol
 _atom_site_label
 _atom_site_symmetry_multiplicity
 _atom_site_fract_x
 _atom_site_fract_y
 _atom_site_fract_z
 _atom_site_occupancy
  Tb  Tb0  1  0.250000  0.663367  0.856016  1
  Tb  Tb1  1  0.250000  0.666914  0.575187  1
  Tb  Tb2  1  0.750000  0.334358  0.427009  1
  Tb  Tb3  1  0.250000  0.396566  0.770000  1
  Tb  Tb4  1  0.750000  0.607153  0.227743  1
  Nd  Nd5  1  0.250000  0.950837  0.360712  1
  Nd  Nd6  1  0.750000  0.046719  0.641769  1
  Th  Th7  1  0.750000  0.335198  0.142229  1
  Sb  Sb8  1  0.750000  0.846904  0.826628  1
  Sb  Sb9  1  0.250000  0.856174  0.678492  1
  Sb  Sb10  1  0.250000  0.148762  0.479300  1
  Sb  Sb11  1  0.750000  0.281130  0.934980  1
  Sb  Sb12  1  0.250000  0.145763  0.780457  1
  Sb  Sb13  1  0.750000  0.573121  0.445509  1
  Sb  Sb14  1  0.750000  0.141851  0.327340  1
  Sb  Sb15  1  0.250000  0.709717  0.349294  1
  Sb  Sb16  1  0.750000  0.290600  0.651025  1
  Sb  Sb17  1  0.750000  0.855224  0.217829  1
  Sb  Sb18  1  0.250000  0.422435  0.973240  1
  Sb  Sb19  1  0.250000  0.427587  0.554195  1
  Sb  Sb20  1  0.750000  0.576842  0.734583  1
  Sb  Sb21  1  0.250000  0.423764  0.267088  1
  Sb  Sb22  1  0.750000  0.852967  0.521626  1
  Sb  Sb23  1  0.750000  0.030756  0.899696  1
  Sb  Sb24  1  0.250000  0.720052  0.063669  1
  Sb  Sb25  1  0.250000  0.966933  0.095934  1
  Sb  Sb26  1  0.250000  0.147370  0.175219  1
  Sb  Sb27  1  0.750000  0.580939  0.023233  1
