# generated using pymatgen
data_YEr2Tm7Cd3Ru
_symmetry_space_group_name_H-M   'P 1'
_cell_length_a   9.48546662
_cell_length_b   9.48546737
_cell_length_c   9.73322600
_cell_angle_alpha   90.00000000
_cell_angle_beta   90.00000000
_cell_angle_gamma   119.82851234
_symmetry_Int_Tables_number   1
_chemical_formula_structural   YEr2Tm7Cd3Ru
_chemical_formula_sum   'Y2 Er4 Tm14 Cd6 Ru2'
_cell_volume   759.71859147
_cell_formula_units_Z   2
loop_
 _symmetry_equiv_pos_site_id
 _symmetry_equiv_pos_as_xyz
  1  'x, y, z'
loop_
 _atom_site_type_symbol
 _atom_site_label
 _atom_site_symmetry_multiplicity
 _atom_site_fract_x
 _atom_site_fract_y
 _atom_site_fract_z
 _atom_site_occupancy
  Y  Y0  1  0.460263  0.919822  0.750000  1
  Y  Y1  1  0.080178  0.539737  0.750000  1
  Er  Er2  1  0.540905  0.459095  0.250000  1
  Er  Er3  1  0.540489  0.079963  0.250000  1
  Er  Er4  1  0.920037  0.459511  0.250000  1
  Er  Er5  1  0.461154  0.538846  0.750000  1
  Tm  Tm6  1  0.999681  0.000319  0.499795  1
  Tm  Tm7  1  0.999681  0.000319  0.000205  1
  Tm  Tm8  1  0.209611  0.790389  0.440400  1
  Tm  Tm9  1  0.210840  0.420031  0.440566  1
  Tm  Tm10  1  0.579969  0.789160  0.440566  1
  Tm  Tm11  1  0.789413  0.210587  0.557982  1
  Tm  Tm12  1  0.789254  0.579802  0.558024  1
  Tm  Tm13  1  0.420198  0.210746  0.558024  1
  Tm  Tm14  1  0.789413  0.210587  0.942018  1
  Tm  Tm15  1  0.789254  0.579802  0.941976  1
  Tm  Tm16  1  0.420198  0.210746  0.941976  1
  Tm  Tm17  1  0.209611  0.790389  0.059600  1
  Tm  Tm18  1  0.210840  0.420031  0.059434  1
  Tm  Tm19  1  0.579969  0.789160  0.059434  1
  Cd  Cd20  1  0.885780  0.114220  0.250000  1
  Cd  Cd21  1  0.884842  0.771417  0.250000  1
  Cd  Cd22  1  0.228583  0.115158  0.250000  1
  Cd  Cd23  1  0.113244  0.886756  0.750000  1
  Cd  Cd24  1  0.115435  0.227464  0.750000  1
  Cd  Cd25  1  0.772536  0.884565  0.750000  1
  Ru  Ru26  1  0.332629  0.667371  0.250000  1
  Ru  Ru27  1  0.665990  0.334010  0.750000  1
