# generated using pymatgen
data_CeY2(Co3P2)3
_symmetry_space_group_name_H-M   'P 1'
_cell_length_a   3.72157300
_cell_length_b   10.57619100
_cell_length_c   12.19421000
_cell_angle_alpha   90.00000000
_cell_angle_beta   90.00000000
_cell_angle_gamma   90.00000000
_symmetry_Int_Tables_number   1
_chemical_formula_structural   CeY2(Co3P2)3
_chemical_formula_sum   'Ce2 Y4 Co18 P12'
_cell_volume   479.96492101
_cell_formula_units_Z   2
loop_
 _symmetry_equiv_pos_site_id
 _symmetry_equiv_pos_as_xyz
  1  'x, y, z'
loop_
 _atom_site_type_symbol
 _atom_site_label
 _atom_site_symmetry_multiplicity
 _atom_site_fract_x
 _atom_site_fract_y
 _atom_site_fract_z
 _atom_site_occupancy
  Ce  Ce0  1  0.000000  0.500000  0.527114  1
  Ce  Ce1  1  0.500000  0.000000  0.472886  1
  Y  Y2  1  0.500000  0.815086  0.204858  1
  Y  Y3  1  0.500000  0.184914  0.204858  1
  Y  Y4  1  0.000000  0.684914  0.795142  1
  Y  Y5  1  0.000000  0.315086  0.795142  1
  Co  Co6  1  0.500000  0.500000  0.157641  1
  Co  Co7  1  0.000000  0.000000  0.842359  1
  Co  Co8  1  0.500000  0.500000  0.699604  1
  Co  Co9  1  0.000000  0.000000  0.300396  1
  Co  Co10  1  0.000000  0.500000  0.984801  1
  Co  Co11  1  0.500000  0.000000  0.015199  1
  Co  Co12  1  0.500000  0.333820  0.994286  1
  Co  Co13  1  0.500000  0.666180  0.994286  1
  Co  Co14  1  0.000000  0.166180  0.005714  1
  Co  Co15  1  0.000000  0.833820  0.005714  1
  Co  Co16  1  0.500000  0.299465  0.430292  1
  Co  Co17  1  0.500000  0.700535  0.430292  1
  Co  Co18  1  0.000000  0.200535  0.569708  1
  Co  Co19  1  0.000000  0.799465  0.569708  1
  Co  Co20  1  0.500000  0.880634  0.711323  1
  Co  Co21  1  0.500000  0.119366  0.711323  1
  Co  Co22  1  0.000000  0.619366  0.288677  1
  Co  Co23  1  0.000000  0.380634  0.288677  1
  P  P24  1  0.500000  0.500000  0.880712  1
  P  P25  1  0.000000  0.000000  0.119288  1
  P  P26  1  0.500000  0.500000  0.342363  1
  P  P27  1  0.000000  0.000000  0.657637  1
  P  P28  1  0.500000  0.306064  0.616492  1
  P  P29  1  0.500000  0.693936  0.616492  1
  P  P30  1  0.000000  0.193936  0.383508  1
  P  P31  1  0.000000  0.806064  0.383508  1
  P  P32  1  0.500000  0.847971  0.894808  1
  P  P33  1  0.500000  0.152029  0.894808  1
  P  P34  1  0.000000  0.652029  0.105192  1
  P  P35  1  0.000000  0.347971  0.105192  1
