# generated using pymatgen
data_Yb2(Al3Pt)3
_symmetry_space_group_name_H-M   'P 1'
_cell_length_a   7.62503129
_cell_length_b   7.62503109
_cell_length_c   9.47855900
_cell_angle_alpha   90.00000000
_cell_angle_beta   90.00000000
_cell_angle_gamma   119.62714133
_symmetry_Int_Tables_number   1
_chemical_formula_structural   Yb2(Al3Pt)3
_chemical_formula_sum   'Yb4 Al18 Pt6'
_cell_volume   479.04431054
_cell_formula_units_Z   2
loop_
 _symmetry_equiv_pos_site_id
 _symmetry_equiv_pos_as_xyz
  1  'x, y, z'
loop_
 _atom_site_type_symbol
 _atom_site_label
 _atom_site_symmetry_multiplicity
 _atom_site_fract_x
 _atom_site_fract_y
 _atom_site_fract_z
 _atom_site_occupancy
  Yb  Yb0  1  0.996685  0.670785  0.250000  1
  Yb  Yb1  1  0.003315  0.329215  0.750000  1
  Yb  Yb2  1  0.670785  0.996685  0.250000  1
  Yb  Yb3  1  0.329215  0.003315  0.750000  1
  Al  Al4  1  0.131073  0.131073  0.250000  1
  Al  Al5  1  0.868927  0.868927  0.750000  1
  Al  Al6  1  0.999475  0.334560  0.076935  1
  Al  Al7  1  0.000525  0.665440  0.923065  1
  Al  Al8  1  0.000525  0.665440  0.576935  1
  Al  Al9  1  0.334560  0.999475  0.423065  1
  Al  Al10  1  0.999475  0.334560  0.423065  1
  Al  Al11  1  0.665440  0.000525  0.576935  1
  Al  Al12  1  0.665440  0.000525  0.923065  1
  Al  Al13  1  0.334560  0.999475  0.076935  1
  Al  Al14  1  0.332242  0.332242  0.556426  1
  Al  Al15  1  0.667758  0.667758  0.443574  1
  Al  Al16  1  0.667758  0.667758  0.056426  1
  Al  Al17  1  0.332242  0.332242  0.943574  1
  Al  Al18  1  0.339783  0.545232  0.250000  1
  Al  Al19  1  0.660217  0.454768  0.750000  1
  Al  Al20  1  0.545232  0.339783  0.250000  1
  Al  Al21  1  0.454768  0.660217  0.750000  1
  Pt  Pt22  1  0.671573  0.328427  0.000000  1
  Pt  Pt23  1  0.328427  0.671573  0.000000  1
  Pt  Pt24  1  0.328427  0.671573  0.500000  1
  Pt  Pt25  1  0.671573  0.328427  0.500000  1
  Pt  Pt26  1  0.000000  0.000000  0.000000  1
  Pt  Pt27  1  0.000000  0.000000  0.500000  1
