# generated using pymatgen
data_Tm8TlInRuRh
_symmetry_space_group_name_H-M   'P 1'
_cell_length_a   9.56870755
_cell_length_b   9.56307030
_cell_length_c   9.54871155
_cell_angle_alpha   59.74484460
_cell_angle_beta   59.77064866
_cell_angle_gamma   59.76456612
_symmetry_Int_Tables_number   1
_chemical_formula_structural   Tm8TlInRuRh
_chemical_formula_sum   'Tm16 Tl2 In2 Ru2 Rh2'
_cell_volume   614.47945901
_cell_formula_units_Z   2
loop_
 _symmetry_equiv_pos_site_id
 _symmetry_equiv_pos_as_xyz
  1  'x, y, z'
loop_
 _atom_site_type_symbol
 _atom_site_label
 _atom_site_symmetry_multiplicity
 _atom_site_fract_x
 _atom_site_fract_y
 _atom_site_fract_z
 _atom_site_occupancy
  Tm  Tm0  1  0.058083  0.056443  0.442979  1
  Tm  Tm1  1  0.443394  0.059773  0.437187  1
  Tm  Tm2  1  0.060892  0.443010  0.057286  1
  Tm  Tm3  1  0.043349  0.652075  0.651787  1
  Tm  Tm4  1  0.439526  0.439594  0.060022  1
  Tm  Tm5  1  0.651516  0.043422  0.652134  1
  Tm  Tm6  1  0.189958  0.810768  0.194030  1
  Tm  Tm7  1  0.191523  0.191765  0.810178  1
  Tm  Tm8  1  0.808428  0.810237  0.191919  1
  Tm  Tm9  1  0.442212  0.060737  0.058927  1
  Tm  Tm10  1  0.810038  0.189793  0.193678  1
  Tm  Tm11  1  0.059952  0.444136  0.437668  1
  Tm  Tm12  1  0.807482  0.190874  0.809846  1
  Tm  Tm13  1  0.191043  0.808175  0.808585  1
  Tm  Tm14  1  0.651631  0.652484  0.046418  1
  Tm  Tm15  1  0.650947  0.651806  0.648683  1
  Tl  Tl16  1  0.413407  0.414684  0.416738  1
  Tl  Tl17  1  0.757943  0.414247  0.414318  1
  In  In18  1  0.415611  0.752025  0.416566  1
  In  In19  1  0.416533  0.417243  0.748724  1
  Ru  Ru20  1  0.857492  0.857411  0.422715  1
  Ru  Ru21  1  0.860205  0.860040  0.861319  1
  Rh  Rh22  1  0.421900  0.856979  0.859201  1
  Rh  Rh23  1  0.856938  0.422282  0.859092  1
