# generated using pymatgen
data_Pr6Dy2Sc11Si16Hg
_symmetry_space_group_name_H-M   'P 1'
_cell_length_a   7.17717295
_cell_length_b   7.51757959
_cell_length_c   14.24447432
_cell_angle_alpha   89.96615492
_cell_angle_beta   90.09374850
_cell_angle_gamma   90.21675943
_symmetry_Int_Tables_number   1
_chemical_formula_structural   Pr6Dy2Sc11Si16Hg
_chemical_formula_sum   'Pr6 Dy2 Sc11 Si16 Hg1'
_cell_volume   768.55350939
_cell_formula_units_Z   1
loop_
 _symmetry_equiv_pos_site_id
 _symmetry_equiv_pos_as_xyz
  1  'x, y, z'
loop_
 _atom_site_type_symbol
 _atom_site_label
 _atom_site_symmetry_multiplicity
 _atom_site_fract_x
 _atom_site_fract_y
 _atom_site_fract_z
 _atom_site_occupancy
  Pr  Pr0  1  0.492156  0.679268  0.899806  1
  Pr  Pr1  1  0.491015  0.679947  0.597610  1
  Pr  Pr2  1  0.980033  0.829060  0.598525  1
  Pr  Pr3  1  0.981236  0.829308  0.899092  1
  Pr  Pr4  1  0.509631  0.330719  0.099200  1
  Pr  Pr5  1  0.012133  0.172956  0.099123  1
  Dy  Dy6  1  0.011810  0.176308  0.400033  1
  Dy  Dy7  1  0.511211  0.327258  0.399733  1
  Sc  Sc8  1  0.336989  0.176044  0.623128  1
  Sc  Sc9  1  0.670641  0.820367  0.374173  1
  Sc  Sc10  1  0.170921  0.676517  0.376277  1
  Sc  Sc11  1  0.827088  0.315435  0.875714  1
  Sc  Sc12  1  0.827438  0.314342  0.623470  1
  Sc  Sc13  1  0.840079  0.499430  0.251701  1
  Sc  Sc14  1  0.339320  0.000135  0.251829  1
  Sc  Sc15  1  0.337246  0.174596  0.875629  1
  Sc  Sc16  1  0.171487  0.676218  0.126232  1
  Sc  Sc17  1  0.670981  0.820933  0.128506  1
  Sc  Sc18  1  0.158989  0.496717  0.749387  1
  Si  Si19  1  0.272786  0.880394  0.748949  1
  Si  Si20  1  0.466381  0.620105  0.252383  1
  Si  Si21  1  0.050464  0.129296  0.749339  1
  Si  Si22  1  0.531546  0.389789  0.748902  1
  Si  Si23  1  0.152654  0.461428  0.538793  1
  Si  Si24  1  0.967357  0.877177  0.252323  1
  Si  Si25  1  0.711685  0.121631  0.253827  1
  Si  Si26  1  0.849104  0.536617  0.038966  1
  Si  Si27  1  0.347712  0.962184  0.039839  1
  Si  Si28  1  0.153341  0.465744  0.959350  1
  Si  Si29  1  0.655317  0.047296  0.525176  1
  Si  Si30  1  0.343829  0.970199  0.457883  1
  Si  Si31  1  0.845425  0.528897  0.458997  1
  Si  Si32  1  0.793869  0.592794  0.749214  1
  Si  Si33  1  0.211286  0.379318  0.254301  1
  Si  Si34  1  0.654196  0.041571  0.972557  1
  Hg  Hg35  1  0.652645  0.000002  0.750033  1
