# generated using pymatgen
data_Hf9TiFeMo3
_symmetry_space_group_name_H-M   'P 1'
_cell_length_a   8.32325300
_cell_length_b   8.72371097
_cell_length_c   8.72371133
_cell_angle_alpha   120.00930787
_cell_angle_beta   90.00000000
_cell_angle_gamma   90.00000000
_symmetry_Int_Tables_number   1
_chemical_formula_structural   Hf9TiFeMo3
_chemical_formula_sum   'Hf18 Ti2 Fe2 Mo6'
_cell_volume   548.51125173
_cell_formula_units_Z   2
loop_
 _symmetry_equiv_pos_site_id
 _symmetry_equiv_pos_as_xyz
  1  'x, y, z'
loop_
 _atom_site_type_symbol
 _atom_site_label
 _atom_site_symmetry_multiplicity
 _atom_site_fract_x
 _atom_site_fract_y
 _atom_site_fract_z
 _atom_site_occupancy
  Hf  Hf0  1  0.558851  0.797177  0.594442  1
  Hf  Hf1  1  0.558872  0.797274  0.202726  1
  Hf  Hf2  1  0.558851  0.405558  0.202823  1
  Hf  Hf3  1  0.441149  0.202823  0.405558  1
  Hf  Hf4  1  0.441128  0.202726  0.797274  1
  Hf  Hf5  1  0.441149  0.594442  0.797177  1
  Hf  Hf6  1  0.058851  0.202823  0.405558  1
  Hf  Hf7  1  0.058872  0.202726  0.797274  1
  Hf  Hf8  1  0.058851  0.594442  0.797177  1
  Hf  Hf9  1  0.941149  0.797177  0.594442  1
  Hf  Hf10  1  0.941128  0.797274  0.202726  1
  Hf  Hf11  1  0.941149  0.405558  0.202823  1
  Hf  Hf12  1  0.750000  0.458567  0.917164  1
  Hf  Hf13  1  0.750000  0.458584  0.541416  1
  Hf  Hf14  1  0.750000  0.082836  0.541433  1
  Hf  Hf15  1  0.250000  0.541433  0.082836  1
  Hf  Hf16  1  0.250000  0.541416  0.458584  1
  Hf  Hf17  1  0.250000  0.917164  0.458567  1
  Ti  Ti18  1  0.500000  0.000000  0.000000  1
  Ti  Ti19  1  0.000000  0.000000  0.000000  1
  Fe  Fe20  1  0.750000  0.666677  0.333323  1
  Fe  Fe21  1  0.250000  0.333323  0.666677  1
  Mo  Mo22  1  0.750000  0.114332  0.228707  1
  Mo  Mo23  1  0.750000  0.114418  0.885582  1
  Mo  Mo24  1  0.750000  0.771293  0.885668  1
  Mo  Mo25  1  0.250000  0.885668  0.771293  1
  Mo  Mo26  1  0.250000  0.885582  0.114418  1
  Mo  Mo27  1  0.250000  0.228707  0.114332  1
