# generated using pymatgen
data_Tb15Dy(CoHg)4
_symmetry_space_group_name_H-M   'P 1'
_cell_length_a   9.50238053
_cell_length_b   9.50166384
_cell_length_c   9.50395600
_cell_angle_alpha   60.08248293
_cell_angle_beta   60.08341129
_cell_angle_gamma   60.06922923
_symmetry_Int_Tables_number   1
_chemical_formula_structural   Tb15Dy(CoHg)4
_chemical_formula_sum   'Tb15 Dy1 Co4 Hg4'
_cell_volume   607.84399861
_cell_formula_units_Z   1
loop_
 _symmetry_equiv_pos_site_id
 _symmetry_equiv_pos_as_xyz
  1  'x, y, z'
loop_
 _atom_site_type_symbol
 _atom_site_label
 _atom_site_symmetry_multiplicity
 _atom_site_fract_x
 _atom_site_fract_y
 _atom_site_fract_z
 _atom_site_occupancy
  Tb  Tb0  1  0.597562  0.597657  0.597898  1
  Tb  Tb1  1  0.189325  0.811071  0.811375  1
  Tb  Tb2  1  0.060846  0.060817  0.437553  1
  Tb  Tb3  1  0.437608  0.061182  0.060956  1
  Tb  Tb4  1  0.811104  0.189363  0.811308  1
  Tb  Tb5  1  0.439099  0.060627  0.438823  1
  Tb  Tb6  1  0.598793  0.205122  0.598845  1
  Tb  Tb7  1  0.811232  0.811160  0.189461  1
  Tb  Tb8  1  0.205166  0.598823  0.598841  1
  Tb  Tb9  1  0.809803  0.189129  0.188920  1
  Tb  Tb10  1  0.060649  0.439091  0.438809  1
  Tb  Tb11  1  0.189097  0.809837  0.188865  1
  Tb  Tb12  1  0.598825  0.598855  0.204857  1
  Tb  Tb13  1  0.188882  0.188856  0.810098  1
  Tb  Tb14  1  0.061225  0.437530  0.060992  1
  Dy  Dy15  1  0.439154  0.439178  0.060300  1
  Co  Co16  1  0.390800  0.390732  0.390748  1
  Co  Co17  1  0.827132  0.392095  0.392050  1
  Co  Co18  1  0.392037  0.827142  0.392028  1
  Co  Co19  1  0.392094  0.392124  0.827313  1
  Hg  Hg20  1  0.834642  0.834633  0.496776  1
  Hg  Hg21  1  0.833706  0.833694  0.833731  1
  Hg  Hg22  1  0.496741  0.834488  0.834734  1
  Hg  Hg23  1  0.834478  0.496794  0.834714  1
