# generated using pymatgen
data_Ba8Lu3Sc(CoO5)4
_symmetry_space_group_name_H-M   'P 1'
_cell_length_a   6.05598206
_cell_length_b   7.87592377
_cell_length_c   12.33467652
_cell_angle_alpha   91.47786354
_cell_angle_beta   90.00362286
_cell_angle_gamma   90.01516615
_symmetry_Int_Tables_number   1
_chemical_formula_structural   Ba8Lu3Sc(CoO5)4
_chemical_formula_sum   'Ba8 Lu3 Sc1 Co4 O20'
_cell_volume   588.12460052
_cell_formula_units_Z   1
loop_
 _symmetry_equiv_pos_site_id
 _symmetry_equiv_pos_as_xyz
  1  'x, y, z'
loop_
 _atom_site_type_symbol
 _atom_site_label
 _atom_site_symmetry_multiplicity
 _atom_site_fract_x
 _atom_site_fract_y
 _atom_site_fract_z
 _atom_site_occupancy
  Ba  Ba0  1  0.753294  0.494177  0.367593  1
  Ba  Ba1  1  0.744959  0.996033  0.861986  1
  Ba  Ba2  1  0.244918  0.502068  0.634894  1
  Ba  Ba3  1  0.255315  0.005851  0.136242  1
  Ba  Ba4  1  0.752085  0.995209  0.386010  1
  Ba  Ba5  1  0.746830  0.492260  0.880337  1
  Ba  Ba6  1  0.246970  0.008021  0.616683  1
  Ba  Ba7  1  0.253131  0.506785  0.117103  1
  Lu  Lu8  1  0.751711  0.760282  0.130735  1
  Lu  Lu9  1  0.251486  0.740118  0.369906  1
  Lu  Lu10  1  0.249214  0.240035  0.867798  1
  Sc  Sc11  1  0.748136  0.257588  0.632631  1
  Co  Co12  1  0.743149  0.746411  0.593304  1
  Co  Co13  1  0.756256  0.246665  0.091492  1
  Co  Co14  1  0.255160  0.254101  0.411577  1
  Co  Co15  1  0.242881  0.753836  0.907344  1
  O  O16  1  0.752966  0.974710  0.634107  1
  O  O17  1  0.746601  0.471971  0.135098  1
  O  O18  1  0.247229  0.028825  0.366774  1
  O  O19  1  0.254158  0.527230  0.863856  1
  O  O20  1  0.742045  0.049610  0.166460  1
  O  O21  1  0.757856  0.545842  0.664311  1
  O  O22  1  0.258376  0.952185  0.833056  1
  O  O23  1  0.242708  0.450382  0.336201  1
  O  O24  1  0.529902  0.747539  0.264863  1
  O  O25  1  0.973359  0.248206  0.757396  1
  O  O26  1  0.484096  0.252156  0.735643  1
  O  O27  1  0.032146  0.752503  0.234446  1
  O  O28  1  0.519736  0.233133  0.987553  1
  O  O29  1  0.978628  0.733968  0.488793  1
  O  O30  1  0.478084  0.767017  0.011257  1
  O  O31  1  0.011164  0.265663  0.512688  1
  O  O32  1  0.022733  0.234623  0.007965  1
  O  O33  1  0.475354  0.735159  0.511612  1
  O  O34  1  0.973943  0.764841  0.987144  1
  O  O35  1  0.523419  0.264996  0.495142  1
