# generated using pymatgen
data_Hf3Zr3FeSb2
_symmetry_space_group_name_H-M   'P 1'
_cell_length_a   7.75913600
_cell_length_b   7.75913573
_cell_length_c   3.65091200
_cell_angle_alpha   90.00000000
_cell_angle_beta   90.00000000
_cell_angle_gamma   120.00000967
_symmetry_Int_Tables_number   1
_chemical_formula_structural   Hf3Zr3FeSb2
_chemical_formula_sum   'Hf3 Zr3 Fe1 Sb2'
_cell_volume   190.35253621
_cell_formula_units_Z   1
loop_
 _symmetry_equiv_pos_site_id
 _symmetry_equiv_pos_as_xyz
  1  'x, y, z'
loop_
 _atom_site_type_symbol
 _atom_site_label
 _atom_site_symmetry_multiplicity
 _atom_site_fract_x
 _atom_site_fract_y
 _atom_site_fract_z
 _atom_site_occupancy
  Hf  Hf0  1  0.236420  0.000000  0.500000  1
  Hf  Hf1  1  0.000000  0.236420  0.500000  1
  Hf  Hf2  1  0.763580  0.763580  0.500000  1
  Zr  Zr3  1  0.601445  0.000000  0.000000  1
  Zr  Zr4  1  0.000000  0.601445  0.000000  1
  Zr  Zr5  1  0.398555  0.398555  0.000000  1
  Fe  Fe6  1  0.000000  0.000000  0.000000  1
  Sb  Sb7  1  0.333333  0.666667  0.500000  1
  Sb  Sb8  1  0.666667  0.333333  0.500000  1
