# generated using pymatgen
data_DyHoMn5(PIr)7
_symmetry_space_group_name_H-M   'P 1'
_cell_length_a   9.39047154
_cell_length_b   9.35055781
_cell_length_c   3.87712600
_cell_angle_alpha   90.00000000
_cell_angle_beta   90.00000000
_cell_angle_gamma   119.83426913
_symmetry_Int_Tables_number   1
_chemical_formula_structural   DyHoMn5(PIr)7
_chemical_formula_sum   'Dy1 Ho1 Mn5 P7 Ir7'
_cell_volume   295.31691689
_cell_formula_units_Z   1
loop_
 _symmetry_equiv_pos_site_id
 _symmetry_equiv_pos_as_xyz
  1  'x, y, z'
loop_
 _atom_site_type_symbol
 _atom_site_label
 _atom_site_symmetry_multiplicity
 _atom_site_fract_x
 _atom_site_fract_y
 _atom_site_fract_z
 _atom_site_occupancy
  Dy  Dy0  1  0.666001  0.333645  0.000000  1
  Ho  Ho1  1  0.335052  0.668860  0.500000  1
  Mn  Mn2  1  0.265146  0.159529  0.000000  1
  Mn  Mn3  1  0.841113  0.111645  0.000000  1
  Mn  Mn4  1  0.892267  0.729438  0.000000  1
  Mn  Mn5  1  0.779960  0.875796  0.500000  1
  Mn  Mn6  1  0.123890  0.903854  0.500000  1
  P  P7  1  0.305554  0.414369  0.000000  1
  P  P8  1  0.592225  0.891036  0.000000  1
  P  P9  1  0.112899  0.701525  0.000000  1
  P  P10  1  0.394172  0.116215  0.500000  1
  P  P11  1  0.875853  0.275117  0.500000  1
  P  P12  1  0.724849  0.606839  0.500000  1
  P  P13  1  0.995628  0.997202  0.000000  1
  Ir  Ir14  1  0.069067  0.428859  0.000000  1
  Ir  Ir15  1  0.574710  0.638980  0.000000  1
  Ir  Ir16  1  0.362835  0.936700  0.000000  1
  Ir  Ir17  1  0.443874  0.387223  0.500000  1
  Ir  Ir18  1  0.611736  0.054334  0.500000  1
  Ir  Ir19  1  0.944846  0.554514  0.500000  1
  Ir  Ir20  1  0.088318  0.214320  0.500000  1
