# generated using pymatgen
data_PrDy15(CoHg3)2
_symmetry_space_group_name_H-M   'P 1'
_cell_length_a   10.15903300
_cell_length_b   10.15903355
_cell_length_c   7.18663900
_cell_angle_alpha   90.00000000
_cell_angle_beta   90.00000000
_cell_angle_gamma   120.00000147
_symmetry_Int_Tables_number   1
_chemical_formula_structural   PrDy15(CoHg3)2
_chemical_formula_sum   'Pr1 Dy15 Co2 Hg6'
_cell_volume   642.33445851
_cell_formula_units_Z   1
loop_
 _symmetry_equiv_pos_site_id
 _symmetry_equiv_pos_as_xyz
  1  'x, y, z'
loop_
 _atom_site_type_symbol
 _atom_site_label
 _atom_site_symmetry_multiplicity
 _atom_site_fract_x
 _atom_site_fract_y
 _atom_site_fract_z
 _atom_site_occupancy
  Pr  Pr0  1  0.000000  0.000000  0.779065  1
  Dy  Dy1  1  0.175041  0.824959  0.983206  1
  Dy  Dy2  1  0.348479  0.174240  0.482093  1
  Dy  Dy3  1  0.825760  0.651521  0.482093  1
  Dy  Dy4  1  0.175041  0.350080  0.983206  1
  Dy  Dy5  1  0.649920  0.824959  0.983206  1
  Dy  Dy6  1  0.825760  0.174240  0.482093  1
  Dy  Dy7  1  0.333333  0.666667  0.685228  1
  Dy  Dy8  1  0.666667  0.333333  0.188632  1
  Dy  Dy9  1  0.461114  0.538886  0.288420  1
  Dy  Dy10  1  0.921155  0.460578  0.788992  1
  Dy  Dy11  1  0.539422  0.078845  0.788992  1
  Dy  Dy12  1  0.461114  0.922227  0.288420  1
  Dy  Dy13  1  0.077773  0.538886  0.288420  1
  Dy  Dy14  1  0.539422  0.460578  0.788992  1
  Dy  Dy15  1  0.000000  0.000000  0.268345  1
  Co  Co16  1  0.333333  0.666667  0.052736  1
  Co  Co17  1  0.666667  0.333333  0.554936  1
  Hg  Hg18  1  0.169245  0.830755  0.542381  1
  Hg  Hg19  1  0.337674  0.168837  0.047258  1
  Hg  Hg20  1  0.831163  0.662326  0.047258  1
  Hg  Hg21  1  0.169245  0.338490  0.542381  1
  Hg  Hg22  1  0.661510  0.830755  0.542381  1
  Hg  Hg23  1  0.831163  0.168837  0.047258  1
