# generated using pymatgen
data_NaHo(SiAu)2
_symmetry_space_group_name_H-M   'P 1'
_cell_length_a   5.63493924
_cell_length_b   5.63493927
_cell_length_c   5.63494015
_cell_angle_alpha   134.17232439
_cell_angle_beta   101.17169354
_cell_angle_gamma   96.28254711
_symmetry_Int_Tables_number   1
_chemical_formula_structural   NaHo(SiAu)2
_chemical_formula_sum   'Na1 Ho1 Si2 Au2'
_cell_volume   118.05994258
_cell_formula_units_Z   1
loop_
 _symmetry_equiv_pos_site_id
 _symmetry_equiv_pos_as_xyz
  1  'x, y, z'
loop_
 _atom_site_type_symbol
 _atom_site_label
 _atom_site_symmetry_multiplicity
 _atom_site_fract_x
 _atom_site_fract_y
 _atom_site_fract_z
 _atom_site_occupancy
  Na  Na0  1  0.285946  0.285946  0.000000  1
  Ho  Ho1  1  0.865818  0.365818  0.500000  1
  Si  Si2  1  0.483690  0.660199  0.823491  1
  Si  Si3  1  0.836708  0.660199  0.176509  1
  Au  Au4  1  0.269905  0.994818  0.275088  1
  Au  Au5  1  0.719731  0.994818  0.724912  1
