# generated using pymatgen
data_CeCu2AgPt2
_symmetry_space_group_name_H-M   'P 1'
_cell_length_a   5.49974255
_cell_length_b   5.23293147
_cell_length_c   5.23293089
_cell_angle_alpha   58.49645386
_cell_angle_beta   58.29854293
_cell_angle_gamma   58.29853786
_symmetry_Int_Tables_number   1
_chemical_formula_structural   CeCu2AgPt2
_chemical_formula_sum   'Ce1 Cu2 Ag1 Pt2'
_cell_volume   102.50402076
_cell_formula_units_Z   1
loop_
 _symmetry_equiv_pos_site_id
 _symmetry_equiv_pos_as_xyz
  1  'x, y, z'
loop_
 _atom_site_type_symbol
 _atom_site_label
 _atom_site_symmetry_multiplicity
 _atom_site_fract_x
 _atom_site_fract_y
 _atom_site_fract_z
 _atom_site_occupancy
  Ce  Ce0  1  0.996639  0.003361  0.003361  1
  Cu  Cu1  1  0.379866  0.870519  0.369748  1
  Cu  Cu2  1  0.379866  0.369748  0.870519  1
  Ag  Ag3  1  0.741494  0.758506  0.758506  1
  Pt  Pt4  1  0.376528  0.373933  0.373933  1
  Pt  Pt5  1  0.875605  0.373933  0.373933  1
