# generated using pymatgen
data_DyY(As3Rh5)2
_symmetry_space_group_name_H-M   'P 1'
_cell_length_a   4.01125500
_cell_length_b   12.89696824
_cell_length_c   11.35406521
_cell_angle_alpha   89.97770190
_cell_angle_beta   90.00000000
_cell_angle_gamma   90.00000000
_symmetry_Int_Tables_number   1
_chemical_formula_structural   DyY(As3Rh5)2
_chemical_formula_sum   'Dy2 Y2 As12 Rh20'
_cell_volume   587.38013322
_cell_formula_units_Z   2
loop_
 _symmetry_equiv_pos_site_id
 _symmetry_equiv_pos_as_xyz
  1  'x, y, z'
loop_
 _atom_site_type_symbol
 _atom_site_label
 _atom_site_symmetry_multiplicity
 _atom_site_fract_x
 _atom_site_fract_y
 _atom_site_fract_z
 _atom_site_occupancy
  Dy  Dy0  1  0.750000  0.701321  0.080716  1
  Dy  Dy1  1  0.250000  0.298679  0.919284  1
  Y  Y2  1  0.250000  0.798485  0.580928  1
  Y  Y3  1  0.750000  0.201515  0.419072  1
  As  As4  1  0.750000  0.614475  0.582974  1
  As  As5  1  0.250000  0.385525  0.417026  1
  As  As6  1  0.250000  0.885392  0.083047  1
  As  As7  1  0.750000  0.114608  0.916953  1
  As  As8  1  0.750000  0.889325  0.400030  1
  As  As9  1  0.250000  0.110675  0.599970  1
  As  As10  1  0.250000  0.610791  0.900108  1
  As  As11  1  0.750000  0.389209  0.099892  1
  As  As12  1  0.750000  0.869687  0.766640  1
  As  As13  1  0.250000  0.130313  0.233360  1
  As  As14  1  0.250000  0.630561  0.266653  1
  As  As15  1  0.750000  0.369439  0.733347  1
  Rh  Rh16  1  0.750000  0.700974  0.384503  1
  Rh  Rh17  1  0.250000  0.299026  0.615497  1
  Rh  Rh18  1  0.250000  0.798946  0.884862  1
  Rh  Rh19  1  0.750000  0.201054  0.115138  1
  Rh  Rh20  1  0.750000  0.994971  0.222275  1
  Rh  Rh21  1  0.250000  0.005029  0.777725  1
  Rh  Rh22  1  0.250000  0.504908  0.722382  1
  Rh  Rh23  1  0.750000  0.495092  0.277618  1
  Rh  Rh24  1  0.750000  0.676426  0.780176  1
  Rh  Rh25  1  0.250000  0.323574  0.219824  1
  Rh  Rh26  1  0.250000  0.823651  0.280033  1
  Rh  Rh27  1  0.750000  0.176349  0.719967  1
  Rh  Rh28  1  0.750000  0.928709  0.968182  1
  Rh  Rh29  1  0.250000  0.071291  0.031818  1
  Rh  Rh30  1  0.250000  0.571222  0.468218  1
  Rh  Rh31  1  0.750000  0.428778  0.531782  1
  Rh  Rh32  1  0.750000  0.979423  0.590241  1
  Rh  Rh33  1  0.250000  0.020577  0.409759  1
  Rh  Rh34  1  0.250000  0.520950  0.090221  1
  Rh  Rh35  1  0.750000  0.479049  0.909779  1
