# generated using pymatgen
data_Er5In4CuNi
_symmetry_space_group_name_H-M   'P 1'
_cell_length_a   3.60265700
_cell_length_b   7.95945702
_cell_length_c   17.88342941
_cell_angle_alpha   89.87097048
_cell_angle_beta   90.00000000
_cell_angle_gamma   90.00000000
_symmetry_Int_Tables_number   1
_chemical_formula_structural   Er5In4CuNi
_chemical_formula_sum   'Er10 In8 Cu2 Ni2'
_cell_volume   512.80949888
_cell_formula_units_Z   2
loop_
 _symmetry_equiv_pos_site_id
 _symmetry_equiv_pos_as_xyz
  1  'x, y, z'
loop_
 _atom_site_type_symbol
 _atom_site_label
 _atom_site_symmetry_multiplicity
 _atom_site_fract_x
 _atom_site_fract_y
 _atom_site_fract_z
 _atom_site_occupancy
  Er  Er0  1  0.000000  0.500000  0.500000  1
  Er  Er1  1  0.000000  0.000000  0.000000  1
  Er  Er2  1  0.000000  0.766169  0.282730  1
  Er  Er3  1  0.000000  0.233831  0.717270  1
  Er  Er4  1  0.000000  0.757794  0.778763  1
  Er  Er5  1  0.000000  0.242206  0.221237  1
  Er  Er6  1  0.000000  0.624442  0.085031  1
  Er  Er7  1  0.000000  0.375558  0.914969  1
  Er  Er8  1  0.000000  0.878281  0.588140  1
  Er  Er9  1  0.000000  0.121719  0.411860  1
  In  In10  1  0.500000  0.702444  0.932795  1
  In  In11  1  0.500000  0.297556  0.067205  1
  In  In12  1  0.500000  0.799489  0.433564  1
  In  In13  1  0.500000  0.200511  0.566436  1
  In  In14  1  0.500000  0.567794  0.651716  1
  In  In15  1  0.500000  0.432206  0.348284  1
  In  In16  1  0.500000  0.931571  0.151354  1
  In  In17  1  0.500000  0.068429  0.848646  1
  Cu  Cu18  1  0.500000  0.538396  0.199192  1
  Cu  Cu19  1  0.500000  0.461604  0.800808  1
  Ni  Ni20  1  0.500000  0.962315  0.697164  1
  Ni  Ni21  1  0.500000  0.037685  0.302836  1
