# generated using pymatgen
data_Er16In6CoPt
_symmetry_space_group_name_H-M   'P 1'
_cell_length_a   10.37023800
_cell_length_b   10.37023702
_cell_length_c   6.94047300
_cell_angle_alpha   90.00000000
_cell_angle_beta   90.00000000
_cell_angle_gamma   119.99999674
_symmetry_Int_Tables_number   1
_chemical_formula_structural   Er16In6CoPt
_chemical_formula_sum   'Er16 In6 Co1 Pt1'
_cell_volume   646.39370965
_cell_formula_units_Z   1
loop_
 _symmetry_equiv_pos_site_id
 _symmetry_equiv_pos_as_xyz
  1  'x, y, z'
loop_
 _atom_site_type_symbol
 _atom_site_label
 _atom_site_symmetry_multiplicity
 _atom_site_fract_x
 _atom_site_fract_y
 _atom_site_fract_z
 _atom_site_occupancy
  Er  Er0  1  0.531222  0.062444  0.795359  1
  Er  Er1  1  0.937556  0.468778  0.795359  1
  Er  Er2  1  0.531222  0.468778  0.795359  1
  Er  Er3  1  0.464788  0.929577  0.291865  1
  Er  Er4  1  0.070423  0.535212  0.291865  1
  Er  Er5  1  0.464788  0.535212  0.291865  1
  Er  Er6  1  0.824509  0.649018  0.499391  1
  Er  Er7  1  0.350982  0.175491  0.499391  1
  Er  Er8  1  0.824509  0.175491  0.499391  1
  Er  Er9  1  0.178327  0.356654  0.000579  1
  Er  Er10  1  0.643346  0.821673  0.000579  1
  Er  Er11  1  0.178327  0.821673  0.000579  1
  Er  Er12  1  0.666667  0.333333  0.171564  1
  Er  Er13  1  0.333333  0.666667  0.682612  1
  Er  Er14  1  0.000000  0.000000  0.778477  1
  Er  Er15  1  0.000000  0.000000  0.277730  1
  In  In16  1  0.837440  0.674880  0.037623  1
  In  In17  1  0.325120  0.162560  0.037623  1
  In  In18  1  0.837440  0.162560  0.037623  1
  In  In19  1  0.163006  0.326012  0.537642  1
  In  In20  1  0.673988  0.836994  0.537642  1
  In  In21  1  0.163006  0.836994  0.537642  1
  Co  Co22  1  0.333333  0.666667  0.068600  1
  Pt  Pt23  1  0.666667  0.333333  0.569544  1
