# generated using pymatgen
data_Ta8AlGaC6
_symmetry_space_group_name_H-M   'P 1'
_cell_length_a   3.14653900
_cell_length_b   3.14653814
_cell_length_c   24.14292000
_cell_angle_alpha   90.00000000
_cell_angle_beta   90.00000000
_cell_angle_gamma   119.99999856
_symmetry_Int_Tables_number   1
_chemical_formula_structural   Ta8AlGaC6
_chemical_formula_sum   'Ta8 Al1 Ga1 C6'
_cell_volume   207.00772484
_cell_formula_units_Z   1
loop_
 _symmetry_equiv_pos_site_id
 _symmetry_equiv_pos_as_xyz
  1  'x, y, z'
loop_
 _atom_site_type_symbol
 _atom_site_label
 _atom_site_symmetry_multiplicity
 _atom_site_fract_x
 _atom_site_fract_y
 _atom_site_fract_z
 _atom_site_occupancy
  Ta  Ta0  1  0.000000  0.000000  0.342553  1
  Ta  Ta1  1  0.000000  0.000000  0.841879  1
  Ta  Ta2  1  0.000000  0.000000  0.658121  1
  Ta  Ta3  1  0.000000  0.000000  0.157447  1
  Ta  Ta4  1  0.333333  0.666667  0.444924  1
  Ta  Ta5  1  0.666667  0.333333  0.944252  1
  Ta  Ta6  1  0.666667  0.333333  0.555748  1
  Ta  Ta7  1  0.333333  0.666667  0.055076  1
  Al  Al8  1  0.333333  0.666667  0.250000  1
  Ga  Ga9  1  0.666667  0.333333  0.750000  1
  C  C10  1  0.666667  0.333333  0.391875  1
  C  C11  1  0.333333  0.666667  0.891200  1
  C  C12  1  0.333333  0.666667  0.608800  1
  C  C13  1  0.000000  0.000000  0.999714  1
  C  C14  1  0.666667  0.333333  0.108125  1
  C  C15  1  0.000000  0.000000  0.500286  1
