# generated using pymatgen
data_Tb3Dy9Tc3Rh
_symmetry_space_group_name_H-M   'P 1'
_cell_length_a   6.30951790
_cell_length_b   7.41042414
_cell_length_c   9.20384300
_cell_angle_alpha   90.00000000
_cell_angle_beta   90.00000000
_cell_angle_gamma   89.87005048
_symmetry_Int_Tables_number   1
_chemical_formula_structural   Tb3Dy9Tc3Rh
_chemical_formula_sum   'Tb3 Dy9 Tc3 Rh1'
_cell_volume   430.33565174
_cell_formula_units_Z   1
loop_
 _symmetry_equiv_pos_site_id
 _symmetry_equiv_pos_as_xyz
  1  'x, y, z'
loop_
 _atom_site_type_symbol
 _atom_site_label
 _atom_site_symmetry_multiplicity
 _atom_site_fract_x
 _atom_site_fract_y
 _atom_site_fract_z
 _atom_site_occupancy
  Tb  Tb0  1  0.873313  0.541632  0.250000  1
  Tb  Tb1  1  0.624091  0.038911  0.250000  1
  Tb  Tb2  1  0.131079  0.457717  0.750000  1
  Dy  Dy3  1  0.333013  0.677038  0.066118  1
  Dy  Dy4  1  0.162623  0.176889  0.436343  1
  Dy  Dy5  1  0.663153  0.320977  0.561562  1
  Dy  Dy6  1  0.838011  0.825746  0.938234  1
  Dy  Dy7  1  0.663153  0.320977  0.938438  1
  Dy  Dy8  1  0.838011  0.825746  0.561766  1
  Dy  Dy9  1  0.333013  0.677038  0.433882  1
  Dy  Dy10  1  0.162623  0.176889  0.063657  1
  Dy  Dy11  1  0.370964  0.959205  0.750000  1
  Tc  Tc12  1  0.039000  0.883986  0.250000  1
  Tc  Tc13  1  0.462528  0.386506  0.250000  1
  Tc  Tc14  1  0.960451  0.115711  0.750000  1
  Rh  Rh15  1  0.544975  0.615030  0.750000  1
