# generated using pymatgen
data_Cu4As3PO14
_symmetry_space_group_name_H-M   'P 1'
_cell_length_a   5.60629956
_cell_length_b   5.58698884
_cell_length_c   9.85730933
_cell_angle_alpha   75.16242182
_cell_angle_beta   75.01398492
_cell_angle_gamma   95.79813983
_symmetry_Int_Tables_number   1
_chemical_formula_structural   Cu4As3PO14
_chemical_formula_sum   'Cu4 As3 P1 O14'
_cell_volume   283.64602757
_cell_formula_units_Z   1
loop_
 _symmetry_equiv_pos_site_id
 _symmetry_equiv_pos_as_xyz
  1  'x, y, z'
loop_
 _atom_site_type_symbol
 _atom_site_label
 _atom_site_symmetry_multiplicity
 _atom_site_fract_x
 _atom_site_fract_y
 _atom_site_fract_z
 _atom_site_occupancy
  Cu  Cu0  1  0.288934  0.664506  0.989879  1
  Cu  Cu1  1  0.347570  0.709849  0.515200  1
  Cu  Cu2  1  0.723353  0.345810  0.007462  1
  Cu  Cu3  1  0.647451  0.284342  0.494569  1
  As  As4  1  0.206558  0.183882  0.295089  1
  As  As5  1  0.816359  0.791452  0.205781  1
  As  As6  1  0.803796  0.828652  0.706179  1
  P  P7  1  0.174798  0.203856  0.791306  1
  O  O8  1  0.998893  0.328040  0.387245  1
  O  O9  1  0.667948  0.996237  0.115275  1
  O  O10  1  0.002468  0.675508  0.616364  1
  O  O11  1  0.290693  0.996629  0.868013  1
  O  O12  1  0.397297  0.060952  0.394984  1
  O  O13  1  0.940729  0.599893  0.105723  1
  O  O14  1  0.608808  0.938870  0.607241  1
  O  O15  1  0.066894  0.369029  0.886677  1
  O  O16  1  0.940335  0.097889  0.743547  1
  O  O17  1  0.082180  0.919897  0.248053  1
  O  O18  1  0.373534  0.373925  0.645931  1
  O  O19  1  0.624663  0.628739  0.875977  1
  O  O20  1  0.605926  0.607983  0.371757  1
  O  O21  1  0.390813  0.394059  0.127748  1
