# generated using pymatgen
data_YbLu3S4
_symmetry_space_group_name_H-M   'P 1'
_cell_length_a   12.70426534
_cell_length_b   12.70426525
_cell_length_c   12.70426417
_cell_angle_alpha   17.43450991
_cell_angle_beta   17.43450917
_cell_angle_gamma   17.43450860
_symmetry_Int_Tables_number   1
_chemical_formula_structural   YbLu3S4
_chemical_formula_sum   'Yb1 Lu3 S4'
_cell_volume   160.63692203
_cell_formula_units_Z   1
loop_
 _symmetry_equiv_pos_site_id
 _symmetry_equiv_pos_as_xyz
  1  'x, y, z'
loop_
 _atom_site_type_symbol
 _atom_site_label
 _atom_site_symmetry_multiplicity
 _atom_site_fract_x
 _atom_site_fract_y
 _atom_site_fract_z
 _atom_site_occupancy
  Yb  Yb0  1  0.000000  0.000000  0.000000  1
  Lu  Lu1  1  0.248669  0.248669  0.248669  1
  Lu  Lu2  1  0.500000  0.500000  0.500000  1
  Lu  Lu3  1  0.751331  0.751331  0.751331  1
  S  S4  1  0.377047  0.377047  0.377047  1
  S  S5  1  0.125428  0.125428  0.125428  1
  S  S6  1  0.622953  0.622953  0.622953  1
  S  S7  1  0.874572  0.874572  0.874572  1
