# generated using pymatgen
data_Er6Al24Ru6PtAu
_symmetry_space_group_name_H-M   'P 1'
_cell_length_a   8.79408495
_cell_length_b   8.80239426
_cell_length_c   9.54911542
_cell_angle_alpha   89.99380421
_cell_angle_beta   90.08694762
_cell_angle_gamma   119.35191218
_symmetry_Int_Tables_number   1
_chemical_formula_structural   Er6Al24Ru6PtAu
_chemical_formula_sum   'Er6 Al24 Ru6 Pt1 Au1'
_cell_volume   644.29377512
_cell_formula_units_Z   1
loop_
 _symmetry_equiv_pos_site_id
 _symmetry_equiv_pos_as_xyz
  1  'x, y, z'
loop_
 _atom_site_type_symbol
 _atom_site_label
 _atom_site_symmetry_multiplicity
 _atom_site_fract_x
 _atom_site_fract_y
 _atom_site_fract_z
 _atom_site_occupancy
  Er  Er0  1  0.190873  0.385961  0.248696  1
  Er  Er1  1  0.809127  0.614039  0.751304  1
  Er  Er2  1  0.611248  0.809393  0.248342  1
  Er  Er3  1  0.388752  0.190607  0.751658  1
  Er  Er4  1  0.194872  0.806118  0.253728  1
  Er  Er5  1  0.805128  0.193882  0.746272  1
  Al  Al6  1  0.326282  0.672579  0.028918  1
  Al  Al7  1  0.673718  0.327421  0.971082  1
  Al  Al8  1  0.661731  0.330138  0.527401  1
  Al  Al9  1  0.338269  0.669862  0.472599  1
  Al  Al10  1  0.169044  0.324488  0.576302  1
  Al  Al11  1  0.830956  0.675512  0.423698  1
  Al  Al12  1  0.673842  0.835038  0.576077  1
  Al  Al13  1  0.848603  0.677636  0.078957  1
  Al  Al14  1  0.326158  0.164962  0.423923  1
  Al  Al15  1  0.151397  0.322364  0.921043  1
  Al  Al16  1  0.168150  0.841202  0.579485  1
  Al  Al17  1  0.323248  0.152406  0.079501  1
  Al  Al18  1  0.831850  0.158798  0.420515  1
  Al  Al19  1  0.676752  0.847594  0.920499  1
  Al  Al20  1  0.836708  0.164159  0.078912  1
  Al  Al21  1  0.163292  0.835841  0.921088  1
  Al  Al22  1  0.559806  0.122134  0.249626  1
  Al  Al23  1  0.440194  0.877866  0.750374  1
  Al  Al24  1  0.875470  0.438173  0.246251  1
  Al  Al25  1  0.124530  0.561827  0.753749  1
  Al  Al26  1  0.563418  0.435284  0.257525  1
  Al  Al27  1  0.436582  0.564716  0.742475  1
  Al  Al28  1  0.999361  0.002509  0.250388  1
  Al  Al29  1  0.000639  0.997491  0.749612  1
  Ru  Ru30  1  0.500000  0.000000  0.000000  1
  Ru  Ru31  1  0.000000  0.500000  0.000000  1
  Ru  Ru32  1  0.500000  0.000000  0.500000  1
  Ru  Ru33  1  0.500000  0.500000  0.500000  1
  Ru  Ru34  1  0.000000  0.000000  0.000000  1
  Ru  Ru35  1  0.000000  0.000000  0.500000  1
  Pt  Pt36  1  0.000000  0.500000  0.500000  1
  Au  Au37  1  0.500000  0.500000  0.000000  1
