# generated using pymatgen
data_Lu2Np(GaRu)3
_symmetry_space_group_name_H-M   'P 1'
_cell_length_a   6.83783159
_cell_length_b   6.83783067
_cell_length_c   3.91325700
_cell_angle_alpha   90.00000000
_cell_angle_beta   90.00000000
_cell_angle_gamma   116.53829686
_symmetry_Int_Tables_number   1
_chemical_formula_structural   Lu2Np(GaRu)3
_chemical_formula_sum   'Lu2 Np1 Ga3 Ru3'
_cell_volume   163.68973452
_cell_formula_units_Z   1
loop_
 _symmetry_equiv_pos_site_id
 _symmetry_equiv_pos_as_xyz
  1  'x, y, z'
loop_
 _atom_site_type_symbol
 _atom_site_label
 _atom_site_symmetry_multiplicity
 _atom_site_fract_x
 _atom_site_fract_y
 _atom_site_fract_z
 _atom_site_occupancy
  Lu  Lu0  1  0.410898  0.006263  0.500000  1
  Lu  Lu1  1  0.006263  0.410898  0.500000  1
  Np  Np2  1  0.610466  0.610466  0.500000  1
  Ga  Ga3  1  0.741848  0.033511  0.000000  1
  Ga  Ga4  1  0.033511  0.741848  0.000000  1
  Ga  Ga5  1  0.214296  0.214296  0.000000  1
  Ru  Ru6  1  0.380161  0.641763  0.000000  1
  Ru  Ru7  1  0.641763  0.380161  0.000000  1
  Ru  Ru8  1  0.960794  0.960794  0.500000  1
