# generated using pymatgen
data_Er4Si10OsPt5
_symmetry_space_group_name_H-M   'P 1'
_cell_length_a   8.15565601
_cell_length_b   8.15565605
_cell_length_c   8.15565583
_cell_angle_alpha   137.48325064
_cell_angle_beta   103.67653433
_cell_angle_gamma   91.51737115
_symmetry_Int_Tables_number   1
_chemical_formula_structural   Er4Si10OsPt5
_chemical_formula_sum   'Er4 Si10 Os1 Pt5'
_cell_volume   339.15452282
_cell_formula_units_Z   1
loop_
 _symmetry_equiv_pos_site_id
 _symmetry_equiv_pos_as_xyz
  1  'x, y, z'
loop_
 _atom_site_type_symbol
 _atom_site_label
 _atom_site_symmetry_multiplicity
 _atom_site_fract_x
 _atom_site_fract_y
 _atom_site_fract_z
 _atom_site_occupancy
  Er  Er0  1  0.861134  0.630503  0.232448  1
  Er  Er1  1  0.138866  0.371315  0.769369  1
  Er  Er2  1  0.398054  0.128685  0.267552  1
  Er  Er3  1  0.601946  0.869497  0.730631  1
  Si  Si4  1  0.500000  0.750000  0.250000  1
  Si  Si5  1  0.500000  0.250000  0.750000  1
  Si  Si6  1  0.224464  0.974464  0.750000  1
  Si  Si7  1  0.775536  0.525536  0.750000  1
  Si  Si8  1  0.770623  0.020623  0.250000  1
  Si  Si9  1  0.229377  0.479377  0.250000  1
  Si  Si10  1  0.043626  0.885653  0.147132  1
  Si  Si11  1  0.956374  0.103506  0.842027  1
  Si  Si12  1  0.738520  0.396494  0.352868  1
  Si  Si13  1  0.261480  0.614347  0.657973  1
  Os  Os14  1  0.000000  0.750000  0.750000  1
  Pt  Pt15  1  0.000000  0.250000  0.250000  1
  Pt  Pt16  1  0.246245  0.864289  0.386833  1
  Pt  Pt17  1  0.753755  0.140587  0.618043  1
  Pt  Pt18  1  0.477455  0.359413  0.113167  1
  Pt  Pt19  1  0.522545  0.635711  0.881957  1
