# generated using pymatgen
data_Dy7YHg4
_symmetry_space_group_name_H-M   'P 1'
_cell_length_a   5.11299800
_cell_length_b   7.04783419
_cell_length_c   9.32094336
_cell_angle_alpha   89.98338798
_cell_angle_beta   90.00000000
_cell_angle_gamma   90.00000000
_symmetry_Int_Tables_number   1
_chemical_formula_structural   Dy7YHg4
_chemical_formula_sum   'Dy7 Y1 Hg4'
_cell_volume   335.88541925
_cell_formula_units_Z   1
loop_
 _symmetry_equiv_pos_site_id
 _symmetry_equiv_pos_as_xyz
  1  'x, y, z'
loop_
 _atom_site_type_symbol
 _atom_site_label
 _atom_site_symmetry_multiplicity
 _atom_site_fract_x
 _atom_site_fract_y
 _atom_site_fract_z
 _atom_site_occupancy
  Dy  Dy0  1  0.250000  0.019069  0.806792  1
  Dy  Dy1  1  0.250000  0.518290  0.691744  1
  Dy  Dy2  1  0.750000  0.981072  0.194661  1
  Dy  Dy3  1  0.750000  0.482289  0.306700  1
  Dy  Dy4  1  0.250000  0.167055  0.425398  1
  Dy  Dy5  1  0.250000  0.665752  0.073253  1
  Dy  Dy6  1  0.750000  0.833271  0.575934  1
  Y  Y7  1  0.750000  0.332377  0.925301  1
  Hg  Hg8  1  0.250000  0.733961  0.395820  1
  Hg  Hg9  1  0.250000  0.232302  0.103517  1
  Hg  Hg10  1  0.750000  0.267136  0.602650  1
  Hg  Hg11  1  0.750000  0.767425  0.898229  1
