# generated using pymatgen
data_Nd5IrRhO12
_symmetry_space_group_name_H-M   'P 1'
_cell_length_a   7.08403024
_cell_length_b   7.08402892
_cell_length_c   7.54219737
_cell_angle_alpha   74.58367122
_cell_angle_beta   74.58367807
_cell_angle_gamma   51.41694616
_symmetry_Int_Tables_number   1
_chemical_formula_structural   Nd5IrRhO12
_chemical_formula_sum   'Nd5 Ir1 Rh1 O12'
_cell_volume   282.70009191
_cell_formula_units_Z   1
loop_
 _symmetry_equiv_pos_site_id
 _symmetry_equiv_pos_as_xyz
  1  'x, y, z'
loop_
 _atom_site_type_symbol
 _atom_site_label
 _atom_site_symmetry_multiplicity
 _atom_site_fract_x
 _atom_site_fract_y
 _atom_site_fract_z
 _atom_site_occupancy
  Nd  Nd0  1  0.310255  0.297417  0.358272  1
  Nd  Nd1  1  0.702583  0.689745  0.641728  1
  Nd  Nd2  1  0.694752  0.692988  0.165312  1
  Nd  Nd3  1  0.307012  0.305248  0.834688  1
  Nd  Nd4  1  0.002500  0.997500  0.500000  1
  Ir  Ir5  1  0.243202  0.756798  0.000000  1
  Rh  Rh6  1  0.750524  0.249476  0.000000  1
  O  O7  1  0.098735  0.598413  0.573710  1
  O  O8  1  0.999953  0.000150  0.170527  1
  O  O9  1  0.401587  0.901265  0.426290  1
  O  O10  1  0.495781  0.505683  0.175815  1
  O  O11  1  0.103307  0.578029  0.081422  1
  O  O12  1  0.907429  0.400939  0.422360  1
  O  O13  1  0.999850  0.000047  0.829473  1
  O  O14  1  0.599061  0.092570  0.577640  1
  O  O15  1  0.494317  0.504219  0.824185  1
  O  O16  1  0.567597  0.100415  0.082044  1
  O  O17  1  0.421971  0.896693  0.918578  1
  O  O18  1  0.899585  0.432403  0.917956  1
