# generated using pymatgen
data_Er17Tm(MgIr6)2
_symmetry_space_group_name_H-M   'P 1'
_cell_length_a   10.79895300
_cell_length_b   10.79895300
_cell_length_c   6.12205700
_cell_angle_alpha   90.00000000
_cell_angle_beta   90.00000000
_cell_angle_gamma   90.00000000
_symmetry_Int_Tables_number   1
_chemical_formula_structural   Er17Tm(MgIr6)2
_chemical_formula_sum   'Er17 Tm1 Mg2 Ir12'
_cell_volume   713.93828365
_cell_formula_units_Z   1
loop_
 _symmetry_equiv_pos_site_id
 _symmetry_equiv_pos_as_xyz
  1  'x, y, z'
loop_
 _atom_site_type_symbol
 _atom_site_label
 _atom_site_symmetry_multiplicity
 _atom_site_fract_x
 _atom_site_fract_y
 _atom_site_fract_z
 _atom_site_occupancy
  Er  Er0  1  0.284948  0.085582  0.375288  1
  Er  Er1  1  0.291080  0.913169  0.875205  1
  Er  Er2  1  0.708920  0.086831  0.875205  1
  Er  Er3  1  0.715052  0.914418  0.375288  1
  Er  Er4  1  0.585757  0.785018  0.875280  1
  Er  Er5  1  0.586931  0.208221  0.374951  1
  Er  Er6  1  0.413069  0.791779  0.374951  1
  Er  Er7  1  0.414243  0.214982  0.875280  1
  Er  Er8  1  0.208221  0.413069  0.625049  1
  Er  Er9  1  0.214982  0.585757  0.124720  1
  Er  Er10  1  0.785018  0.414243  0.124720  1
  Er  Er11  1  0.791779  0.586931  0.625049  1
  Er  Er12  1  0.913169  0.708920  0.124795  1
  Er  Er13  1  0.914418  0.284948  0.624712  1
  Er  Er14  1  0.085582  0.715052  0.624712  1
  Er  Er15  1  0.086831  0.291080  0.124795  1
  Er  Er16  1  0.500000  0.500000  0.500000  1
  Tm  Tm17  1  0.000000  0.000000  0.000000  1
  Mg  Mg18  1  0.000000  0.000000  0.500000  1
  Mg  Mg19  1  0.500000  0.500000  0.000000  1
  Ir  Ir20  1  0.846378  0.154625  0.245776  1
  Ir  Ir21  1  0.845375  0.846378  0.754224  1
  Ir  Ir22  1  0.154625  0.153622  0.754224  1
  Ir  Ir23  1  0.153622  0.845375  0.245776  1
  Ir  Ir24  1  0.655151  0.345602  0.745848  1
  Ir  Ir25  1  0.654398  0.655151  0.254152  1
  Ir  Ir26  1  0.345602  0.344849  0.254152  1
  Ir  Ir27  1  0.344849  0.654398  0.745848  1
  Ir  Ir28  1  0.500000  0.000000  0.122439  1
  Ir  Ir29  1  0.500000  0.000000  0.623421  1
  Ir  Ir30  1  0.000000  0.500000  0.877561  1
  Ir  Ir31  1  0.000000  0.500000  0.376579  1
