# generated using pymatgen
data_Zr6AlGa(Pd2N)2
_symmetry_space_group_name_H-M   'P 1'
_cell_length_a   8.65243873
_cell_length_b   8.65243938
_cell_length_c   8.64918100
_cell_angle_alpha   60.01245271
_cell_angle_beta   60.01245025
_cell_angle_gamma   60.04719052
_symmetry_Int_Tables_number   1
_chemical_formula_structural   Zr6AlGa(Pd2N)2
_chemical_formula_sum   'Zr12 Al2 Ga2 Pd8 N4'
_cell_volume   458.11393522
_cell_formula_units_Z   2
loop_
 _symmetry_equiv_pos_site_id
 _symmetry_equiv_pos_as_xyz
  1  'x, y, z'
loop_
 _atom_site_type_symbol
 _atom_site_label
 _atom_site_symmetry_multiplicity
 _atom_site_fract_x
 _atom_site_fract_y
 _atom_site_fract_z
 _atom_site_occupancy
  Zr  Zr0  1  0.811745  0.811745  0.188255  1
  Zr  Zr1  1  0.187636  0.187636  0.812364  1
  Zr  Zr2  1  0.812233  0.187215  0.811932  1
  Zr  Zr3  1  0.187215  0.812233  0.188620  1
  Zr  Zr4  1  0.187215  0.812233  0.811932  1
  Zr  Zr5  1  0.812233  0.187215  0.188620  1
  Zr  Zr6  1  0.438255  0.438255  0.061745  1
  Zr  Zr7  1  0.062364  0.062364  0.437636  1
  Zr  Zr8  1  0.437767  0.062785  0.438068  1
  Zr  Zr9  1  0.062785  0.437767  0.061380  1
  Zr  Zr10  1  0.062785  0.437767  0.438068  1
  Zr  Zr11  1  0.437767  0.062785  0.061380  1
  Al  Al12  1  0.625000  0.625000  0.125000  1
  Al  Al13  1  0.625000  0.625000  0.625000  1
  Ga  Ga14  1  0.125000  0.625000  0.625000  1
  Ga  Ga15  1  0.625000  0.125000  0.625000  1
  Pd  Pd16  1  0.760358  0.417258  0.411193  1
  Pd  Pd17  1  0.417258  0.760358  0.411193  1
  Pd  Pd18  1  0.415107  0.415107  0.760822  1
  Pd  Pd19  1  0.415107  0.415107  0.408965  1
  Pd  Pd20  1  0.489642  0.832742  0.838807  1
  Pd  Pd21  1  0.832742  0.489642  0.838807  1
  Pd  Pd22  1  0.834893  0.834893  0.489178  1
  Pd  Pd23  1  0.834893  0.834893  0.841035  1
  N  N24  1  0.625000  0.125000  0.125000  1
  N  N25  1  0.125000  0.625000  0.125000  1
  N  N26  1  0.125000  0.125000  0.625000  1
  N  N27  1  0.125000  0.125000  0.125000  1
