# generated using pymatgen
data_Cs10Mn5BeS14
_symmetry_space_group_name_H-M   'P 1'
_cell_length_a   10.73393529
_cell_length_b   10.73393465
_cell_length_c   9.13841381
_cell_angle_alpha   77.46153303
_cell_angle_beta   77.46154166
_cell_angle_gamma   71.55421369
_symmetry_Int_Tables_number   1
_chemical_formula_structural   Cs10Mn5BeS14
_chemical_formula_sum   'Cs10 Mn5 Be1 S14'
_cell_volume   962.38569698
_cell_formula_units_Z   1
loop_
 _symmetry_equiv_pos_site_id
 _symmetry_equiv_pos_as_xyz
  1  'x, y, z'
loop_
 _atom_site_type_symbol
 _atom_site_label
 _atom_site_symmetry_multiplicity
 _atom_site_fract_x
 _atom_site_fract_y
 _atom_site_fract_z
 _atom_site_occupancy
  Cs  Cs0  1  0.036258  0.419146  0.732792  1
  Cs  Cs1  1  0.419146  0.036258  0.732792  1
  Cs  Cs2  1  0.976388  0.564039  0.270113  1
  Cs  Cs3  1  0.564039  0.976388  0.270113  1
  Cs  Cs4  1  0.284053  0.719237  0.003983  1
  Cs  Cs5  1  0.719237  0.284053  0.003983  1
  Cs  Cs6  1  0.850183  0.159320  0.494511  1
  Cs  Cs7  1  0.159320  0.850183  0.494511  1
  Cs  Cs8  1  0.427915  0.427915  0.709687  1
  Cs  Cs9  1  0.578380  0.578380  0.302793  1
  Mn  Mn10  1  0.791656  0.791656  0.810466  1
  Mn  Mn11  1  0.070415  0.070415  0.059049  1
  Mn  Mn12  1  0.918611  0.918611  0.929934  1
  Mn  Mn13  1  0.338160  0.338160  0.330093  1
  Mn  Mn14  1  0.669063  0.669063  0.676628  1
  Be  Be15  1  0.202870  0.202870  0.182919  1
  S  S16  1  0.007664  0.282212  0.125818  1
  S  S17  1  0.282212  0.007664  0.125818  1
  S  S18  1  0.992669  0.715486  0.871291  1
  S  S19  1  0.715486  0.992669  0.871291  1
  S  S20  1  0.207580  0.207580  0.418345  1
  S  S21  1  0.797491  0.797491  0.568174  1
  S  S22  1  0.050304  0.050304  0.814421  1
  S  S23  1  0.931992  0.931992  0.167639  1
  S  S24  1  0.331992  0.331992  0.091679  1
  S  S25  1  0.662747  0.662747  0.919692  1
  S  S26  1  0.265611  0.535324  0.399032  1
  S  S27  1  0.535324  0.265611  0.399032  1
  S  S28  1  0.741860  0.471375  0.611701  1
  S  S29  1  0.471375  0.741860  0.611701  1
