# generated using pymatgen
data_Pr6DyTmO12
_symmetry_space_group_name_H-M   'P 1'
_cell_length_a   7.00473479
_cell_length_b   7.00473519
_cell_length_c   7.00473419
_cell_angle_alpha   92.07634617
_cell_angle_beta   92.07635010
_cell_angle_gamma   92.07635439
_symmetry_Int_Tables_number   1
_chemical_formula_structural   Pr6DyTmO12
_chemical_formula_sum   'Pr6 Dy1 Tm1 O12'
_cell_volume   343.00267258
_cell_formula_units_Z   1
loop_
 _symmetry_equiv_pos_site_id
 _symmetry_equiv_pos_as_xyz
  1  'x, y, z'
loop_
 _atom_site_type_symbol
 _atom_site_label
 _atom_site_symmetry_multiplicity
 _atom_site_fract_x
 _atom_site_fract_y
 _atom_site_fract_z
 _atom_site_occupancy
  Pr  Pr0  1  0.557697  0.064816  0.253977  1
  Pr  Pr1  1  0.064816  0.253977  0.557697  1
  Pr  Pr2  1  0.746023  0.442303  0.935184  1
  Pr  Pr3  1  0.253977  0.557697  0.064816  1
  Pr  Pr4  1  0.935184  0.746023  0.442303  1
  Pr  Pr5  1  0.442303  0.935184  0.746023  1
  Dy  Dy6  1  0.000000  0.000000  0.000000  1
  Tm  Tm7  1  0.500000  0.500000  0.500000  1
  O  O8  1  0.691496  0.089475  0.934442  1
  O  O9  1  0.910525  0.065558  0.308504  1
  O  O10  1  0.405274  0.194241  0.534278  1
  O  O11  1  0.065558  0.308504  0.910525  1
  O  O12  1  0.534278  0.405274  0.194241  1
  O  O13  1  0.805759  0.465722  0.594726  1
  O  O14  1  0.194241  0.534278  0.405274  1
  O  O15  1  0.465722  0.594726  0.805759  1
  O  O16  1  0.934442  0.691496  0.089475  1
  O  O17  1  0.594726  0.805759  0.465722  1
  O  O18  1  0.089475  0.934442  0.691496  1
  O  O19  1  0.308504  0.910525  0.065558  1
