# generated using pymatgen
data_Sm8Y12Si15Ru
_symmetry_space_group_name_H-M   'P 1'
_cell_length_a   7.43577225
_cell_length_b   7.83198496
_cell_length_c   14.72477000
_cell_angle_alpha   90.00000000
_cell_angle_beta   90.00000000
_cell_angle_gamma   90.00667115
_symmetry_Int_Tables_number   1
_chemical_formula_structural   Sm8Y12Si15Ru
_chemical_formula_sum   'Sm8 Y12 Si15 Ru1'
_cell_volume   857.52430972
_cell_formula_units_Z   1
loop_
 _symmetry_equiv_pos_site_id
 _symmetry_equiv_pos_as_xyz
  1  'x, y, z'
loop_
 _atom_site_type_symbol
 _atom_site_label
 _atom_site_symmetry_multiplicity
 _atom_site_fract_x
 _atom_site_fract_y
 _atom_site_fract_z
 _atom_site_occupancy
  Sm  Sm0  1  0.022775  0.183605  0.096256  1
  Sm  Sm1  1  0.981089  0.824967  0.904508  1
  Sm  Sm2  1  0.478121  0.680706  0.904067  1
  Sm  Sm3  1  0.981089  0.824967  0.595492  1
  Sm  Sm4  1  0.521957  0.319604  0.095323  1
  Sm  Sm5  1  0.022775  0.183605  0.403744  1
  Sm  Sm6  1  0.521957  0.319604  0.404677  1
  Sm  Sm7  1  0.478121  0.680706  0.595933  1
  Y  Y8  1  0.148558  0.516660  0.750000  1
  Y  Y9  1  0.847407  0.484498  0.250000  1
  Y  Y10  1  0.346299  0.018386  0.250000  1
  Y  Y11  1  0.663325  0.986299  0.750000  1
  Y  Y12  1  0.309214  0.174233  0.627195  1
  Y  Y13  1  0.680960  0.822619  0.376961  1
  Y  Y14  1  0.179806  0.681106  0.376336  1
  Y  Y15  1  0.680960  0.822619  0.123039  1
  Y  Y16  1  0.828528  0.315768  0.625525  1
  Y  Y17  1  0.309214  0.174233  0.872805  1
  Y  Y18  1  0.828528  0.315768  0.874475  1
  Y  Y19  1  0.179806  0.681106  0.123664  1
  Si  Si20  1  0.973163  0.895266  0.250000  1
  Si  Si21  1  0.476515  0.607945  0.250000  1
  Si  Si22  1  0.522642  0.395709  0.750000  1
  Si  Si23  1  0.272984  0.868766  0.750000  1
  Si  Si24  1  0.728955  0.123875  0.250000  1
  Si  Si25  1  0.231555  0.377732  0.250000  1
  Si  Si26  1  0.762263  0.620315  0.750000  1
  Si  Si27  1  0.151339  0.473142  0.538520  1
  Si  Si28  1  0.853804  0.529842  0.461271  1
  Si  Si29  1  0.351126  0.970704  0.461136  1
  Si  Si30  1  0.853804  0.529842  0.038729  1
  Si  Si31  1  0.644499  0.030128  0.539086  1
  Si  Si32  1  0.151339  0.473142  0.961480  1
  Si  Si33  1  0.644499  0.030128  0.960914  1
  Si  Si34  1  0.351126  0.970704  0.038864  1
  Ru  Ru35  1  0.019899  0.091703  0.750000  1
