# generated using pymatgen
data_Lu10Hg4Bi3Te
_symmetry_space_group_name_H-M   'P 1'
_cell_length_a   8.75506912
_cell_length_b   8.75507072
_cell_length_c   8.06355700
_cell_angle_alpha   89.99047805
_cell_angle_beta   89.99047805
_cell_angle_gamma   125.23540627
_symmetry_Int_Tables_number   1
_chemical_formula_structural   Lu10Hg4Bi3Te
_chemical_formula_sum   'Lu10 Hg4 Bi3 Te1'
_cell_volume   504.84202661
_cell_formula_units_Z   1
loop_
 _symmetry_equiv_pos_site_id
 _symmetry_equiv_pos_as_xyz
  1  'x, y, z'
loop_
 _atom_site_type_symbol
 _atom_site_label
 _atom_site_symmetry_multiplicity
 _atom_site_fract_x
 _atom_site_fract_y
 _atom_site_fract_z
 _atom_site_occupancy
  Lu  Lu0  1  0.999602  0.000398  0.000000  1
  Lu  Lu1  1  0.501573  0.498427  0.500000  1
  Lu  Lu2  1  0.787535  0.537021  0.162859  1
  Lu  Lu3  1  0.462979  0.212465  0.837141  1
  Lu  Lu4  1  0.961663  0.709483  0.665345  1
  Lu  Lu5  1  0.290517  0.038337  0.334655  1
  Lu  Lu6  1  0.209677  0.461586  0.836341  1
  Lu  Lu7  1  0.538414  0.790323  0.163659  1
  Lu  Lu8  1  0.038237  0.291451  0.334876  1
  Lu  Lu9  1  0.708549  0.961763  0.665124  1
  Hg  Hg10  1  0.864545  0.864712  0.366683  1
  Hg  Hg11  1  0.135288  0.135455  0.633317  1
  Hg  Hg12  1  0.634287  0.636138  0.864888  1
  Hg  Hg13  1  0.363862  0.365713  0.135112  1
  Bi  Bi14  1  0.208178  0.791822  0.000000  1
  Bi  Bi15  1  0.708443  0.291557  0.500000  1
  Bi  Bi16  1  0.791764  0.208236  0.000000  1
  Te  Te17  1  0.294889  0.705111  0.500000  1
