# generated using pymatgen
data_Sr4Ti3Mn2(Si2O11)2
_symmetry_space_group_name_H-M   'P 1'
_cell_length_a   7.62194713
_cell_length_b   7.62194677
_cell_length_c   11.93533130
_cell_angle_alpha   66.96464004
_cell_angle_beta   113.03535663
_cell_angle_gamma   136.70594245
_symmetry_Int_Tables_number   1
_chemical_formula_structural   Sr4Ti3Mn2(Si2O11)2
_chemical_formula_sum   'Sr4 Ti3 Mn2 Si4 O22'
_cell_volume   431.28683381
_cell_formula_units_Z   1
loop_
 _symmetry_equiv_pos_site_id
 _symmetry_equiv_pos_as_xyz
  1  'x, y, z'
loop_
 _atom_site_type_symbol
 _atom_site_label
 _atom_site_symmetry_multiplicity
 _atom_site_fract_x
 _atom_site_fract_y
 _atom_site_fract_z
 _atom_site_occupancy
  Sr  Sr0  1  0.046132  0.953865  0.739745  1
  Sr  Sr1  1  0.953865  0.046132  0.260255  1
  Sr  Sr2  1  0.767351  0.232646  0.736159  1
  Sr  Sr3  1  0.232646  0.767351  0.263841  1
  Ti  Ti4  1  0.499997  0.499996  0.500000  1
  Ti  Ti5  1  0.277525  0.722472  0.000317  1
  Ti  Ti6  1  0.722471  0.277526  0.999682  1
  Mn  Mn7  1  0.245725  0.245725  0.000000  1
  Mn  Mn8  1  0.754275  0.754275  0.000000  1
  Si  Si9  1  0.840781  0.159213  0.452763  1
  Si  Si10  1  0.159213  0.840782  0.547237  1
  Si  Si11  1  0.408223  0.591779  0.733619  1
  Si  Si12  1  0.591778  0.408223  0.266381  1
  O  O13  1  0.148019  0.851975  0.409064  1
  O  O14  1  0.851975  0.148019  0.590936  1
  O  O15  1  0.280670  0.719327  0.657917  1
  O  O16  1  0.719327  0.280669  0.342083  1
  O  O17  1  0.471230  0.528765  0.646182  1
  O  O18  1  0.528765  0.471230  0.353818  1
  O  O19  1  0.407599  0.592405  0.997614  1
  O  O20  1  0.592405  0.407599  0.002386  1
  O  O21  1  0.090361  0.909646  0.002106  1
  O  O22  1  0.909646  0.090361  0.997894  1
  O  O23  1  0.652950  0.866174  0.418469  1
  O  O24  1  0.866174  0.652950  0.581531  1
  O  O25  1  0.347042  0.133820  0.581531  1
  O  O26  1  0.133819  0.347042  0.418469  1
  O  O27  1  0.542583  0.957393  0.118134  1
  O  O28  1  0.957393  0.542582  0.881865  1
  O  O29  1  0.457415  0.042603  0.881865  1
  O  O30  1  0.042604  0.457415  0.118134  1
  O  O31  1  0.319796  0.197670  0.179317  1
  O  O32  1  0.197669  0.319797  0.820683  1
  O  O33  1  0.680205  0.802333  0.820681  1
  O  O34  1  0.802333  0.680206  0.179319  1
