# generated using pymatgen
data_Er3Al2Ga3Ni
_symmetry_space_group_name_H-M   'P 1'
_cell_length_a   6.85043806
_cell_length_b   6.85043712
_cell_length_c   4.23594300
_cell_angle_alpha   90.00000000
_cell_angle_beta   90.00000000
_cell_angle_gamma   119.76688751
_symmetry_Int_Tables_number   1
_chemical_formula_structural   Er3Al2Ga3Ni
_chemical_formula_sum   'Er3 Al2 Ga3 Ni1'
_cell_volume   172.55706221
_cell_formula_units_Z   1
loop_
 _symmetry_equiv_pos_site_id
 _symmetry_equiv_pos_as_xyz
  1  'x, y, z'
loop_
 _atom_site_type_symbol
 _atom_site_label
 _atom_site_symmetry_multiplicity
 _atom_site_fract_x
 _atom_site_fract_y
 _atom_site_fract_z
 _atom_site_occupancy
  Er  Er0  1  0.592361  0.999171  0.000000  1
  Er  Er1  1  0.999171  0.592361  0.000000  1
  Er  Er2  1  0.408649  0.408649  0.000000  1
  Al  Al3  1  0.231729  0.000895  0.500000  1
  Al  Al4  1  0.000895  0.231729  0.500000  1
  Ga  Ga5  1  0.763901  0.763901  0.500000  1
  Ga  Ga6  1  0.330999  0.666781  0.500000  1
  Ga  Ga7  1  0.666781  0.330999  0.500000  1
  Ni  Ni8  1  0.005515  0.005515  0.000000  1
