# generated using pymatgen
data_YLuPa2(Al8Pt3)3
_symmetry_space_group_name_H-M   'P 1'
_cell_length_a   7.56353438
_cell_length_b   7.57178008
_cell_length_c   13.10427814
_cell_angle_alpha   84.50139445
_cell_angle_beta   78.90553089
_cell_angle_gamma   59.92747226
_symmetry_Int_Tables_number   1
_chemical_formula_structural   YLuPa2(Al8Pt3)3
_chemical_formula_sum   'Y1 Lu1 Pa2 Al24 Pt9'
_cell_volume   637.31672195
_cell_formula_units_Z   1
loop_
 _symmetry_equiv_pos_site_id
 _symmetry_equiv_pos_as_xyz
  1  'x, y, z'
loop_
 _atom_site_type_symbol
 _atom_site_label
 _atom_site_symmetry_multiplicity
 _atom_site_fract_x
 _atom_site_fract_y
 _atom_site_fract_z
 _atom_site_occupancy
  Y  Y0  1  0.733578  0.498379  0.808493  1
  Lu  Lu1  1  0.265544  0.501502  0.193304  1
  Pa  Pa2  1  0.395132  0.168262  0.804943  1
  Pa  Pa3  1  0.604711  0.831968  0.195046  1
  Al  Al4  1  0.684023  0.833834  0.944957  1
  Al  Al5  1  0.315773  0.167282  0.056149  1
  Al  Al6  1  0.145642  0.832531  0.561129  1
  Al  Al7  1  0.854571  0.167286  0.438455  1
  Al  Al8  1  0.480402  0.167685  0.557828  1
  Al  Al9  1  0.519618  0.832376  0.441762  1
  Al  Al10  1  0.214921  0.168297  0.329797  1
  Al  Al11  1  0.785573  0.831999  0.669209  1
  Al  Al12  1  0.437223  0.509287  0.670160  1
  Al  Al13  1  0.562629  0.490718  0.328932  1
  Al  Al14  1  0.107835  0.159471  0.668226  1
  Al  Al15  1  0.892957  0.840145  0.330838  1
  Al  Al16  1  0.352759  0.499447  0.944311  1
  Al  Al17  1  0.645289  0.500694  0.057534  1
  Al  Al18  1  0.015966  0.167638  0.952450  1
  Al  Al19  1  0.984571  0.831293  0.048875  1
  Al  Al20  1  0.185845  0.500307  0.441038  1
  Al  Al21  1  0.814419  0.499715  0.558456  1
  Al  Al22  1  0.735477  0.162864  0.182657  1
  Al  Al23  1  0.263538  0.837826  0.817268  1
  Al  Al24  1  0.063039  0.631002  0.816083  1
  Al  Al25  1  0.937866  0.369190  0.183804  1
  Al  Al26  1  0.855029  0.039939  0.816881  1
  Al  Al27  1  0.145268  0.958804  0.182992  1
  Pt  Pt28  1  0.120442  0.490770  0.639886  1
  Pt  Pt29  1  0.880593  0.509337  0.359511  1
  Pt  Pt30  1  0.656609  0.172789  0.999966  1
  Pt  Pt31  1  0.343258  0.827334  0.000170  1
  Pt  Pt32  1  0.536831  0.166744  0.359915  1
  Pt  Pt33  1  0.462653  0.834069  0.639519  1
  Pt  Pt34  1  0.777738  0.175173  0.638397  1
  Pt  Pt35  1  0.222666  0.823907  0.360942  1
  Pt  Pt36  1  0.000013  0.500137  0.000119  1
