# generated using pymatgen
data_Gd5GaSnRu3
_symmetry_space_group_name_H-M   'P 1'
_cell_length_a   8.48097401
_cell_length_b   8.48097265
_cell_length_c   8.44947400
_cell_angle_alpha   109.56518991
_cell_angle_beta   109.42349511
_cell_angle_gamma   109.57570559
_symmetry_Int_Tables_number   1
_chemical_formula_structural   Gd5GaSnRu3
_chemical_formula_sum   'Gd10 Ga2 Sn2 Ru6'
_cell_volume   466.96889431
_cell_formula_units_Z   2
loop_
 _symmetry_equiv_pos_site_id
 _symmetry_equiv_pos_as_xyz
  1  'x, y, z'
loop_
 _atom_site_type_symbol
 _atom_site_label
 _atom_site_symmetry_multiplicity
 _atom_site_fract_x
 _atom_site_fract_y
 _atom_site_fract_z
 _atom_site_occupancy
  Gd  Gd0  1  0.241714  0.683319  0.431658  1
  Gd  Gd1  1  0.751662  0.810057  0.068343  1
  Gd  Gd2  1  0.432348  0.246668  0.685037  1
  Gd  Gd3  1  0.691651  0.441652  0.250000  1
  Gd  Gd4  1  0.061631  0.747310  0.814963  1
  Gd  Gd5  1  0.819490  0.069490  0.750000  1
  Gd  Gd6  1  0.209567  0.209203  0.208706  1
  Gd  Gd7  1  0.500498  0.000861  0.291294  1
  Gd  Gd8  1  0.283474  0.500351  0.000640  1
  Gd  Gd9  1  0.999711  0.282836  0.499361  1
  Ga  Ga10  1  0.912214  0.500385  0.999808  1
  Ga  Ga11  1  0.000575  0.912405  0.500193  1
  Sn  Sn12  1  0.501664  0.000074  0.907172  1
  Sn  Sn13  1  0.592901  0.594490  0.592828  1
  Ru  Ru14  1  0.241579  0.126064  0.872124  1
  Ru  Ru15  1  0.753940  0.369453  0.627875  1
  Ru  Ru16  1  0.887458  0.262511  0.133930  1
  Ru  Ru17  1  0.125044  0.875044  0.250001  1
  Ru  Ru18  1  0.628579  0.753529  0.366069  1
  Ru  Ru19  1  0.364298  0.614298  0.750000  1
