# generated using pymatgen
data_SmZnCdNiPt2
_symmetry_space_group_name_H-M   'P 1'
_cell_length_a   5.14167293
_cell_length_b   5.33193448
_cell_length_c   5.33193547
_cell_angle_alpha   62.37447447
_cell_angle_beta   59.80003511
_cell_angle_gamma   59.80003688
_symmetry_Int_Tables_number   1
_chemical_formula_structural   SmZnCdNiPt2
_chemical_formula_sum   'Sm1 Zn1 Cd1 Ni1 Pt2'
_cell_volume   104.75662145
_cell_formula_units_Z   1
loop_
 _symmetry_equiv_pos_site_id
 _symmetry_equiv_pos_as_xyz
  1  'x, y, z'
loop_
 _atom_site_type_symbol
 _atom_site_label
 _atom_site_symmetry_multiplicity
 _atom_site_fract_x
 _atom_site_fract_y
 _atom_site_fract_z
 _atom_site_occupancy
  Sm  Sm0  1  0.256561  0.247557  0.247557  1
  Zn  Zn1  1  0.122151  0.628433  0.628433  1
  Cd  Cd2  1  0.006747  0.993425  0.993425  1
  Ni  Ni3  1  0.621313  0.628383  0.628383  1
  Pt  Pt4  1  0.621615  0.627576  0.124629  1
  Pt  Pt5  1  0.621615  0.124629  0.627576  1
