# generated using pymatgen
data_RbUTiSe5
_symmetry_space_group_name_H-M   'P 1'
_cell_length_a   5.66430300
_cell_length_b   8.02307200
_cell_length_c   9.80361100
_cell_angle_alpha   90.00000000
_cell_angle_beta   90.00000000
_cell_angle_gamma   90.00000000
_symmetry_Int_Tables_number   1
_chemical_formula_structural   RbUTiSe5
_chemical_formula_sum   'Rb2 U2 Ti2 Se10'
_cell_volume   445.52618812
_cell_formula_units_Z   2
loop_
 _symmetry_equiv_pos_site_id
 _symmetry_equiv_pos_as_xyz
  1  'x, y, z'
loop_
 _atom_site_type_symbol
 _atom_site_label
 _atom_site_symmetry_multiplicity
 _atom_site_fract_x
 _atom_site_fract_y
 _atom_site_fract_z
 _atom_site_occupancy
  Rb  Rb0  1  0.750001  0.500000  0.217823  1
  Rb  Rb1  1  0.249999  0.500000  0.782177  1
  U  U2  1  0.249999  0.000000  0.329062  1
  U  U3  1  0.750001  0.000000  0.670937  1
  Ti  Ti4  1  0.000000  0.000000  0.000000  1
  Ti  Ti5  1  0.500000  0.000000  0.000000  1
  Se  Se6  1  0.249999  0.233383  0.110257  1
  Se  Se7  1  0.249999  0.766616  0.110257  1
  Se  Se8  1  0.750001  0.000000  0.222241  1
  Se  Se9  1  0.000000  0.239207  0.500000  1
  Se  Se10  1  0.500000  0.239207  0.500000  1
  Se  Se11  1  0.000000  0.760793  0.500000  1
  Se  Se12  1  0.500000  0.760793  0.500000  1
  Se  Se13  1  0.249999  0.000000  0.777759  1
  Se  Se14  1  0.750001  0.233383  0.889742  1
  Se  Se15  1  0.750001  0.766616  0.889742  1
