# generated using pymatgen
data_Tb4YCd2(InPd)2
_symmetry_space_group_name_H-M   'P 1'
_cell_length_a   3.63058700
_cell_length_b   8.13330900
_cell_length_c   18.48236600
_cell_angle_alpha   90.00000000
_cell_angle_beta   90.00000000
_cell_angle_gamma   90.00000000
_symmetry_Int_Tables_number   1
_chemical_formula_structural   Tb4YCd2(InPd)2
_chemical_formula_sum   'Tb8 Y2 Cd4 In4 Pd4'
_cell_volume   545.75998072
_cell_formula_units_Z   2
loop_
 _symmetry_equiv_pos_site_id
 _symmetry_equiv_pos_as_xyz
  1  'x, y, z'
loop_
 _atom_site_type_symbol
 _atom_site_label
 _atom_site_symmetry_multiplicity
 _atom_site_fract_x
 _atom_site_fract_y
 _atom_site_fract_z
 _atom_site_occupancy
  Tb  Tb0  1  0.000000  0.745212  0.280580  1
  Tb  Tb1  1  0.000000  0.254788  0.719420  1
  Tb  Tb2  1  0.000000  0.754788  0.780580  1
  Tb  Tb3  1  0.000000  0.245212  0.219420  1
  Tb  Tb4  1  0.000000  0.614178  0.083826  1
  Tb  Tb5  1  0.000000  0.385822  0.916174  1
  Tb  Tb6  1  0.000000  0.885822  0.583826  1
  Tb  Tb7  1  0.000000  0.114178  0.416174  1
  Y  Y8  1  0.000000  0.500000  0.500000  1
  Y  Y9  1  0.000000  0.000000  0.000000  1
  Cd  Cd10  1  0.500000  0.709698  0.931468  1
  Cd  Cd11  1  0.500000  0.290302  0.068532  1
  Cd  Cd12  1  0.500000  0.790302  0.431468  1
  Cd  Cd13  1  0.500000  0.209698  0.568532  1
  In  In14  1  0.500000  0.572250  0.647648  1
  In  In15  1  0.500000  0.427750  0.352352  1
  In  In16  1  0.500000  0.927750  0.147648  1
  In  In17  1  0.500000  0.072250  0.852352  1
  Pd  Pd18  1  0.500000  0.527311  0.196761  1
  Pd  Pd19  1  0.500000  0.472689  0.803239  1
  Pd  Pd20  1  0.500000  0.972689  0.696761  1
  Pd  Pd21  1  0.500000  0.027311  0.303239  1
