# generated using pymatgen
data_Rb3LuIr2O9
_symmetry_space_group_name_H-M   'P 1'
_cell_length_a   6.02460302
_cell_length_b   6.02195459
_cell_length_c   14.49979000
_cell_angle_alpha   90.00000000
_cell_angle_beta   90.00000000
_cell_angle_gamma   120.02264985
_symmetry_Int_Tables_number   1
_chemical_formula_structural   Rb3LuIr2O9
_chemical_formula_sum   'Rb6 Lu2 Ir4 O18'
_cell_volume   455.46927787
_cell_formula_units_Z   2
loop_
 _symmetry_equiv_pos_site_id
 _symmetry_equiv_pos_as_xyz
  1  'x, y, z'
loop_
 _atom_site_type_symbol
 _atom_site_label
 _atom_site_symmetry_multiplicity
 _atom_site_fract_x
 _atom_site_fract_y
 _atom_site_fract_z
 _atom_site_occupancy
  Rb  Rb0  1  0.667018  0.334101  0.098584  1
  Rb  Rb1  1  0.000444  0.000896  0.249885  1
  Rb  Rb2  1  0.667064  0.334116  0.401611  1
  Rb  Rb3  1  0.332983  0.665899  0.598584  1
  Rb  Rb4  1  0.999555  0.999104  0.749885  1
  Rb  Rb5  1  0.332937  0.665884  0.901611  1
  Lu  Lu6  1  0.999871  0.999930  0.000048  1
  Lu  Lu7  1  0.000129  0.000070  0.500048  1
  Ir  Ir8  1  0.333821  0.667587  0.152433  1
  Ir  Ir9  1  0.333722  0.667560  0.347653  1
  Ir  Ir10  1  0.666180  0.332413  0.652433  1
  Ir  Ir11  1  0.666279  0.332440  0.847652  1
  O  O12  1  0.177665  0.355367  0.082317  1
  O  O13  1  0.177793  0.823903  0.082601  1
  O  O14  1  0.646047  0.823888  0.082615  1
  O  O15  1  0.061269  0.531210  0.250032  1
  O  O16  1  0.469915  0.531250  0.250036  1
  O  O17  1  0.470050  0.940080  0.250034  1
  O  O18  1  0.177839  0.823912  0.417280  1
  O  O19  1  0.646164  0.823933  0.417298  1
  O  O20  1  0.177717  0.355381  0.417575  1
  O  O21  1  0.822336  0.644632  0.582318  1
  O  O22  1  0.353954  0.176115  0.582615  1
  O  O23  1  0.822210  0.176100  0.582601  1
  O  O24  1  0.529952  0.059919  0.750034  1
  O  O25  1  0.530086  0.468750  0.750036  1
  O  O26  1  0.938730  0.468790  0.750032  1
  O  O27  1  0.353837  0.176070  0.917298  1
  O  O28  1  0.822164  0.176091  0.917280  1
  O  O29  1  0.822284  0.644618  0.917576  1
