# generated using pymatgen
data_Hf11Zr5Ir5Rh3N4
_symmetry_space_group_name_H-M   'P 1'
_cell_length_a   8.75147444
_cell_length_b   8.75435670
_cell_length_c   8.75134100
_cell_angle_alpha   60.01139841
_cell_angle_beta   60.00050819
_cell_angle_gamma   59.89249865
_symmetry_Int_Tables_number   1
_chemical_formula_structural   Hf11Zr5Ir5Rh3N4
_chemical_formula_sum   'Hf11 Zr5 Ir5 Rh3 N4'
_cell_volume   473.75084426
_cell_formula_units_Z   1
loop_
 _symmetry_equiv_pos_site_id
 _symmetry_equiv_pos_as_xyz
  1  'x, y, z'
loop_
 _atom_site_type_symbol
 _atom_site_label
 _atom_site_symmetry_multiplicity
 _atom_site_fract_x
 _atom_site_fract_y
 _atom_site_fract_z
 _atom_site_occupancy
  Hf  Hf0  1  0.114537  0.627633  0.628916  1
  Hf  Hf1  1  0.627631  0.116486  0.627942  1
  Hf  Hf2  1  0.629038  0.628029  0.116078  1
  Hf  Hf3  1  0.629038  0.628029  0.626856  1
  Hf  Hf4  1  0.817274  0.816768  0.182979  1
  Hf  Hf5  1  0.184067  0.182715  0.816609  1
  Hf  Hf6  1  0.815306  0.184828  0.815513  1
  Hf  Hf7  1  0.185898  0.814708  0.184174  1
  Hf  Hf8  1  0.185898  0.814708  0.815220  1
  Hf  Hf9  1  0.815306  0.184828  0.184354  1
  Hf  Hf10  1  0.434418  0.434386  0.065598  1
  Zr  Zr11  1  0.066404  0.065193  0.434201  1
  Zr  Zr12  1  0.434422  0.065583  0.434272  1
  Zr  Zr13  1  0.067241  0.433320  0.066003  1
  Zr  Zr14  1  0.067241  0.433320  0.433437  1
  Zr  Zr15  1  0.434422  0.065583  0.065723  1
  Ir  Ir16  1  0.758216  0.413470  0.414157  1
  Ir  Ir17  1  0.413222  0.756676  0.415051  1
  Ir  Ir18  1  0.414259  0.415420  0.758395  1
  Ir  Ir19  1  0.414259  0.415420  0.411925  1
  Ir  Ir20  1  0.469724  0.842386  0.843946  1
  Rh  Rh21  1  0.840252  0.472613  0.843568  1
  Rh  Rh22  1  0.841751  0.843382  0.471766  1
  Rh  Rh23  1  0.841751  0.843382  0.843102  1
  N  N24  1  0.628161  0.126848  0.122495  1
  N  N25  1  0.126099  0.628637  0.122632  1
  N  N26  1  0.122083  0.122823  0.631599  1
  N  N27  1  0.122083  0.122823  0.123494  1
