# generated using pymatgen
data_Ca14SnPbN8
_symmetry_space_group_name_H-M   'P 1'
_cell_length_a   3.59543000
_cell_length_b   12.08651702
_cell_length_c   11.63053702
_cell_angle_alpha   89.99287381
_cell_angle_beta   90.00000000
_cell_angle_gamma   90.00000000
_symmetry_Int_Tables_number   1
_chemical_formula_structural   Ca14SnPbN8
_chemical_formula_sum   'Ca14 Sn1 Pb1 N8'
_cell_volume   505.41924029
_cell_formula_units_Z   1
loop_
 _symmetry_equiv_pos_site_id
 _symmetry_equiv_pos_as_xyz
  1  'x, y, z'
loop_
 _atom_site_type_symbol
 _atom_site_label
 _atom_site_symmetry_multiplicity
 _atom_site_fract_x
 _atom_site_fract_y
 _atom_site_fract_z
 _atom_site_occupancy
  Ca  Ca0  1  0.500381  0.667604  0.239693  1
  Ca  Ca1  1  0.500381  0.332396  0.760307  1
  Ca  Ca2  1  0.499853  0.168464  0.261302  1
  Ca  Ca3  1  0.499853  0.831536  0.738698  1
  Ca  Ca4  1  0.500102  0.500000  0.000000  1
  Ca  Ca5  1  0.499783  0.000000  0.500000  1
  Ca  Ca6  1  0.999573  0.926194  0.266277  1
  Ca  Ca7  1  0.999573  0.073806  0.733723  1
  Ca  Ca8  1  0.000541  0.426841  0.235773  1
  Ca  Ca9  1  0.000541  0.573159  0.764227  1
  Ca  Ca10  1  0.000200  0.766329  0.481739  1
  Ca  Ca11  1  0.000200  0.233671  0.518261  1
  Ca  Ca12  1  0.999758  0.268442  0.018899  1
  Ca  Ca13  1  0.999758  0.731558  0.981101  1
  Sn  Sn14  1  0.517405  0.500000  0.500000  1
  Pb  Pb15  1  0.481603  0.000000  0.000000  1
  N  N16  1  0.000427  0.599531  0.131465  1
  N  N17  1  0.000427  0.400469  0.868535  1
  N  N18  1  0.999830  0.099935  0.369184  1
  N  N19  1  0.999830  0.900065  0.630816  1
  N  N20  1  0.499748  0.829669  0.361032  1
  N  N21  1  0.499748  0.170331  0.638968  1
  N  N22  1  0.500243  0.330544  0.139871  1
  N  N23  1  0.500243  0.669456  0.860129  1
