# generated using pymatgen
data_K2GdPuO6
_symmetry_space_group_name_H-M   'P 1'
_cell_length_a   6.06452722
_cell_length_b   6.07277816
_cell_length_c   8.58568300
_cell_angle_alpha   90.02797435
_cell_angle_beta   90.01527692
_cell_angle_gamma   90.02164553
_symmetry_Int_Tables_number   1
_chemical_formula_structural   K2GdPuO6
_chemical_formula_sum   'K4 Gd2 Pu2 O12'
_cell_volume   316.19799878
_cell_formula_units_Z   2
loop_
 _symmetry_equiv_pos_site_id
 _symmetry_equiv_pos_as_xyz
  1  'x, y, z'
loop_
 _atom_site_type_symbol
 _atom_site_label
 _atom_site_symmetry_multiplicity
 _atom_site_fract_x
 _atom_site_fract_y
 _atom_site_fract_z
 _atom_site_occupancy
  K  K0  1  0.450613  0.049409  0.249597  1
  K  K1  1  0.950674  0.549329  0.249741  1
  K  K2  1  0.450626  0.049314  0.750377  1
  K  K3  1  0.950639  0.549363  0.750235  1
  Gd  Gd4  1  0.449992  0.550143  0.999988  1
  Gd  Gd5  1  0.949921  0.049963  0.500018  1
  Pu  Pu6  1  0.949929  0.050239  0.999996  1
  Pu  Pu7  1  0.449845  0.549998  0.500011  1
  O  O8  1  0.181651  0.812470  0.000336  1
  O  O9  1  0.187771  0.281868  0.000756  1
  O  O10  1  0.948816  0.049994  0.234595  1
  O  O11  1  0.450765  0.550474  0.265341  1
  O  O12  1  0.209628  0.320802  0.499237  1
  O  O13  1  0.220320  0.789954  0.499660  1
  O  O14  1  0.679230  0.310069  0.500298  1
  O  O15  1  0.689908  0.779444  0.500722  1
  O  O16  1  0.448725  0.549824  0.734703  1
  O  O17  1  0.950823  0.050644  0.765371  1
  O  O18  1  0.711888  0.818720  0.999295  1
  O  O19  1  0.718233  0.287982  0.999704  1
