# generated using pymatgen
data_HoSc(BiO4)2
_symmetry_space_group_name_H-M   'P 1'
_cell_length_a   5.45946020
_cell_length_b   7.75819629
_cell_length_c   7.76663409
_cell_angle_alpha   82.22996370
_cell_angle_beta   86.99354030
_cell_angle_gamma   91.31946144
_symmetry_Int_Tables_number   1
_chemical_formula_structural   HoSc(BiO4)2
_chemical_formula_sum   'Ho2 Sc2 Bi4 O16'
_cell_volume   325.34044120
_cell_formula_units_Z   2
loop_
 _symmetry_equiv_pos_site_id
 _symmetry_equiv_pos_as_xyz
  1  'x, y, z'
loop_
 _atom_site_type_symbol
 _atom_site_label
 _atom_site_symmetry_multiplicity
 _atom_site_fract_x
 _atom_site_fract_y
 _atom_site_fract_z
 _atom_site_occupancy
  Ho  Ho0  1  0.741769  0.371860  0.379911  1
  Ho  Ho1  1  0.258231  0.628140  0.620089  1
  Sc  Sc2  1  0.726165  0.859847  0.336845  1
  Sc  Sc3  1  0.273835  0.140153  0.663155  1
  Bi  Bi4  1  0.772462  0.321224  0.842421  1
  Bi  Bi5  1  0.227538  0.678776  0.157579  1
  Bi  Bi6  1  0.243097  0.174656  0.175656  1
  Bi  Bi7  1  0.756903  0.825344  0.824344  1
  O  O8  1  0.896725  0.813459  0.079437  1
  O  O9  1  0.103275  0.186541  0.920563  1
  O  O10  1  0.408696  0.926779  0.184497  1
  O  O11  1  0.591304  0.073221  0.815503  1
  O  O12  1  0.070893  0.423717  0.181336  1
  O  O13  1  0.929107  0.576283  0.818664  1
  O  O14  1  0.580640  0.323924  0.087959  1
  O  O15  1  0.419360  0.676076  0.912041  1
  O  O16  1  0.997572  0.318061  0.603839  1
  O  O17  1  0.002428  0.681939  0.396161  1
  O  O18  1  0.418436  0.184664  0.412799  1
  O  O19  1  0.581564  0.815336  0.587201  1
  O  O20  1  0.498810  0.609302  0.338453  1
  O  O21  1  0.501190  0.390698  0.661547  1
  O  O22  1  0.908688  0.098431  0.313166  1
  O  O23  1  0.091312  0.901569  0.686834  1
