# generated using pymatgen
data_Dy4ReTc5Os2
_symmetry_space_group_name_H-M   'P 1'
_cell_length_a   5.26408734
_cell_length_b   5.26408873
_cell_length_c   9.09134600
_cell_angle_alpha   90.00000000
_cell_angle_beta   90.00000000
_cell_angle_gamma   118.47763610
_symmetry_Int_Tables_number   1
_chemical_formula_structural   Dy4ReTc5Os2
_chemical_formula_sum   'Dy4 Re1 Tc5 Os2'
_cell_volume   221.44453971
_cell_formula_units_Z   1
loop_
 _symmetry_equiv_pos_site_id
 _symmetry_equiv_pos_as_xyz
  1  'x, y, z'
loop_
 _atom_site_type_symbol
 _atom_site_label
 _atom_site_symmetry_multiplicity
 _atom_site_fract_x
 _atom_site_fract_y
 _atom_site_fract_z
 _atom_site_occupancy
  Dy  Dy0  1  0.331138  0.668862  0.436862  1
  Dy  Dy1  1  0.666782  0.333218  0.563496  1
  Dy  Dy2  1  0.666782  0.333218  0.936504  1
  Dy  Dy3  1  0.331138  0.668862  0.063138  1
  Re  Re4  1  0.834682  0.165318  0.250000  1
  Tc  Tc5  1  0.828689  0.654014  0.250000  1
  Tc  Tc6  1  0.345986  0.171311  0.250000  1
  Tc  Tc7  1  0.173034  0.826966  0.750000  1
  Tc  Tc8  1  0.168398  0.338402  0.750000  1
  Tc  Tc9  1  0.661598  0.831602  0.750000  1
  Os  Os10  1  0.995886  0.004114  0.500087  1
  Os  Os11  1  0.995886  0.004114  0.999913  1
