# generated using pymatgen
data_Tb20Ru7Pt4Au
_symmetry_space_group_name_H-M   'P 1'
_cell_length_a   10.93980307
_cell_length_b   10.93980423
_cell_length_c   6.47960000
_cell_angle_alpha   89.91848034
_cell_angle_beta   89.91848033
_cell_angle_gamma   90.87881076
_symmetry_Int_Tables_number   1
_chemical_formula_structural   Tb20Ru7Pt4Au
_chemical_formula_sum   'Tb20 Ru7 Pt4 Au1'
_cell_volume   775.38120720
_cell_formula_units_Z   1
loop_
 _symmetry_equiv_pos_site_id
 _symmetry_equiv_pos_as_xyz
  1  'x, y, z'
loop_
 _atom_site_type_symbol
 _atom_site_label
 _atom_site_symmetry_multiplicity
 _atom_site_fract_x
 _atom_site_fract_y
 _atom_site_fract_z
 _atom_site_occupancy
  Tb  Tb0  1  0.295272  0.083542  0.373265  1
  Tb  Tb1  1  0.291652  0.917524  0.880171  1
  Tb  Tb2  1  0.708608  0.092585  0.881710  1
  Tb  Tb3  1  0.705340  0.918880  0.373477  1
  Tb  Tb4  1  0.589038  0.799817  0.875984  1
  Tb  Tb5  1  0.591823  0.205248  0.379910  1
  Tb  Tb6  1  0.412262  0.798242  0.367199  1
  Tb  Tb7  1  0.419845  0.206073  0.871347  1
  Tb  Tb8  1  0.200183  0.410962  0.624016  1
  Tb  Tb9  1  0.201758  0.587738  0.132801  1
  Tb  Tb10  1  0.794752  0.408177  0.120090  1
  Tb  Tb11  1  0.793927  0.580155  0.628653  1
  Tb  Tb12  1  0.916458  0.704728  0.126735  1
  Tb  Tb13  1  0.907415  0.291392  0.618290  1
  Tb  Tb14  1  0.082476  0.708348  0.619829  1
  Tb  Tb15  1  0.081120  0.294660  0.126523  1
  Tb  Tb16  1  0.000199  0.000906  0.496998  1
  Tb  Tb17  1  0.999094  0.999801  0.003002  1
  Tb  Tb18  1  0.506593  0.496917  0.002062  1
  Tb  Tb19  1  0.503083  0.493407  0.497938  1
  Ru  Ru20  1  0.850707  0.149293  0.250000  1
  Ru  Ru21  1  0.151236  0.848764  0.250000  1
  Ru  Ru22  1  0.649328  0.350672  0.750000  1
  Ru  Ru23  1  0.500322  0.999973  0.121220  1
  Ru  Ru24  1  0.500256  0.999505  0.624210  1
  Ru  Ru25  1  0.000495  0.499744  0.875790  1
  Ru  Ru26  1  0.000027  0.499678  0.378780  1
  Pt  Pt27  1  0.844765  0.844547  0.748960  1
  Pt  Pt28  1  0.155453  0.155235  0.751040  1
  Pt  Pt29  1  0.654779  0.655157  0.251840  1
  Pt  Pt30  1  0.344843  0.345221  0.248160  1
  Au  Au31  1  0.346889  0.653111  0.750000  1
