# generated using pymatgen
data_Ce4SnB4Ir9
_symmetry_space_group_name_H-M   'P 1'
_cell_length_a   10.92451410
_cell_length_b   10.92451363
_cell_length_c   10.92451380
_cell_angle_alpha   29.70949013
_cell_angle_beta   29.70949199
_cell_angle_gamma   29.70949720
_symmetry_Int_Tables_number   1
_chemical_formula_structural   Ce4SnB4Ir9
_chemical_formula_sum   'Ce4 Sn1 B4 Ir9'
_cell_volume   283.53986627
_cell_formula_units_Z   1
loop_
 _symmetry_equiv_pos_site_id
 _symmetry_equiv_pos_as_xyz
  1  'x, y, z'
loop_
 _atom_site_type_symbol
 _atom_site_label
 _atom_site_symmetry_multiplicity
 _atom_site_fract_x
 _atom_site_fract_y
 _atom_site_fract_z
 _atom_site_occupancy
  Ce  Ce0  1  0.147398  0.147398  0.147398  1
  Ce  Ce1  1  0.948937  0.948937  0.948937  1
  Ce  Ce2  1  0.852602  0.852602  0.852602  1
  Ce  Ce3  1  0.051063  0.051063  0.051063  1
  Sn  Sn4  1  0.500000  0.500000  0.500000  1
  B  B5  1  0.616940  0.616940  0.616940  1
  B  B6  1  0.716372  0.716372  0.716372  1
  B  B7  1  0.383060  0.383060  0.383060  1
  B  B8  1  0.283628  0.283628  0.283628  1
  Ir  Ir9  1  0.403066  0.907215  0.403066  1
  Ir  Ir10  1  0.907215  0.403066  0.403066  1
  Ir  Ir11  1  0.500000  0.500000  0.000000  1
  Ir  Ir12  1  0.500000  0.000000  0.500000  1
  Ir  Ir13  1  0.000000  0.500000  0.500000  1
  Ir  Ir14  1  0.596934  0.092785  0.596934  1
  Ir  Ir15  1  0.596934  0.596934  0.092785  1
  Ir  Ir16  1  0.092785  0.596934  0.596934  1
  Ir  Ir17  1  0.403066  0.403066  0.907215  1
