# generated using pymatgen
data_Hf2Nb3Sn3B
_symmetry_space_group_name_H-M   'P 1'
_cell_length_a   5.60231000
_cell_length_b   8.30145405
_cell_length_c   8.33998162
_cell_angle_alpha   119.84726686
_cell_angle_beta   90.00000000
_cell_angle_gamma   90.00000000
_symmetry_Int_Tables_number   1
_chemical_formula_structural   Hf2Nb3Sn3B
_chemical_formula_sum   'Hf4 Nb6 Sn6 B2'
_cell_volume   336.42121235
_cell_formula_units_Z   2
loop_
 _symmetry_equiv_pos_site_id
 _symmetry_equiv_pos_as_xyz
  1  'x, y, z'
loop_
 _atom_site_type_symbol
 _atom_site_label
 _atom_site_symmetry_multiplicity
 _atom_site_fract_x
 _atom_site_fract_y
 _atom_site_fract_z
 _atom_site_occupancy
  Hf  Hf0  1  0.750000  0.238742  0.233827  1
  Hf  Hf1  1  0.250000  0.995085  0.233827  1
  Hf  Hf2  1  0.250001  0.761258  0.766173  1
  Hf  Hf3  1  0.749999  0.004915  0.766174  1
  Nb  Nb4  1  0.250000  0.221231  0.000000  1
  Nb  Nb5  1  0.749999  0.778769  0.000000  1
  Nb  Nb6  1  0.000000  0.667992  0.335984  1
  Nb  Nb7  1  0.499999  0.667992  0.335984  1
  Nb  Nb8  1  0.000000  0.332008  0.664015  1
  Nb  Nb9  1  0.499999  0.332009  0.664016  1
  Sn  Sn10  1  0.749999  0.410083  0.000000  1
  Sn  Sn11  1  0.249998  0.589915  0.000000  1
  Sn  Sn12  1  0.250001  0.399885  0.398969  1
  Sn  Sn13  1  0.749999  0.999085  0.398969  1
  Sn  Sn14  1  0.750000  0.600115  0.601031  1
  Sn  Sn15  1  0.249998  0.000915  0.601032  1
  B  B16  1  0.000000  0.000000  0.000000  1
  B  B17  1  0.499999  0.000000  0.000000  1
