# generated using pymatgen
data_Sm2HoEr(B6Os)2
_symmetry_space_group_name_H-M   'P 1'
_cell_length_a   3.67950100
_cell_length_b   9.18209004
_cell_length_c   11.59254805
_cell_angle_alpha   90.01038617
_cell_angle_beta   90.00000000
_cell_angle_gamma   90.00000000
_symmetry_Int_Tables_number   1
_chemical_formula_structural   Sm2HoEr(B6Os)2
_chemical_formula_sum   'Sm4 Ho2 Er2 B24 Os4'
_cell_volume   391.66013548
_cell_formula_units_Z   2
loop_
 _symmetry_equiv_pos_site_id
 _symmetry_equiv_pos_as_xyz
  1  'x, y, z'
loop_
 _atom_site_type_symbol
 _atom_site_label
 _atom_site_symmetry_multiplicity
 _atom_site_fract_x
 _atom_site_fract_y
 _atom_site_fract_z
 _atom_site_occupancy
  Sm  Sm0  1  0.000000  0.322069  0.414107  1
  Sm  Sm1  1  0.000000  0.677931  0.585893  1
  Sm  Sm2  1  0.000000  0.821936  0.085826  1
  Sm  Sm3  1  0.000000  0.178064  0.914174  1
  Ho  Ho4  1  0.000000  0.944122  0.372554  1
  Ho  Ho5  1  0.000000  0.055878  0.627446  1
  Er  Er6  1  0.000000  0.444173  0.127307  1
  Er  Er7  1  0.000000  0.555827  0.872693  1
  B  B8  1  0.500000  0.555264  0.431439  1
  B  B9  1  0.500000  0.444736  0.568561  1
  B  B10  1  0.500000  0.055308  0.068536  1
  B  B11  1  0.500000  0.944692  0.931464  1
  B  B12  1  0.500000  0.749282  0.418226  1
  B  B13  1  0.500000  0.250718  0.581774  1
  B  B14  1  0.500000  0.249538  0.081770  1
  B  B15  1  0.500000  0.750462  0.918230  1
  B  B16  1  0.500000  0.790659  0.266726  1
  B  B17  1  0.500000  0.209341  0.733274  1
  B  B18  1  0.500000  0.290934  0.233191  1
  B  B19  1  0.500000  0.709066  0.766809  1
  B  B20  1  0.500000  0.630839  0.185130  1
  B  B21  1  0.500000  0.369161  0.814870  1
  B  B22  1  0.500000  0.131069  0.314743  1
  B  B23  1  0.500000  0.868931  0.685257  1
  B  B24  1  0.500000  0.984771  0.213693  1
  B  B25  1  0.500000  0.015229  0.786307  1
  B  B26  1  0.500000  0.484622  0.286139  1
  B  B27  1  0.500000  0.515378  0.713861  1
  B  B28  1  0.500000  0.603910  0.028520  1
  B  B29  1  0.500000  0.396090  0.971480  1
  B  B30  1  0.500000  0.104244  0.471393  1
  B  B31  1  0.500000  0.895756  0.528607  1
  Os  Os32  1  0.000000  0.638485  0.319981  1
  Os  Os33  1  0.000000  0.361515  0.680019  1
  Os  Os34  1  0.000000  0.138953  0.179796  1
  Os  Os35  1  0.000000  0.861047  0.820204  1
