# generated using pymatgen
data_Pr3Er(CuP2)4
_symmetry_space_group_name_H-M   'P 1'
_cell_length_a   3.76397700
_cell_length_b   3.86221854
_cell_length_c   20.00241278
_cell_angle_alpha   90.24553647
_cell_angle_beta   90.00000000
_cell_angle_gamma   90.00000000
_symmetry_Int_Tables_number   1
_chemical_formula_structural   Pr3Er(CuP2)4
_chemical_formula_sum   'Pr3 Er1 Cu4 P8'
_cell_volume   290.77844007
_cell_formula_units_Z   1
loop_
 _symmetry_equiv_pos_site_id
 _symmetry_equiv_pos_as_xyz
  1  'x, y, z'
loop_
 _atom_site_type_symbol
 _atom_site_label
 _atom_site_symmetry_multiplicity
 _atom_site_fract_x
 _atom_site_fract_y
 _atom_site_fract_z
 _atom_site_occupancy
  Pr  Pr0  1  0.250000  0.711677  0.377832  1
  Pr  Pr1  1  0.250000  0.786018  0.886169  1
  Pr  Pr2  1  0.750000  0.289128  0.619313  1
  Er  Er3  1  0.750000  0.211826  0.119371  1
  Cu  Cu4  1  0.250000  0.214733  0.244198  1
  Cu  Cu5  1  0.750000  0.787140  0.752821  1
  Cu  Cu6  1  0.250000  0.285360  0.752226  1
  Cu  Cu7  1  0.750000  0.715093  0.244531  1
  P  P8  1  0.750000  0.817326  0.501053  1
  P  P9  1  0.750000  0.683010  0.009488  1
  P  P10  1  0.250000  0.182963  0.496178  1
  P  P11  1  0.250000  0.314787  0.004405  1
  P  P12  1  0.250000  0.713407  0.169791  1
  P  P13  1  0.750000  0.213218  0.317618  1
  P  P14  1  0.750000  0.287083  0.825406  1
  P  P15  1  0.250000  0.787231  0.679599  1
