# generated using pymatgen
data_Li2Ni9Mo3P7
_symmetry_space_group_name_H-M   'P 1'
_cell_length_a   9.10527400
_cell_length_b   9.10527399
_cell_length_c   3.60735800
_cell_angle_alpha   90.00000000
_cell_angle_beta   90.00000000
_cell_angle_gamma   120.00000731
_symmetry_Int_Tables_number   1
_chemical_formula_structural   Li2Ni9Mo3P7
_chemical_formula_sum   'Li2 Ni9 Mo3 P7'
_cell_volume   259.00364870
_cell_formula_units_Z   1
loop_
 _symmetry_equiv_pos_site_id
 _symmetry_equiv_pos_as_xyz
  1  'x, y, z'
loop_
 _atom_site_type_symbol
 _atom_site_label
 _atom_site_symmetry_multiplicity
 _atom_site_fract_x
 _atom_site_fract_y
 _atom_site_fract_z
 _atom_site_occupancy
  Li  Li0  1  0.333333  0.666667  0.000000  1
  Li  Li1  1  0.666667  0.333333  0.500000  1
  Ni  Ni2  1  0.710042  0.875783  0.000000  1
  Ni  Ni3  1  0.165741  0.289958  0.000000  1
  Ni  Ni4  1  0.124217  0.834259  0.000000  1
  Ni  Ni5  1  0.626628  0.564766  0.000000  1
  Ni  Ni6  1  0.938139  0.373372  0.000000  1
  Ni  Ni7  1  0.435234  0.061861  0.000000  1
  Ni  Ni8  1  0.555192  0.944785  0.500000  1
  Ni  Ni9  1  0.389593  0.444808  0.500000  1
  Ni  Ni10  1  0.055215  0.610407  0.500000  1
  Mo  Mo11  1  0.876207  0.777800  0.500000  1
  Mo  Mo12  1  0.901592  0.123793  0.500000  1
  Mo  Mo13  1  0.222200  0.098408  0.500000  1
  P  P14  1  0.584469  0.711207  0.500000  1
  P  P15  1  0.126738  0.415531  0.500000  1
  P  P16  1  0.288793  0.873262  0.500000  1
  P  P17  1  0.000000  0.000000  0.000000  1
  P  P18  1  0.878568  0.581176  0.000000  1
  P  P19  1  0.702608  0.121432  0.000000  1
  P  P20  1  0.418824  0.297392  0.000000  1
