# generated using pymatgen
data_NdDy2Zr2Sn3O
_symmetry_space_group_name_H-M   'P 1'
_cell_length_a   8.83607419
_cell_length_b   8.83292797
_cell_length_c   6.08768800
_cell_angle_alpha   90.00000000
_cell_angle_beta   90.00000000
_cell_angle_gamma   119.98821814
_symmetry_Int_Tables_number   1
_chemical_formula_structural   NdDy2Zr2Sn3O
_chemical_formula_sum   'Nd2 Dy4 Zr4 Sn6 O2'
_cell_volume   411.52725966
_cell_formula_units_Z   2
loop_
 _symmetry_equiv_pos_site_id
 _symmetry_equiv_pos_as_xyz
  1  'x, y, z'
loop_
 _atom_site_type_symbol
 _atom_site_label
 _atom_site_symmetry_multiplicity
 _atom_site_fract_x
 _atom_site_fract_y
 _atom_site_fract_z
 _atom_site_occupancy
  Nd  Nd0  1  0.768055  0.767652  0.250000  1
  Nd  Nd1  1  0.768055  0.000403  0.750000  1
  Dy  Dy2  1  0.000624  0.774588  0.750000  1
  Dy  Dy3  1  0.000624  0.226037  0.250000  1
  Dy  Dy4  1  0.225528  0.225679  0.750000  1
  Dy  Dy5  1  0.225528  0.999850  0.250000  1
  Zr  Zr6  1  0.333141  0.666571  0.000000  1
  Zr  Zr7  1  0.333141  0.666571  0.500000  1
  Zr  Zr8  1  0.666195  0.333097  0.000000  1
  Zr  Zr9  1  0.666195  0.333097  0.500000  1
  Sn  Sn10  1  0.001479  0.591144  0.250000  1
  Sn  Sn11  1  0.001479  0.410335  0.750000  1
  Sn  Sn12  1  0.403123  0.403686  0.250000  1
  Sn  Sn13  1  0.590954  0.588922  0.750000  1
  Sn  Sn14  1  0.403123  0.999437  0.750000  1
  Sn  Sn15  1  0.590954  0.002032  0.250000  1
  O  O16  1  0.010899  0.005450  0.000000  1
  O  O17  1  0.010899  0.005450  0.500000  1
