# generated using pymatgen
data_SrLi4Nd3Pd4
_symmetry_space_group_name_H-M   'P 1'
_cell_length_a   7.39014467
_cell_length_b   4.19259700
_cell_length_c   8.64887377
_cell_angle_alpha   90.00000000
_cell_angle_beta   89.34209202
_cell_angle_gamma   90.00000000
_symmetry_Int_Tables_number   1
_chemical_formula_structural   SrLi4Nd3Pd4
_chemical_formula_sum   'Sr1 Li4 Nd3 Pd4'
_cell_volume   267.95815957
_cell_formula_units_Z   1
loop_
 _symmetry_equiv_pos_site_id
 _symmetry_equiv_pos_as_xyz
  1  'x, y, z'
loop_
 _atom_site_type_symbol
 _atom_site_label
 _atom_site_symmetry_multiplicity
 _atom_site_fract_x
 _atom_site_fract_y
 _atom_site_fract_z
 _atom_site_occupancy
  Sr  Sr0  1  0.461671  0.750000  0.815375  1
  Li  Li1  1  0.630851  0.250000  0.555459  1
  Li  Li2  1  0.132617  0.250000  0.944909  1
  Li  Li3  1  0.364134  0.750000  0.439757  1
  Li  Li4  1  0.874444  0.750000  0.056836  1
  Nd  Nd5  1  0.034735  0.250000  0.314983  1
  Nd  Nd6  1  0.541147  0.250000  0.186562  1
  Nd  Nd7  1  0.957898  0.750000  0.680799  1
  Pd  Pd8  1  0.237790  0.250000  0.607630  1
  Pd  Pd9  1  0.773200  0.250000  0.884917  1
  Pd  Pd10  1  0.743765  0.750000  0.378850  1
  Pd  Pd11  1  0.247749  0.750000  0.133921  1
