# generated using pymatgen
data_TbPa(CoP)2
_symmetry_space_group_name_H-M   'P 1'
_cell_length_a   3.86647600
_cell_length_b   3.86647699
_cell_length_c   15.53293100
_cell_angle_alpha   90.00000000
_cell_angle_beta   90.00000000
_cell_angle_gamma   120.00000868
_symmetry_Int_Tables_number   1
_chemical_formula_structural   TbPa(CoP)2
_chemical_formula_sum   'Tb2 Pa2 Co4 P4'
_cell_volume   201.10124302
_cell_formula_units_Z   2
loop_
 _symmetry_equiv_pos_site_id
 _symmetry_equiv_pos_as_xyz
  1  'x, y, z'
loop_
 _atom_site_type_symbol
 _atom_site_label
 _atom_site_symmetry_multiplicity
 _atom_site_fract_x
 _atom_site_fract_y
 _atom_site_fract_z
 _atom_site_occupancy
  Tb  Tb0  1  0.000000  0.000000  0.250000  1
  Tb  Tb1  1  0.000000  0.000000  0.750000  1
  Pa  Pa2  1  0.000000  0.000000  0.500000  1
  Pa  Pa3  1  0.000000  0.000000  0.000000  1
  Co  Co4  1  0.333333  0.666667  0.390669  1
  Co  Co5  1  0.666667  0.333333  0.609331  1
  Co  Co6  1  0.666667  0.333333  0.890669  1
  Co  Co7  1  0.333333  0.666667  0.109331  1
  P  P8  1  0.333333  0.666667  0.870595  1
  P  P9  1  0.666667  0.333333  0.129405  1
  P  P10  1  0.666667  0.333333  0.370595  1
  P  P11  1  0.333333  0.666667  0.629405  1
