# generated using pymatgen
data_DyScNbFe9
_symmetry_space_group_name_H-M   'P 1'
_cell_length_a   4.95056550
_cell_length_b   4.95056570
_cell_length_c   8.40094163
_cell_angle_alpha   72.86384365
_cell_angle_beta   72.86384074
_cell_angle_gamma   60.00000104
_symmetry_Int_Tables_number   1
_chemical_formula_structural   DyScNbFe9
_chemical_formula_sum   'Dy1 Sc1 Nb1 Fe9'
_cell_volume   167.66987375
_cell_formula_units_Z   1
loop_
 _symmetry_equiv_pos_site_id
 _symmetry_equiv_pos_as_xyz
  1  'x, y, z'
loop_
 _atom_site_type_symbol
 _atom_site_label
 _atom_site_symmetry_multiplicity
 _atom_site_fract_x
 _atom_site_fract_y
 _atom_site_fract_z
 _atom_site_occupancy
  Dy  Dy0  1  0.999936  0.999936  0.000192  1
  Sc  Sc1  1  0.856882  0.856882  0.429354  1
  Nb  Nb2  1  0.143586  0.143586  0.569241  1
  Fe  Fe3  1  0.082561  0.586528  0.744382  1
  Fe  Fe4  1  0.586528  0.586528  0.744382  1
  Fe  Fe5  1  0.586528  0.082561  0.744382  1
  Fe  Fe6  1  0.917581  0.413191  0.256038  1
  Fe  Fe7  1  0.413191  0.413191  0.256038  1
  Fe  Fe8  1  0.413191  0.917581  0.256038  1
  Fe  Fe9  1  0.333020  0.333020  0.000941  1
  Fe  Fe10  1  0.667135  0.667135  0.998591  1
  Fe  Fe11  1  0.499859  0.499859  0.500422  1
