# generated using pymatgen
data_Tb2Dy3P12Ir7Ru12
_symmetry_space_group_name_H-M   'P 1'
_cell_length_a   12.57217438
_cell_length_b   12.55536321
_cell_length_c   3.97359100
_cell_angle_alpha   90.00000000
_cell_angle_beta   90.00000000
_cell_angle_gamma   119.54334844
_symmetry_Int_Tables_number   1
_chemical_formula_structural   Tb2Dy3P12Ir7Ru12
_chemical_formula_sum   'Tb2 Dy3 P12 Ir7 Ru12'
_cell_volume   545.67436655
_cell_formula_units_Z   1
loop_
 _symmetry_equiv_pos_site_id
 _symmetry_equiv_pos_as_xyz
  1  'x, y, z'
loop_
 _atom_site_type_symbol
 _atom_site_label
 _atom_site_symmetry_multiplicity
 _atom_site_fract_x
 _atom_site_fract_y
 _atom_site_fract_z
 _atom_site_occupancy
  Tb  Tb0  1  0.665542  0.332221  0.000000  1
  Tb  Tb1  1  0.333799  0.666932  0.000000  1
  Dy  Dy2  1  0.813594  0.001594  0.500000  1
  Dy  Dy3  1  0.186178  0.187401  0.500000  1
  Dy  Dy4  1  0.000406  0.813493  0.500000  1
  P  P5  1  0.630788  0.002740  0.000000  1
  P  P6  1  0.371458  0.371787  0.000000  1
  P  P7  1  0.004990  0.633387  0.000000  1
  P  P8  1  0.685198  0.517031  0.500000  1
  P  P9  1  0.826299  0.303525  0.500000  1
  P  P10  1  0.312216  0.830180  0.500000  1
  P  P11  1  0.518960  0.687534  0.500000  1
  P  P12  1  0.181608  0.001391  0.000000  1
  P  P13  1  0.818572  0.818589  0.000000  1
  P  P14  1  0.998092  0.183969  0.000000  1
  P  P15  1  0.480981  0.167998  0.500000  1
  P  P16  1  0.170146  0.482613  0.500000  1
  Ir  Ir17  1  0.625460  0.807851  0.000000  1
  Ir  Ir18  1  0.183892  0.376356  0.000000  1
  Ir  Ir19  1  0.374238  0.182703  0.000000  1
  Ir  Ir20  1  0.193789  0.819438  0.000000  1
  Ir  Ir21  1  0.810381  0.625031  0.000000  1
  Ir  Ir22  1  0.868241  0.504461  0.500000  1
  Ir  Ir23  1  0.999284  0.001079  0.000000  1
  Ru  Ru24  1  0.489263  0.360500  0.500000  1
  Ru  Ru25  1  0.635601  0.122997  0.500000  1
  Ru  Ru26  1  0.126513  0.639291  0.500000  1
  Ru  Ru27  1  0.362578  0.489677  0.500000  1
  Ru  Ru28  1  0.509368  0.870184  0.500000  1
  Ru  Ru29  1  0.716968  0.714924  0.500000  1
  Ru  Ru30  1  0.002164  0.286580  0.500000  1
  Ru  Ru31  1  0.446858  0.998698  0.000000  1
  Ru  Ru32  1  0.553516  0.551445  0.000000  1
  Ru  Ru33  1  0.000681  0.450060  0.000000  1
  Ru  Ru34  1  0.818369  0.196006  0.000000  1
  Ru  Ru35  1  0.284008  0.000334  0.500000  1
