# generated using pymatgen
data_Th(InCl3)2
_symmetry_space_group_name_H-M   'P 1'
_cell_length_a   8.26670574
_cell_length_b   8.26670679
_cell_length_c   8.76667406
_cell_angle_alpha   89.48860505
_cell_angle_beta   89.48860478
_cell_angle_gamma   118.17692717
_symmetry_Int_Tables_number   1
_chemical_formula_structural   Th(InCl3)2
_chemical_formula_sum   'Th2 In4 Cl12'
_cell_volume   528.02381893
_cell_formula_units_Z   2
loop_
 _symmetry_equiv_pos_site_id
 _symmetry_equiv_pos_as_xyz
  1  'x, y, z'
loop_
 _atom_site_type_symbol
 _atom_site_label
 _atom_site_symmetry_multiplicity
 _atom_site_fract_x
 _atom_site_fract_y
 _atom_site_fract_z
 _atom_site_occupancy
  Th  Th0  1  0.059907  0.940093  0.750000  1
  Th  Th1  1  0.940093  0.059907  0.250000  1
  In  In2  1  0.356966  0.666777  0.996882  1
  In  In3  1  0.666777  0.356966  0.496882  1
  In  In4  1  0.643034  0.333223  0.003118  1
  In  In5  1  0.333223  0.643034  0.503118  1
  Cl  Cl6  1  0.306197  0.296506  0.265425  1
  Cl  Cl7  1  0.693803  0.703494  0.734575  1
  Cl  Cl8  1  0.869225  0.091455  0.945915  1
  Cl  Cl9  1  0.130775  0.908545  0.054085  1
  Cl  Cl10  1  0.703494  0.693803  0.234575  1
  Cl  Cl11  1  0.908545  0.130775  0.554085  1
  Cl  Cl12  1  0.023945  0.581530  0.767765  1
  Cl  Cl13  1  0.581530  0.023945  0.267765  1
  Cl  Cl14  1  0.976055  0.418470  0.232235  1
  Cl  Cl15  1  0.091455  0.869225  0.445915  1
  Cl  Cl16  1  0.418470  0.976055  0.732235  1
  Cl  Cl17  1  0.296506  0.306197  0.765425  1
