# generated using pymatgen
data_Th3Al3GaFePd
_symmetry_space_group_name_H-M   'P 1'
_cell_length_a   7.13914000
_cell_length_b   7.13913948
_cell_length_c   4.22668600
_cell_angle_alpha   90.00000000
_cell_angle_beta   90.00000000
_cell_angle_gamma   120.00000241
_symmetry_Int_Tables_number   1
_chemical_formula_structural   Th3Al3GaFePd
_chemical_formula_sum   'Th3 Al3 Ga1 Fe1 Pd1'
_cell_volume   186.56164914
_cell_formula_units_Z   1
loop_
 _symmetry_equiv_pos_site_id
 _symmetry_equiv_pos_as_xyz
  1  'x, y, z'
loop_
 _atom_site_type_symbol
 _atom_site_label
 _atom_site_symmetry_multiplicity
 _atom_site_fract_x
 _atom_site_fract_y
 _atom_site_fract_z
 _atom_site_occupancy
  Th  Th0  1  0.415911  0.432727  0.500000  1
  Th  Th1  1  0.567273  0.983184  0.500000  1
  Th  Th2  1  0.016816  0.584089  0.500000  1
  Al  Al3  1  0.757038  0.771499  0.000000  1
  Al  Al4  1  0.228501  0.985539  0.000000  1
  Al  Al5  1  0.014461  0.242962  0.000000  1
  Ga  Ga6  1  0.666667  0.333333  0.000000  1
  Fe  Fe7  1  0.333333  0.666667  0.000000  1
  Pd  Pd8  1  0.000000  0.000000  0.500000  1
