# generated using pymatgen
data_DyEr3Si6PtRh
_symmetry_space_group_name_H-M   'P 1'
_cell_length_a   8.15084000
_cell_length_b   8.15084043
_cell_length_c   7.88055500
_cell_angle_alpha   90.00000000
_cell_angle_beta   90.00000000
_cell_angle_gamma   119.99999825
_symmetry_Int_Tables_number   1
_chemical_formula_structural   DyEr3Si6PtRh
_chemical_formula_sum   'Dy2 Er6 Si12 Pt2 Rh2'
_cell_volume   453.41115738
_cell_formula_units_Z   2
loop_
 _symmetry_equiv_pos_site_id
 _symmetry_equiv_pos_as_xyz
  1  'x, y, z'
loop_
 _atom_site_type_symbol
 _atom_site_label
 _atom_site_symmetry_multiplicity
 _atom_site_fract_x
 _atom_site_fract_y
 _atom_site_fract_z
 _atom_site_occupancy
  Dy  Dy0  1  0.000000  0.000000  0.250000  1
  Dy  Dy1  1  0.000000  0.000000  0.750000  1
  Er  Er2  1  0.490360  0.509640  0.250000  1
  Er  Er3  1  0.490360  0.980718  0.250000  1
  Er  Er4  1  0.019282  0.509640  0.250000  1
  Er  Er5  1  0.507495  0.492505  0.750000  1
  Er  Er6  1  0.985009  0.492505  0.750000  1
  Er  Er7  1  0.507495  0.014991  0.750000  1
  Si  Si8  1  0.835621  0.164379  0.499998  1
  Si  Si9  1  0.835621  0.671243  0.499998  1
  Si  Si10  1  0.328757  0.164379  0.499998  1
  Si  Si11  1  0.835621  0.164379  0.000002  1
  Si  Si12  1  0.835621  0.671243  0.000002  1
  Si  Si13  1  0.328757  0.164379  0.000002  1
  Si  Si14  1  0.168046  0.831954  0.001029  1
  Si  Si15  1  0.663910  0.831954  0.001029  1
  Si  Si16  1  0.168046  0.336090  0.001029  1
  Si  Si17  1  0.168046  0.831954  0.498971  1
  Si  Si18  1  0.663910  0.831954  0.498971  1
  Si  Si19  1  0.168046  0.336090  0.498971  1
  Pt  Pt20  1  0.666667  0.333333  0.472916  1
  Pt  Pt21  1  0.666667  0.333333  0.027084  1
  Rh  Rh22  1  0.333333  0.666667  0.962569  1
  Rh  Rh23  1  0.333333  0.666667  0.537431  1
