# generated using pymatgen
data_TbFeCo(Sb6Os)2
_symmetry_space_group_name_H-M   'P 1'
_cell_length_a   8.05779585
_cell_length_b   8.02066519
_cell_length_c   8.08265417
_cell_angle_alpha   109.51955759
_cell_angle_beta   109.70564394
_cell_angle_gamma   109.47010135
_symmetry_Int_Tables_number   1
_chemical_formula_structural   TbFeCo(Sb6Os)2
_chemical_formula_sum   'Tb1 Fe1 Co1 Sb12 Os2'
_cell_volume   400.71763735
_cell_formula_units_Z   1
loop_
 _symmetry_equiv_pos_site_id
 _symmetry_equiv_pos_as_xyz
  1  'x, y, z'
loop_
 _atom_site_type_symbol
 _atom_site_label
 _atom_site_symmetry_multiplicity
 _atom_site_fract_x
 _atom_site_fract_y
 _atom_site_fract_z
 _atom_site_occupancy
  Tb  Tb0  1  0.000000  0.000000  0.000000  1
  Fe  Fe1  1  0.500000  0.000000  0.000000  1
  Co  Co2  1  0.000000  0.000000  0.500000  1
  Sb  Sb3  1  0.332363  0.170695  0.840471  1
  Sb  Sb4  1  0.667637  0.829305  0.159529  1
  Sb  Sb5  1  0.659501  0.503515  0.843188  1
  Sb  Sb6  1  0.340499  0.496485  0.156812  1
  Sb  Sb7  1  0.178314  0.847759  0.341669  1
  Sb  Sb8  1  0.821686  0.152241  0.658331  1
  Sb  Sb9  1  0.505759  0.847131  0.672119  1
  Sb  Sb10  1  0.494241  0.152869  0.327881  1
  Sb  Sb11  1  0.834868  0.328952  0.175000  1
  Sb  Sb12  1  0.165132  0.671048  0.825000  1
  Sb  Sb13  1  0.847401  0.669226  0.506159  1
  Sb  Sb14  1  0.152599  0.330774  0.493841  1
  Os  Os15  1  0.000000  0.500000  0.000000  1
  Os  Os16  1  0.500000  0.500000  0.500000  1
