# generated using pymatgen
data_Dy13Ho7(Bi3Sb)3
_symmetry_space_group_name_H-M   'P 1'
_cell_length_a   8.20017152
_cell_length_b   9.47858601
_cell_length_c   12.02197358
_cell_angle_alpha   89.99792021
_cell_angle_beta   90.07416094
_cell_angle_gamma   90.00436995
_symmetry_Int_Tables_number   1
_chemical_formula_structural   Dy13Ho7(Bi3Sb)3
_chemical_formula_sum   'Dy13 Ho7 Bi9 Sb3'
_cell_volume   934.41950495
_cell_formula_units_Z   1
loop_
 _symmetry_equiv_pos_site_id
 _symmetry_equiv_pos_as_xyz
  1  'x, y, z'
loop_
 _atom_site_type_symbol
 _atom_site_label
 _atom_site_symmetry_multiplicity
 _atom_site_fract_x
 _atom_site_fract_y
 _atom_site_fract_z
 _atom_site_occupancy
  Dy  Dy0  1  0.352733  0.750161  0.212977  1
  Dy  Dy1  1  0.852974  0.750131  0.286272  1
  Dy  Dy2  1  0.647280  0.250051  0.786561  1
  Dy  Dy3  1  0.148156  0.250069  0.716397  1
  Dy  Dy4  1  0.190336  0.565838  0.442493  1
  Dy  Dy5  1  0.475697  0.249971  0.487968  1
  Dy  Dy6  1  0.973193  0.250043  0.011714  1
  Dy  Dy7  1  0.528531  0.750112  0.512745  1
  Dy  Dy8  1  0.027473  0.750011  0.988013  1
  Dy  Dy9  1  0.318210  0.250002  0.216209  1
  Dy  Dy10  1  0.811655  0.250002  0.278959  1
  Dy  Dy11  1  0.683102  0.750008  0.782259  1
  Dy  Dy12  1  0.183687  0.750119  0.718016  1
  Ho  Ho13  1  0.688861  0.563175  0.057406  1
  Ho  Ho14  1  0.190229  0.933754  0.442500  1
  Ho  Ho15  1  0.311352  0.062724  0.942795  1
  Ho  Ho16  1  0.808660  0.439592  0.559043  1
  Ho  Ho17  1  0.311387  0.437254  0.942760  1
  Ho  Ho18  1  0.808476  0.060375  0.559094  1
  Ho  Ho19  1  0.688881  0.936821  0.057410  1
  Bi  Bi20  1  0.091859  0.249253  0.456757  1
  Bi  Bi21  1  0.565676  0.995137  0.325594  1
  Bi  Bi22  1  0.065935  0.504072  0.174308  1
  Bi  Bi23  1  0.433746  0.495525  0.674740  1
  Bi  Bi24  1  0.933855  0.004039  0.825837  1
  Bi  Bi25  1  0.433771  0.004543  0.674647  1
  Bi  Bi26  1  0.933802  0.496008  0.825843  1
  Bi  Bi27  1  0.565841  0.504914  0.325540  1
  Bi  Bi28  1  0.065990  0.995999  0.174377  1
  Sb  Sb29  1  0.407160  0.749996  0.958171  1
  Sb  Sb30  1  0.907819  0.750296  0.541493  1
  Sb  Sb31  1  0.593674  0.250003  0.041101  1
