# generated using pymatgen
data_Y16Cd4PdRu3
_symmetry_space_group_name_H-M   'P 1'
_cell_length_a   9.74073169
_cell_length_b   9.63255410
_cell_length_c   9.74073100
_cell_angle_alpha   59.62779918
_cell_angle_beta   59.99999893
_cell_angle_gamma   59.62779954
_symmetry_Int_Tables_number   1
_chemical_formula_structural   Y16Cd4PdRu3
_chemical_formula_sum   'Y16 Cd4 Pd1 Ru3'
_cell_volume   642.60378612
_cell_formula_units_Z   1
loop_
 _symmetry_equiv_pos_site_id
 _symmetry_equiv_pos_as_xyz
  1  'x, y, z'
loop_
 _atom_site_type_symbol
 _atom_site_label
 _atom_site_symmetry_multiplicity
 _atom_site_fract_x
 _atom_site_fract_y
 _atom_site_fract_z
 _atom_site_occupancy
  Y  Y0  1  0.438534  0.435034  0.063216  1
  Y  Y1  1  0.065952  0.058295  0.437877  1
  Y  Y2  1  0.437877  0.058295  0.065952  1
  Y  Y3  1  0.851750  0.845924  0.851750  1
  Y  Y4  1  0.689527  0.316365  0.304581  1
  Y  Y5  1  0.063216  0.435034  0.438534  1
  Y  Y6  1  0.311947  0.686129  0.689977  1
  Y  Y7  1  0.304581  0.316365  0.689527  1
  Y  Y8  1  0.851750  0.845924  0.450576  1
  Y  Y9  1  0.689977  0.686129  0.311947  1
  Y  Y10  1  0.450576  0.845924  0.851750  1
  Y  Y11  1  0.063216  0.435034  0.063216  1
  Y  Y12  1  0.844914  0.465258  0.844914  1
  Y  Y13  1  0.437877  0.058295  0.437877  1
  Y  Y14  1  0.311947  0.686129  0.311947  1
  Y  Y15  1  0.689527  0.316365  0.689527  1
  Cd  Cd16  1  0.080996  0.757012  0.080996  1
  Cd  Cd17  1  0.079407  0.080333  0.760852  1
  Cd  Cd18  1  0.760852  0.080333  0.079407  1
  Cd  Cd19  1  0.079407  0.080333  0.079407  1
  Pd  Pd20  1  0.642433  0.072700  0.642433  1
  Ru  Ru21  1  0.638823  0.646263  0.638823  1
  Ru  Ru22  1  0.638823  0.646263  0.076090  1
  Ru  Ru23  1  0.076090  0.646263  0.638823  1
