# generated using pymatgen
data_DyAgPt4
_symmetry_space_group_name_H-M   'P 1'
_cell_length_a   5.36786212
_cell_length_b   5.36786141
_cell_length_c   5.36786100
_cell_angle_alpha   59.99999639
_cell_angle_beta   60.00000077
_cell_angle_gamma   59.99998902
_symmetry_Int_Tables_number   1
_chemical_formula_structural   DyAgPt4
_chemical_formula_sum   'Dy1 Ag1 Pt4'
_cell_volume   109.36764617
_cell_formula_units_Z   1
loop_
 _symmetry_equiv_pos_site_id
 _symmetry_equiv_pos_as_xyz
  1  'x, y, z'
loop_
 _atom_site_type_symbol
 _atom_site_label
 _atom_site_symmetry_multiplicity
 _atom_site_fract_x
 _atom_site_fract_y
 _atom_site_fract_z
 _atom_site_occupancy
  Dy  Dy0  1  0.000000  0.000000  0.000000  1
  Ag  Ag1  1  0.250000  0.250000  0.250000  1
  Pt  Pt2  1  0.624597  0.624597  0.126210  1
  Pt  Pt3  1  0.624597  0.126210  0.624597  1
  Pt  Pt4  1  0.126210  0.624597  0.624597  1
  Pt  Pt5  1  0.624597  0.624597  0.624597  1
