# generated using pymatgen
data_Lu4Tc3B8Ru
_symmetry_space_group_name_H-M   'P 1'
_cell_length_a   5.22993200
_cell_length_b   5.86276592
_cell_length_c   6.36565417
_cell_angle_alpha   90.13184992
_cell_angle_beta   90.00000000
_cell_angle_gamma   90.00000000
_symmetry_Int_Tables_number   1
_chemical_formula_structural   Lu4Tc3B8Ru
_chemical_formula_sum   'Lu4 Tc3 B8 Ru1'
_cell_volume   195.18232536
_cell_formula_units_Z   1
loop_
 _symmetry_equiv_pos_site_id
 _symmetry_equiv_pos_as_xyz
  1  'x, y, z'
loop_
 _atom_site_type_symbol
 _atom_site_label
 _atom_site_symmetry_multiplicity
 _atom_site_fract_x
 _atom_site_fract_y
 _atom_site_fract_z
 _atom_site_occupancy
  Lu  Lu0  1  0.250000  0.514965  0.664575  1
  Lu  Lu1  1  0.750000  0.485986  0.336181  1
  Lu  Lu2  1  0.250000  0.013964  0.836355  1
  Lu  Lu3  1  0.750000  0.985387  0.162803  1
  Tc  Tc4  1  0.750000  0.817409  0.684712  1
  Tc  Tc5  1  0.750000  0.319385  0.815516  1
  Tc  Tc6  1  0.250000  0.180832  0.314083  1
  B  B7  1  0.922259  0.132970  0.534412  1
  B  B8  1  0.420489  0.866820  0.466231  1
  B  B9  1  0.579130  0.633351  0.965566  1
  B  B10  1  0.079675  0.366131  0.034161  1
  B  B11  1  0.079511  0.866820  0.466231  1
  B  B12  1  0.920870  0.633351  0.965566  1
  B  B13  1  0.420325  0.366131  0.034161  1
  B  B14  1  0.577741  0.132970  0.534412  1
  Ru  Ru15  1  0.250000  0.683526  0.185034  1
