# generated using pymatgen
data_Li3Tb5(Co4As3)4
_symmetry_space_group_name_H-M   'P 1'
_cell_length_a   12.53452400
_cell_length_b   12.53452345
_cell_length_c   3.84906500
_cell_angle_alpha   90.00000000
_cell_angle_beta   90.00000000
_cell_angle_gamma   120.00000672
_symmetry_Int_Tables_number   1
_chemical_formula_structural   Li3Tb5(Co4As3)4
_chemical_formula_sum   'Li3 Tb5 Co16 As12'
_cell_volume   523.72284810
_cell_formula_units_Z   1
loop_
 _symmetry_equiv_pos_site_id
 _symmetry_equiv_pos_as_xyz
  1  'x, y, z'
loop_
 _atom_site_type_symbol
 _atom_site_label
 _atom_site_symmetry_multiplicity
 _atom_site_fract_x
 _atom_site_fract_y
 _atom_site_fract_z
 _atom_site_occupancy
  Li  Li0  1  0.562895  0.562895  0.000000  1
  Li  Li1  1  0.437105  0.000000  0.000000  1
  Li  Li2  1  0.000000  0.437105  0.000000  1
  Tb  Tb3  1  0.188232  0.188232  0.500000  1
  Tb  Tb4  1  0.811768  0.000000  0.500000  1
  Tb  Tb5  1  0.000000  0.811768  0.500000  1
  Tb  Tb6  1  0.333333  0.666667  0.000000  1
  Tb  Tb7  1  0.666667  0.333333  0.000000  1
  Co  Co8  1  0.718208  0.718208  0.500000  1
  Co  Co9  1  0.281792  0.000000  0.500000  1
  Co  Co10  1  0.000000  0.281792  0.500000  1
  Co  Co11  1  0.178763  0.377410  0.000000  1
  Co  Co12  1  0.622590  0.801353  0.000000  1
  Co  Co13  1  0.198647  0.821237  0.000000  1
  Co  Co14  1  0.801353  0.622590  0.000000  1
  Co  Co15  1  0.821237  0.198647  0.000000  1
  Co  Co16  1  0.377410  0.178763  0.000000  1
  Co  Co17  1  0.353545  0.478850  0.500000  1
  Co  Co18  1  0.521150  0.874696  0.500000  1
  Co  Co19  1  0.125304  0.646455  0.500000  1
  Co  Co20  1  0.874696  0.521150  0.500000  1
  Co  Co21  1  0.646455  0.125304  0.500000  1
  Co  Co22  1  0.478850  0.353545  0.500000  1
  Co  Co23  1  0.000000  0.000000  0.000000  1
  As  As24  1  0.819533  0.819533  0.000000  1
  As  As25  1  0.180467  0.000000  0.000000  1
  As  As26  1  0.000000  0.180467  0.000000  1
  As  As27  1  0.167363  0.481626  0.500000  1
  As  As28  1  0.518374  0.685738  0.500000  1
  As  As29  1  0.314262  0.832637  0.500000  1
  As  As30  1  0.685738  0.518374  0.500000  1
  As  As31  1  0.832637  0.314262  0.500000  1
  As  As32  1  0.481626  0.167363  0.500000  1
  As  As33  1  0.367988  0.367988  0.000000  1
  As  As34  1  0.632012  0.000000  0.000000  1
  As  As35  1  0.000000  0.632012  0.000000  1
