# generated using pymatgen
data_LiIr(OF2)2
_symmetry_space_group_name_H-M   'P 1'
_cell_length_a   4.86246400
_cell_length_b   4.86246400
_cell_length_c   8.96451900
_cell_angle_alpha   90.00000000
_cell_angle_beta   90.00000000
_cell_angle_gamma   90.00202672
_symmetry_Int_Tables_number   1
_chemical_formula_structural   LiIr(OF2)2
_chemical_formula_sum   'Li2 Ir2 O4 F8'
_cell_volume   211.95310828
_cell_formula_units_Z   2
loop_
 _symmetry_equiv_pos_site_id
 _symmetry_equiv_pos_as_xyz
  1  'x, y, z'
loop_
 _atom_site_type_symbol
 _atom_site_label
 _atom_site_symmetry_multiplicity
 _atom_site_fract_x
 _atom_site_fract_y
 _atom_site_fract_z
 _atom_site_occupancy
  Li  Li0  1  0.000000  0.500000  0.405099  1
  Li  Li1  1  0.500000  0.000000  0.594901  1
  Ir  Ir2  1  0.000000  0.500000  0.764791  1
  Ir  Ir3  1  0.500000  0.000000  0.235210  1
  O  O4  1  0.199101  0.300899  0.886686  1
  O  O5  1  0.300891  0.800891  0.113314  1
  O  O6  1  0.800899  0.699101  0.886686  1
  O  O7  1  0.699109  0.199109  0.113314  1
  F  F8  1  0.681054  0.181054  0.410957  1
  F  F9  1  0.818947  0.681053  0.589043  1
  F  F10  1  0.318946  0.818946  0.410957  1
  F  F11  1  0.282671  0.782671  0.748558  1
  F  F12  1  0.717329  0.217329  0.748558  1
  F  F13  1  0.217335  0.282665  0.251442  1
  F  F14  1  0.782665  0.717335  0.251442  1
  F  F15  1  0.181053  0.318947  0.589043  1
