# generated using pymatgen
data_MnPb(ClO4)4
_symmetry_space_group_name_H-M   'P 1'
_cell_length_a   5.12186999
_cell_length_b   7.58060996
_cell_length_c   9.18889800
_cell_angle_alpha   90.25906581
_cell_angle_beta   91.58916724
_cell_angle_gamma   98.43293703
_symmetry_Int_Tables_number   1
_chemical_formula_structural   MnPb(ClO4)4
_chemical_formula_sum   'Mn1 Pb1 Cl4 O16'
_cell_volume   352.76996502
_cell_formula_units_Z   1
loop_
 _symmetry_equiv_pos_site_id
 _symmetry_equiv_pos_as_xyz
  1  'x, y, z'
loop_
 _atom_site_type_symbol
 _atom_site_label
 _atom_site_symmetry_multiplicity
 _atom_site_fract_x
 _atom_site_fract_y
 _atom_site_fract_z
 _atom_site_occupancy
  Mn  Mn0  1  0.000000  0.000000  0.000000  1
  Pb  Pb1  1  0.500000  0.500000  0.500000  1
  Cl  Cl2  1  0.564762  0.241926  0.156172  1
  Cl  Cl3  1  0.949746  0.234851  0.683130  1
  Cl  Cl4  1  0.435238  0.758074  0.843828  1
  Cl  Cl5  1  0.050254  0.765149  0.316870  1
  O  O6  1  0.573247  0.266321  0.314922  1
  O  O7  1  0.938030  0.200616  0.840209  1
  O  O8  1  0.426753  0.733679  0.685078  1
  O  O9  1  0.061970  0.799384  0.159791  1
  O  O10  1  0.285318  0.206533  0.107836  1
  O  O11  1  0.225076  0.244040  0.639058  1
  O  O12  1  0.714682  0.793467  0.892164  1
  O  O13  1  0.774924  0.755960  0.360942  1
  O  O14  1  0.685735  0.080202  0.127655  1
  O  O15  1  0.871408  0.413856  0.661419  1
  O  O16  1  0.314265  0.919798  0.872345  1
  O  O17  1  0.128592  0.586144  0.338581  1
  O  O18  1  0.698292  0.394332  0.084718  1
  O  O19  1  0.779118  0.101295  0.601794  1
  O  O20  1  0.301708  0.605668  0.915282  1
  O  O21  1  0.220882  0.898705  0.398206  1
