# generated using pymatgen
data_Y6Cd23Se
_symmetry_space_group_name_H-M   'P 1'
_cell_length_a   9.94569019
_cell_length_b   9.94568977
_cell_length_c   9.94569000
_cell_angle_alpha   60.00000589
_cell_angle_beta   60.00000730
_cell_angle_gamma   60.00000154
_symmetry_Int_Tables_number   1
_chemical_formula_structural   Y6Cd23Se
_chemical_formula_sum   'Y6 Cd23 Se1'
_cell_volume   695.64842213
_cell_formula_units_Z   1
loop_
 _symmetry_equiv_pos_site_id
 _symmetry_equiv_pos_as_xyz
  1  'x, y, z'
loop_
 _atom_site_type_symbol
 _atom_site_label
 _atom_site_symmetry_multiplicity
 _atom_site_fract_x
 _atom_site_fract_y
 _atom_site_fract_z
 _atom_site_occupancy
  Y  Y0  1  0.795237  0.795237  0.204763  1
  Y  Y1  1  0.204763  0.795237  0.204763  1
  Y  Y2  1  0.795237  0.204763  0.204763  1
  Y  Y3  1  0.204763  0.204763  0.795237  1
  Y  Y4  1  0.795237  0.204763  0.795237  1
  Y  Y5  1  0.204763  0.795237  0.795237  1
  Cd  Cd6  1  0.836377  0.836377  0.490871  1
  Cd  Cd7  1  0.836377  0.490871  0.836377  1
  Cd  Cd8  1  0.490871  0.836377  0.836377  1
  Cd  Cd9  1  0.836377  0.836377  0.836377  1
  Cd  Cd10  1  0.163623  0.163623  0.509129  1
  Cd  Cd11  1  0.163623  0.509129  0.163623  1
  Cd  Cd12  1  0.509129  0.163623  0.163623  1
  Cd  Cd13  1  0.163623  0.163623  0.163623  1
  Cd  Cd14  1  0.621487  0.621487  0.135538  1
  Cd  Cd15  1  0.621487  0.135538  0.621487  1
  Cd  Cd16  1  0.135538  0.621487  0.621487  1
  Cd  Cd17  1  0.621487  0.621487  0.621487  1
  Cd  Cd18  1  0.378513  0.378513  0.864462  1
  Cd  Cd19  1  0.378513  0.864462  0.378513  1
  Cd  Cd20  1  0.864462  0.378513  0.378513  1
  Cd  Cd21  1  0.378513  0.378513  0.378513  1
  Cd  Cd22  1  0.000000  0.000000  0.500000  1
  Cd  Cd23  1  0.500000  0.000000  0.500000  1
  Cd  Cd24  1  0.000000  0.500000  0.500000  1
  Cd  Cd25  1  0.500000  0.500000  0.000000  1
  Cd  Cd26  1  0.000000  0.500000  0.000000  1
  Cd  Cd27  1  0.500000  0.000000  0.000000  1
  Cd  Cd28  1  0.500000  0.500000  0.500000  1
  Se  Se29  1  0.000000  0.000000  0.000000  1
