# generated using pymatgen
data_YMnSbO6
_symmetry_space_group_name_H-M   'P 1'
_cell_length_a   5.15278544
_cell_length_b   5.15213270
_cell_length_c   4.93054089
_cell_angle_alpha   90.02027159
_cell_angle_beta   90.01390733
_cell_angle_gamma   119.96764176
_symmetry_Int_Tables_number   1
_chemical_formula_structural   YMnSbO6
_chemical_formula_sum   'Y1 Mn1 Sb1 O6'
_cell_volume   113.39547707
_cell_formula_units_Z   1
loop_
 _symmetry_equiv_pos_site_id
 _symmetry_equiv_pos_as_xyz
  1  'x, y, z'
loop_
 _atom_site_type_symbol
 _atom_site_label
 _atom_site_symmetry_multiplicity
 _atom_site_fract_x
 _atom_site_fract_y
 _atom_site_fract_z
 _atom_site_occupancy
  Y  Y0  1  0.482546  0.517539  0.499990  1
  Mn  Mn1  1  0.815668  0.183995  0.000159  1
  Sb  Sb2  1  0.149165  0.850749  0.999895  1
  O  O3  1  0.115317  0.160461  0.220060  1
  O  O4  1  0.492962  0.885988  0.220858  1
  O  O5  1  0.840852  0.508069  0.220722  1
  O  O6  1  0.492011  0.159215  0.779236  1
  O  O7  1  0.114042  0.507081  0.779167  1
  O  O8  1  0.839592  0.884765  0.779883  1
