# generated using pymatgen
data_Dy6Al24Os7Pt
_symmetry_space_group_name_H-M   'P 1'
_cell_length_a   8.83913782
_cell_length_b   8.83913939
_cell_length_c   9.55377257
_cell_angle_alpha   89.60779700
_cell_angle_beta   90.39220307
_cell_angle_gamma   119.85678920
_symmetry_Int_Tables_number   1
_chemical_formula_structural   Dy6Al24Os7Pt
_chemical_formula_sum   'Dy6 Al24 Os7 Pt1'
_cell_volume   647.34641774
_cell_formula_units_Z   1
loop_
 _symmetry_equiv_pos_site_id
 _symmetry_equiv_pos_as_xyz
  1  'x, y, z'
loop_
 _atom_site_type_symbol
 _atom_site_label
 _atom_site_symmetry_multiplicity
 _atom_site_fract_x
 _atom_site_fract_y
 _atom_site_fract_z
 _atom_site_occupancy
  Dy  Dy0  1  0.190568  0.386969  0.251306  1
  Dy  Dy1  1  0.809432  0.613031  0.748694  1
  Dy  Dy2  1  0.613031  0.809432  0.251306  1
  Dy  Dy3  1  0.386969  0.190568  0.748694  1
  Dy  Dy4  1  0.194893  0.805107  0.251779  1
  Dy  Dy5  1  0.805107  0.194893  0.748221  1
  Al  Al6  1  0.331640  0.668360  0.018966  1
  Al  Al7  1  0.668360  0.331640  0.981034  1
  Al  Al8  1  0.666690  0.333310  0.516543  1
  Al  Al9  1  0.333310  0.666690  0.483457  1
  Al  Al10  1  0.163433  0.325509  0.577034  1
  Al  Al11  1  0.836567  0.674491  0.422966  1
  Al  Al12  1  0.674491  0.836567  0.577034  1
  Al  Al13  1  0.842170  0.675509  0.077335  1
  Al  Al14  1  0.325509  0.163433  0.422966  1
  Al  Al15  1  0.157830  0.324491  0.922665  1
  Al  Al16  1  0.163527  0.836473  0.575219  1
  Al  Al17  1  0.324491  0.157830  0.077335  1
  Al  Al18  1  0.836473  0.163527  0.424781  1
  Al  Al19  1  0.675509  0.842170  0.922665  1
  Al  Al20  1  0.836987  0.163013  0.075513  1
  Al  Al21  1  0.163013  0.836987  0.924487  1
  Al  Al22  1  0.560299  0.121839  0.249132  1
  Al  Al23  1  0.439701  0.878161  0.750868  1
  Al  Al24  1  0.878161  0.439701  0.249132  1
  Al  Al25  1  0.121839  0.560299  0.750868  1
  Al  Al26  1  0.561833  0.438167  0.251880  1
  Al  Al27  1  0.438167  0.561833  0.748120  1
  Al  Al28  1  0.999678  0.000322  0.250135  1
  Al  Al29  1  0.000322  0.999678  0.749865  1
  Os  Os30  1  0.500000  0.000000  0.000000  1
  Os  Os31  1  0.000000  0.500000  0.000000  1
  Os  Os32  1  0.500000  0.000000  0.500000  1
  Os  Os33  1  0.000000  0.500000  0.500000  1
  Os  Os34  1  0.500000  0.500000  0.500000  1
  Os  Os35  1  0.000000  0.000000  0.000000  1
  Os  Os36  1  0.000000  0.000000  0.500000  1
  Pt  Pt37  1  0.500000  0.500000  0.000000  1
