# generated using pymatgen
data_NdSm4(RuO6)2
_symmetry_space_group_name_H-M   'P 1'
_cell_length_a   7.00872286
_cell_length_b   7.00872266
_cell_length_c   7.60318418
_cell_angle_alpha   74.21726660
_cell_angle_beta   74.21726850
_cell_angle_gamma   50.14610574
_symmetry_Int_Tables_number   1
_chemical_formula_structural   NdSm4(RuO6)2
_chemical_formula_sum   'Nd1 Sm4 Ru2 O12'
_cell_volume   273.48512948
_cell_formula_units_Z   1
loop_
 _symmetry_equiv_pos_site_id
 _symmetry_equiv_pos_as_xyz
  1  'x, y, z'
loop_
 _atom_site_type_symbol
 _atom_site_label
 _atom_site_symmetry_multiplicity
 _atom_site_fract_x
 _atom_site_fract_y
 _atom_site_fract_z
 _atom_site_occupancy
  Nd  Nd0  1  0.000000  0.000000  0.500000  1
  Sm  Sm1  1  0.305096  0.305096  0.358752  1
  Sm  Sm2  1  0.694904  0.694904  0.641248  1
  Sm  Sm3  1  0.690910  0.690910  0.168600  1
  Sm  Sm4  1  0.309090  0.309090  0.831400  1
  Ru  Ru5  1  0.763916  0.236084  0.000000  1
  Ru  Ru6  1  0.236084  0.763916  0.000000  1
  O  O7  1  0.095942  0.591248  0.578135  1
  O  O8  1  0.999112  0.999112  0.188139  1
  O  O9  1  0.408752  0.904058  0.421865  1
  O  O10  1  0.499813  0.499813  0.177520  1
  O  O11  1  0.095318  0.581962  0.079886  1
  O  O12  1  0.904058  0.408752  0.421865  1
  O  O13  1  0.000888  0.000888  0.811861  1
  O  O14  1  0.591248  0.095941  0.578135  1
  O  O15  1  0.500187  0.500187  0.822480  1
  O  O16  1  0.581962  0.095318  0.079886  1
  O  O17  1  0.418038  0.904682  0.920114  1
  O  O18  1  0.904682  0.418038  0.920114  1
