# generated using pymatgen
data_Ho3Er2Lu3(CdIr)2
_symmetry_space_group_name_H-M   'P 1'
_cell_length_a   9.51359343
_cell_length_b   9.51359270
_cell_length_c   9.51359400
_cell_angle_alpha   60.00000242
_cell_angle_beta   60.00000496
_cell_angle_gamma   60.00000077
_symmetry_Int_Tables_number   1
_chemical_formula_structural   Ho3Er2Lu3(CdIr)2
_chemical_formula_sum   'Ho6 Er4 Lu6 Cd4 Ir4'
_cell_volume   608.86187972
_cell_formula_units_Z   2
loop_
 _symmetry_equiv_pos_site_id
 _symmetry_equiv_pos_as_xyz
  1  'x, y, z'
loop_
 _atom_site_type_symbol
 _atom_site_label
 _atom_site_symmetry_multiplicity
 _atom_site_fract_x
 _atom_site_fract_y
 _atom_site_fract_z
 _atom_site_occupancy
  Ho  Ho0  1  0.188738  0.811262  0.811262  1
  Ho  Ho1  1  0.811262  0.188738  0.188738  1
  Ho  Ho2  1  0.811262  0.188738  0.811262  1
  Ho  Ho3  1  0.188738  0.811262  0.188738  1
  Ho  Ho4  1  0.811262  0.811262  0.188738  1
  Ho  Ho5  1  0.188738  0.188738  0.811262  1
  Er  Er6  1  0.599265  0.599265  0.599265  1
  Er  Er7  1  0.599265  0.599265  0.202204  1
  Er  Er8  1  0.599265  0.202204  0.599265  1
  Er  Er9  1  0.202204  0.599265  0.599265  1
  Lu  Lu10  1  0.061868  0.438132  0.438132  1
  Lu  Lu11  1  0.438132  0.061868  0.061868  1
  Lu  Lu12  1  0.438132  0.061868  0.438132  1
  Lu  Lu13  1  0.061868  0.438132  0.061868  1
  Lu  Lu14  1  0.438132  0.438132  0.061868  1
  Lu  Lu15  1  0.061868  0.061868  0.438132  1
  Cd  Cd16  1  0.830632  0.830632  0.830632  1
  Cd  Cd17  1  0.830632  0.830632  0.508104  1
  Cd  Cd18  1  0.830632  0.508104  0.830632  1
  Cd  Cd19  1  0.508104  0.830632  0.830632  1
  Ir  Ir20  1  0.391127  0.391127  0.391127  1
  Ir  Ir21  1  0.391127  0.391127  0.826619  1
  Ir  Ir22  1  0.391127  0.826619  0.391127  1
  Ir  Ir23  1  0.826619  0.391127  0.391127  1
