# generated using pymatgen
data_CaLa6SBr12
_symmetry_space_group_name_H-M   'P 1'
_cell_length_a   9.50918728
_cell_length_b   9.50942661
_cell_length_c   9.51142700
_cell_angle_alpha   107.25937945
_cell_angle_beta   107.25758763
_cell_angle_gamma   107.25071728
_symmetry_Int_Tables_number   1
_chemical_formula_structural   CaLa6SBr12
_chemical_formula_sum   'Ca1 La6 S1 Br12'
_cell_volume   711.23105894
_cell_formula_units_Z   1
loop_
 _symmetry_equiv_pos_site_id
 _symmetry_equiv_pos_as_xyz
  1  'x, y, z'
loop_
 _atom_site_type_symbol
 _atom_site_label
 _atom_site_symmetry_multiplicity
 _atom_site_fract_x
 _atom_site_fract_y
 _atom_site_fract_z
 _atom_site_occupancy
  Ca  Ca0  1  0.500000  0.500000  0.500000  1
  La  La1  1  0.316508  0.105563  0.026968  1
  La  La2  1  0.026974  0.316503  0.105571  1
  La  La3  1  0.105573  0.026963  0.316433  1
  La  La4  1  0.894427  0.973037  0.683568  1
  La  La5  1  0.973026  0.683498  0.894430  1
  La  La6  1  0.683493  0.894437  0.973033  1
  S  S7  1  0.000000  0.000000  0.000000  1
  Br  Br8  1  0.680921  0.225744  0.071025  1
  Br  Br9  1  0.382377  0.462084  0.165027  1
  Br  Br10  1  0.071039  0.680913  0.225655  1
  Br  Br11  1  0.774304  0.928963  0.319064  1
  Br  Br12  1  0.462084  0.165001  0.382286  1
  Br  Br13  1  0.164998  0.382339  0.462031  1
  Br  Br14  1  0.835002  0.617662  0.537969  1
  Br  Br15  1  0.537916  0.835000  0.617714  1
  Br  Br16  1  0.225697  0.071038  0.680936  1
  Br  Br17  1  0.928961  0.319087  0.774346  1
  Br  Br18  1  0.617624  0.537916  0.834973  1
  Br  Br19  1  0.319080  0.774256  0.928975  1
