# generated using pymatgen
data_BaLi2YbP2
_symmetry_space_group_name_H-M   'P 1'
_cell_length_a   4.43027000
_cell_length_b   4.43027155
_cell_length_c   7.77318700
_cell_angle_alpha   90.00000000
_cell_angle_beta   90.00000000
_cell_angle_gamma   120.00001830
_symmetry_Int_Tables_number   1
_chemical_formula_structural   BaLi2YbP2
_chemical_formula_sum   'Ba1 Li2 Yb1 P2'
_cell_volume   132.12658460
_cell_formula_units_Z   1
loop_
 _symmetry_equiv_pos_site_id
 _symmetry_equiv_pos_as_xyz
  1  'x, y, z'
loop_
 _atom_site_type_symbol
 _atom_site_label
 _atom_site_symmetry_multiplicity
 _atom_site_fract_x
 _atom_site_fract_y
 _atom_site_fract_z
 _atom_site_occupancy
  Ba  Ba0  1  0.000000  0.000000  0.500000  1
  Li  Li1  1  0.333333  0.666667  0.174444  1
  Li  Li2  1  0.666667  0.333333  0.825556  1
  Yb  Yb3  1  0.000000  0.000000  0.000000  1
  P  P4  1  0.333333  0.666667  0.788476  1
  P  P5  1  0.666667  0.333333  0.211524  1
