# generated using pymatgen
data_LaTb2BiO7
_symmetry_space_group_name_H-M   'P 1'
_cell_length_a   6.67026578
_cell_length_b   6.67026669
_cell_length_c   7.81927800
_cell_angle_alpha   90.00000000
_cell_angle_beta   90.00000000
_cell_angle_gamma   109.05126263
_symmetry_Int_Tables_number   1
_chemical_formula_structural   LaTb2BiO7
_chemical_formula_sum   'La2 Tb4 Bi2 O14'
_cell_volume   328.84335365
_cell_formula_units_Z   2
loop_
 _symmetry_equiv_pos_site_id
 _symmetry_equiv_pos_as_xyz
  1  'x, y, z'
loop_
 _atom_site_type_symbol
 _atom_site_label
 _atom_site_symmetry_multiplicity
 _atom_site_fract_x
 _atom_site_fract_y
 _atom_site_fract_z
 _atom_site_occupancy
  La  La0  1  0.500000  0.500000  0.500000  1
  La  La1  1  0.500000  0.500000  0.000000  1
  Tb  Tb2  1  0.531038  0.002790  0.750000  1
  Tb  Tb3  1  0.002790  0.531038  0.250000  1
  Tb  Tb4  1  0.468962  0.997210  0.250000  1
  Tb  Tb5  1  0.997210  0.468962  0.750000  1
  Bi  Bi6  1  0.000000  0.000000  0.500000  1
  Bi  Bi7  1  0.000000  0.000000  0.000000  1
  O  O8  1  0.667058  0.925698  0.470203  1
  O  O9  1  0.925698  0.667058  0.529797  1
  O  O10  1  0.667058  0.925698  0.029797  1
  O  O11  1  0.925698  0.667058  0.970203  1
  O  O12  1  0.332942  0.074302  0.529797  1
  O  O13  1  0.074302  0.332942  0.470203  1
  O  O14  1  0.332942  0.074302  0.970203  1
  O  O15  1  0.074302  0.332942  0.029797  1
  O  O16  1  0.916345  0.083655  0.750000  1
  O  O17  1  0.083655  0.916345  0.250000  1
  O  O18  1  0.362622  0.637378  0.750000  1
  O  O19  1  0.637378  0.362622  0.250000  1
  O  O20  1  0.642036  0.357964  0.750000  1
  O  O21  1  0.357964  0.642036  0.250000  1
