# generated using pymatgen
data_Y3Er(ZnIn)4
_symmetry_space_group_name_H-M   'P 1'
_cell_length_a   4.63905900
_cell_length_b   4.63906016
_cell_length_c   14.77375700
_cell_angle_alpha   90.00000000
_cell_angle_beta   90.00000000
_cell_angle_gamma   119.99999882
_symmetry_Int_Tables_number   1
_chemical_formula_structural   Y3Er(ZnIn)4
_chemical_formula_sum   'Y3 Er1 Zn4 In4'
_cell_volume   275.34772288
_cell_formula_units_Z   1
loop_
 _symmetry_equiv_pos_site_id
 _symmetry_equiv_pos_as_xyz
  1  'x, y, z'
loop_
 _atom_site_type_symbol
 _atom_site_label
 _atom_site_symmetry_multiplicity
 _atom_site_fract_x
 _atom_site_fract_y
 _atom_site_fract_z
 _atom_site_occupancy
  Y  Y0  1  0.000000  0.000000  0.250000  1
  Y  Y1  1  0.000000  0.000000  0.998932  1
  Y  Y2  1  0.000000  0.000000  0.501068  1
  Er  Er3  1  0.000000  0.000000  0.750000  1
  Zn  Zn4  1  0.333333  0.666667  0.097749  1
  Zn  Zn5  1  0.666667  0.333333  0.845282  1
  Zn  Zn6  1  0.666667  0.333333  0.654718  1
  Zn  Zn7  1  0.333333  0.666667  0.402251  1
  In  In8  1  0.333333  0.666667  0.612613  1
  In  In9  1  0.666667  0.333333  0.362414  1
  In  In10  1  0.666667  0.333333  0.137586  1
  In  In11  1  0.333333  0.666667  0.887387  1
