# generated using pymatgen
data_LiAc8InPd23
_symmetry_space_group_name_H-M   'P 1'
_cell_length_a   8.74671700
_cell_length_b   8.82468600
_cell_length_c   8.82468600
_cell_angle_alpha   90.00000000
_cell_angle_beta   90.00000000
_cell_angle_gamma   90.00000000
_symmetry_Int_Tables_number   1
_chemical_formula_structural   LiAc8InPd23
_chemical_formula_sum   'Li1 Ac8 In1 Pd23'
_cell_volume   681.15131234
_cell_formula_units_Z   1
loop_
 _symmetry_equiv_pos_site_id
 _symmetry_equiv_pos_as_xyz
  1  'x, y, z'
loop_
 _atom_site_type_symbol
 _atom_site_label
 _atom_site_symmetry_multiplicity
 _atom_site_fract_x
 _atom_site_fract_y
 _atom_site_fract_z
 _atom_site_occupancy
  Li  Li0  1  0.260703  0.500000  0.500000  1
  Ac  Ac1  1  0.250545  0.245370  0.245370  1
  Ac  Ac2  1  0.748386  0.747777  0.747777  1
  Ac  Ac3  1  0.748386  0.747777  0.252223  1
  Ac  Ac4  1  0.748386  0.252223  0.747777  1
  Ac  Ac5  1  0.250545  0.245370  0.754630  1
  Ac  Ac6  1  0.250545  0.754630  0.245370  1
  Ac  Ac7  1  0.250545  0.754630  0.754630  1
  Ac  Ac8  1  0.748386  0.252223  0.252223  1
  In  In9  1  0.996918  0.000000  0.000000  1
  Pd  Pd10  1  0.268168  0.500000  0.000000  1
  Pd  Pd11  1  0.731094  0.500000  0.000000  1
  Pd  Pd12  1  0.004860  0.269107  0.500000  1
  Pd  Pd13  1  0.500588  0.269845  0.000000  1
  Pd  Pd14  1  0.004860  0.730893  0.500000  1
  Pd  Pd15  1  0.500588  0.730155  0.000000  1
  Pd  Pd16  1  0.500588  0.000000  0.269845  1
  Pd  Pd17  1  0.268168  0.000000  0.500000  1
  Pd  Pd18  1  0.500588  0.000000  0.730155  1
  Pd  Pd19  1  0.731094  0.000000  0.500000  1
  Pd  Pd20  1  0.004860  0.500000  0.269107  1
  Pd  Pd21  1  0.004860  0.500000  0.730893  1
  Pd  Pd22  1  0.744945  0.500000  0.500000  1
  Pd  Pd23  1  0.495820  0.256400  0.500000  1
  Pd  Pd24  1  0.495820  0.743600  0.500000  1
  Pd  Pd25  1  0.495820  0.500000  0.256400  1
  Pd  Pd26  1  0.495820  0.500000  0.743600  1
  Pd  Pd27  1  0.322554  0.000000  0.000000  1
  Pd  Pd28  1  0.678867  0.000000  0.000000  1
  Pd  Pd29  1  0.999171  0.319800  0.000000  1
  Pd  Pd30  1  0.999171  0.680200  0.000000  1
  Pd  Pd31  1  0.999171  0.000000  0.319800  1
  Pd  Pd32  1  0.999171  0.000000  0.680200  1
