# generated using pymatgen
data_Sr2TlCd3Pd2
_symmetry_space_group_name_H-M   'P 1'
_cell_length_a   5.85406014
_cell_length_b   5.85406151
_cell_length_c   8.27125102
_cell_angle_alpha   89.54395689
_cell_angle_beta   90.45604623
_cell_angle_gamma   134.45516559
_symmetry_Int_Tables_number   1
_chemical_formula_structural   Sr2TlCd3Pd2
_chemical_formula_sum   'Sr2 Tl1 Cd3 Pd2'
_cell_volume   202.32298873
_cell_formula_units_Z   1
loop_
 _symmetry_equiv_pos_site_id
 _symmetry_equiv_pos_as_xyz
  1  'x, y, z'
loop_
 _atom_site_type_symbol
 _atom_site_label
 _atom_site_symmetry_multiplicity
 _atom_site_fract_x
 _atom_site_fract_y
 _atom_site_fract_z
 _atom_site_occupancy
  Sr  Sr0  1  0.937318  0.062682  0.747738  1
  Sr  Sr1  1  0.062960  0.937040  0.252617  1
  Tl  Tl2  1  0.354237  0.645763  0.056043  1
  Cd  Cd3  1  0.649949  0.350051  0.939831  1
  Cd  Cd4  1  0.349403  0.650597  0.448779  1
  Cd  Cd5  1  0.648864  0.351136  0.554915  1
  Pd  Pd6  1  0.220259  0.779741  0.748276  1
  Pd  Pd7  1  0.777011  0.222989  0.251803  1
