# generated using pymatgen
data_Pr10Al4OsRu5
_symmetry_space_group_name_H-M   'P 1'
_cell_length_a   8.60726503
_cell_length_b   8.62086531
_cell_length_c   8.62086530
_cell_angle_alpha   109.51797254
_cell_angle_beta   109.63553950
_cell_angle_gamma   109.32424818
_symmetry_Int_Tables_number   1
_chemical_formula_structural   Pr10Al4OsRu5
_chemical_formula_sum   'Pr10 Al4 Os1 Ru5'
_cell_volume   492.03786478
_cell_formula_units_Z   1
loop_
 _symmetry_equiv_pos_site_id
 _symmetry_equiv_pos_as_xyz
  1  'x, y, z'
loop_
 _atom_site_type_symbol
 _atom_site_label
 _atom_site_symmetry_multiplicity
 _atom_site_fract_x
 _atom_site_fract_y
 _atom_site_fract_z
 _atom_site_occupancy
  Pr  Pr0  1  0.250000  0.684542  0.434542  1
  Pr  Pr1  1  0.750000  0.815660  0.065660  1
  Pr  Pr2  1  0.434812  0.250267  0.684019  1
  Pr  Pr3  1  0.683312  0.433919  0.249188  1
  Pr  Pr4  1  0.065188  0.749207  0.815455  1
  Pr  Pr5  1  0.816688  0.065876  0.750608  1
  Pr  Pr6  1  0.214192  0.214346  0.214201  1
  Pr  Pr7  1  0.499968  0.999811  0.285938  1
  Pr  Pr8  1  0.285808  0.500008  0.000154  1
  Pr  Pr9  1  0.000032  0.285970  0.499843  1
  Al  Al10  1  0.590140  0.590473  0.590331  1
  Al  Al11  1  0.499382  0.000088  0.909506  1
  Al  Al12  1  0.909860  0.500191  0.000333  1
  Al  Al13  1  0.000618  0.910124  0.500707  1
  Os  Os14  1  0.250000  0.117323  0.867323  1
  Ru  Ru15  1  0.750000  0.382513  0.632513  1
  Ru  Ru16  1  0.867300  0.249938  0.117262  1
  Ru  Ru17  1  0.117290  0.867037  0.250031  1
  Ru  Ru18  1  0.632699  0.749961  0.382637  1
  Ru  Ru19  1  0.382710  0.632741  0.749748  1
