# generated using pymatgen
data_Lu5TaSi7Ni16
_symmetry_space_group_name_H-M   'P 1'
_cell_length_a   8.25875514
_cell_length_b   8.25875475
_cell_length_c   8.24584500
_cell_angle_alpha   60.05169943
_cell_angle_beta   60.05170101
_cell_angle_gamma   59.89660656
_symmetry_Int_Tables_number   1
_chemical_formula_structural   Lu5TaSi7Ni16
_chemical_formula_sum   'Lu5 Ta1 Si7 Ni16'
_cell_volume   397.69234583
_cell_formula_units_Z   1
loop_
 _symmetry_equiv_pos_site_id
 _symmetry_equiv_pos_as_xyz
  1  'x, y, z'
loop_
 _atom_site_type_symbol
 _atom_site_label
 _atom_site_symmetry_multiplicity
 _atom_site_fract_x
 _atom_site_fract_y
 _atom_site_fract_z
 _atom_site_occupancy
  Lu  Lu0  1  0.295768  0.707694  0.292306  1
  Lu  Lu1  1  0.707694  0.295768  0.292306  1
  Lu  Lu2  1  0.286368  0.286368  0.713632  1
  Lu  Lu3  1  0.707694  0.295768  0.704232  1
  Lu  Lu4  1  0.295768  0.707694  0.704232  1
  Ta  Ta5  1  0.710719  0.710719  0.289281  1
  Si  Si6  1  0.004261  0.004261  0.995739  1
  Si  Si7  1  0.999665  0.999665  0.500335  1
  Si  Si8  1  0.506502  0.995498  0.493498  1
  Si  Si9  1  0.995498  0.506502  0.493498  1
  Si  Si10  1  0.499665  0.499665  0.000335  1
  Si  Si11  1  0.995498  0.506502  0.004502  1
  Si  Si12  1  0.506502  0.995498  0.004502  1
  Ni  Ni13  1  0.878082  0.878082  0.353382  1
  Ni  Ni14  1  0.878153  0.361415  0.880216  1
  Ni  Ni15  1  0.361415  0.878153  0.880216  1
  Ni  Ni16  1  0.878082  0.878082  0.890455  1
  Ni  Ni17  1  0.119784  0.119784  0.638585  1
  Ni  Ni18  1  0.109545  0.646618  0.121918  1
  Ni  Ni19  1  0.646618  0.109545  0.121918  1
  Ni  Ni20  1  0.119784  0.119784  0.121847  1
  Ni  Ni21  1  0.670204  0.670204  0.991390  1
  Ni  Ni22  1  0.670437  0.987621  0.670971  1
  Ni  Ni23  1  0.987621  0.670437  0.670971  1
  Ni  Ni24  1  0.670204  0.670204  0.668199  1
  Ni  Ni25  1  0.329029  0.329029  0.012379  1
  Ni  Ni26  1  0.331801  0.008610  0.329796  1
  Ni  Ni27  1  0.008610  0.331801  0.329796  1
  Ni  Ni28  1  0.329029  0.329029  0.329563  1
