# generated using pymatgen
data_Li4Dy15LuPb16
_symmetry_space_group_name_H-M   'P 1'
_cell_length_a   7.67404488
_cell_length_b   8.33111588
_cell_length_c   15.68302135
_cell_angle_alpha   90.10092414
_cell_angle_beta   90.02178976
_cell_angle_gamma   90.03678367
_symmetry_Int_Tables_number   1
_chemical_formula_structural   Li4Dy15LuPb16
_chemical_formula_sum   'Li4 Dy15 Lu1 Pb16'
_cell_volume   1002.66636997
_cell_formula_units_Z   1
loop_
 _symmetry_equiv_pos_site_id
 _symmetry_equiv_pos_as_xyz
  1  'x, y, z'
loop_
 _atom_site_type_symbol
 _atom_site_label
 _atom_site_symmetry_multiplicity
 _atom_site_fract_x
 _atom_site_fract_y
 _atom_site_fract_z
 _atom_site_occupancy
  Li  Li0  1  0.159468  0.490815  0.749969  1
  Li  Li1  1  0.663821  0.009151  0.752904  1
  Li  Li2  1  0.838348  0.508782  0.248158  1
  Li  Li3  1  0.337432  0.989411  0.251138  1
  Dy  Dy4  1  0.830744  0.659869  0.628558  1
  Dy  Dy5  1  0.668944  0.159327  0.371887  1
  Dy  Dy6  1  0.169702  0.341777  0.126261  1
  Dy  Dy7  1  0.666858  0.159869  0.127534  1
  Dy  Dy8  1  0.166950  0.339769  0.371898  1
  Dy  Dy9  1  0.333386  0.839752  0.628690  1
  Dy  Dy10  1  0.831126  0.660097  0.872430  1
  Dy  Dy11  1  0.504217  0.310077  0.909236  1
  Dy  Dy12  1  0.004599  0.189224  0.592705  1
  Dy  Dy13  1  0.495806  0.689607  0.408989  1
  Dy  Dy14  1  0.995499  0.809600  0.090757  1
  Dy  Dy15  1  0.495629  0.690014  0.090011  1
  Dy  Dy16  1  0.996299  0.809501  0.408180  1
  Dy  Dy17  1  0.503978  0.309319  0.591856  1
  Dy  Dy18  1  0.005062  0.191056  0.907895  1
  Lu  Lu19  1  0.332691  0.843235  0.872015  1
  Pb  Pb20  1  0.311705  0.038097  0.042368  1
  Pb  Pb21  1  0.812379  0.460582  0.457130  1
  Pb  Pb22  1  0.688496  0.960963  0.543465  1
  Pb  Pb23  1  0.189604  0.542139  0.954380  1
  Pb  Pb24  1  0.685896  0.962075  0.955715  1
  Pb  Pb25  1  0.187088  0.538465  0.543909  1
  Pb  Pb26  1  0.312006  0.038851  0.457068  1
  Pb  Pb27  1  0.813155  0.461010  0.043064  1
  Pb  Pb28  1  0.509611  0.596251  0.751678  1
  Pb  Pb29  1  0.015117  0.901663  0.751374  1
  Pb  Pb30  1  0.487580  0.404004  0.250057  1
  Pb  Pb31  1  0.987997  0.095984  0.248350  1
  Pb  Pb32  1  0.305832  0.160251  0.750813  1
  Pb  Pb33  1  0.803005  0.340467  0.750623  1
  Pb  Pb34  1  0.694893  0.839380  0.249468  1
  Pb  Pb35  1  0.195074  0.659569  0.249465  1
