# generated using pymatgen
data_Tb21Dy2YTe12
_symmetry_space_group_name_H-M   'P 1'
_cell_length_a   4.08866800
_cell_length_b   11.58608259
_cell_length_c   22.23505400
_cell_angle_alpha   89.96997754
_cell_angle_beta   90.00000000
_cell_angle_gamma   90.00000000
_symmetry_Int_Tables_number   1
_chemical_formula_structural   Tb21Dy2YTe12
_chemical_formula_sum   'Tb21 Dy2 Y1 Te12'
_cell_volume   1053.31094301
_cell_formula_units_Z   1
loop_
 _symmetry_equiv_pos_site_id
 _symmetry_equiv_pos_as_xyz
  1  'x, y, z'
loop_
 _atom_site_type_symbol
 _atom_site_label
 _atom_site_symmetry_multiplicity
 _atom_site_fract_x
 _atom_site_fract_y
 _atom_site_fract_z
 _atom_site_occupancy
  Tb  Tb0  1  0.250000  0.151561  0.391828  1
  Tb  Tb1  1  0.750000  0.848511  0.608023  1
  Tb  Tb2  1  0.750000  0.651838  0.108187  1
  Tb  Tb3  1  0.250000  0.348691  0.891768  1
  Tb  Tb4  1  0.250000  0.455790  0.340219  1
  Tb  Tb5  1  0.750000  0.544078  0.659730  1
  Tb  Tb6  1  0.750000  0.956128  0.159824  1
  Tb  Tb7  1  0.250000  0.044417  0.840229  1
  Tb  Tb8  1  0.250000  0.734407  0.233670  1
  Tb  Tb9  1  0.750000  0.265737  0.766366  1
  Tb  Tb10  1  0.750000  0.234486  0.266256  1
  Tb  Tb11  1  0.250000  0.765583  0.733545  1
  Tb  Tb12  1  0.250000  0.115428  0.034599  1
  Tb  Tb13  1  0.750000  0.884828  0.965386  1
  Tb  Tb14  1  0.750000  0.615231  0.465438  1
  Tb  Tb15  1  0.250000  0.384740  0.534574  1
  Tb  Tb16  1  0.250000  0.413937  0.146987  1
  Tb  Tb17  1  0.750000  0.586508  0.852627  1
  Tb  Tb18  1  0.750000  0.913681  0.352933  1
  Tb  Tb19  1  0.250000  0.086434  0.647094  1
  Tb  Tb20  1  0.250000  0.611365  0.983102  1
  Dy  Dy21  1  0.750000  0.112309  0.517160  1
  Dy  Dy22  1  0.250000  0.887575  0.482803  1
  Y  Y23  1  0.750000  0.386522  0.017669  1
  Te  Te24  1  0.250000  0.849953  0.068674  1
  Te  Te25  1  0.750000  0.150235  0.931518  1
  Te  Te26  1  0.750000  0.349759  0.431405  1
  Te  Te27  1  0.250000  0.650206  0.568591  1
  Te  Te28  1  0.250000  0.711883  0.373023  1
  Te  Te29  1  0.750000  0.288089  0.626992  1
  Te  Te30  1  0.750000  0.211930  0.127008  1
  Te  Te31  1  0.250000  0.788070  0.872957  1
  Te  Te32  1  0.250000  0.020615  0.261123  1
  Te  Te33  1  0.750000  0.979520  0.738856  1
  Te  Te34  1  0.750000  0.520513  0.238749  1
  Te  Te35  1  0.250000  0.479445  0.761094  1
