# generated using pymatgen
data_Ce3Al12Re3Ru
_symmetry_space_group_name_H-M   'P 1'
_cell_length_a   8.92411200
_cell_length_b   8.92411090
_cell_length_c   9.63103700
_cell_angle_alpha   90.00000000
_cell_angle_beta   90.00000000
_cell_angle_gamma   119.99999668
_symmetry_Int_Tables_number   1
_chemical_formula_structural   Ce3Al12Re3Ru
_chemical_formula_sum   'Ce6 Al24 Re6 Ru2'
_cell_volume   664.25321960
_cell_formula_units_Z   2
loop_
 _symmetry_equiv_pos_site_id
 _symmetry_equiv_pos_as_xyz
  1  'x, y, z'
loop_
 _atom_site_type_symbol
 _atom_site_label
 _atom_site_symmetry_multiplicity
 _atom_site_fract_x
 _atom_site_fract_y
 _atom_site_fract_z
 _atom_site_occupancy
  Ce  Ce0  1  0.804928  0.609857  0.750000  1
  Ce  Ce1  1  0.195072  0.804928  0.250000  1
  Ce  Ce2  1  0.609857  0.804928  0.250000  1
  Ce  Ce3  1  0.390143  0.195072  0.750000  1
  Ce  Ce4  1  0.804928  0.195072  0.750000  1
  Ce  Ce5  1  0.195072  0.390143  0.250000  1
  Al  Al6  1  0.333333  0.666667  0.499786  1
  Al  Al7  1  0.666667  0.333333  0.999786  1
  Al  Al8  1  0.666667  0.333333  0.500214  1
  Al  Al9  1  0.333333  0.666667  0.000214  1
  Al  Al10  1  0.160755  0.321511  0.578095  1
  Al  Al11  1  0.678489  0.839245  0.578095  1
  Al  Al12  1  0.160755  0.839245  0.578095  1
  Al  Al13  1  0.839245  0.160755  0.078095  1
  Al  Al14  1  0.839245  0.160755  0.421905  1
  Al  Al15  1  0.839245  0.678489  0.078095  1
  Al  Al16  1  0.321511  0.160755  0.078095  1
  Al  Al17  1  0.678489  0.839245  0.921905  1
  Al  Al18  1  0.160755  0.321511  0.921905  1
  Al  Al19  1  0.839245  0.678489  0.421905  1
  Al  Al20  1  0.000000  0.000000  0.250000  1
  Al  Al21  1  0.000000  0.000000  0.750000  1
  Al  Al22  1  0.561408  0.122817  0.250000  1
  Al  Al23  1  0.438592  0.561408  0.750000  1
  Al  Al24  1  0.122817  0.561408  0.750000  1
  Al  Al25  1  0.877183  0.438592  0.250000  1
  Al  Al26  1  0.561408  0.438592  0.250000  1
  Al  Al27  1  0.438592  0.877183  0.750000  1
  Al  Al28  1  0.160755  0.839245  0.921905  1
  Al  Al29  1  0.321511  0.160755  0.421905  1
  Re  Re30  1  0.500000  0.000000  0.500000  1
  Re  Re31  1  0.500000  0.500000  0.000000  1
  Re  Re32  1  0.000000  0.500000  0.000000  1
  Re  Re33  1  0.000000  0.500000  0.500000  1
  Re  Re34  1  0.500000  0.500000  0.500000  1
  Re  Re35  1  0.500000  0.000000  0.000000  1
  Ru  Ru36  1  0.000000  0.000000  0.500000  1
  Ru  Ru37  1  0.000000  0.000000  0.000000  1
