# generated using pymatgen
data_LaAl4Ni9
_symmetry_space_group_name_H-M   'P 1'
_cell_length_a   8.12546199
_cell_length_b   8.12389884
_cell_length_c   8.12301596
_cell_angle_alpha   120.72614125
_cell_angle_beta   120.73487402
_cell_angle_gamma   88.74223041
_symmetry_Int_Tables_number   1
_chemical_formula_structural   LaAl4Ni9
_chemical_formula_sum   'La2 Al8 Ni18'
_cell_volume   374.85908932
_cell_formula_units_Z   2
loop_
 _symmetry_equiv_pos_site_id
 _symmetry_equiv_pos_as_xyz
  1  'x, y, z'
loop_
 _atom_site_type_symbol
 _atom_site_label
 _atom_site_symmetry_multiplicity
 _atom_site_fract_x
 _atom_site_fract_y
 _atom_site_fract_z
 _atom_site_occupancy
  La  La0  1  0.749994  0.750021  0.000012  1
  La  La1  1  0.250006  0.249979  0.999988  1
  Al  Al2  1  0.057463  0.557520  0.854827  1
  Al  Al3  1  0.702721  0.202757  0.145163  1
  Al  Al4  1  0.557580  0.702627  0.499991  1
  Al  Al5  1  0.202673  0.057602  0.500031  1
  Al  Al6  1  0.942537  0.442480  0.145173  1
  Al  Al7  1  0.297279  0.797243  0.854837  1
  Al  Al8  1  0.442420  0.297373  0.500009  1
  Al  Al9  1  0.797327  0.942398  0.499969  1
  Ni  Ni10  1  0.065177  0.204761  0.270111  1
  Ni  Ni11  1  0.934823  0.795239  0.729889  1
  Ni  Ni12  1  0.565004  0.295213  0.860067  1
  Ni  Ni13  1  0.434996  0.704787  0.139933  1
  Ni  Ni14  1  0.795107  0.065176  0.859933  1
  Ni  Ni15  1  0.204893  0.934824  0.140067  1
  Ni  Ni16  1  0.704857  0.565565  0.269887  1
  Ni  Ni17  1  0.295143  0.434435  0.730113  1
  Ni  Ni18  1  0.439285  0.939505  0.735881  1
  Ni  Ni19  1  0.203347  0.703631  0.264447  1
  Ni  Ni20  1  0.938588  0.203081  0.499387  1
  Ni  Ni21  1  0.703492  0.439332  0.500017  1
  Ni  Ni22  1  0.560715  0.060495  0.264119  1
  Ni  Ni23  1  0.796653  0.296369  0.735553  1
  Ni  Ni24  1  0.061412  0.796919  0.500613  1
  Ni  Ni25  1  0.296508  0.560668  0.499983  1
  Ni  Ni26  1  0.000000  0.500000  0.500000  1
  Ni  Ni27  1  0.500000  0.000000  0.500000  1
