# generated using pymatgen
data_Sm3Mn4BiF28
_symmetry_space_group_name_H-M   'P 1'
_cell_length_a   5.51508447
_cell_length_b   8.91872611
_cell_length_c   11.90676335
_cell_angle_alpha   62.01809692
_cell_angle_beta   90.05254091
_cell_angle_gamma   89.94075483
_symmetry_Int_Tables_number   1
_chemical_formula_structural   Sm3Mn4BiF28
_chemical_formula_sum   'Sm3 Mn4 Bi1 F28'
_cell_volume   517.19673291
_cell_formula_units_Z   1
loop_
 _symmetry_equiv_pos_site_id
 _symmetry_equiv_pos_as_xyz
  1  'x, y, z'
loop_
 _atom_site_type_symbol
 _atom_site_label
 _atom_site_symmetry_multiplicity
 _atom_site_fract_x
 _atom_site_fract_y
 _atom_site_fract_z
 _atom_site_occupancy
  Sm  Sm0  1  0.260153  0.194704  0.736079  1
  Sm  Sm1  1  0.239157  0.190840  0.235513  1
  Sm  Sm2  1  0.740044  0.809869  0.264070  1
  Mn  Mn3  1  0.757511  0.272798  0.957903  1
  Mn  Mn4  1  0.257768  0.726289  0.541812  1
  Mn  Mn5  1  0.242465  0.725960  0.043440  1
  Mn  Mn6  1  0.742418  0.274876  0.456967  1
  Bi  Bi7  1  0.764993  0.814710  0.762598  1
  F  F8  1  0.424443  0.706695  0.922314  1
  F  F9  1  0.927992  0.291924  0.578890  1
  F  F10  1  0.571803  0.291436  0.078831  1
  F  F11  1  0.071916  0.707681  0.420329  1
  F  F12  1  0.459782  0.280205  0.539392  1
  F  F13  1  0.956603  0.719344  0.962642  1
  F  F14  1  0.541359  0.718955  0.460939  1
  F  F15  1  0.041035  0.279783  0.038899  1
  F  F16  1  0.769722  0.504441  0.864666  1
  F  F17  1  0.269865  0.491590  0.635565  1
  F  F18  1  0.229940  0.491771  0.136643  1
  F  F19  1  0.729834  0.507864  0.364029  1
  F  F20  1  0.758428  0.039357  0.047528  1
  F  F21  1  0.258277  0.959313  0.452677  1
  F  F22  1  0.241866  0.959173  0.952403  1
  F  F23  1  0.742296  0.040511  0.546407  1
  F  F24  1  0.979284  0.727382  0.626995  1
  F  F25  1  0.480161  0.270720  0.871013  1
  F  F26  1  0.019164  0.272097  0.371376  1
  F  F27  1  0.519780  0.727702  0.129467  1
  F  F28  1  0.059616  0.741453  0.168398  1
  F  F29  1  0.559511  0.258854  0.332505  1
  F  F30  1  0.940084  0.257202  0.832353  1
  F  F31  1  0.436681  0.740691  0.667730  1
  F  F32  1  0.402252  0.967849  0.227529  1
  F  F33  1  0.902323  0.033255  0.272392  1
  F  F34  1  0.601926  0.033927  0.773061  1
  F  F35  1  0.099551  0.968778  0.726643  1
