# generated using pymatgen
data_CsRb3As2O7
_symmetry_space_group_name_H-M   'P 1'
_cell_length_a   6.34181300
_cell_length_b   6.34181204
_cell_length_c   15.39700500
_cell_angle_alpha   90.00000000
_cell_angle_beta   90.00000000
_cell_angle_gamma   119.49448129
_symmetry_Int_Tables_number   1
_chemical_formula_structural   CsRb3As2O7
_chemical_formula_sum   'Cs2 Rb6 As4 O14'
_cell_volume   538.99345190
_cell_formula_units_Z   2
loop_
 _symmetry_equiv_pos_site_id
 _symmetry_equiv_pos_as_xyz
  1  'x, y, z'
loop_
 _atom_site_type_symbol
 _atom_site_label
 _atom_site_symmetry_multiplicity
 _atom_site_fract_x
 _atom_site_fract_y
 _atom_site_fract_z
 _atom_site_occupancy
  Cs  Cs0  1  0.949067  0.050933  0.250000  1
  Cs  Cs1  1  0.050933  0.949067  0.750000  1
  Rb  Rb2  1  0.027021  0.027021  0.000000  1
  Rb  Rb3  1  0.972979  0.972979  0.500000  1
  Rb  Rb4  1  0.652128  0.369462  0.087324  1
  Rb  Rb5  1  0.369462  0.652128  0.912676  1
  Rb  Rb6  1  0.347872  0.630538  0.587324  1
  Rb  Rb7  1  0.630538  0.347872  0.412676  1
  As  As8  1  0.333100  0.707756  0.141582  1
  As  As9  1  0.707756  0.333100  0.858418  1
  As  As10  1  0.666900  0.292244  0.641582  1
  As  As11  1  0.292244  0.666900  0.358418  1
  O  O12  1  0.255279  0.927400  0.147944  1
  O  O13  1  0.927400  0.255279  0.852056  1
  O  O14  1  0.744721  0.072600  0.647944  1
  O  O15  1  0.072600  0.744721  0.352056  1
  O  O16  1  0.608261  0.807937  0.093636  1
  O  O17  1  0.807937  0.608261  0.906364  1
  O  O18  1  0.391739  0.192063  0.593636  1
  O  O19  1  0.192063  0.391739  0.406364  1
  O  O20  1  0.120827  0.442914  0.095984  1
  O  O21  1  0.442914  0.120827  0.904016  1
  O  O22  1  0.879173  0.557086  0.595984  1
  O  O23  1  0.557086  0.879173  0.404016  1
  O  O24  1  0.381252  0.618748  0.250000  1
  O  O25  1  0.618748  0.381252  0.750000  1
