# generated using pymatgen
data_Er5Lu3(C2Cl3)2
_symmetry_space_group_name_H-M   'P 1'
_cell_length_a   3.59710400
_cell_length_b   10.30417800
_cell_length_c   19.45461800
_cell_angle_alpha   90.00000000
_cell_angle_beta   90.00000000
_cell_angle_gamma   90.00000000
_symmetry_Int_Tables_number   1
_chemical_formula_structural   Er5Lu3(C2Cl3)2
_chemical_formula_sum   'Er10 Lu6 C8 Cl12'
_cell_volume   721.08930516
_cell_formula_units_Z   2
loop_
 _symmetry_equiv_pos_site_id
 _symmetry_equiv_pos_as_xyz
  1  'x, y, z'
loop_
 _atom_site_type_symbol
 _atom_site_label
 _atom_site_symmetry_multiplicity
 _atom_site_fract_x
 _atom_site_fract_y
 _atom_site_fract_z
 _atom_site_occupancy
  Er  Er0  1  0.250000  0.136593  0.574661  1
  Er  Er1  1  0.250000  0.636593  0.925339  1
  Er  Er2  1  0.750000  0.862162  0.426122  1
  Er  Er3  1  0.750000  0.362162  0.073878  1
  Er  Er4  1  0.250000  0.634283  0.755365  1
  Er  Er5  1  0.250000  0.134283  0.744635  1
  Er  Er6  1  0.750000  0.365666  0.244002  1
  Er  Er7  1  0.750000  0.865666  0.255998  1
  Er  Er8  1  0.250000  0.103360  0.331834  1
  Er  Er9  1  0.250000  0.603360  0.168166  1
  Lu  Lu10  1  0.750000  0.898341  0.669720  1
  Lu  Lu11  1  0.750000  0.398341  0.830280  1
  Lu  Lu12  1  0.250000  0.128969  0.166513  1
  Lu  Lu13  1  0.250000  0.628969  0.333487  1
  Lu  Lu14  1  0.750000  0.870725  0.833046  1
  Lu  Lu15  1  0.750000  0.370725  0.666954  1
  C  C16  1  0.250000  0.865305  0.347562  1
  C  C17  1  0.250000  0.365305  0.152438  1
  C  C18  1  0.750000  0.133105  0.653280  1
  C  C19  1  0.750000  0.633105  0.846720  1
  C  C20  1  0.250000  0.384873  0.750446  1
  C  C21  1  0.250000  0.884873  0.749554  1
  C  C22  1  0.750000  0.615494  0.250281  1
  C  C23  1  0.750000  0.115494  0.249719  1
  Cl  Cl24  1  0.250000  0.374368  0.951176  1
  Cl  Cl25  1  0.250000  0.874368  0.548824  1
  Cl  Cl26  1  0.750000  0.624602  0.046112  1
  Cl  Cl27  1  0.750000  0.124602  0.453888  1
  Cl  Cl28  1  0.250000  0.888271  0.940962  1
  Cl  Cl29  1  0.250000  0.388271  0.559038  1
  Cl  Cl30  1  0.750000  0.111275  0.058151  1
  Cl  Cl31  1  0.750000  0.611275  0.441849  1
  Cl  Cl32  1  0.250000  0.365766  0.354911  1
  Cl  Cl33  1  0.250000  0.865766  0.145089  1
  Cl  Cl34  1  0.750000  0.636843  0.645073  1
  Cl  Cl35  1  0.750000  0.136843  0.854927  1
