# generated using pymatgen
data_Ba5(PdAu)3
_symmetry_space_group_name_H-M   'P 1'
_cell_length_a   15.97218900
_cell_length_b   15.97218916
_cell_length_c   4.63026900
_cell_angle_alpha   90.00000000
_cell_angle_beta   90.00000000
_cell_angle_gamma   163.19198293
_symmetry_Int_Tables_number   1
_chemical_formula_structural   Ba5(PdAu)3
_chemical_formula_sum   'Ba5 Pd3 Au3'
_cell_volume   341.57175775
_cell_formula_units_Z   1
loop_
 _symmetry_equiv_pos_site_id
 _symmetry_equiv_pos_as_xyz
  1  'x, y, z'
loop_
 _atom_site_type_symbol
 _atom_site_label
 _atom_site_symmetry_multiplicity
 _atom_site_fract_x
 _atom_site_fract_y
 _atom_site_fract_z
 _atom_site_occupancy
  Ba  Ba0  1  0.000395  0.999605  0.000000  1
  Ba  Ba1  1  0.615506  0.384492  0.000000  1
  Ba  Ba2  1  0.384739  0.615259  0.000000  1
  Ba  Ba3  1  0.801663  0.198335  0.500001  1
  Ba  Ba4  1  0.197739  0.802259  0.500001  1
  Pd  Pd5  1  0.721691  0.278307  0.000000  1
  Pd  Pd6  1  0.908902  0.091097  0.500001  1
  Pd  Pd7  1  0.543929  0.456069  0.500001  1
  Au  Au8  1  0.276963  0.723035  0.000000  1
  Au  Au9  1  0.458161  0.541837  0.500001  1
  Au  Au10  1  0.090305  0.909694  0.500001  1
