# generated using pymatgen
data_TbDy3(ThSe3)4
_symmetry_space_group_name_H-M   'P 1'
_cell_length_a   11.23479501
_cell_length_b   4.08388400
_cell_length_c   11.05818001
_cell_angle_alpha   90.00000000
_cell_angle_beta   90.00556688
_cell_angle_gamma   90.00000000
_symmetry_Int_Tables_number   1
_chemical_formula_structural   TbDy3(ThSe3)4
_chemical_formula_sum   'Tb1 Dy3 Th4 Se12'
_cell_volume   507.36698525
_cell_formula_units_Z   1
loop_
 _symmetry_equiv_pos_site_id
 _symmetry_equiv_pos_as_xyz
  1  'x, y, z'
loop_
 _atom_site_type_symbol
 _atom_site_label
 _atom_site_symmetry_multiplicity
 _atom_site_fract_x
 _atom_site_fract_y
 _atom_site_fract_z
 _atom_site_occupancy
  Tb  Tb0  1  0.482815  0.250000  0.186921  1
  Dy  Dy1  1  0.982926  0.250000  0.313073  1
  Dy  Dy2  1  0.517091  0.750000  0.813095  1
  Dy  Dy3  1  0.017093  0.750000  0.686930  1
  Th  Th4  1  0.698018  0.750000  0.498036  1
  Th  Th5  1  0.198073  0.750000  0.002027  1
  Th  Th6  1  0.301946  0.250000  0.501981  1
  Th  Th7  1  0.802027  0.250000  0.998023  1
  Se  Se8  1  0.546876  0.250000  0.627501  1
  Se  Se9  1  0.046844  0.250000  0.872530  1
  Se  Se10  1  0.453031  0.750000  0.373216  1
  Se  Se11  1  0.953135  0.750000  0.127416  1
  Se  Se12  1  0.616138  0.750000  0.054574  1
  Se  Se13  1  0.115678  0.750000  0.445116  1
  Se  Se14  1  0.384068  0.250000  0.944643  1
  Se  Se15  1  0.884315  0.250000  0.554923  1
  Se  Se16  1  0.724772  0.250000  0.295590  1
  Se  Se17  1  0.224003  0.250000  0.204521  1
  Se  Se18  1  0.275561  0.750000  0.704467  1
  Se  Se19  1  0.775589  0.750000  0.795418  1
