# generated using pymatgen
data_SmErGaNi7B2
_symmetry_space_group_name_H-M   'P 1'
_cell_length_a   5.08436001
_cell_length_b   5.08426214
_cell_length_c   6.86859500
_cell_angle_alpha   90.00000000
_cell_angle_beta   90.00000000
_cell_angle_gamma   120.00786827
_symmetry_Int_Tables_number   1
_chemical_formula_structural   SmErGaNi7B2
_chemical_formula_sum   'Sm1 Er1 Ga1 Ni7 B2'
_cell_volume   153.75467540
_cell_formula_units_Z   1
loop_
 _symmetry_equiv_pos_site_id
 _symmetry_equiv_pos_as_xyz
  1  'x, y, z'
loop_
 _atom_site_type_symbol
 _atom_site_label
 _atom_site_symmetry_multiplicity
 _atom_site_fract_x
 _atom_site_fract_y
 _atom_site_fract_z
 _atom_site_occupancy
  Sm  Sm0  1  0.999958  0.999964  0.000000  1
  Er  Er1  1  0.999987  0.000004  0.500000  1
  Ga  Ga2  1  0.333285  0.666600  0.000000  1
  Ni  Ni3  1  0.666690  0.333402  0.000000  1
  Ni  Ni4  1  0.500662  0.001356  0.297198  1
  Ni  Ni5  1  0.500663  0.499327  0.297230  1
  Ni  Ni6  1  0.998630  0.499328  0.297232  1
  Ni  Ni7  1  0.500662  0.001356  0.702802  1
  Ni  Ni8  1  0.500663  0.499327  0.702770  1
  Ni  Ni9  1  0.998630  0.499328  0.702768  1
  B  B10  1  0.333347  0.666716  0.500000  1
  B  B11  1  0.666620  0.333289  0.500000  1
