# generated using pymatgen
data_Yb4AlAg13
_symmetry_space_group_name_H-M   'P 1'
_cell_length_a   5.43314690
_cell_length_b   5.63033602
_cell_length_c   13.99241700
_cell_angle_alpha   90.00000000
_cell_angle_beta   90.00000000
_cell_angle_gamma   120.09077374
_symmetry_Int_Tables_number   1
_chemical_formula_structural   Yb4AlAg13
_chemical_formula_sum   'Yb4 Al1 Ag13'
_cell_volume   370.34898440
_cell_formula_units_Z   1
loop_
 _symmetry_equiv_pos_site_id
 _symmetry_equiv_pos_as_xyz
  1  'x, y, z'
loop_
 _atom_site_type_symbol
 _atom_site_label
 _atom_site_symmetry_multiplicity
 _atom_site_fract_x
 _atom_site_fract_y
 _atom_site_fract_z
 _atom_site_occupancy
  Yb  Yb0  1  0.818804  0.818132  0.115272  1
  Yb  Yb1  1  0.180294  0.181819  0.883689  1
  Yb  Yb2  1  0.818804  0.818132  0.384728  1
  Yb  Yb3  1  0.180294  0.181819  0.616311  1
  Al  Al4  1  0.167915  0.671137  0.750000  1
  Ag  Ag5  1  0.163701  0.486879  0.075024  1
  Ag  Ag6  1  0.499768  0.831848  0.922045  1
  Ag  Ag7  1  0.494696  0.166364  0.073250  1
  Ag  Ag8  1  0.846568  0.518880  0.579138  1
  Ag  Ag9  1  0.494696  0.166364  0.426750  1
  Ag  Ag10  1  0.846568  0.518880  0.920862  1
  Ag  Ag11  1  0.670093  0.167262  0.750000  1
  Ag  Ag12  1  0.667946  0.668086  0.750000  1
  Ag  Ag13  1  0.325947  0.828181  0.250000  1
  Ag  Ag14  1  0.828365  0.325942  0.250000  1
  Ag  Ag15  1  0.499768  0.831848  0.577955  1
  Ag  Ag16  1  0.163701  0.486879  0.424976  1
  Ag  Ag17  1  0.332073  0.331548  0.250000  1
