# generated using pymatgen
data_GdYSi3Au
_symmetry_space_group_name_H-M   'P 1'
_cell_length_a   4.13883311
_cell_length_b   4.18870200
_cell_length_c   7.18215200
_cell_angle_alpha   89.99896042
_cell_angle_beta   89.98659953
_cell_angle_gamma   90.00042379
_symmetry_Int_Tables_number   1
_chemical_formula_structural   GdYSi3Au
_chemical_formula_sum   'Gd1 Y1 Si3 Au1'
_cell_volume   124.51221510
_cell_formula_units_Z   1
loop_
 _symmetry_equiv_pos_site_id
 _symmetry_equiv_pos_as_xyz
  1  'x, y, z'
loop_
 _atom_site_type_symbol
 _atom_site_label
 _atom_site_symmetry_multiplicity
 _atom_site_fract_x
 _atom_site_fract_y
 _atom_site_fract_z
 _atom_site_occupancy
  Gd  Gd0  1  0.999763  0.999555  0.987794  1
  Y  Y1  1  0.000162  0.500044  0.511857  1
  Si  Si2  1  0.499685  0.499976  0.833749  1
  Si  Si3  1  0.500102  0.500060  0.161706  1
  Si  Si4  1  0.499973  0.000058  0.671139  1
  Au  Au5  1  0.500314  0.000106  0.333754  1
