# generated using pymatgen
data_Ta12Al8CuRh(AuC2)2
_symmetry_space_group_name_H-M   'P 1'
_cell_length_a   8.35843088
_cell_length_b   8.35843129
_cell_length_c   8.35632500
_cell_angle_alpha   60.00833165
_cell_angle_beta   60.00833002
_cell_angle_gamma   60.01085773
_symmetry_Int_Tables_number   1
_chemical_formula_structural   Ta12Al8CuRh(AuC2)2
_chemical_formula_sum   'Ta12 Al8 Cu1 Rh1 Au2 C4'
_cell_volume   412.89551466
_cell_formula_units_Z   1
loop_
 _symmetry_equiv_pos_site_id
 _symmetry_equiv_pos_as_xyz
  1  'x, y, z'
loop_
 _atom_site_type_symbol
 _atom_site_label
 _atom_site_symmetry_multiplicity
 _atom_site_fract_x
 _atom_site_fract_y
 _atom_site_fract_z
 _atom_site_occupancy
  Ta  Ta0  1  0.566335  0.932743  0.568305  1
  Ta  Ta1  1  0.317257  0.683665  0.681695  1
  Ta  Ta2  1  0.682213  0.318586  0.319443  1
  Ta  Ta3  1  0.318586  0.682213  0.319443  1
  Ta  Ta4  1  0.679208  0.679208  0.321803  1
  Ta  Ta5  1  0.315616  0.315616  0.684334  1
  Ta  Ta6  1  0.570792  0.570792  0.928197  1
  Ta  Ta7  1  0.932743  0.566335  0.568305  1
  Ta  Ta8  1  0.567787  0.931414  0.930557  1
  Ta  Ta9  1  0.934384  0.934384  0.565666  1
  Ta  Ta10  1  0.683665  0.317257  0.681695  1
  Ta  Ta11  1  0.931414  0.567787  0.930557  1
  Al  Al12  1  0.919756  0.919756  0.905226  1
  Al  Al13  1  0.997634  0.325678  0.338495  1
  Al  Al14  1  0.325678  0.997634  0.338495  1
  Al  Al15  1  0.330359  0.330359  0.995202  1
  Al  Al16  1  0.924322  0.252366  0.911505  1
  Al  Al17  1  0.919641  0.919641  0.254798  1
  Al  Al18  1  0.252366  0.924322  0.911505  1
  Al  Al19  1  0.330244  0.330244  0.344774  1
  Cu  Cu20  1  0.125000  0.125000  0.625000  1
  Rh  Rh21  1  0.125000  0.125000  0.125000  1
  Au  Au22  1  0.625000  0.125000  0.125000  1
  Au  Au23  1  0.125000  0.625000  0.125000  1
  C  C24  1  0.625000  0.625000  0.625000  1
  C  C25  1  0.125000  0.625000  0.625000  1
  C  C26  1  0.625000  0.125000  0.625000  1
  C  C27  1  0.625000  0.625000  0.125000  1
