# generated using pymatgen
data_HfTa2Nb11P8
_symmetry_space_group_name_H-M   'P 1'
_cell_length_a   7.72092328
_cell_length_b   7.72092280
_cell_length_c   13.96949952
_cell_angle_alpha   75.89329176
_cell_angle_beta   75.89329219
_cell_angle_gamma   26.02719024
_symmetry_Int_Tables_number   1
_chemical_formula_structural   HfTa2Nb11P8
_chemical_formula_sum   'Hf1 Ta2 Nb11 P8'
_cell_volume   353.79479574
_cell_formula_units_Z   1
loop_
 _symmetry_equiv_pos_site_id
 _symmetry_equiv_pos_as_xyz
  1  'x, y, z'
loop_
 _atom_site_type_symbol
 _atom_site_label
 _atom_site_symmetry_multiplicity
 _atom_site_fract_x
 _atom_site_fract_y
 _atom_site_fract_z
 _atom_site_occupancy
  Hf  Hf0  1  0.664391  0.664391  0.029682  1
  Ta  Ta1  1  0.499870  0.499870  0.500337  1
  Ta  Ta2  1  0.999230  0.999230  0.999958  1
  Nb  Nb3  1  0.341666  0.341666  0.971733  1
  Nb  Nb4  1  0.996105  0.996105  0.665467  1
  Nb  Nb5  1  0.003727  0.003727  0.335935  1
  Nb  Nb6  1  0.827157  0.827157  0.540501  1
  Nb  Nb7  1  0.173539  0.173539  0.460683  1
  Nb  Nb8  1  0.210104  0.210104  0.201729  1
  Nb  Nb9  1  0.790932  0.790932  0.797056  1
  Nb  Nb10  1  0.195137  0.195137  0.686279  1
  Nb  Nb11  1  0.804518  0.804518  0.313209  1
  Nb  Nb12  1  0.430902  0.430902  0.171819  1
  Nb  Nb13  1  0.567440  0.567440  0.825949  1
  P  P14  1  0.062017  0.062017  0.151802  1
  P  P15  1  0.935825  0.935825  0.848702  1
  P  P16  1  0.369723  0.369723  0.663787  1
  P  P17  1  0.630099  0.630099  0.336963  1
  P  P18  1  0.374683  0.374683  0.398613  1
  P  P19  1  0.624594  0.624594  0.601912  1
  P  P20  1  0.173202  0.173202  0.885238  1
  P  P21  1  0.825139  0.825139  0.112645  1
