# generated using pymatgen
data_Ce12Al6HgIr5
_symmetry_space_group_name_H-M   'P 1'
_cell_length_a   7.79804981
_cell_length_b   7.79805095
_cell_length_c   9.87536500
_cell_angle_alpha   90.32804334
_cell_angle_beta   90.32803604
_cell_angle_gamma   120.27126473
_symmetry_Int_Tables_number   1
_chemical_formula_structural   Ce12Al6HgIr5
_chemical_formula_sum   'Ce12 Al6 Hg1 Ir5'
_cell_volume   518.60121645
_cell_formula_units_Z   1
loop_
 _symmetry_equiv_pos_site_id
 _symmetry_equiv_pos_as_xyz
  1  'x, y, z'
loop_
 _atom_site_type_symbol
 _atom_site_label
 _atom_site_symmetry_multiplicity
 _atom_site_fract_x
 _atom_site_fract_y
 _atom_site_fract_z
 _atom_site_occupancy
  Ce  Ce0  1  0.999313  0.609201  0.508481  1
  Ce  Ce1  1  0.609201  0.999313  0.508481  1
  Ce  Ce2  1  0.392360  0.392360  0.505509  1
  Ce  Ce3  1  0.994660  0.394607  0.012732  1
  Ce  Ce4  1  0.394607  0.994660  0.012732  1
  Ce  Ce5  1  0.631089  0.631089  0.031946  1
  Ce  Ce6  1  0.002271  0.728472  0.162602  1
  Ce  Ce7  1  0.728472  0.002271  0.162602  1
  Ce  Ce8  1  0.264632  0.264632  0.170217  1
  Ce  Ce9  1  0.986897  0.272730  0.651681  1
  Ce  Ce10  1  0.272730  0.986897  0.651681  1
  Ce  Ce11  1  0.725826  0.725826  0.662583  1
  Al  Al12  1  0.667717  0.333519  0.284508  1
  Al  Al13  1  0.333519  0.667717  0.284508  1
  Al  Al14  1  0.334941  0.676357  0.786210  1
  Al  Al15  1  0.676357  0.334941  0.786210  1
  Al  Al16  1  0.995143  0.995143  0.411321  1
  Al  Al17  1  0.989739  0.989739  0.909791  1
  Hg  Hg18  1  0.329916  0.329916  0.839857  1
  Ir  Ir19  1  0.001211  0.333149  0.337573  1
  Ir  Ir20  1  0.333149  0.001211  0.337573  1
  Ir  Ir21  1  0.663857  0.663857  0.338265  1
  Ir  Ir22  1  0.003119  0.669275  0.836095  1
  Ir  Ir23  1  0.669275  0.003119  0.836095  1
