# generated using pymatgen
data_K5RbCa2P2(CO7)2
_symmetry_space_group_name_H-M   'P 1'
_cell_length_a   7.28391300
_cell_length_b   5.75699189
_cell_length_c   9.90971500
_cell_angle_alpha   88.63909287
_cell_angle_beta   90.00000000
_cell_angle_gamma   90.00000000
_symmetry_Int_Tables_number   1
_chemical_formula_structural   K5RbCa2P2(CO7)2
_chemical_formula_sum   'K5 Rb1 Ca2 P2 C2 O14'
_cell_volume   415.43110631
_cell_formula_units_Z   1
loop_
 _symmetry_equiv_pos_site_id
 _symmetry_equiv_pos_as_xyz
  1  'x, y, z'
loop_
 _atom_site_type_symbol
 _atom_site_label
 _atom_site_symmetry_multiplicity
 _atom_site_fract_x
 _atom_site_fract_y
 _atom_site_fract_z
 _atom_site_occupancy
  K  K0  1  0.007242  0.258986  0.735907  1
  K  K1  1  0.492758  0.258986  0.735907  1
  K  K2  1  0.508295  0.741474  0.264122  1
  K  K3  1  0.991705  0.741474  0.264122  1
  K  K4  1  0.750000  0.238558  0.079799  1
  Rb  Rb5  1  0.250000  0.763376  0.921967  1
  Ca  Ca6  1  0.750000  0.778148  0.633242  1
  Ca  Ca7  1  0.250000  0.222101  0.366555  1
  P  P8  1  0.250000  0.709093  0.580011  1
  P  P9  1  0.750000  0.290843  0.416249  1
  C  C10  1  0.750000  0.742536  0.923950  1
  C  C11  1  0.250000  0.256980  0.080158  1
  O  O12  1  0.250000  0.267579  0.949223  1
  O  O13  1  0.750000  0.944701  0.860752  1
  O  O14  1  0.750000  0.553806  0.852592  1
  O  O15  1  0.075018  0.770030  0.663078  1
  O  O16  1  0.424982  0.770030  0.663078  1
  O  O17  1  0.250000  0.442151  0.553770  1
  O  O18  1  0.750000  0.152900  0.553469  1
  O  O19  1  0.250000  0.844304  0.442255  1
  O  O20  1  0.750000  0.556879  0.445361  1
  O  O21  1  0.575814  0.231472  0.331947  1
  O  O22  1  0.924186  0.231472  0.331947  1
  O  O23  1  0.250000  0.446057  0.151005  1
  O  O24  1  0.250000  0.056394  0.144723  1
  O  O25  1  0.750000  0.729672  0.054810  1
