# generated using pymatgen
data_Tb2Tm2ScTl4
_symmetry_space_group_name_H-M   'P 1'
_cell_length_a   7.78302800
_cell_length_b   8.10929900
_cell_length_c   15.66064700
_cell_angle_alpha   90.00000000
_cell_angle_beta   90.00000000
_cell_angle_gamma   90.00000000
_symmetry_Int_Tables_number   1
_chemical_formula_structural   Tb2Tm2ScTl4
_chemical_formula_sum   'Tb8 Tm8 Sc4 Tl16'
_cell_volume   988.42018778
_cell_formula_units_Z   4
loop_
 _symmetry_equiv_pos_site_id
 _symmetry_equiv_pos_as_xyz
  1  'x, y, z'
loop_
 _atom_site_type_symbol
 _atom_site_label
 _atom_site_symmetry_multiplicity
 _atom_site_fract_x
 _atom_site_fract_y
 _atom_site_fract_z
 _atom_site_occupancy
  Tb  Tb0  1  0.003322  0.183522  0.094744  1
  Tb  Tb1  1  0.996678  0.816478  0.905256  1
  Tb  Tb2  1  0.496678  0.683522  0.905256  1
  Tb  Tb3  1  0.996678  0.816478  0.594744  1
  Tb  Tb4  1  0.503322  0.316478  0.094744  1
  Tb  Tb5  1  0.003322  0.183522  0.405256  1
  Tb  Tb6  1  0.503322  0.316478  0.405256  1
  Tb  Tb7  1  0.496678  0.683522  0.594744  1
  Tm  Tm8  1  0.331188  0.161804  0.625493  1
  Tm  Tm9  1  0.668812  0.838196  0.374507  1
  Tm  Tm10  1  0.168812  0.661804  0.374507  1
  Tm  Tm11  1  0.668812  0.838196  0.125493  1
  Tm  Tm12  1  0.831188  0.338196  0.625493  1
  Tm  Tm13  1  0.331188  0.161804  0.874507  1
  Tm  Tm14  1  0.831188  0.338196  0.874507  1
  Tm  Tm15  1  0.168812  0.661804  0.125493  1
  Sc  Sc16  1  0.161072  0.500417  0.750000  1
  Sc  Sc17  1  0.838928  0.499583  0.250000  1
  Sc  Sc18  1  0.338928  0.000417  0.250000  1
  Sc  Sc19  1  0.661072  0.999583  0.750000  1
  Tl  Tl20  1  0.020415  0.113464  0.750000  1
  Tl  Tl21  1  0.979585  0.886536  0.250000  1
  Tl  Tl22  1  0.479585  0.613464  0.250000  1
  Tl  Tl23  1  0.520415  0.386536  0.750000  1
  Tl  Tl24  1  0.296767  0.850471  0.750000  1
  Tl  Tl25  1  0.703233  0.149529  0.250000  1
  Tl  Tl26  1  0.203233  0.350471  0.250000  1
  Tl  Tl27  1  0.796767  0.649529  0.750000  1
  Tl  Tl28  1  0.179596  0.464412  0.542344  1
  Tl  Tl29  1  0.820404  0.535588  0.457656  1
  Tl  Tl30  1  0.320404  0.964412  0.457656  1
  Tl  Tl31  1  0.820404  0.535588  0.042344  1
  Tl  Tl32  1  0.679596  0.035588  0.542344  1
  Tl  Tl33  1  0.179596  0.464412  0.957656  1
  Tl  Tl34  1  0.679596  0.035588  0.957656  1
  Tl  Tl35  1  0.320404  0.964412  0.042344  1
