# generated using pymatgen
data_Tm15Lu(ScSb3)4
_symmetry_space_group_name_H-M   'P 1'
_cell_length_a   7.88707814
_cell_length_b   9.12337102
_cell_length_c   11.62094819
_cell_angle_alpha   90.00445874
_cell_angle_beta   90.02013608
_cell_angle_gamma   90.00662812
_symmetry_Int_Tables_number   1
_chemical_formula_structural   Tm15Lu(ScSb3)4
_chemical_formula_sum   'Tm15 Lu1 Sc4 Sb12'
_cell_volume   836.20548880
_cell_formula_units_Z   1
loop_
 _symmetry_equiv_pos_site_id
 _symmetry_equiv_pos_as_xyz
  1  'x, y, z'
loop_
 _atom_site_type_symbol
 _atom_site_label
 _atom_site_symmetry_multiplicity
 _atom_site_fract_x
 _atom_site_fract_y
 _atom_site_fract_z
 _atom_site_occupancy
  Tm  Tm0  1  0.196749  0.561862  0.440049  1
  Tm  Tm1  1  0.696836  0.937942  0.059926  1
  Tm  Tm2  1  0.803207  0.061865  0.559924  1
  Tm  Tm3  1  0.303040  0.438219  0.940026  1
  Tm  Tm4  1  0.803122  0.438181  0.559984  1
  Tm  Tm5  1  0.303329  0.061879  0.940024  1
  Tm  Tm6  1  0.196742  0.938112  0.440005  1
  Tm  Tm7  1  0.184974  0.750007  0.720668  1
  Tm  Tm8  1  0.684918  0.749968  0.779427  1
  Tm  Tm9  1  0.815036  0.249986  0.279350  1
  Tm  Tm10  1  0.314951  0.250024  0.220638  1
  Tm  Tm11  1  0.855417  0.749742  0.284977  1
  Tm  Tm12  1  0.355842  0.749689  0.214774  1
  Tm  Tm13  1  0.144291  0.250017  0.714918  1
  Tm  Tm14  1  0.644279  0.249878  0.785075  1
  Lu  Lu15  1  0.696875  0.562502  0.059986  1
  Sc  Sc16  1  0.028096  0.749937  0.988688  1
  Sc  Sc17  1  0.528457  0.750115  0.511397  1
  Sc  Sc18  1  0.971511  0.249930  0.011375  1
  Sc  Sc19  1  0.471626  0.249847  0.488572  1
  Sb  Sb20  1  0.933195  0.496275  0.830997  1
  Sb  Sb21  1  0.433244  0.003573  0.669166  1
  Sb  Sb22  1  0.066769  0.996306  0.169082  1
  Sb  Sb23  1  0.566939  0.503619  0.330769  1
  Sb  Sb24  1  0.066667  0.503600  0.169013  1
  Sb  Sb25  1  0.566847  0.996320  0.330787  1
  Sb  Sb26  1  0.933154  0.003536  0.830914  1
  Sb  Sb27  1  0.433256  0.496361  0.669237  1
  Sb  Sb28  1  0.906806  0.750039  0.541191  1
  Sb  Sb29  1  0.407125  0.749730  0.958903  1
  Sb  Sb30  1  0.093225  0.250034  0.458824  1
  Sb  Sb31  1  0.593476  0.250902  0.041336  1
