# generated using pymatgen
data_Li8Ru2O9
_symmetry_space_group_name_H-M   'P 1'
_cell_length_a   5.78824891
_cell_length_b   8.68507471
_cell_length_c   14.99351900
_cell_angle_alpha   87.17406812
_cell_angle_beta   100.84513191
_cell_angle_gamma   109.33171881
_symmetry_Int_Tables_number   1
_chemical_formula_structural   Li8Ru2O9
_chemical_formula_sum   'Li32 Ru8 O36'
_cell_volume   698.47513995
_cell_formula_units_Z   4
loop_
 _symmetry_equiv_pos_site_id
 _symmetry_equiv_pos_as_xyz
  1  'x, y, z'
loop_
 _atom_site_type_symbol
 _atom_site_label
 _atom_site_symmetry_multiplicity
 _atom_site_fract_x
 _atom_site_fract_y
 _atom_site_fract_z
 _atom_site_occupancy
  Li  Li0  1  0.402661  0.903355  0.645487  1
  Li  Li1  1  0.597339  0.096645  0.354513  1
  Li  Li2  1  0.973855  0.845545  0.849724  1
  Li  Li3  1  0.026145  0.154455  0.150276  1
  Li  Li4  1  0.127947  0.342530  0.656415  1
  Li  Li5  1  0.872053  0.657470  0.343585  1
  Li  Li6  1  0.258984  0.405991  0.848862  1
  Li  Li7  1  0.741016  0.594009  0.151138  1
  Li  Li8  1  0.791320  0.123042  0.738746  1
  Li  Li9  1  0.208680  0.876958  0.261254  1
  Li  Li10  1  0.328769  0.121966  0.738855  1
  Li  Li11  1  0.671231  0.878034  0.261145  1
  Li  Li12  1  0.052884  0.625508  0.759870  1
  Li  Li13  1  0.947116  0.374492  0.240130  1
  Li  Li14  1  0.591405  0.625040  0.762177  1
  Li  Li15  1  0.408595  0.374960  0.237823  1
  Li  Li16  1  0.437839  0.125594  0.961251  1
  Li  Li17  1  0.562161  0.874406  0.038749  1
  Li  Li18  1  0.909991  0.123360  0.971395  1
  Li  Li19  1  0.090009  0.876640  0.028605  1
  Li  Li20  1  0.170249  0.624715  0.949597  1
  Li  Li21  1  0.829751  0.375285  0.050403  1
  Li  Li22  1  0.670227  0.626279  0.957674  1
  Li  Li23  1  0.329773  0.373721  0.042326  1
  Li  Li24  1  0.710842  0.126908  0.544096  1
  Li  Li25  1  0.289158  0.873092  0.455904  1
  Li  Li26  1  0.210852  0.125132  0.548406  1
  Li  Li27  1  0.789148  0.874868  0.451594  1
  Li  Li28  1  0.939157  0.623546  0.527697  1
  Li  Li29  1  0.060843  0.376454  0.472303  1
  Li  Li30  1  0.481903  0.626846  0.540759  1
  Li  Li31  1  0.518097  0.373154  0.459241  1
  Ru  Ru32  1  0.891028  0.874355  0.646960  1
  Ru  Ru33  1  0.255760  0.627779  0.143258  1
  Ru  Ru34  1  0.744240  0.372221  0.856742  1
  Ru  Ru35  1  0.359526  0.623440  0.353972  1
  Ru  Ru36  1  0.640474  0.376560  0.646028  1
  Ru  Ru37  1  0.507514  0.124528  0.150312  1
  Ru  Ru38  1  0.492486  0.875472  0.849688  1
  Ru  Ru39  1  0.108972  0.125645  0.353040  1
  O  O40  1  0.988889  0.893013  0.346596  1
  O  O41  1  0.138954  0.394538  0.142436  1
  O  O42  1  0.861046  0.605462  0.857564  1
  O  O43  1  0.463819  0.635490  0.056595  1
  O  O44  1  0.536181  0.364510  0.943405  1
  O  O45  1  0.972292  0.641303  0.058588  1
  O  O46  1  0.027708  0.358697  0.941412  1
  O  O47  1  0.476508  0.856678  0.356761  1
  O  O48  1  0.697254  0.876252  0.750801  1
  O  O49  1  0.302746  0.123748  0.249199  1
  O  O50  1  0.193968  0.872013  0.747159  1
  O  O51  1  0.806032  0.127987  0.252841  1
  O  O52  1  0.764602  0.625750  0.656224  1
  O  O53  1  0.235398  0.374250  0.343776  1
  O  O54  1  0.605478  0.123548  0.843466  1
  O  O55  1  0.394522  0.876452  0.156534  1
  O  O56  1  0.453736  0.374275  0.751567  1
  O  O57  1  0.546264  0.625725  0.248433  1
  O  O58  1  0.931117  0.373969  0.749994  1
  O  O59  1  0.068883  0.626031  0.250006  1
  O  O60  1  0.079403  0.863073  0.556904  1
  O  O61  1  0.920597  0.136927  0.443096  1
  O  O62  1  0.158007  0.614297  0.443161  1
  O  O63  1  0.398869  0.132532  0.441075  1
  O  O64  1  0.011111  0.106987  0.653404  1
  O  O65  1  0.523492  0.143322  0.643239  1
  O  O66  1  0.779376  0.885827  0.941260  1
  O  O67  1  0.220624  0.114173  0.058740  1
  O  O68  1  0.292944  0.884328  0.936981  1
  O  O69  1  0.707056  0.115672  0.063019  1
  O  O70  1  0.373610  0.642559  0.844954  1
  O  O71  1  0.626390  0.357441  0.155046  1
  O  O72  1  0.351493  0.387456  0.562592  1
  O  O73  1  0.648507  0.612544  0.437408  1
  O  O74  1  0.841993  0.385703  0.556839  1
  O  O75  1  0.601131  0.867468  0.558925  1
