# generated using pymatgen
data_Li2Pr3InSi2Ag
_symmetry_space_group_name_H-M   'P 1'
_cell_length_a   7.48632735
_cell_length_b   7.53518153
_cell_length_c   4.36744900
_cell_angle_alpha   90.00000000
_cell_angle_beta   90.00000000
_cell_angle_gamma   120.21610446
_symmetry_Int_Tables_number   1
_chemical_formula_structural   Li2Pr3InSi2Ag
_chemical_formula_sum   'Li2 Pr3 In1 Si2 Ag1'
_cell_volume   212.89779201
_cell_formula_units_Z   1
loop_
 _symmetry_equiv_pos_site_id
 _symmetry_equiv_pos_as_xyz
  1  'x, y, z'
loop_
 _atom_site_type_symbol
 _atom_site_label
 _atom_site_symmetry_multiplicity
 _atom_site_fract_x
 _atom_site_fract_y
 _atom_site_fract_z
 _atom_site_occupancy
  Li  Li0  1  0.745286  0.749264  0.000000  1
  Li  Li1  1  0.254714  0.003979  0.000000  1
  Pr  Pr2  1  0.433244  0.434104  0.500000  1
  Pr  Pr3  1  0.566756  0.000860  0.500000  1
  Pr  Pr4  1  0.000000  0.562101  0.500000  1
  In  In5  1  0.000000  0.993626  0.500000  1
  Si  Si6  1  0.663731  0.331965  0.000000  1
  Si  Si7  1  0.336269  0.668235  0.000000  1
  Ag  Ag8  1  0.000000  0.255866  0.000000  1
