# generated using pymatgen
data_LaHoEr2(WO6)2
_symmetry_space_group_name_H-M   'P 1'
_cell_length_a   5.45172400
_cell_length_b   7.76516013
_cell_length_c   11.54730988
_cell_angle_alpha   75.64382130
_cell_angle_beta   90.00000000
_cell_angle_gamma   90.00000000
_symmetry_Int_Tables_number   1
_chemical_formula_structural   LaHoEr2(WO6)2
_chemical_formula_sum   'La2 Ho2 Er4 W4 O24'
_cell_volume   473.57324793
_cell_formula_units_Z   2
loop_
 _symmetry_equiv_pos_site_id
 _symmetry_equiv_pos_as_xyz
  1  'x, y, z'
loop_
 _atom_site_type_symbol
 _atom_site_label
 _atom_site_symmetry_multiplicity
 _atom_site_fract_x
 _atom_site_fract_y
 _atom_site_fract_z
 _atom_site_occupancy
  La  La0  1  0.687082  0.500000  0.750000  1
  La  La1  1  0.312918  0.500000  0.250000  1
  Ho  Ho2  1  0.740867  0.000000  0.750000  1
  Ho  Ho3  1  0.259133  0.000000  0.250000  1
  Er  Er4  1  0.188338  0.800051  0.576574  1
  Er  Er5  1  0.811662  0.800051  0.076574  1
  Er  Er6  1  0.188338  0.199949  0.923426  1
  Er  Er7  1  0.811662  0.199949  0.423426  1
  W  W8  1  0.251756  0.728656  0.884584  1
  W  W9  1  0.748244  0.728656  0.384584  1
  W  W10  1  0.251756  0.271344  0.615416  1
  W  W11  1  0.748244  0.271344  0.115416  1
  O  O12  1  0.038535  0.942720  0.896044  1
  O  O13  1  0.531126  0.847020  0.931519  1
  O  O14  1  0.961465  0.942720  0.396044  1
  O  O15  1  0.454629  0.796429  0.727147  1
  O  O16  1  0.468874  0.847020  0.431519  1
  O  O17  1  0.988472  0.722072  0.768279  1
  O  O18  1  0.545371  0.796429  0.227147  1
  O  O19  1  0.862039  0.643867  0.544626  1
  O  O20  1  0.346347  0.493491  0.889002  1
  O  O21  1  0.011528  0.722072  0.268279  1
  O  O22  1  0.346347  0.506509  0.610998  1
  O  O23  1  0.862039  0.356133  0.955374  1
  O  O24  1  0.137961  0.643867  0.044626  1
  O  O25  1  0.653653  0.493491  0.389002  1
  O  O26  1  0.988472  0.277928  0.731721  1
  O  O27  1  0.653653  0.506509  0.110998  1
  O  O28  1  0.137961  0.356133  0.455374  1
  O  O29  1  0.454629  0.203571  0.772853  1
  O  O30  1  0.011528  0.277928  0.231721  1
  O  O31  1  0.531126  0.152980  0.568481  1
  O  O32  1  0.545371  0.203571  0.272853  1
  O  O33  1  0.038535  0.057280  0.603956  1
  O  O34  1  0.468874  0.152980  0.068481  1
  O  O35  1  0.961465  0.057280  0.103956  1
