# generated using pymatgen
data_TbEr(SbO4)2
_symmetry_space_group_name_H-M   'P 1'
_cell_length_a   5.39507556
_cell_length_b   7.66359382
_cell_length_c   7.55389432
_cell_angle_alpha   81.13130549
_cell_angle_beta   90.34515319
_cell_angle_gamma   92.27652273
_symmetry_Int_Tables_number   1
_chemical_formula_structural   TbEr(SbO4)2
_chemical_formula_sum   'Tb2 Er2 Sb4 O16'
_cell_volume   308.34322282
_cell_formula_units_Z   2
loop_
 _symmetry_equiv_pos_site_id
 _symmetry_equiv_pos_as_xyz
  1  'x, y, z'
loop_
 _atom_site_type_symbol
 _atom_site_label
 _atom_site_symmetry_multiplicity
 _atom_site_fract_x
 _atom_site_fract_y
 _atom_site_fract_z
 _atom_site_occupancy
  Tb  Tb0  1  0.261685  0.133604  0.614811  1
  Tb  Tb1  1  0.738315  0.866396  0.385189  1
  Er  Er2  1  0.211893  0.158902  0.109985  1
  Er  Er3  1  0.788107  0.841098  0.890015  1
  Sb  Sb4  1  0.240159  0.663311  0.193401  1
  Sb  Sb5  1  0.759841  0.336689  0.806599  1
  Sb  Sb6  1  0.725104  0.335882  0.307397  1
  Sb  Sb7  1  0.274896  0.664118  0.692603  1
  O  O8  1  0.087200  0.434071  0.689670  1
  O  O9  1  0.912800  0.565929  0.310330  1
  O  O10  1  0.610960  0.325145  0.560689  1
  O  O11  1  0.389040  0.674855  0.439311  1
  O  O12  1  0.875834  0.332287  0.061387  1
  O  O13  1  0.124166  0.667713  0.938613  1
  O  O14  1  0.399517  0.429739  0.196131  1
  O  O15  1  0.600483  0.570261  0.803869  1
  O  O16  1  0.045887  0.887008  0.171466  1
  O  O17  1  0.954113  0.112992  0.828534  1
  O  O18  1  0.508545  0.111461  0.319463  1
  O  O19  1  0.491455  0.888539  0.680537  1
  O  O20  1  0.461902  0.191087  0.880906  1
  O  O21  1  0.538098  0.808913  0.119094  1
  O  O22  1  0.992315  0.168838  0.379341  1
  O  O23  1  0.007685  0.831162  0.620659  1
