# generated using pymatgen
data_SmHo2Si6(Pd9Pt)2
_symmetry_space_group_name_H-M   'P 1'
_cell_length_a   8.73215303
_cell_length_b   8.73215430
_cell_length_c   8.73215466
_cell_angle_alpha   59.85823543
_cell_angle_beta   59.85823063
_cell_angle_gamma   59.85823237
_symmetry_Int_Tables_number   1
_chemical_formula_structural   SmHo2Si6(Pd9Pt)2
_chemical_formula_sum   'Sm1 Ho2 Si6 Pd18 Pt2'
_cell_volume   469.29913357
_cell_formula_units_Z   1
loop_
 _symmetry_equiv_pos_site_id
 _symmetry_equiv_pos_as_xyz
  1  'x, y, z'
loop_
 _atom_site_type_symbol
 _atom_site_label
 _atom_site_symmetry_multiplicity
 _atom_site_fract_x
 _atom_site_fract_y
 _atom_site_fract_z
 _atom_site_occupancy
  Sm  Sm0  1  0.250838  0.250838  0.250838  1
  Ho  Ho1  1  0.748764  0.748764  0.748764  1
  Ho  Ho2  1  0.000016  0.000016  0.000016  1
  Si  Si3  1  0.731445  0.267473  0.267473  1
  Si  Si4  1  0.268634  0.732520  0.732520  1
  Si  Si5  1  0.267473  0.731445  0.267473  1
  Si  Si6  1  0.732520  0.268634  0.732520  1
  Si  Si7  1  0.267473  0.267473  0.731445  1
  Si  Si8  1  0.732520  0.732520  0.268634  1
  Pd  Pd9  1  0.383509  0.383509  0.845724  1
  Pd  Pd10  1  0.383509  0.845724  0.383509  1
  Pd  Pd11  1  0.618836  0.618836  0.147302  1
  Pd  Pd12  1  0.618836  0.147302  0.618836  1
  Pd  Pd13  1  0.845724  0.383509  0.383509  1
  Pd  Pd14  1  0.147302  0.618836  0.618836  1
  Pd  Pd15  1  0.345748  0.999382  0.999382  1
  Pd  Pd16  1  0.655721  0.999264  0.999264  1
  Pd  Pd17  1  0.999426  0.345551  0.655708  1
  Pd  Pd18  1  0.999426  0.655708  0.345551  1
  Pd  Pd19  1  0.999382  0.345748  0.999382  1
  Pd  Pd20  1  0.655708  0.999426  0.345551  1
  Pd  Pd21  1  0.999264  0.655721  0.999264  1
  Pd  Pd22  1  0.345551  0.999426  0.655708  1
  Pd  Pd23  1  0.999382  0.999382  0.345748  1
  Pd  Pd24  1  0.999264  0.999264  0.655721  1
  Pd  Pd25  1  0.655708  0.345551  0.999426  1
  Pd  Pd26  1  0.345551  0.655708  0.999426  1
  Pt  Pt27  1  0.386973  0.386973  0.386973  1
  Pt  Pt28  1  0.615501  0.615501  0.615501  1
