# generated using pymatgen
data_K2Be2Si2O7
_symmetry_space_group_name_H-M   'P 1'
_cell_length_a   5.10849300
_cell_length_b   8.18870900
_cell_length_c   8.85223100
_cell_angle_alpha   90.00000000
_cell_angle_beta   90.00000000
_cell_angle_gamma   90.00000000
_symmetry_Int_Tables_number   1
_chemical_formula_structural   K2Be2Si2O7
_chemical_formula_sum   'K4 Be4 Si4 O14'
_cell_volume   370.30619617
_cell_formula_units_Z   2
loop_
 _symmetry_equiv_pos_site_id
 _symmetry_equiv_pos_as_xyz
  1  'x, y, z'
loop_
 _atom_site_type_symbol
 _atom_site_label
 _atom_site_symmetry_multiplicity
 _atom_site_fract_x
 _atom_site_fract_y
 _atom_site_fract_z
 _atom_site_occupancy
  K  K0  1  0.500000  0.000000  0.444483  1
  K  K1  1  0.000000  0.000000  0.000218  1
  K  K2  1  0.000000  0.500000  0.944483  1
  K  K3  1  0.500000  0.500000  0.500218  1
  Be  Be4  1  0.505039  0.242977  0.812192  1
  Be  Be5  1  0.994961  0.742977  0.312192  1
  Be  Be6  1  0.005039  0.257023  0.312192  1
  Be  Be7  1  0.494961  0.757023  0.812192  1
  Si  Si8  1  0.995851  0.797982  0.641582  1
  Si  Si9  1  0.004149  0.202018  0.641582  1
  Si  Si10  1  0.504149  0.297982  0.141582  1
  Si  Si11  1  0.495851  0.702018  0.141582  1
  O  O12  1  0.291644  0.740046  0.684969  1
  O  O13  1  0.095673  0.272158  0.477506  1
  O  O14  1  0.289071  0.751608  0.274456  1
  O  O15  1  0.710929  0.248392  0.274456  1
  O  O16  1  0.708356  0.259954  0.684969  1
  O  O17  1  0.000000  0.000000  0.624692  1
  O  O18  1  0.789071  0.748392  0.774456  1
  O  O19  1  0.904327  0.727842  0.477506  1
  O  O20  1  0.500000  0.500000  0.124692  1
  O  O21  1  0.595673  0.227842  0.977506  1
  O  O22  1  0.208356  0.240046  0.184969  1
  O  O23  1  0.210929  0.251608  0.774456  1
  O  O24  1  0.404327  0.772158  0.977506  1
  O  O25  1  0.791644  0.759954  0.184969  1
