# generated using pymatgen
data_CrNi(OsO3)4
_symmetry_space_group_name_H-M   'P 1'
_cell_length_a   4.58017817
_cell_length_b   4.58017817
_cell_length_c   9.37521500
_cell_angle_alpha   90.00000000
_cell_angle_beta   90.00000000
_cell_angle_gamma   90.03122373
_symmetry_Int_Tables_number   1
_chemical_formula_structural   CrNi(OsO3)4
_chemical_formula_sum   'Cr1 Ni1 Os4 O12'
_cell_volume   196.67353172
_cell_formula_units_Z   1
loop_
 _symmetry_equiv_pos_site_id
 _symmetry_equiv_pos_as_xyz
  1  'x, y, z'
loop_
 _atom_site_type_symbol
 _atom_site_label
 _atom_site_symmetry_multiplicity
 _atom_site_fract_x
 _atom_site_fract_y
 _atom_site_fract_z
 _atom_site_occupancy
  Cr  Cr0  1  0.500000  0.500000  0.500000  1
  Ni  Ni1  1  0.000000  0.000000  0.000000  1
  Os  Os2  1  0.500000  0.500000  0.168247  1
  Os  Os3  1  0.000000  0.000000  0.669002  1
  Os  Os4  1  0.500000  0.500000  0.831753  1
  Os  Os5  1  0.000000  0.000000  0.330998  1
  O  O6  1  0.186673  0.813327  0.500000  1
  O  O7  1  0.813327  0.186673  0.500000  1
  O  O8  1  0.314275  0.314275  0.000000  1
  O  O9  1  0.685725  0.685725  0.000000  1
  O  O10  1  0.204669  0.795331  0.177955  1
  O  O11  1  0.795331  0.204669  0.177955  1
  O  O12  1  0.302103  0.302103  0.667767  1
  O  O13  1  0.697897  0.697897  0.667767  1
  O  O14  1  0.795331  0.204669  0.822045  1
  O  O15  1  0.204669  0.795331  0.822045  1
  O  O16  1  0.697897  0.697897  0.332233  1
  O  O17  1  0.302103  0.302103  0.332233  1
