# generated using pymatgen
data_Nd9SmC4I15
_symmetry_space_group_name_H-M   'P 1'
_cell_length_a   9.79508157
_cell_length_b   10.64337087
_cell_length_c   11.79734372
_cell_angle_alpha   93.70995891
_cell_angle_beta   114.22151585
_cell_angle_gamma   109.40416540
_symmetry_Int_Tables_number   1
_chemical_formula_structural   Nd9SmC4I15
_chemical_formula_sum   'Nd9 Sm1 C4 I15'
_cell_volume   1028.62965047
_cell_formula_units_Z   1
loop_
 _symmetry_equiv_pos_site_id
 _symmetry_equiv_pos_as_xyz
  1  'x, y, z'
loop_
 _atom_site_type_symbol
 _atom_site_label
 _atom_site_symmetry_multiplicity
 _atom_site_fract_x
 _atom_site_fract_y
 _atom_site_fract_z
 _atom_site_occupancy
  Nd  Nd0  1  0.344450  0.743759  0.162573  1
  Nd  Nd1  1  0.774603  0.881970  0.255502  1
  Nd  Nd2  1  0.528079  0.184858  0.102221  1
  Nd  Nd3  1  0.225464  0.117656  0.744733  1
  Nd  Nd4  1  0.404047  0.459023  0.658998  1
  Nd  Nd5  1  0.472524  0.814842  0.898181  1
  Nd  Nd6  1  0.703289  0.567404  0.044337  1
  Nd  Nd7  1  0.296852  0.432593  0.955685  1
  Nd  Nd8  1  0.655634  0.256411  0.836349  1
  Sm  Sm9  1  0.594701  0.542082  0.338883  1
  C  C10  1  0.483110  0.301581  0.939388  1
  C  C11  1  0.517520  0.698090  0.060999  1
  C  C12  1  0.453951  0.364271  0.835794  1
  C  C13  1  0.546127  0.635250  0.164759  1
  I  I14  1  0.206730  0.905391  0.937277  1
  I  I15  1  0.105103  0.188185  0.470114  1
  I  I16  1  0.153843  0.556560  0.703714  1
  I  I17  1  0.407411  0.971562  0.649521  1
  I  I18  1  0.713229  0.735046  0.821520  1
  I  I19  1  0.289799  0.267317  0.180383  1
  I  I20  1  0.843759  0.444730  0.297945  1
  I  I21  1  0.890883  0.808107  0.528278  1
  I  I22  1  0.361584  0.630223  0.411373  1
  I  I23  1  0.051104  0.831962  0.219816  1
  I  I24  1  0.793730  0.095092  0.062904  1
  I  I25  1  0.640962  0.370835  0.586872  1
  I  I26  1  0.949283  0.167446  0.780992  1
  I  I27  1  0.592236  0.028315  0.350277  1
  I  I28  1  0.999994  0.499436  0.000612  1
