# generated using pymatgen
data_Hf12Ga8CuSb3
_symmetry_space_group_name_H-M   'P 1'
_cell_length_a   5.67342974
_cell_length_b   8.71226033
_cell_length_c   9.29380011
_cell_angle_alpha   89.81306531
_cell_angle_beta   89.98456247
_cell_angle_gamma   90.05656897
_symmetry_Int_Tables_number   1
_chemical_formula_structural   Hf12Ga8CuSb3
_chemical_formula_sum   'Hf12 Ga8 Cu1 Sb3'
_cell_volume   459.37495436
_cell_formula_units_Z   1
loop_
 _symmetry_equiv_pos_site_id
 _symmetry_equiv_pos_as_xyz
  1  'x, y, z'
loop_
 _atom_site_type_symbol
 _atom_site_label
 _atom_site_symmetry_multiplicity
 _atom_site_fract_x
 _atom_site_fract_y
 _atom_site_fract_z
 _atom_site_occupancy
  Hf  Hf0  1  0.002070  0.744842  0.122928  1
  Hf  Hf1  1  0.497010  0.253650  0.882961  1
  Hf  Hf2  1  0.002716  0.253609  0.883775  1
  Hf  Hf3  1  0.497961  0.744827  0.121554  1
  Hf  Hf4  1  0.753696  0.472263  0.611232  1
  Hf  Hf5  1  0.249261  0.529412  0.379827  1
  Hf  Hf6  1  0.751910  0.968061  0.392859  1
  Hf  Hf7  1  0.246658  0.028407  0.610229  1
  Hf  Hf8  1  0.748569  0.381338  0.196962  1
  Hf  Hf9  1  0.247630  0.618880  0.804171  1
  Hf  Hf10  1  0.752662  0.874380  0.799160  1
  Hf  Hf11  1  0.251177  0.130859  0.193138  1
  Ga  Ga12  1  0.500062  0.250190  0.428320  1
  Ga  Ga13  1  0.000065  0.250300  0.427443  1
  Ga  Ga14  1  0.494321  0.747651  0.572226  1
  Ga  Ga15  1  0.249478  0.449350  0.084916  1
  Ga  Ga16  1  0.749973  0.139403  0.647271  1
  Ga  Ga17  1  0.247379  0.862846  0.356656  1
  Ga  Ga18  1  0.752359  0.640471  0.359661  1
  Ga  Ga19  1  0.250272  0.363159  0.642870  1
  Cu  Cu20  1  0.003822  0.748522  0.565215  1
  Sb  Sb21  1  0.750454  0.051268  0.088295  1
  Sb  Sb22  1  0.250354  0.945225  0.912718  1
  Sb  Sb23  1  0.750145  0.551085  0.915610  1
