# generated using pymatgen
data_Cs2Tl25Pd
_symmetry_space_group_name_H-M   'P 1'
_cell_length_a   11.61641284
_cell_length_b   11.61242140
_cell_length_c   11.62006890
_cell_angle_alpha   54.68702778
_cell_angle_beta   54.71157099
_cell_angle_gamma   54.62940717
_symmetry_Int_Tables_number   1
_chemical_formula_structural   Cs2Tl25Pd
_chemical_formula_sum   'Cs2 Tl25 Pd1'
_cell_volume   970.90044042
_cell_formula_units_Z   1
loop_
 _symmetry_equiv_pos_site_id
 _symmetry_equiv_pos_as_xyz
  1  'x, y, z'
loop_
 _atom_site_type_symbol
 _atom_site_label
 _atom_site_symmetry_multiplicity
 _atom_site_fract_x
 _atom_site_fract_y
 _atom_site_fract_z
 _atom_site_occupancy
  Cs  Cs0  1  0.250440  0.250929  0.251339  1
  Cs  Cs1  1  0.749560  0.749071  0.748661  1
  Tl  Tl2  1  0.436183  0.197259  0.804026  1
  Tl  Tl3  1  0.940616  0.702789  0.072549  1
  Tl  Tl4  1  0.719965  0.938715  0.273861  1
  Tl  Tl5  1  0.274903  0.718180  0.938342  1
  Tl  Tl6  1  0.927451  0.059071  0.297110  1
  Tl  Tl7  1  0.703346  0.073910  0.940277  1
  Tl  Tl8  1  0.296654  0.926090  0.059723  1
  Tl  Tl9  1  0.803479  0.435619  0.197883  1
  Tl  Tl10  1  0.196102  0.804359  0.436952  1
  Tl  Tl11  1  0.456098  0.551799  0.189390  1
  Tl  Tl12  1  0.446916  0.809632  0.544992  1
  Tl  Tl13  1  0.196521  0.564381  0.802117  1
  Tl  Tl14  1  0.543902  0.448201  0.810610  1
  Tl  Tl15  1  0.553084  0.190368  0.455008  1
  Tl  Tl16  1  0.803898  0.195641  0.563048  1
  Tl  Tl17  1  0.072549  0.940929  0.702890  1
  Tl  Tl18  1  0.059384  0.297211  0.927451  1
  Tl  Tl19  1  0.937313  0.274225  0.720870  1
  Tl  Tl20  1  0.062687  0.725775  0.279130  1
  Tl  Tl21  1  0.280035  0.061285  0.726139  1
  Tl  Tl22  1  0.725097  0.281820  0.061658  1
  Tl  Tl23  1  0.191538  0.454829  0.552275  1
  Tl  Tl24  1  0.808462  0.545171  0.447725  1
  Tl  Tl25  1  0.563817  0.802741  0.195974  1
  Tl  Tl26  1  0.500000  0.500000  0.500000  1
  Pd  Pd27  1  0.000000  0.000000  0.000000  1
