# generated using pymatgen
data_Nd5MgZr2(Ni4As3)4
_symmetry_space_group_name_H-M   'P 1'
_cell_length_a   12.88929302
_cell_length_b   12.86281120
_cell_length_c   4.01914600
_cell_angle_alpha   90.00000000
_cell_angle_beta   90.00000000
_cell_angle_gamma   120.06500372
_symmetry_Int_Tables_number   1
_chemical_formula_structural   Nd5MgZr2(Ni4As3)4
_chemical_formula_sum   'Nd5 Mg1 Zr2 Ni16 As12'
_cell_volume   576.69284325
_cell_formula_units_Z   1
loop_
 _symmetry_equiv_pos_site_id
 _symmetry_equiv_pos_as_xyz
  1  'x, y, z'
loop_
 _atom_site_type_symbol
 _atom_site_label
 _atom_site_symmetry_multiplicity
 _atom_site_fract_x
 _atom_site_fract_y
 _atom_site_fract_z
 _atom_site_occupancy
  Nd  Nd0  1  0.665799  0.332060  0.000000  1
  Nd  Nd1  1  0.333845  0.668030  0.000000  1
  Nd  Nd2  1  0.189785  0.999984  0.500000  1
  Nd  Nd3  1  0.999812  0.187781  0.500000  1
  Nd  Nd4  1  0.811936  0.812164  0.500000  1
  Mg  Mg5  1  0.570871  0.999959  0.000000  1
  Zr  Zr6  1  0.429781  0.429893  0.000000  1
  Zr  Zr7  1  0.999899  0.570080  0.000000  1
  Ni  Ni8  1  0.000210  0.999991  0.000000  1
  Ni  Ni9  1  0.805484  0.185982  0.000000  1
  Ni  Ni10  1  0.378705  0.192378  0.000000  1
  Ni  Ni11  1  0.192868  0.379462  0.000000  1
  Ni  Ni12  1  0.813379  0.620557  0.000000  1
  Ni  Ni13  1  0.186338  0.807598  0.000000  1
  Ni  Ni14  1  0.619582  0.814056  0.000000  1
  Ni  Ni15  1  0.720817  0.000044  0.500000  1
  Ni  Ni16  1  0.484869  0.118514  0.500000  1
  Ni  Ni17  1  0.276104  0.275753  0.500000  1
  Ni  Ni18  1  0.881286  0.365480  0.500000  1
  Ni  Ni19  1  0.119267  0.485992  0.500000  1
  Ni  Ni20  1  0.633246  0.514021  0.500000  1
  Ni  Ni21  1  0.515752  0.634474  0.500000  1
  Ni  Ni22  1  0.000345  0.724236  0.500000  1
  Ni  Ni23  1  0.366398  0.881571  0.500000  1
  As  As24  1  0.366396  0.000004  0.000000  1
  As  As25  1  0.820729  0.000004  0.000000  1
  As  As26  1  0.179728  0.179455  0.000000  1
  As  As27  1  0.999647  0.362556  0.000000  1
  As  As28  1  0.637064  0.637429  0.000000  1
  As  As29  1  0.000220  0.820505  0.000000  1
  As  As30  1  0.697240  0.171949  0.500000  1
  As  As31  1  0.474308  0.301913  0.500000  1
  As  As32  1  0.302948  0.475389  0.500000  1
  As  As33  1  0.827552  0.524609  0.500000  1
  As  As34  1  0.172437  0.698084  0.500000  1
  As  As35  1  0.525399  0.828094  0.500000  1
