# generated using pymatgen
data_Lu6ZrCo17(Si2P)4
_symmetry_space_group_name_H-M   'P 1'
_cell_length_a   3.72896200
_cell_length_b   10.67293200
_cell_length_c   12.30211500
_cell_angle_alpha   90.00000000
_cell_angle_beta   90.00000000
_cell_angle_gamma   90.00000000
_symmetry_Int_Tables_number   1
_chemical_formula_structural   Lu6ZrCo17(Si2P)4
_chemical_formula_sum   'Lu6 Zr1 Co17 Si8 P4'
_cell_volume   489.61135643
_cell_formula_units_Z   1
loop_
 _symmetry_equiv_pos_site_id
 _symmetry_equiv_pos_as_xyz
  1  'x, y, z'
loop_
 _atom_site_type_symbol
 _atom_site_label
 _atom_site_symmetry_multiplicity
 _atom_site_fract_x
 _atom_site_fract_y
 _atom_site_fract_z
 _atom_site_occupancy
  Lu  Lu0  1  0.000000  0.500000  0.533057  1
  Lu  Lu1  1  0.500000  0.000000  0.472093  1
  Lu  Lu2  1  0.500000  0.821308  0.208414  1
  Lu  Lu3  1  0.500000  0.178692  0.208414  1
  Lu  Lu4  1  0.000000  0.682198  0.795856  1
  Lu  Lu5  1  0.000000  0.317802  0.795856  1
  Zr  Zr6  1  0.500000  0.500000  0.150902  1
  Co  Co7  1  0.000000  0.000000  0.844378  1
  Co  Co8  1  0.500000  0.500000  0.698943  1
  Co  Co9  1  0.000000  0.000000  0.304286  1
  Co  Co10  1  0.000000  0.500000  0.986646  1
  Co  Co11  1  0.500000  0.000000  0.017377  1
  Co  Co12  1  0.500000  0.323832  0.991914  1
  Co  Co13  1  0.500000  0.676168  0.991914  1
  Co  Co14  1  0.000000  0.163801  0.003393  1
  Co  Co15  1  0.000000  0.836199  0.003393  1
  Co  Co16  1  0.500000  0.290832  0.431219  1
  Co  Co17  1  0.500000  0.709168  0.431219  1
  Co  Co18  1  0.000000  0.197868  0.566608  1
  Co  Co19  1  0.000000  0.802132  0.566608  1
  Co  Co20  1  0.500000  0.882917  0.704019  1
  Co  Co21  1  0.500000  0.117083  0.704019  1
  Co  Co22  1  0.000000  0.623898  0.295665  1
  Co  Co23  1  0.000000  0.376102  0.295665  1
  Si  Si24  1  0.500000  0.500000  0.883027  1
  Si  Si25  1  0.000000  0.000000  0.119581  1
  Si  Si26  1  0.500000  0.500000  0.360824  1
  Si  Si27  1  0.000000  0.000000  0.655922  1
  Si  Si28  1  0.500000  0.306423  0.616731  1
  Si  Si29  1  0.500000  0.693577  0.616731  1
  Si  Si30  1  0.500000  0.856307  0.887783  1
  Si  Si31  1  0.500000  0.143693  0.887783  1
  P  P32  1  0.000000  0.190687  0.384595  1
  P  P33  1  0.000000  0.809313  0.384595  1
  P  P34  1  0.000000  0.665819  0.100284  1
  P  P35  1  0.000000  0.334181  0.100284  1
