# generated using pymatgen
data_Ce2NiIr2Rh
_symmetry_space_group_name_H-M   'P 1'
_cell_length_a   5.18290361
_cell_length_b   5.43259190
_cell_length_c   5.42742200
_cell_angle_alpha   60.03147517
_cell_angle_beta   58.42670023
_cell_angle_gamma   58.41000796
_symmetry_Int_Tables_number   1
_chemical_formula_structural   Ce2NiIr2Rh
_chemical_formula_sum   'Ce2 Ni1 Ir2 Rh1'
_cell_volume   105.42643995
_cell_formula_units_Z   1
loop_
 _symmetry_equiv_pos_site_id
 _symmetry_equiv_pos_as_xyz
  1  'x, y, z'
loop_
 _atom_site_type_symbol
 _atom_site_label
 _atom_site_symmetry_multiplicity
 _atom_site_fract_x
 _atom_site_fract_y
 _atom_site_fract_z
 _atom_site_occupancy
  Ce  Ce0  1  0.498975  0.499843  0.500591  1
  Ce  Ce1  1  0.751025  0.750157  0.749409  1
  Ni  Ni2  1  0.625000  0.125000  0.125000  1
  Ir  Ir3  1  0.125000  0.125000  0.125000  1
  Ir  Ir4  1  0.125000  0.125000  0.625000  1
  Rh  Rh5  1  0.125000  0.625000  0.125000  1
