# generated using pymatgen
data_Y6Lu4(SnSb)3
_symmetry_space_group_name_H-M   'P 1'
_cell_length_a   6.37747400
_cell_length_b   8.95135772
_cell_length_c   8.95122800
_cell_angle_alpha   120.00048883
_cell_angle_beta   90.00021562
_cell_angle_gamma   89.99957855
_symmetry_Int_Tables_number   1
_chemical_formula_structural   Y6Lu4(SnSb)3
_chemical_formula_sum   'Y6 Lu4 Sn3 Sb3'
_cell_volume   442.53611780
_cell_formula_units_Z   1
loop_
 _symmetry_equiv_pos_site_id
 _symmetry_equiv_pos_as_xyz
  1  'x, y, z'
loop_
 _atom_site_type_symbol
 _atom_site_label
 _atom_site_symmetry_multiplicity
 _atom_site_fract_x
 _atom_site_fract_y
 _atom_site_fract_z
 _atom_site_occupancy
  Y  Y0  1  0.750011  0.242056  0.000000  1
  Y  Y1  1  0.749995  0.757989  0.758014  1
  Y  Y2  1  0.749995  0.999974  0.241986  1
  Y  Y3  1  0.250006  0.756936  0.000000  1
  Y  Y4  1  0.249997  0.243008  0.243001  1
  Y  Y5  1  0.249997  0.000007  0.756999  1
  Lu  Lu6  1  0.502195  0.333358  0.666687  1
  Lu  Lu7  1  0.502195  0.666671  0.333313  1
  Lu  Lu8  1  0.997803  0.666675  0.333330  1
  Lu  Lu9  1  0.997803  0.333344  0.666670  1
  Sn  Sn10  1  0.750082  0.604802  0.000000  1
  Sn  Sn11  1  0.749958  0.395174  0.395174  1
  Sn  Sn12  1  0.749958  0.999999  0.604826  1
  Sb  Sb13  1  0.250006  0.393412  0.000000  1
  Sb  Sb14  1  0.249997  0.606598  0.606603  1
  Sb  Sb15  1  0.249997  0.999996  0.393397  1
