# generated using pymatgen
data_CoRhBr18
_symmetry_space_group_name_H-M   'P 1'
_cell_length_a   8.93450498
_cell_length_b   8.98036876
_cell_length_c   8.93290668
_cell_angle_alpha   92.39295569
_cell_angle_beta   92.38464951
_cell_angle_gamma   92.31802541
_symmetry_Int_Tables_number   1
_chemical_formula_structural   CoRhBr18
_chemical_formula_sum   'Co1 Rh1 Br18'
_cell_volume   714.84886395
_cell_formula_units_Z   1
loop_
 _symmetry_equiv_pos_site_id
 _symmetry_equiv_pos_as_xyz
  1  'x, y, z'
loop_
 _atom_site_type_symbol
 _atom_site_label
 _atom_site_symmetry_multiplicity
 _atom_site_fract_x
 _atom_site_fract_y
 _atom_site_fract_z
 _atom_site_occupancy
  Co  Co0  1  0.500000  0.500000  0.500000  1
  Rh  Rh1  1  0.000000  0.000000  0.000000  1
  Br  Br2  1  0.769030  0.482088  0.522720  1
  Br  Br3  1  0.521787  0.767590  0.481142  1
  Br  Br4  1  0.481934  0.522931  0.769407  1
  Br  Br5  1  0.230970  0.517912  0.477280  1
  Br  Br6  1  0.478213  0.232410  0.518858  1
  Br  Br7  1  0.518066  0.477069  0.230593  1
  Br  Br8  1  0.885350  0.371604  0.759936  1
  Br  Br9  1  0.758741  0.883769  0.371864  1
  Br  Br10  1  0.372333  0.759349  0.885224  1
  Br  Br11  1  0.114650  0.628396  0.240064  1
  Br  Br12  1  0.241259  0.116231  0.628136  1
  Br  Br13  1  0.627667  0.240651  0.114776  1
  Br  Br14  1  0.013128  0.966438  0.721028  1
  Br  Br15  1  0.721551  0.012923  0.965122  1
  Br  Br16  1  0.964623  0.723069  0.011654  1
  Br  Br17  1  0.986872  0.033562  0.278972  1
  Br  Br18  1  0.278449  0.987077  0.034878  1
  Br  Br19  1  0.035377  0.276931  0.988346  1
