# generated using pymatgen
data_TbY(CdIn2)2
_symmetry_space_group_name_H-M   'P 1'
_cell_length_a   6.50968500
_cell_length_b   6.50968460
_cell_length_c   9.26740600
_cell_angle_alpha   90.00000000
_cell_angle_beta   90.00000000
_cell_angle_gamma   90.63405535
_symmetry_Int_Tables_number   1
_chemical_formula_structural   TbY(CdIn2)2
_chemical_formula_sum   'Tb2 Y2 Cd4 In8'
_cell_volume   392.69151470
_cell_formula_units_Z   2
loop_
 _symmetry_equiv_pos_site_id
 _symmetry_equiv_pos_as_xyz
  1  'x, y, z'
loop_
 _atom_site_type_symbol
 _atom_site_label
 _atom_site_symmetry_multiplicity
 _atom_site_fract_x
 _atom_site_fract_y
 _atom_site_fract_z
 _atom_site_occupancy
  Tb  Tb0  1  0.502459  0.502459  0.250000  1
  Tb  Tb1  1  0.497541  0.497541  0.750000  1
  Y  Y2  1  0.997421  0.997421  0.250000  1
  Y  Y3  1  0.002579  0.002579  0.750000  1
  Cd  Cd4  1  0.249810  0.750190  0.500000  1
  Cd  Cd5  1  0.249810  0.750190  0.000000  1
  Cd  Cd6  1  0.750190  0.249810  0.500000  1
  Cd  Cd7  1  0.750190  0.249810  0.000000  1
  In  In8  1  0.249923  0.249923  0.002070  1
  In  In9  1  0.750077  0.750077  0.997930  1
  In  In10  1  0.249923  0.249923  0.497930  1
  In  In11  1  0.750077  0.750077  0.502070  1
  In  In12  1  0.499032  0.001403  0.250000  1
  In  In13  1  0.998597  0.500968  0.750000  1
  In  In14  1  0.500968  0.998597  0.750000  1
  In  In15  1  0.001403  0.499032  0.250000  1
