# generated using pymatgen
data_Nd6Cd21Ag2P
_symmetry_space_group_name_H-M   'P 1'
_cell_length_a   10.00746314
_cell_length_b   10.00746231
_cell_length_c   10.04735700
_cell_angle_alpha   59.86803666
_cell_angle_beta   59.86803942
_cell_angle_gamma   59.99540581
_symmetry_Int_Tables_number   1
_chemical_formula_structural   Nd6Cd21Ag2P
_chemical_formula_sum   'Nd6 Cd21 Ag2 P1'
_cell_volume   710.06915197
_cell_formula_units_Z   1
loop_
 _symmetry_equiv_pos_site_id
 _symmetry_equiv_pos_as_xyz
  1  'x, y, z'
loop_
 _atom_site_type_symbol
 _atom_site_label
 _atom_site_symmetry_multiplicity
 _atom_site_fract_x
 _atom_site_fract_y
 _atom_site_fract_z
 _atom_site_occupancy
  Nd  Nd0  1  0.795881  0.795881  0.204119  1
  Nd  Nd1  1  0.204355  0.795645  0.202448  1
  Nd  Nd2  1  0.795645  0.204355  0.202448  1
  Nd  Nd3  1  0.204119  0.204119  0.795881  1
  Nd  Nd4  1  0.795645  0.204355  0.797552  1
  Nd  Nd5  1  0.204355  0.795645  0.797552  1
  Cd  Cd6  1  0.835714  0.835714  0.500069  1
  Cd  Cd7  1  0.832702  0.505376  0.830961  1
  Cd  Cd8  1  0.505376  0.832702  0.830961  1
  Cd  Cd9  1  0.835714  0.835714  0.828505  1
  Cd  Cd10  1  0.164286  0.164286  0.499931  1
  Cd  Cd11  1  0.167298  0.494624  0.169039  1
  Cd  Cd12  1  0.494624  0.167298  0.169039  1
  Cd  Cd13  1  0.164286  0.164286  0.171495  1
  Cd  Cd14  1  0.619464  0.619464  0.145112  1
  Cd  Cd15  1  0.627401  0.142220  0.615190  1
  Cd  Cd16  1  0.142220  0.627401  0.615190  1
  Cd  Cd17  1  0.619464  0.619464  0.615959  1
  Cd  Cd18  1  0.380536  0.380536  0.854888  1
  Cd  Cd19  1  0.372599  0.857780  0.384810  1
  Cd  Cd20  1  0.857780  0.372599  0.384810  1
  Cd  Cd21  1  0.380536  0.380536  0.384041  1
  Cd  Cd22  1  0.500000  0.000000  0.500000  1
  Cd  Cd23  1  0.000000  0.500000  0.500000  1
  Cd  Cd24  1  0.500000  0.500000  0.000000  1
  Cd  Cd25  1  0.000000  0.500000  0.000000  1
  Cd  Cd26  1  0.500000  0.000000  0.000000  1
  Ag  Ag27  1  0.000000  0.000000  0.500000  1
  Ag  Ag28  1  0.500000  0.500000  0.500000  1
  P  P29  1  0.000000  0.000000  0.000000  1
