# generated using pymatgen
data_Tb3LuBBr6
_symmetry_space_group_name_H-M   'P 1'
_cell_length_a   3.95399800
_cell_length_b   13.16195114
_cell_length_c   13.62650765
_cell_angle_alpha   89.63380183
_cell_angle_beta   90.00000000
_cell_angle_gamma   90.00000000
_symmetry_Int_Tables_number   1
_chemical_formula_structural   Tb3LuBBr6
_chemical_formula_sum   'Tb6 Lu2 B2 Br12'
_cell_volume   709.14070289
_cell_formula_units_Z   2
loop_
 _symmetry_equiv_pos_site_id
 _symmetry_equiv_pos_as_xyz
  1  'x, y, z'
loop_
 _atom_site_type_symbol
 _atom_site_label
 _atom_site_symmetry_multiplicity
 _atom_site_fract_x
 _atom_site_fract_y
 _atom_site_fract_z
 _atom_site_occupancy
  Tb  Tb0  1  0.000000  0.102311  0.081175  1
  Tb  Tb1  1  0.000000  0.897689  0.918825  1
  Tb  Tb2  1  0.500000  0.124143  0.854202  1
  Tb  Tb3  1  0.500000  0.875857  0.145798  1
  Tb  Tb4  1  0.500000  0.622580  0.644068  1
  Tb  Tb5  1  0.500000  0.377420  0.355932  1
  Lu  Lu6  1  0.000000  0.598173  0.421903  1
  Lu  Lu7  1  0.000000  0.401827  0.578097  1
  B  B8  1  0.500000  0.000000  0.000000  1
  B  B9  1  0.500000  0.500000  0.500000  1
  Br  Br10  1  0.500000  0.273511  0.677622  1
  Br  Br11  1  0.500000  0.726489  0.322378  1
  Br  Br12  1  0.500000  0.766504  0.816687  1
  Br  Br13  1  0.500000  0.233496  0.183313  1
  Br  Br14  1  0.000000  0.263164  0.930721  1
  Br  Br15  1  0.000000  0.736836  0.069279  1
  Br  Br16  1  0.000000  0.485281  0.241003  1
  Br  Br17  1  0.000000  0.514719  0.758997  1
  Br  Br18  1  0.000000  0.980431  0.262722  1
  Br  Br19  1  0.000000  0.019569  0.737278  1
  Br  Br20  1  0.000000  0.239839  0.435853  1
  Br  Br21  1  0.000000  0.760161  0.564147  1
