# generated using pymatgen
data_LaCd5Au3
_symmetry_space_group_name_H-M   'P 1'
_cell_length_a   4.43669100
_cell_length_b   12.93723800
_cell_length_c   14.41444000
_cell_angle_alpha   90.00000000
_cell_angle_beta   90.00000000
_cell_angle_gamma   90.00000000
_symmetry_Int_Tables_number   1
_chemical_formula_structural   LaCd5Au3
_chemical_formula_sum   'La4 Cd20 Au12'
_cell_volume   827.36762929
_cell_formula_units_Z   4
loop_
 _symmetry_equiv_pos_site_id
 _symmetry_equiv_pos_as_xyz
  1  'x, y, z'
loop_
 _atom_site_type_symbol
 _atom_site_label
 _atom_site_symmetry_multiplicity
 _atom_site_fract_x
 _atom_site_fract_y
 _atom_site_fract_z
 _atom_site_occupancy
  La  La0  1  0.250000  0.896077  0.293951  1
  La  La1  1  0.750000  0.103923  0.706049  1
  La  La2  1  0.750000  0.396077  0.206049  1
  La  La3  1  0.250000  0.603923  0.793951  1
  Cd  Cd4  1  0.250000  0.412490  0.998704  1
  Cd  Cd5  1  0.750000  0.587510  0.001296  1
  Cd  Cd6  1  0.750000  0.912490  0.501296  1
  Cd  Cd7  1  0.250000  0.087510  0.498704  1
  Cd  Cd8  1  0.250000  0.607739  0.322584  1
  Cd  Cd9  1  0.750000  0.392261  0.677416  1
  Cd  Cd10  1  0.750000  0.107739  0.177416  1
  Cd  Cd11  1  0.250000  0.892261  0.822584  1
  Cd  Cd12  1  0.250000  0.014064  0.065882  1
  Cd  Cd13  1  0.750000  0.985936  0.934118  1
  Cd  Cd14  1  0.750000  0.514064  0.434118  1
  Cd  Cd15  1  0.250000  0.485936  0.565882  1
  Cd  Cd16  1  0.250000  0.773604  0.028908  1
  Cd  Cd17  1  0.750000  0.226396  0.971092  1
  Cd  Cd18  1  0.750000  0.273604  0.471092  1
  Cd  Cd19  1  0.250000  0.726396  0.528908  1
  Cd  Cd20  1  0.250000  0.188043  0.301751  1
  Cd  Cd21  1  0.750000  0.811957  0.698249  1
  Cd  Cd22  1  0.750000  0.688043  0.198249  1
  Cd  Cd23  1  0.250000  0.311957  0.801751  1
  Au  Au24  1  0.250000  0.574267  0.128620  1
  Au  Au25  1  0.750000  0.425733  0.871380  1
  Au  Au26  1  0.750000  0.074267  0.371380  1
  Au  Au27  1  0.250000  0.925733  0.628620  1
  Au  Au28  1  0.250000  0.233061  0.107856  1
  Au  Au29  1  0.750000  0.766939  0.892144  1
  Au  Au30  1  0.750000  0.733061  0.392144  1
  Au  Au31  1  0.250000  0.266939  0.607856  1
  Au  Au32  1  0.250000  0.386686  0.374153  1
  Au  Au33  1  0.750000  0.613314  0.625847  1
  Au  Au34  1  0.750000  0.886686  0.125847  1
  Au  Au35  1  0.250000  0.113314  0.874153  1
