# generated using pymatgen
data_K2Rb4LuInSb4
_symmetry_space_group_name_H-M   'P 1'
_cell_length_a   10.09129991
_cell_length_b   10.09129776
_cell_length_c   10.09129928
_cell_angle_alpha   131.17505741
_cell_angle_beta   66.92149203
_cell_angle_gamma   137.19159832
_symmetry_Int_Tables_number   1
_chemical_formula_structural   K2Rb4LuInSb4
_chemical_formula_sum   'K2 Rb4 Lu1 In1 Sb4'
_cell_volume   517.24970326
_cell_formula_units_Z   1
loop_
 _symmetry_equiv_pos_site_id
 _symmetry_equiv_pos_as_xyz
  1  'x, y, z'
loop_
 _atom_site_type_symbol
 _atom_site_label
 _atom_site_symmetry_multiplicity
 _atom_site_fract_x
 _atom_site_fract_y
 _atom_site_fract_z
 _atom_site_occupancy
  K  K0  1  0.249999  0.249999  0.000000  1
  K  K1  1  0.749999  0.749999  0.000000  1
  Rb  Rb2  1  0.307739  0.774879  0.102032  1
  Rb  Rb3  1  0.192261  0.294292  0.467139  1
  Rb  Rb4  1  0.827153  0.725121  0.532861  1
  Rb  Rb5  1  0.672847  0.205708  0.897968  1
  Lu  Lu6  1  0.749999  0.249999  0.500000  1
  In  In7  1  0.249999  0.749999  0.500000  1
  Sb  Sb8  1  0.904014  0.304751  0.202264  1
  Sb  Sb9  1  0.595987  0.798251  0.400739  1
  Sb  Sb10  1  0.397513  0.195249  0.599261  1
  Sb  Sb11  1  0.102488  0.701749  0.797737  1
