# generated using pymatgen
data_PrGdTm2(WO6)2
_symmetry_space_group_name_H-M   'P 1'
_cell_length_a   5.47249800
_cell_length_b   7.77362898
_cell_length_c   11.47193844
_cell_angle_alpha   75.94389180
_cell_angle_beta   90.00000000
_cell_angle_gamma   90.00000000
_symmetry_Int_Tables_number   1
_chemical_formula_structural   PrGdTm2(WO6)2
_chemical_formula_sum   'Pr2 Gd2 Tm4 W4 O24'
_cell_volume   473.41726054
_cell_formula_units_Z   2
loop_
 _symmetry_equiv_pos_site_id
 _symmetry_equiv_pos_as_xyz
  1  'x, y, z'
loop_
 _atom_site_type_symbol
 _atom_site_label
 _atom_site_symmetry_multiplicity
 _atom_site_fract_x
 _atom_site_fract_y
 _atom_site_fract_z
 _atom_site_occupancy
  Pr  Pr0  1  0.684918  0.500000  0.750000  1
  Pr  Pr1  1  0.315082  0.500000  0.250000  1
  Gd  Gd2  1  0.743355  0.000000  0.750000  1
  Gd  Gd3  1  0.256645  0.000000  0.250000  1
  Tm  Tm4  1  0.184248  0.795319  0.577969  1
  Tm  Tm5  1  0.815752  0.795319  0.077969  1
  Tm  Tm6  1  0.184248  0.204681  0.922031  1
  Tm  Tm7  1  0.815752  0.204681  0.422031  1
  W  W8  1  0.253909  0.727263  0.885343  1
  W  W9  1  0.746091  0.727263  0.385343  1
  W  W10  1  0.253909  0.272737  0.614657  1
  W  W11  1  0.746091  0.272737  0.114657  1
  O  O12  1  0.048840  0.941925  0.898410  1
  O  O13  1  0.536286  0.840119  0.933881  1
  O  O14  1  0.951160  0.941925  0.398410  1
  O  O15  1  0.450634  0.793794  0.726271  1
  O  O16  1  0.463714  0.840119  0.433881  1
  O  O17  1  0.987805  0.719587  0.769101  1
  O  O18  1  0.549366  0.793794  0.226271  1
  O  O19  1  0.859389  0.641620  0.546499  1
  O  O20  1  0.345680  0.492397  0.888242  1
  O  O21  1  0.012195  0.719587  0.269101  1
  O  O22  1  0.345680  0.507603  0.611758  1
  O  O23  1  0.859389  0.358380  0.953501  1
  O  O24  1  0.140611  0.641620  0.046499  1
  O  O25  1  0.654320  0.492397  0.388242  1
  O  O26  1  0.987805  0.280413  0.730899  1
  O  O27  1  0.654320  0.507603  0.111758  1
  O  O28  1  0.140611  0.358380  0.453501  1
  O  O29  1  0.450634  0.206206  0.773729  1
  O  O30  1  0.012195  0.280413  0.230899  1
  O  O31  1  0.536286  0.159881  0.566119  1
  O  O32  1  0.549366  0.206206  0.273729  1
  O  O33  1  0.048840  0.058075  0.601590  1
  O  O34  1  0.463714  0.159881  0.066119  1
  O  O35  1  0.951160  0.058075  0.101590  1
