# generated using pymatgen
data_Y9Th3Tc4
_symmetry_space_group_name_H-M   'P 1'
_cell_length_a   6.41704207
_cell_length_b   7.40052535
_cell_length_c   9.48328400
_cell_angle_alpha   90.00000000
_cell_angle_beta   90.00000000
_cell_angle_gamma   89.59353953
_symmetry_Int_Tables_number   1
_chemical_formula_structural   Y9Th3Tc4
_chemical_formula_sum   'Y9 Th3 Tc4'
_cell_volume   450.34491723
_cell_formula_units_Z   1
loop_
 _symmetry_equiv_pos_site_id
 _symmetry_equiv_pos_as_xyz
  1  'x, y, z'
loop_
 _atom_site_type_symbol
 _atom_site_label
 _atom_site_symmetry_multiplicity
 _atom_site_fract_x
 _atom_site_fract_y
 _atom_site_fract_z
 _atom_site_occupancy
  Y  Y0  1  0.866802  0.544047  0.250000  1
  Y  Y1  1  0.168879  0.174156  0.068598  1
  Y  Y2  1  0.831356  0.824433  0.934888  1
  Y  Y3  1  0.668649  0.327120  0.934552  1
  Y  Y4  1  0.831356  0.824433  0.565112  1
  Y  Y5  1  0.330595  0.673271  0.068461  1
  Y  Y6  1  0.168879  0.174156  0.431402  1
  Y  Y7  1  0.330595  0.673271  0.431539  1
  Y  Y8  1  0.668649  0.327120  0.565448  1
  Th  Th9  1  0.644820  0.050519  0.250000  1
  Th  Th10  1  0.355823  0.948372  0.750000  1
  Th  Th11  1  0.142874  0.448159  0.750000  1
  Tc  Tc12  1  0.480960  0.368704  0.250000  1
  Tc  Tc13  1  0.509536  0.627276  0.750000  1
  Tc  Tc14  1  0.989268  0.128086  0.750000  1
  Tc  Tc15  1  0.010962  0.886874  0.250000  1
