# generated using pymatgen
data_Hf3Zr5(Co4P3)4
_symmetry_space_group_name_H-M   'P 1'
_cell_length_a   12.09002200
_cell_length_b   12.09002097
_cell_length_c   3.66078800
_cell_angle_alpha   90.00000000
_cell_angle_beta   90.00000000
_cell_angle_gamma   120.00000281
_symmetry_Int_Tables_number   1
_chemical_formula_structural   Hf3Zr5(Co4P3)4
_chemical_formula_sum   'Hf3 Zr5 Co16 P12'
_cell_volume   463.40353672
_cell_formula_units_Z   1
loop_
 _symmetry_equiv_pos_site_id
 _symmetry_equiv_pos_as_xyz
  1  'x, y, z'
loop_
 _atom_site_type_symbol
 _atom_site_label
 _atom_site_symmetry_multiplicity
 _atom_site_fract_x
 _atom_site_fract_y
 _atom_site_fract_z
 _atom_site_occupancy
  Hf  Hf0  1  0.442486  0.442486  0.000000  1
  Hf  Hf1  1  0.557514  0.000000  0.000000  1
  Hf  Hf2  1  0.000000  0.557514  0.000000  1
  Zr  Zr3  1  0.666667  0.333333  0.000000  1
  Zr  Zr4  1  0.333333  0.666667  0.000000  1
  Zr  Zr5  1  0.822374  0.822374  0.500000  1
  Zr  Zr6  1  0.177626  0.000000  0.500000  1
  Zr  Zr7  1  0.000000  0.177626  0.500000  1
  Co  Co8  1  0.874426  0.356102  0.500000  1
  Co  Co9  1  0.643898  0.518323  0.500000  1
  Co  Co10  1  0.481677  0.125574  0.500000  1
  Co  Co11  1  0.356102  0.874426  0.500000  1
  Co  Co12  1  0.518323  0.643898  0.500000  1
  Co  Co13  1  0.125574  0.481677  0.500000  1
  Co  Co14  1  0.806434  0.179578  0.000000  1
  Co  Co15  1  0.820422  0.626855  0.000000  1
  Co  Co16  1  0.373145  0.193566  0.000000  1
  Co  Co17  1  0.179578  0.806434  0.000000  1
  Co  Co18  1  0.626855  0.820422  0.000000  1
  Co  Co19  1  0.193566  0.373145  0.000000  1
  Co  Co20  1  0.278163  0.278163  0.500000  1
  Co  Co21  1  0.721837  0.000000  0.500000  1
  Co  Co22  1  0.000000  0.721837  0.500000  1
  Co  Co23  1  0.000000  0.000000  0.000000  1
  P  P24  1  0.691749  0.173296  0.500000  1
  P  P25  1  0.826704  0.518453  0.500000  1
  P  P26  1  0.481547  0.308251  0.500000  1
  P  P27  1  0.173296  0.691749  0.500000  1
  P  P28  1  0.518453  0.826704  0.500000  1
  P  P29  1  0.308251  0.481547  0.500000  1
  P  P30  1  0.175445  0.175445  0.000000  1
  P  P31  1  0.824555  0.000000  0.000000  1
  P  P32  1  0.000000  0.824555  0.000000  1
  P  P33  1  0.652610  0.652610  0.000000  1
  P  P34  1  0.347390  0.000000  0.000000  1
  P  P35  1  0.000000  0.347390  0.000000  1
