# generated using pymatgen
data_K8Sn4BiSb3
_symmetry_space_group_name_H-M   'P 1'
_cell_length_a   6.57216600
_cell_length_b   6.80917753
_cell_length_c   13.48174198
_cell_angle_alpha   90.07655433
_cell_angle_beta   90.00000000
_cell_angle_gamma   90.00000000
_symmetry_Int_Tables_number   1
_chemical_formula_structural   K8Sn4BiSb3
_chemical_formula_sum   'K8 Sn4 Bi1 Sb3'
_cell_volume   603.32150452
_cell_formula_units_Z   1
loop_
 _symmetry_equiv_pos_site_id
 _symmetry_equiv_pos_as_xyz
  1  'x, y, z'
loop_
 _atom_site_type_symbol
 _atom_site_label
 _atom_site_symmetry_multiplicity
 _atom_site_fract_x
 _atom_site_fract_y
 _atom_site_fract_z
 _atom_site_occupancy
  K  K0  1  0.750000  0.389233  0.667323  1
  K  K1  1  0.250000  0.611828  0.333962  1
  K  K2  1  0.750000  0.611066  0.163618  1
  K  K3  1  0.250000  0.160421  0.511202  1
  K  K4  1  0.250000  0.837539  0.010461  1
  K  K5  1  0.750000  0.839552  0.490614  1
  K  K6  1  0.750000  0.161882  0.989618  1
  K  K7  1  0.250000  0.389309  0.834795  1
  Sn  Sn8  1  0.497983  0.095365  0.248314  1
  Sn  Sn9  1  0.002017  0.095365  0.248314  1
  Sn  Sn10  1  0.000510  0.902403  0.749968  1
  Sn  Sn11  1  0.499490  0.902403  0.749968  1
  Bi  Bi12  1  0.750000  0.340019  0.393890  1
  Sb  Sb13  1  0.250000  0.335134  0.108411  1
  Sb  Sb14  1  0.250000  0.663599  0.609180  1
  Sb  Sb15  1  0.750000  0.664882  0.890362  1
