# generated using pymatgen
data_TlAgP2O7
_symmetry_space_group_name_H-M   'P 1'
_cell_length_a   8.41253500
_cell_length_b   7.60782297
_cell_length_c   10.00021600
_cell_angle_alpha   68.06733395
_cell_angle_beta   90.00000000
_cell_angle_gamma   90.00000000
_symmetry_Int_Tables_number   1
_chemical_formula_structural   TlAgP2O7
_chemical_formula_sum   'Tl4 Ag4 P8 O28'
_cell_volume   593.70182308
_cell_formula_units_Z   4
loop_
 _symmetry_equiv_pos_site_id
 _symmetry_equiv_pos_as_xyz
  1  'x, y, z'
loop_
 _atom_site_type_symbol
 _atom_site_label
 _atom_site_symmetry_multiplicity
 _atom_site_fract_x
 _atom_site_fract_y
 _atom_site_fract_z
 _atom_site_occupancy
  Tl  Tl0  1  0.998538  0.746992  0.744304  1
  Tl  Tl1  1  0.498538  0.253008  0.755696  1
  Tl  Tl2  1  0.001462  0.253008  0.255696  1
  Tl  Tl3  1  0.501462  0.746992  0.244304  1
  Ag  Ag4  1  0.025258  0.201072  0.808352  1
  Ag  Ag5  1  0.525258  0.798928  0.691648  1
  Ag  Ag6  1  0.974742  0.798928  0.191648  1
  Ag  Ag7  1  0.474742  0.201072  0.308352  1
  P  P8  1  0.249342  0.418129  0.971240  1
  P  P9  1  0.749342  0.581871  0.528760  1
  P  P10  1  0.750658  0.581871  0.028760  1
  P  P11  1  0.250658  0.418129  0.471240  1
  P  P12  1  0.282736  0.823509  0.949437  1
  P  P13  1  0.782736  0.176491  0.550563  1
  P  P14  1  0.717264  0.176491  0.050563  1
  P  P15  1  0.217264  0.823509  0.449437  1
  O  O16  1  0.372610  0.303850  0.929515  1
  O  O17  1  0.872610  0.696150  0.570485  1
  O  O18  1  0.627390  0.696150  0.070485  1
  O  O19  1  0.127390  0.303850  0.429515  1
  O  O20  1  0.226278  0.331691  0.135385  1
  O  O21  1  0.726278  0.668309  0.364615  1
  O  O22  1  0.773722  0.668309  0.864615  1
  O  O23  1  0.273722  0.331691  0.635385  1
  O  O24  1  0.093318  0.450352  0.883787  1
  O  O25  1  0.593318  0.549648  0.616213  1
  O  O26  1  0.906682  0.549648  0.116213  1
  O  O27  1  0.406682  0.450352  0.383787  1
  O  O28  1  0.410054  0.951249  0.854623  1
  O  O29  1  0.910054  0.048751  0.645377  1
  O  O30  1  0.589946  0.048751  0.145377  1
  O  O31  1  0.089946  0.951249  0.354623  1
  O  O32  1  0.282028  0.798562  0.109190  1
  O  O33  1  0.782028  0.201438  0.390810  1
  O  O34  1  0.717972  0.201438  0.890810  1
  O  O35  1  0.217972  0.798562  0.609190  1
  O  O36  1  0.110674  0.873482  0.893789  1
  O  O37  1  0.610674  0.126518  0.606211  1
  O  O38  1  0.889326  0.126518  0.106211  1
  O  O39  1  0.389326  0.873482  0.393789  1
  O  O40  1  0.328554  0.624482  0.934372  1
  O  O41  1  0.828554  0.375518  0.565628  1
  O  O42  1  0.671446  0.375518  0.065628  1
  O  O43  1  0.171446  0.624482  0.434372  1
