# generated using pymatgen
data_KSrPu2(CuSe3)2
_symmetry_space_group_name_H-M   'P 1'
_cell_length_a   7.25741587
_cell_length_b   7.25741720
_cell_length_c   10.70391200
_cell_angle_alpha   90.00000000
_cell_angle_beta   90.00000000
_cell_angle_gamma   146.71617887
_symmetry_Int_Tables_number   1
_chemical_formula_structural   KSrPu2(CuSe3)2
_chemical_formula_sum   'K1 Sr1 Pu2 Cu2 Se6'
_cell_volume   309.39285150
_cell_formula_units_Z   1
loop_
 _symmetry_equiv_pos_site_id
 _symmetry_equiv_pos_as_xyz
  1  'x, y, z'
loop_
 _atom_site_type_symbol
 _atom_site_label
 _atom_site_symmetry_multiplicity
 _atom_site_fract_x
 _atom_site_fract_y
 _atom_site_fract_z
 _atom_site_occupancy
  K  K0  1  0.748539  0.251461  0.250000  1
  Sr  Sr1  1  0.251270  0.748730  0.750000  1
  Pu  Pu2  1  0.000931  0.999069  0.000448  1
  Pu  Pu3  1  0.000931  0.999069  0.499552  1
  Cu  Cu4  1  0.527998  0.472002  0.750000  1
  Cu  Cu5  1  0.466710  0.533290  0.250000  1
  Se  Se6  1  0.636359  0.363641  0.928180  1
  Se  Se7  1  0.067185  0.932815  0.250000  1
  Se  Se8  1  0.370007  0.629993  0.441421  1
  Se  Se9  1  0.370007  0.629993  0.058579  1
  Se  Se10  1  0.636359  0.363641  0.571820  1
  Se  Se11  1  0.923705  0.076295  0.750000  1
