# generated using pymatgen
data_Hf2U2H15
_symmetry_space_group_name_H-M   'P 1'
_cell_length_a   7.21380568
_cell_length_b   7.21380547
_cell_length_c   7.21380608
_cell_angle_alpha   109.46282160
_cell_angle_beta   109.46282763
_cell_angle_gamma   109.46281914
_symmetry_Int_Tables_number   1
_chemical_formula_structural   Hf2U2H15
_chemical_formula_sum   'Hf4 U4 H30'
_cell_volume   289.07224641
_cell_formula_units_Z   2
loop_
 _symmetry_equiv_pos_site_id
 _symmetry_equiv_pos_as_xyz
  1  'x, y, z'
loop_
 _atom_site_type_symbol
 _atom_site_label
 _atom_site_symmetry_multiplicity
 _atom_site_fract_x
 _atom_site_fract_y
 _atom_site_fract_z
 _atom_site_occupancy
  Hf  Hf0  1  0.909131  0.909131  0.909131  1
  Hf  Hf1  1  0.499848  0.994049  0.088886  1
  Hf  Hf2  1  0.994049  0.088886  0.499848  1
  Hf  Hf3  1  0.088886  0.499848  0.994049  1
  U  U4  1  0.000809  0.589543  0.504852  1
  U  U5  1  0.589543  0.504852  0.000809  1
  U  U6  1  0.504852  0.000809  0.589543  1
  U  U7  1  0.409769  0.409769  0.409769  1
  H  H8  1  0.658448  0.958713  0.367148  1
  H  H9  1  0.207420  0.305499  0.835842  1
  H  H10  1  0.177280  0.392324  0.536580  1
  H  H11  1  0.081248  0.273590  0.105799  1
  H  H12  1  0.273590  0.105799  0.081248  1
  H  H13  1  0.105799  0.081248  0.273590  1
  H  H14  1  0.474634  0.147734  0.891596  1
  H  H15  1  0.742820  0.358123  0.820802  1
  H  H16  1  0.625957  0.372068  0.246706  1
  H  H17  1  0.246706  0.625957  0.372068  1
  H  H18  1  0.752367  0.875723  0.121720  1
  H  H19  1  0.121720  0.752367  0.875723  1
  H  H20  1  0.372068  0.246706  0.625957  1
  H  H21  1  0.875723  0.121720  0.752367  1
  H  H22  1  0.782371  0.603885  0.640703  1
  H  H23  1  0.305499  0.835842  0.207420  1
  H  H24  1  0.367148  0.658448  0.958713  1
  H  H25  1  0.958713  0.367148  0.658448  1
  H  H26  1  0.536580  0.177280  0.392324  1
  H  H27  1  0.392324  0.536580  0.177280  1
  H  H28  1  0.835842  0.207420  0.305499  1
  H  H29  1  0.922280  0.694622  0.029110  1
  H  H30  1  0.820802  0.742820  0.358123  1
  H  H31  1  0.147734  0.891596  0.474634  1
  H  H32  1  0.694622  0.029110  0.922280  1
  H  H33  1  0.358123  0.820802  0.742820  1
  H  H34  1  0.891596  0.474634  0.147734  1
  H  H35  1  0.640703  0.782371  0.603885  1
  H  H36  1  0.603885  0.640703  0.782371  1
  H  H37  1  0.029110  0.922280  0.694622  1
