# generated using pymatgen
data_Nd3Th(ScPt)4
_symmetry_space_group_name_H-M   'P 1'
_cell_length_a   4.67899500
_cell_length_b   7.13914801
_cell_length_c   8.60841106
_cell_angle_alpha   89.60947505
_cell_angle_beta   90.00000000
_cell_angle_gamma   90.00000000
_symmetry_Int_Tables_number   1
_chemical_formula_structural   Nd3Th(ScPt)4
_chemical_formula_sum   'Nd3 Th1 Sc4 Pt4'
_cell_volume   287.54900919
_cell_formula_units_Z   1
loop_
 _symmetry_equiv_pos_site_id
 _symmetry_equiv_pos_as_xyz
  1  'x, y, z'
loop_
 _atom_site_type_symbol
 _atom_site_label
 _atom_site_symmetry_multiplicity
 _atom_site_fract_x
 _atom_site_fract_y
 _atom_site_fract_z
 _atom_site_occupancy
  Nd  Nd0  1  0.250000  0.983252  0.321905  1
  Nd  Nd1  1  0.750000  0.015227  0.677214  1
  Nd  Nd2  1  0.250000  0.485068  0.181822  1
  Th  Th3  1  0.750000  0.511888  0.826120  1
  Sc  Sc4  1  0.750000  0.638859  0.427413  1
  Sc  Sc5  1  0.250000  0.360009  0.570251  1
  Sc  Sc6  1  0.750000  0.139431  0.075953  1
  Sc  Sc7  1  0.250000  0.863933  0.925621  1
  Pt  Pt8  1  0.250000  0.244824  0.904525  1
  Pt  Pt9  1  0.750000  0.760787  0.087386  1
  Pt  Pt10  1  0.250000  0.734028  0.596257  1
  Pt  Pt11  1  0.750000  0.262693  0.405533  1
