# generated using pymatgen
data_Hf5(In2Fe)2
_symmetry_space_group_name_H-M   'P 1'
_cell_length_a   3.25806400
_cell_length_b   7.57556300
_cell_length_c   17.27955100
_cell_angle_alpha   90.00000000
_cell_angle_beta   90.00000000
_cell_angle_gamma   90.00000000
_symmetry_Int_Tables_number   1
_chemical_formula_structural   Hf5(In2Fe)2
_chemical_formula_sum   'Hf10 In8 Fe4'
_cell_volume   426.48815981
_cell_formula_units_Z   2
loop_
 _symmetry_equiv_pos_site_id
 _symmetry_equiv_pos_as_xyz
  1  'x, y, z'
loop_
 _atom_site_type_symbol
 _atom_site_label
 _atom_site_symmetry_multiplicity
 _atom_site_fract_x
 _atom_site_fract_y
 _atom_site_fract_z
 _atom_site_occupancy
  Hf  Hf0  1  0.000000  0.261106  0.224007  1
  Hf  Hf1  1  0.000000  0.634094  0.086204  1
  Hf  Hf2  1  0.000000  0.761106  0.275993  1
  Hf  Hf3  1  0.000000  0.865906  0.586204  1
  Hf  Hf4  1  0.000000  0.238894  0.724007  1
  Hf  Hf5  1  0.000000  0.738894  0.775993  1
  Hf  Hf6  1  0.000000  0.134094  0.413796  1
  Hf  Hf7  1  0.000000  0.000000  0.000000  1
  Hf  Hf8  1  0.000000  0.365906  0.913796  1
  Hf  Hf9  1  0.000000  0.500000  0.500000  1
  In  In10  1  0.500000  0.803073  0.432133  1
  In  In11  1  0.500000  0.696927  0.932133  1
  In  In12  1  0.500000  0.059010  0.848755  1
  In  In13  1  0.500000  0.559010  0.651245  1
  In  In14  1  0.500000  0.196927  0.567867  1
  In  In15  1  0.500000  0.940990  0.151245  1
  In  In16  1  0.500000  0.440990  0.348755  1
  In  In17  1  0.500000  0.303073  0.067867  1
  Fe  Fe18  1  0.500000  0.454647  0.806565  1
  Fe  Fe19  1  0.500000  0.545353  0.193435  1
  Fe  Fe20  1  0.500000  0.954647  0.693435  1
  Fe  Fe21  1  0.500000  0.045353  0.306565  1
