# generated using pymatgen
data_SrYbPa8O20
_symmetry_space_group_name_H-M   'P 1'
_cell_length_a   6.69327842
_cell_length_b   7.72717236
_cell_length_c   8.63004248
_cell_angle_alpha   102.71745040
_cell_angle_beta   97.15830404
_cell_angle_gamma   107.04104307
_symmetry_Int_Tables_number   1
_chemical_formula_structural   SrYbPa8O20
_chemical_formula_sum   'Sr1 Yb1 Pa8 O20'
_cell_volume   407.63177219
_cell_formula_units_Z   1
loop_
 _symmetry_equiv_pos_site_id
 _symmetry_equiv_pos_as_xyz
  1  'x, y, z'
loop_
 _atom_site_type_symbol
 _atom_site_label
 _atom_site_symmetry_multiplicity
 _atom_site_fract_x
 _atom_site_fract_y
 _atom_site_fract_z
 _atom_site_occupancy
  Sr  Sr0  1  0.800727  0.602597  0.603639  1
  Yb  Yb1  1  0.000281  0.999533  0.999105  1
  Pa  Pa2  1  0.002221  0.501344  0.998972  1
  Pa  Pa3  1  0.599439  0.198943  0.199062  1
  Pa  Pa4  1  0.798875  0.098719  0.604145  1
  Pa  Pa5  1  0.605115  0.702022  0.199830  1
  Pa  Pa6  1  0.198948  0.397947  0.397312  1
  Pa  Pa7  1  0.397478  0.298335  0.800451  1
  Pa  Pa8  1  0.196378  0.899324  0.396526  1
  Pa  Pa9  1  0.399845  0.801249  0.801119  1
  O  O10  1  0.852614  0.305144  0.442244  1
  O  O11  1  0.640039  0.923422  0.057439  1
  O  O12  1  0.851634  0.840777  0.441327  1
  O  O13  1  0.947732  0.765726  0.153284  1
  O  O14  1  0.424923  0.516134  0.654494  1
  O  O15  1  0.651813  0.426889  0.050616  1
  O  O16  1  0.743728  0.358015  0.760334  1
  O  O17  1  0.254197  0.125588  0.256741  1
  O  O18  1  0.949167  0.285770  0.151575  1
  O  O19  1  0.544173  0.972371  0.351179  1
  O  O20  1  0.076067  0.720956  0.861527  1
  O  O21  1  0.440331  0.026701  0.645637  1
  O  O22  1  0.731696  0.893027  0.752593  1
  O  O23  1  0.359756  0.573380  0.955385  1
  O  O24  1  0.251632  0.627014  0.245646  1
  O  O25  1  0.059156  0.235863  0.845426  1
  O  O26  1  0.535857  0.468888  0.334972  1
  O  O27  1  0.149902  0.172376  0.550039  1
  O  O28  1  0.366504  0.081980  0.948386  1
  O  O29  1  0.169770  0.679964  0.540997  1
