# generated using pymatgen
data_Na2Ag(SeO4)2
_symmetry_space_group_name_H-M   'P 1'
_cell_length_a   5.17956474
_cell_length_b   6.19556177
_cell_length_c   7.28476963
_cell_angle_alpha   105.35928585
_cell_angle_beta   85.53807962
_cell_angle_gamma   110.07538032
_symmetry_Int_Tables_number   1
_chemical_formula_structural   Na2Ag(SeO4)2
_chemical_formula_sum   'Na2 Ag1 Se2 O8'
_cell_volume   211.70275983
_cell_formula_units_Z   1
loop_
 _symmetry_equiv_pos_site_id
 _symmetry_equiv_pos_as_xyz
  1  'x, y, z'
loop_
 _atom_site_type_symbol
 _atom_site_label
 _atom_site_symmetry_multiplicity
 _atom_site_fract_x
 _atom_site_fract_y
 _atom_site_fract_z
 _atom_site_occupancy
  Na  Na0  1  0.200395  0.269316  0.187151  1
  Na  Na1  1  0.799605  0.730684  0.812849  1
  Ag  Ag2  1  0.500000  0.000000  0.500000  1
  Se  Se3  1  0.880265  0.680153  0.282574  1
  Se  Se4  1  0.119735  0.319847  0.717426  1
  O  O5  1  0.745714  0.776842  0.497644  1
  O  O6  1  0.196396  0.679687  0.333152  1
  O  O7  1  0.704630  0.399713  0.180417  1
  O  O8  1  0.803604  0.320313  0.666848  1
  O  O9  1  0.897494  0.863653  0.148760  1
  O  O10  1  0.102506  0.136347  0.851240  1
  O  O11  1  0.254286  0.223158  0.502356  1
  O  O12  1  0.295370  0.600287  0.819583  1
