# generated using pymatgen
data_Ba3TbY(PS4)4
_symmetry_space_group_name_H-M   'P 1'
_cell_length_a   10.42277402
_cell_length_b   12.85886201
_cell_length_c   19.46122302
_cell_angle_alpha   89.99979456
_cell_angle_beta   89.99422366
_cell_angle_gamma   90.00346726
_symmetry_Int_Tables_number   1
_chemical_formula_structural   Ba3TbY(PS4)4
_chemical_formula_sum   'Ba12 Tb4 Y4 P16 S64'
_cell_volume   2608.29064727
_cell_formula_units_Z   4
loop_
 _symmetry_equiv_pos_site_id
 _symmetry_equiv_pos_as_xyz
  1  'x, y, z'
loop_
 _atom_site_type_symbol
 _atom_site_label
 _atom_site_symmetry_multiplicity
 _atom_site_fract_x
 _atom_site_fract_y
 _atom_site_fract_z
 _atom_site_occupancy
  Ba  Ba0  1  0.289716  0.106115  0.272746  1
  Ba  Ba1  1  0.116126  0.250016  0.999993  1
  Ba  Ba2  1  0.210284  0.606031  0.227287  1
  Ba  Ba3  1  0.616102  0.250005  0.499997  1
  Ba  Ba4  1  0.710279  0.606043  0.272696  1
  Ba  Ba5  1  0.210284  0.893899  0.772694  1
  Ba  Ba6  1  0.789718  0.393944  0.772747  1
  Ba  Ba7  1  0.789720  0.106125  0.227271  1
  Ba  Ba8  1  0.883868  0.749985  0.000007  1
  Ba  Ba9  1  0.710285  0.893940  0.727270  1
  Ba  Ba10  1  0.289722  0.393901  0.727288  1
  Ba  Ba11  1  0.383846  0.749995  0.500003  1
  Tb  Tb12  1  0.872156  0.612549  0.573516  1
  Tb  Tb13  1  0.627848  0.112595  0.926484  1
  Tb  Tb14  1  0.372153  0.887406  0.073517  1
  Tb  Tb15  1  0.872150  0.887454  0.426477  1
  Y  Y16  1  0.372026  0.612563  0.926437  1
  Y  Y17  1  0.627976  0.387437  0.073561  1
  Y  Y18  1  0.127972  0.387385  0.426446  1
  Y  Y19  1  0.127977  0.112613  0.573563  1
  P  P20  1  0.996116  0.140052  0.397880  1
  P  P21  1  0.495980  0.360071  0.897881  1
  P  P22  1  0.996127  0.359950  0.602127  1
  P  P23  1  0.503845  0.859950  0.897849  1
  P  P24  1  0.436437  0.048616  0.630930  1
  P  P25  1  0.003999  0.860070  0.602142  1
  P  P26  1  0.003990  0.639929  0.397853  1
  P  P27  1  0.063545  0.548611  0.869062  1
  P  P28  1  0.936575  0.048630  0.869100  1
  P  P29  1  0.436456  0.451386  0.369067  1
  P  P30  1  0.504016  0.639927  0.102119  1
  P  P31  1  0.563429  0.951374  0.369094  1
  P  P32  1  0.063425  0.951378  0.130899  1
  P  P33  1  0.496151  0.140052  0.102150  1
  P  P34  1  0.936456  0.451383  0.130941  1
  P  P35  1  0.563407  0.548624  0.630907  1
  S  S36  1  0.565236  0.730933  0.849746  1
  S  S37  1  0.004892  0.016127  0.332605  1
  S  S38  1  0.385810  0.605262  0.649546  1
  S  S39  1  0.565302  0.768832  0.150375  1
  S  S40  1  0.708898  0.886920  0.308902  1
  S  S41  1  0.614103  0.394763  0.350515  1
  S  S42  1  0.888516  0.098353  0.482856  1
  S  S43  1  0.934783  0.230944  0.650274  1
  S  S44  1  0.179629  0.330140  0.568073  1
  S  S45  1  0.504891  0.016103  0.167395  1
  S  S46  1  0.879690  0.414628  0.032559  1
  S  S47  1  0.379622  0.414581  0.467436  1
  S  S48  1  0.208871  0.886913  0.191102  1
  S  S49  1  0.885794  0.894739  0.149540  1
  S  S50  1  0.569716  0.389381  0.647059  1
  S  S51  1  0.069697  0.110612  0.147040  1
  S  S52  1  0.930301  0.889392  0.852940  1
  S  S53  1  0.430369  0.889368  0.647063  1
  S  S54  1  0.614102  0.105234  0.649476  1
  S  S55  1  0.995386  0.515830  0.332731  1
  S  S56  1  0.619921  0.914625  0.467497  1
  S  S57  1  0.880016  0.085418  0.967491  1
  S  S58  1  0.679750  0.169854  0.068175  1
  S  S59  1  0.430349  0.610627  0.352911  1
  S  S60  1  0.290957  0.386858  0.308944  1
  S  S61  1  0.790933  0.386863  0.191053  1
  S  S62  1  0.888535  0.401642  0.517155  1
  S  S63  1  0.679547  0.330427  0.931937  1
  S  S64  1  0.179626  0.169851  0.431924  1
  S  S65  1  0.708887  0.613086  0.691098  1
  S  S66  1  0.495393  0.515854  0.167273  1
  S  S67  1  0.995372  0.984156  0.667275  1
  S  S68  1  0.111657  0.598227  0.482764  1
  S  S69  1  0.611602  0.598178  0.017165  1
  S  S70  1  0.065355  0.768842  0.349627  1
  S  S71  1  0.504602  0.484137  0.832723  1
  S  S72  1  0.120308  0.585377  0.967443  1
  S  S73  1  0.119981  0.914576  0.032509  1
  S  S74  1  0.111673  0.901780  0.517226  1
  S  S75  1  0.114090  0.394764  0.149485  1
  S  S76  1  0.434702  0.231161  0.849629  1
  S  S77  1  0.885900  0.605230  0.850512  1
  S  S78  1  0.209049  0.613130  0.808944  1
  S  S79  1  0.820339  0.669583  0.431837  1
  S  S80  1  0.934814  0.269062  0.349744  1
  S  S81  1  0.388400  0.401820  0.982835  1
  S  S82  1  0.004877  0.483887  0.667389  1
  S  S83  1  0.379648  0.085427  0.532561  1
  S  S84  1  0.495109  0.983905  0.832607  1
  S  S85  1  0.930339  0.610636  0.147083  1
  S  S86  1  0.320455  0.669574  0.068064  1
  S  S87  1  0.388465  0.098403  0.017214  1
  S  S88  1  0.619942  0.585367  0.532505  1
  S  S89  1  0.611537  0.901598  0.982786  1
  S  S90  1  0.290950  0.113134  0.691056  1
  S  S91  1  0.569701  0.110621  0.352963  1
  S  S92  1  0.434769  0.269072  0.150249  1
  S  S93  1  0.065322  0.731150  0.650354  1
  S  S94  1  0.114192  0.105270  0.850463  1
  S  S95  1  0.069656  0.389360  0.852938  1
  S  S96  1  0.385810  0.894740  0.350461  1
  S  S97  1  0.791108  0.113096  0.808903  1
  S  S98  1  0.320252  0.830146  0.931823  1
  S  S99  1  0.820340  0.830429  0.568168  1
