# generated using pymatgen
data_Y11HoTc3Pt
_symmetry_space_group_name_H-M   'P 1'
_cell_length_a   6.33041544
_cell_length_b   7.44249428
_cell_length_c   9.23280572
_cell_angle_alpha   90.02726810
_cell_angle_beta   90.11255511
_cell_angle_gamma   90.12738265
_symmetry_Int_Tables_number   1
_chemical_formula_structural   Y11HoTc3Pt
_chemical_formula_sum   'Y11 Ho1 Tc3 Pt1'
_cell_volume   434.99318946
_cell_formula_units_Z   1
loop_
 _symmetry_equiv_pos_site_id
 _symmetry_equiv_pos_as_xyz
  1  'x, y, z'
loop_
 _atom_site_type_symbol
 _atom_site_label
 _atom_site_symmetry_multiplicity
 _atom_site_fract_x
 _atom_site_fract_y
 _atom_site_fract_z
 _atom_site_occupancy
  Y  Y0  1  0.124138  0.039345  0.249616  1
  Y  Y1  1  0.629683  0.454885  0.750464  1
  Y  Y2  1  0.371792  0.543199  0.249772  1
  Y  Y3  1  0.869678  0.964289  0.750357  1
  Y  Y4  1  0.167758  0.319219  0.941018  1
  Y  Y5  1  0.829357  0.675104  0.432955  1
  Y  Y6  1  0.337087  0.827587  0.560627  1
  Y  Y7  1  0.337425  0.827495  0.939434  1
  Y  Y8  1  0.829246  0.675437  0.067236  1
  Y  Y9  1  0.168344  0.319397  0.559365  1
  Y  Y10  1  0.665155  0.176912  0.435741  1
  Ho  Ho11  1  0.665410  0.176507  0.064547  1
  Tc  Tc12  1  0.961657  0.385645  0.249053  1
  Tc  Tc13  1  0.458208  0.114511  0.751098  1
  Tc  Tc14  1  0.539452  0.886599  0.248862  1
  Pt  Pt15  1  0.045606  0.613868  0.749855  1
