# generated using pymatgen
data_Tb2AlB2Rh5
_symmetry_space_group_name_H-M   'P 1'
_cell_length_a   9.52988000
_cell_length_b   9.52988000
_cell_length_c   3.20277000
_cell_angle_alpha   90.00000000
_cell_angle_beta   90.00000000
_cell_angle_gamma   90.00000000
_symmetry_Int_Tables_number   1
_chemical_formula_structural   Tb2AlB2Rh5
_chemical_formula_sum   'Tb4 Al2 B4 Rh10'
_cell_volume   290.87112856
_cell_formula_units_Z   2
loop_
 _symmetry_equiv_pos_site_id
 _symmetry_equiv_pos_as_xyz
  1  'x, y, z'
loop_
 _atom_site_type_symbol
 _atom_site_label
 _atom_site_symmetry_multiplicity
 _atom_site_fract_x
 _atom_site_fract_y
 _atom_site_fract_z
 _atom_site_occupancy
  Tb  Tb0  1  0.825184  0.325184  0.000000  1
  Tb  Tb1  1  0.325184  0.174816  0.000000  1
  Tb  Tb2  1  0.674816  0.825184  0.000000  1
  Tb  Tb3  1  0.174816  0.674816  0.000000  1
  Al  Al4  1  0.000000  0.000000  0.000000  1
  Al  Al5  1  0.500000  0.500000  0.000000  1
  B  B6  1  0.621753  0.121753  0.000000  1
  B  B7  1  0.121753  0.378247  0.000000  1
  B  B8  1  0.878247  0.621753  0.000000  1
  B  B9  1  0.378247  0.878247  0.000000  1
  Rh  Rh10  1  0.070647  0.219100  0.500000  1
  Rh  Rh11  1  0.219100  0.929353  0.500000  1
  Rh  Rh12  1  0.780900  0.070647  0.500000  1
  Rh  Rh13  1  0.929353  0.780900  0.500000  1
  Rh  Rh14  1  0.429353  0.719100  0.500000  1
  Rh  Rh15  1  0.570647  0.280900  0.500000  1
  Rh  Rh16  1  0.719100  0.570647  0.500000  1
  Rh  Rh17  1  0.280900  0.429353  0.500000  1
  Rh  Rh18  1  0.500000  0.000000  0.500000  1
  Rh  Rh19  1  0.000000  0.500000  0.500000  1
