# generated using pymatgen
data_Nd3Cd3SiGeAu
_symmetry_space_group_name_H-M   'P 1'
_cell_length_a   7.44922000
_cell_length_b   7.44922108
_cell_length_c   4.46163300
_cell_angle_alpha   90.00000000
_cell_angle_beta   90.00000000
_cell_angle_gamma   119.99999523
_symmetry_Int_Tables_number   1
_chemical_formula_structural   Nd3Cd3SiGeAu
_chemical_formula_sum   'Nd3 Cd3 Si1 Ge1 Au1'
_cell_volume   214.41055462
_cell_formula_units_Z   1
loop_
 _symmetry_equiv_pos_site_id
 _symmetry_equiv_pos_as_xyz
  1  'x, y, z'
loop_
 _atom_site_type_symbol
 _atom_site_label
 _atom_site_symmetry_multiplicity
 _atom_site_fract_x
 _atom_site_fract_y
 _atom_site_fract_z
 _atom_site_occupancy
  Nd  Nd0  1  0.586664  0.001799  0.000000  1
  Nd  Nd1  1  0.998201  0.584865  0.000000  1
  Nd  Nd2  1  0.415135  0.413336  0.000000  1
  Cd  Cd3  1  0.251293  0.002261  0.500000  1
  Cd  Cd4  1  0.997739  0.249032  0.500000  1
  Cd  Cd5  1  0.750968  0.748707  0.500000  1
  Si  Si6  1  0.666667  0.333333  0.500000  1
  Ge  Ge7  1  0.333333  0.666667  0.500000  1
  Au  Au8  1  0.000000  0.000000  0.000000  1
