# generated using pymatgen
data_Tb5NdCo16(ReP6)2
_symmetry_space_group_name_H-M   'P 1'
_cell_length_a   3.73826500
_cell_length_b   10.54759000
_cell_length_c   12.26868800
_cell_angle_alpha   90.00000000
_cell_angle_beta   90.00000000
_cell_angle_gamma   90.00000000
_symmetry_Int_Tables_number   1
_chemical_formula_structural   Tb5NdCo16(ReP6)2
_chemical_formula_sum   'Tb5 Nd1 Co16 Re2 P12'
_cell_volume   483.75052199
_cell_formula_units_Z   1
loop_
 _symmetry_equiv_pos_site_id
 _symmetry_equiv_pos_as_xyz
  1  'x, y, z'
loop_
 _atom_site_type_symbol
 _atom_site_label
 _atom_site_symmetry_multiplicity
 _atom_site_fract_x
 _atom_site_fract_y
 _atom_site_fract_z
 _atom_site_occupancy
  Tb  Tb0  1  0.000000  0.500000  0.523665  1
  Tb  Tb1  1  0.500000  0.817598  0.204947  1
  Tb  Tb2  1  0.500000  0.182402  0.204947  1
  Tb  Tb3  1  0.000000  0.681884  0.794418  1
  Tb  Tb4  1  0.000000  0.318116  0.794418  1
  Nd  Nd5  1  0.500000  0.000000  0.475867  1
  Co  Co6  1  0.500000  0.500000  0.702855  1
  Co  Co7  1  0.000000  0.000000  0.295592  1
  Co  Co8  1  0.000000  0.500000  0.987822  1
  Co  Co9  1  0.500000  0.000000  0.012024  1
  Co  Co10  1  0.500000  0.332653  0.990184  1
  Co  Co11  1  0.500000  0.667347  0.990184  1
  Co  Co12  1  0.000000  0.167958  0.009875  1
  Co  Co13  1  0.000000  0.832042  0.009875  1
  Co  Co14  1  0.500000  0.298624  0.430284  1
  Co  Co15  1  0.500000  0.701376  0.430284  1
  Co  Co16  1  0.000000  0.206041  0.569791  1
  Co  Co17  1  0.000000  0.793959  0.569791  1
  Co  Co18  1  0.500000  0.879320  0.710410  1
  Co  Co19  1  0.500000  0.120680  0.710410  1
  Co  Co20  1  0.000000  0.619711  0.290212  1
  Co  Co21  1  0.000000  0.380289  0.290212  1
  Re  Re22  1  0.500000  0.500000  0.155679  1
  Re  Re23  1  0.000000  0.000000  0.845628  1
  P  P24  1  0.500000  0.500000  0.880991  1
  P  P25  1  0.000000  0.000000  0.118441  1
  P  P26  1  0.500000  0.500000  0.347934  1
  P  P27  1  0.000000  0.000000  0.654810  1
  P  P28  1  0.500000  0.311493  0.615880  1
  P  P29  1  0.500000  0.688507  0.615880  1
  P  P30  1  0.000000  0.192004  0.383032  1
  P  P31  1  0.000000  0.807996  0.383032  1
  P  P32  1  0.500000  0.845627  0.893424  1
  P  P33  1  0.500000  0.154373  0.893424  1
  P  P34  1  0.000000  0.653652  0.106889  1
  P  P35  1  0.000000  0.346348  0.106889  1
