# generated using pymatgen
data_Ho5Tl2In2CuNi
_symmetry_space_group_name_H-M   'P 1'
_cell_length_a   8.05899421
_cell_length_b   18.10261491
_cell_length_c   3.58036100
_cell_angle_alpha   90.00000000
_cell_angle_beta   90.00000000
_cell_angle_gamma   90.17515734
_symmetry_Int_Tables_number   1
_chemical_formula_structural   Ho5Tl2In2CuNi
_chemical_formula_sum   'Ho10 Tl4 In4 Cu2 Ni2'
_cell_volume   522.33237507
_cell_formula_units_Z   2
loop_
 _symmetry_equiv_pos_site_id
 _symmetry_equiv_pos_as_xyz
  1  'x, y, z'
loop_
 _atom_site_type_symbol
 _atom_site_label
 _atom_site_symmetry_multiplicity
 _atom_site_fract_x
 _atom_site_fract_y
 _atom_site_fract_z
 _atom_site_occupancy
  Ho  Ho0  1  0.500000  0.500000  0.000000  1
  Ho  Ho1  1  0.000000  0.000000  0.000000  1
  Ho  Ho2  1  0.764406  0.281760  0.000000  1
  Ho  Ho3  1  0.235594  0.718240  0.000000  1
  Ho  Ho4  1  0.757372  0.778112  0.000000  1
  Ho  Ho5  1  0.242628  0.221888  0.000000  1
  Ho  Ho6  1  0.623735  0.085897  0.000000  1
  Ho  Ho7  1  0.376265  0.914103  0.000000  1
  Ho  Ho8  1  0.879454  0.588558  0.000000  1
  Ho  Ho9  1  0.120546  0.411442  0.000000  1
  Tl  Tl10  1  0.703042  0.931228  0.500000  1
  Tl  Tl11  1  0.296958  0.068772  0.500000  1
  Tl  Tl12  1  0.797427  0.433305  0.500000  1
  Tl  Tl13  1  0.202573  0.566695  0.500000  1
  In  In14  1  0.569873  0.651352  0.500000  1
  In  In15  1  0.430127  0.348648  0.500000  1
  In  In16  1  0.928717  0.151186  0.500000  1
  In  In17  1  0.071283  0.848814  0.500000  1
  Cu  Cu18  1  0.540180  0.200500  0.500000  1
  Cu  Cu19  1  0.459820  0.799500  0.500000  1
  Ni  Ni20  1  0.959885  0.698253  0.500000  1
  Ni  Ni21  1  0.040115  0.301747  0.500000  1
