# generated using pymatgen
data_Pm4Ho(MoO4)3
_symmetry_space_group_name_H-M   'P 1'
_cell_length_a   5.64628664
_cell_length_b   5.96196443
_cell_length_c   8.19372551
_cell_angle_alpha   90.54181795
_cell_angle_beta   89.72742663
_cell_angle_gamma   89.95914492
_symmetry_Int_Tables_number   1
_chemical_formula_structural   Pm4Ho(MoO4)3
_chemical_formula_sum   'Pm4 Ho1 Mo3 O12'
_cell_volume   275.80952202
_cell_formula_units_Z   1
loop_
 _symmetry_equiv_pos_site_id
 _symmetry_equiv_pos_as_xyz
  1  'x, y, z'
loop_
 _atom_site_type_symbol
 _atom_site_label
 _atom_site_symmetry_multiplicity
 _atom_site_fract_x
 _atom_site_fract_y
 _atom_site_fract_z
 _atom_site_occupancy
  Pm  Pm0  1  0.982557  0.063733  0.255341  1
  Pm  Pm1  1  0.520918  0.560706  0.255679  1
  Pm  Pm2  1  0.479082  0.439294  0.744321  1
  Pm  Pm3  1  0.017442  0.936267  0.744659  1
  Ho  Ho4  1  0.500000  0.000000  0.000000  1
  Mo  Mo5  1  0.000000  0.500001  0.000000  1
  Mo  Mo6  1  0.500000  0.000000  0.500000  1
  Mo  Mo7  1  0.000000  0.500001  0.500000  1
  O  O8  1  0.692039  0.311919  0.070120  1
  O  O9  1  0.818799  0.806172  0.068597  1
  O  O10  1  0.129105  0.442884  0.250533  1
  O  O11  1  0.371085  0.942060  0.255754  1
  O  O12  1  0.689391  0.305686  0.436498  1
  O  O13  1  0.811685  0.805038  0.437191  1
  O  O14  1  0.188316  0.194962  0.562810  1
  O  O15  1  0.310610  0.694314  0.563503  1
  O  O16  1  0.628915  0.057940  0.744246  1
  O  O17  1  0.870896  0.557116  0.749467  1
  O  O18  1  0.181202  0.193828  0.931402  1
  O  O19  1  0.307962  0.688081  0.929879  1
