# generated using pymatgen
data_Np8B24OsRu3
_symmetry_space_group_name_H-M   'P 1'
_cell_length_a   3.55741800
_cell_length_b   9.36056506
_cell_length_c   11.37595607
_cell_angle_alpha   89.98704125
_cell_angle_beta   90.00000000
_cell_angle_gamma   90.00000000
_symmetry_Int_Tables_number   1
_chemical_formula_structural   Np8B24OsRu3
_chemical_formula_sum   'Np8 B24 Os1 Ru3'
_cell_volume   378.81298696
_cell_formula_units_Z   1
loop_
 _symmetry_equiv_pos_site_id
 _symmetry_equiv_pos_as_xyz
  1  'x, y, z'
loop_
 _atom_site_type_symbol
 _atom_site_label
 _atom_site_symmetry_multiplicity
 _atom_site_fract_x
 _atom_site_fract_y
 _atom_site_fract_z
 _atom_site_occupancy
  Np  Np0  1  0.000000  0.338368  0.406731  1
  Np  Np1  1  0.000000  0.661725  0.593255  1
  Np  Np2  1  0.000000  0.838247  0.093171  1
  Np  Np3  1  0.000000  0.161535  0.906778  1
  Np  Np4  1  0.000000  0.959872  0.400989  1
  Np  Np5  1  0.000000  0.040745  0.599247  1
  Np  Np6  1  0.000000  0.459210  0.099129  1
  Np  Np7  1  0.000000  0.540435  0.900623  1
  B  B8  1  0.500000  0.551854  0.432164  1
  B  B9  1  0.500000  0.447885  0.567845  1
  B  B10  1  0.500000  0.052070  0.067822  1
  B  B11  1  0.500000  0.948050  0.932194  1
  B  B12  1  0.500000  0.743324  0.423680  1
  B  B13  1  0.500000  0.257025  0.576474  1
  B  B14  1  0.500000  0.242971  0.076384  1
  B  B15  1  0.500000  0.756995  0.923484  1
  B  B16  1  0.500000  0.806684  0.274139  1
  B  B17  1  0.500000  0.193236  0.725970  1
  B  B18  1  0.500000  0.306748  0.225883  1
  B  B19  1  0.500000  0.693205  0.774129  1
  B  B20  1  0.500000  0.647340  0.188473  1
  B  B21  1  0.500000  0.352442  0.811186  1
  B  B22  1  0.500000  0.147546  0.311361  1
  B  B23  1  0.500000  0.852578  0.688802  1
  B  B24  1  0.500000  0.989142  0.220723  1
  B  B25  1  0.500000  0.010963  0.779443  1
  B  B26  1  0.500000  0.488849  0.279274  1
  B  B27  1  0.500000  0.510851  0.720754  1
  B  B28  1  0.500000  0.644868  0.039995  1
  B  B29  1  0.500000  0.354730  0.959703  1
  B  B30  1  0.500000  0.145332  0.459836  1
  B  B31  1  0.500000  0.855314  0.540285  1
  Os  Os32  1  0.000000  0.647059  0.319569  1
  Ru  Ru33  1  0.000000  0.352678  0.680350  1
  Ru  Ru34  1  0.000000  0.147422  0.180607  1
  Ru  Ru35  1  0.000000  0.852700  0.819548  1
