# generated using pymatgen
data_Nd2Y4TcSb2
_symmetry_space_group_name_H-M   'P 1'
_cell_length_a   8.33215900
_cell_length_b   8.26861229
_cell_length_c   4.32255600
_cell_angle_alpha   90.00000000
_cell_angle_beta   90.00000000
_cell_angle_gamma   120.25455077
_symmetry_Int_Tables_number   1
_chemical_formula_structural   Nd2Y4TcSb2
_chemical_formula_sum   'Nd2 Y4 Tc1 Sb2'
_cell_volume   257.24191727
_cell_formula_units_Z   1
loop_
 _symmetry_equiv_pos_site_id
 _symmetry_equiv_pos_as_xyz
  1  'x, y, z'
loop_
 _atom_site_type_symbol
 _atom_site_label
 _atom_site_symmetry_multiplicity
 _atom_site_fract_x
 _atom_site_fract_y
 _atom_site_fract_z
 _atom_site_occupancy
  Nd  Nd0  1  0.002514  0.599214  0.500000  1
  Nd  Nd1  1  0.403299  0.400786  0.500000  1
  Y  Y2  1  0.230671  0.000000  0.000000  1
  Y  Y3  1  0.763486  0.762963  0.000000  1
  Y  Y4  1  0.000522  0.237037  0.000000  1
  Y  Y5  1  0.602166  0.000000  0.500000  1
  Tc  Tc6  1  0.992259  0.000000  0.500000  1
  Sb  Sb7  1  0.339773  0.674463  0.000000  1
  Sb  Sb8  1  0.665310  0.325537  0.000000  1
