# generated using pymatgen
data_Dy4Y2PtI10
_symmetry_space_group_name_H-M   'P 1'
_cell_length_a   7.73146155
_cell_length_b   9.73828672
_cell_length_c   9.76460412
_cell_angle_alpha   107.34568791
_cell_angle_beta   97.00353894
_cell_angle_gamma   104.87417563
_symmetry_Int_Tables_number   1
_chemical_formula_structural   Dy4Y2PtI10
_chemical_formula_sum   'Dy4 Y2 Pt1 I10'
_cell_volume   662.36028285
_cell_formula_units_Z   1
loop_
 _symmetry_equiv_pos_site_id
 _symmetry_equiv_pos_as_xyz
  1  'x, y, z'
loop_
 _atom_site_type_symbol
 _atom_site_label
 _atom_site_symmetry_multiplicity
 _atom_site_fract_x
 _atom_site_fract_y
 _atom_site_fract_z
 _atom_site_occupancy
  Dy  Dy0  1  0.885725  0.960484  0.242170  1
  Dy  Dy1  1  0.114275  0.039516  0.757830  1
  Dy  Dy2  1  0.349842  0.126666  0.166434  1
  Dy  Dy3  1  0.650158  0.873334  0.833566  1
  Y  Y4  1  0.971932  0.288517  0.087419  1
  Y  Y5  1  0.028068  0.711483  0.912581  1
  Pt  Pt6  1  0.000000  0.000000  0.000000  1
  I  I7  1  0.358242  0.455135  0.273707  1
  I  I8  1  0.641758  0.544865  0.726293  1
  I  I9  1  0.913928  0.627583  0.180390  1
  I  I10  1  0.086072  0.372417  0.819610  1
  I  I11  1  0.453277  0.817096  0.092370  1
  I  I12  1  0.546723  0.182904  0.907630  1
  I  I13  1  0.261195  0.088292  0.464005  1
  I  I14  1  0.738805  0.911708  0.535995  1
  I  I15  1  0.782192  0.260617  0.349554  1
  I  I16  1  0.217808  0.739383  0.650446  1
