# generated using pymatgen
data_Lu4Si2B8W
_symmetry_space_group_name_H-M   'P 1'
_cell_length_a   6.99818100
_cell_length_b   6.99818100
_cell_length_c   7.45784800
_cell_angle_alpha   90.00000000
_cell_angle_beta   90.00000000
_cell_angle_gamma   90.00000000
_symmetry_Int_Tables_number   1
_chemical_formula_structural   Lu4Si2B8W
_chemical_formula_sum   'Lu8 Si4 B16 W2'
_cell_volume   365.24465512
_cell_formula_units_Z   2
loop_
 _symmetry_equiv_pos_site_id
 _symmetry_equiv_pos_as_xyz
  1  'x, y, z'
loop_
 _atom_site_type_symbol
 _atom_site_label
 _atom_site_symmetry_multiplicity
 _atom_site_fract_x
 _atom_site_fract_y
 _atom_site_fract_z
 _atom_site_occupancy
  Lu  Lu0  1  0.678857  0.178857  0.236734  1
  Lu  Lu1  1  0.321143  0.821143  0.763266  1
  Lu  Lu2  1  0.321143  0.821143  0.236734  1
  Lu  Lu3  1  0.821143  0.678857  0.236734  1
  Lu  Lu4  1  0.821143  0.678857  0.763266  1
  Lu  Lu5  1  0.678857  0.178857  0.763266  1
  Lu  Lu6  1  0.178857  0.321143  0.763266  1
  Lu  Lu7  1  0.178857  0.321143  0.236734  1
  Si  Si8  1  0.125137  0.625137  0.500000  1
  Si  Si9  1  0.874863  0.374863  0.500000  1
  Si  Si10  1  0.374863  0.125137  0.500000  1
  Si  Si11  1  0.625137  0.874863  0.500000  1
  B  B12  1  0.172781  0.039507  0.000000  1
  B  B13  1  0.827219  0.960493  0.000000  1
  B  B14  1  0.960493  0.172781  0.000000  1
  B  B15  1  0.327219  0.539507  0.000000  1
  B  B16  1  0.039507  0.827219  0.000000  1
  B  B17  1  0.672781  0.460493  0.000000  1
  B  B18  1  0.539507  0.672781  0.000000  1
  B  B19  1  0.460493  0.327219  0.000000  1
  B  B20  1  0.089382  0.589382  0.000000  1
  B  B21  1  0.910618  0.410618  0.000000  1
  B  B22  1  0.410618  0.089382  0.000000  1
  B  B23  1  0.589382  0.910618  0.000000  1
  B  B24  1  0.000000  0.000000  0.180470  1
  B  B25  1  0.000000  0.000000  0.819530  1
  B  B26  1  0.500000  0.500000  0.819530  1
  B  B27  1  0.500000  0.500000  0.180470  1
  W  W28  1  0.000000  0.000000  0.500000  1
  W  W29  1  0.500000  0.500000  0.500000  1
