# generated using pymatgen
data_Sm3Nb(Ga3Pd)8
_symmetry_space_group_name_H-M   'P 1'
_cell_length_a   8.53239645
_cell_length_b   8.53787630
_cell_length_c   8.53022000
_cell_angle_alpha   89.64146100
_cell_angle_beta   89.51123651
_cell_angle_gamma   89.71807080
_symmetry_Int_Tables_number   1
_chemical_formula_structural   Sm3Nb(Ga3Pd)8
_chemical_formula_sum   'Sm3 Nb1 Ga24 Pd8'
_cell_volume   621.37198213
_cell_formula_units_Z   1
loop_
 _symmetry_equiv_pos_site_id
 _symmetry_equiv_pos_as_xyz
  1  'x, y, z'
loop_
 _atom_site_type_symbol
 _atom_site_label
 _atom_site_symmetry_multiplicity
 _atom_site_fract_x
 _atom_site_fract_y
 _atom_site_fract_z
 _atom_site_occupancy
  Sm  Sm0  1  0.000000  0.500000  0.000000  1
  Sm  Sm1  1  0.500000  0.000000  0.000000  1
  Sm  Sm2  1  0.000000  0.000000  0.500000  1
  Nb  Nb3  1  0.500000  0.500000  0.500000  1
  Ga  Ga4  1  0.990421  0.643000  0.643184  1
  Ga  Ga5  1  0.643149  0.643033  0.990381  1
  Ga  Ga6  1  0.643179  0.990504  0.643185  1
  Ga  Ga7  1  0.009579  0.357000  0.356816  1
  Ga  Ga8  1  0.356851  0.356967  0.009619  1
  Ga  Ga9  1  0.356821  0.009496  0.356815  1
  Ga  Ga10  1  0.735998  0.500022  0.264087  1
  Ga  Ga11  1  0.264002  0.499978  0.735913  1
  Ga  Ga12  1  0.499932  0.263731  0.736015  1
  Ga  Ga13  1  0.500068  0.736269  0.263985  1
  Ga  Ga14  1  0.263875  0.736343  0.500068  1
  Ga  Ga15  1  0.736125  0.263657  0.499932  1
  Ga  Ga16  1  0.839066  0.141212  0.839105  1
  Ga  Ga17  1  0.141280  0.838957  0.839089  1
  Ga  Ga18  1  0.839084  0.839045  0.141264  1
  Ga  Ga19  1  0.160934  0.858788  0.160895  1
  Ga  Ga20  1  0.858720  0.161043  0.160911  1
  Ga  Ga21  1  0.160916  0.160955  0.858736  1
  Ga  Ga22  1  0.729536  0.489234  0.729400  1
  Ga  Ga23  1  0.489437  0.729599  0.729060  1
  Ga  Ga24  1  0.729089  0.729481  0.489521  1
  Ga  Ga25  1  0.270464  0.510766  0.270600  1
  Ga  Ga26  1  0.510563  0.270401  0.270940  1
  Ga  Ga27  1  0.270911  0.270519  0.510479  1
  Pd  Pd28  1  0.836105  0.836235  0.835959  1
  Pd  Pd29  1  0.163895  0.163765  0.164041  1
  Pd  Pd30  1  0.664689  0.334859  0.000109  1
  Pd  Pd31  1  0.000195  0.334755  0.664590  1
  Pd  Pd32  1  0.335040  0.000068  0.664895  1
  Pd  Pd33  1  0.335311  0.665141  0.999891  1
  Pd  Pd34  1  0.999805  0.665245  0.335410  1
  Pd  Pd35  1  0.664960  0.999932  0.335105  1
