# generated using pymatgen
data_Dy(TiRe6)4
_symmetry_space_group_name_H-M   'P 1'
_cell_length_a   8.40955642
_cell_length_b   8.40955543
_cell_length_c   8.40955600
_cell_angle_alpha   109.47121959
_cell_angle_beta   109.47121720
_cell_angle_gamma   109.47122645
_symmetry_Int_Tables_number   1
_chemical_formula_structural   Dy(TiRe6)4
_chemical_formula_sum   'Dy1 Ti4 Re24'
_cell_volume   457.82267176
_cell_formula_units_Z   1
loop_
 _symmetry_equiv_pos_site_id
 _symmetry_equiv_pos_as_xyz
  1  'x, y, z'
loop_
 _atom_site_type_symbol
 _atom_site_label
 _atom_site_symmetry_multiplicity
 _atom_site_fract_x
 _atom_site_fract_y
 _atom_site_fract_z
 _atom_site_occupancy
  Dy  Dy0  1  0.000000  0.000000  0.000000  1
  Ti  Ti1  1  0.629236  0.000000  0.000000  1
  Ti  Ti2  1  0.000000  0.629236  0.000000  1
  Ti  Ti3  1  0.000000  0.000000  0.629236  1
  Ti  Ti4  1  0.370764  0.370764  0.370764  1
  Re  Re5  1  0.399954  0.681514  0.000000  1
  Re  Re6  1  0.718440  0.318486  0.318486  1
  Re  Re7  1  0.399954  0.000000  0.681514  1
  Re  Re8  1  0.681514  0.399954  0.000000  1
  Re  Re9  1  0.000000  0.399954  0.681514  1
  Re  Re10  1  0.318486  0.718440  0.318486  1
  Re  Re11  1  0.318486  0.318486  0.718440  1
  Re  Re12  1  0.000000  0.681514  0.399954  1
  Re  Re13  1  0.681514  0.000000  0.399954  1
  Re  Re14  1  0.600046  0.600046  0.281560  1
  Re  Re15  1  0.281560  0.600046  0.600046  1
  Re  Re16  1  0.600046  0.281560  0.600046  1
  Re  Re17  1  0.378347  0.194716  0.000000  1
  Re  Re18  1  0.183631  0.805284  0.805284  1
  Re  Re19  1  0.378347  0.000000  0.194716  1
  Re  Re20  1  0.194716  0.378347  0.000000  1
  Re  Re21  1  0.000000  0.378347  0.194716  1
  Re  Re22  1  0.805284  0.183631  0.805284  1
  Re  Re23  1  0.805284  0.805284  0.183631  1
  Re  Re24  1  0.000000  0.194716  0.378347  1
  Re  Re25  1  0.194716  0.000000  0.378347  1
  Re  Re26  1  0.621653  0.621653  0.816369  1
  Re  Re27  1  0.816369  0.621653  0.621653  1
  Re  Re28  1  0.621653  0.816369  0.621653  1
