# generated using pymatgen
data_Ho10TcRuAu4
_symmetry_space_group_name_H-M   'P 1'
_cell_length_a   11.28827200
_cell_length_b   11.28827200
_cell_length_c   6.27261200
_cell_angle_alpha   90.00000000
_cell_angle_beta   90.00000000
_cell_angle_gamma   90.00000000
_symmetry_Int_Tables_number   1
_chemical_formula_structural   Ho10TcRuAu4
_chemical_formula_sum   'Ho20 Tc2 Ru2 Au8'
_cell_volume   799.28811568
_cell_formula_units_Z   2
loop_
 _symmetry_equiv_pos_site_id
 _symmetry_equiv_pos_as_xyz
  1  'x, y, z'
loop_
 _atom_site_type_symbol
 _atom_site_label
 _atom_site_symmetry_multiplicity
 _atom_site_fract_x
 _atom_site_fract_y
 _atom_site_fract_z
 _atom_site_occupancy
  Ho  Ho0  1  0.300842  0.082343  0.344986  1
  Ho  Ho1  1  0.300842  0.917657  0.844986  1
  Ho  Ho2  1  0.699158  0.082343  0.844986  1
  Ho  Ho3  1  0.699158  0.917657  0.344986  1
  Ho  Ho4  1  0.582343  0.800842  0.844986  1
  Ho  Ho5  1  0.582343  0.199158  0.344986  1
  Ho  Ho6  1  0.417657  0.800842  0.344986  1
  Ho  Ho7  1  0.417657  0.199158  0.844986  1
  Ho  Ho8  1  0.199278  0.417736  0.656618  1
  Ho  Ho9  1  0.199278  0.582264  0.156618  1
  Ho  Ho10  1  0.800722  0.417736  0.156618  1
  Ho  Ho11  1  0.800722  0.582264  0.656618  1
  Ho  Ho12  1  0.917736  0.699278  0.156618  1
  Ho  Ho13  1  0.917736  0.300722  0.656618  1
  Ho  Ho14  1  0.082264  0.699278  0.656618  1
  Ho  Ho15  1  0.082264  0.300722  0.156618  1
  Ho  Ho16  1  0.000000  0.000000  0.498805  1
  Ho  Ho17  1  0.000000  0.000000  0.998805  1
  Ho  Ho18  1  0.500000  0.500000  0.998805  1
  Ho  Ho19  1  0.500000  0.500000  0.498805  1
  Tc  Tc20  1  0.000000  0.500000  0.904907  1
  Tc  Tc21  1  0.000000  0.500000  0.404907  1
  Ru  Ru22  1  0.500000  0.000000  0.097485  1
  Ru  Ru23  1  0.500000  0.000000  0.597485  1
  Au  Au24  1  0.842665  0.154603  0.248394  1
  Au  Au25  1  0.842665  0.845397  0.748394  1
  Au  Au26  1  0.157335  0.154603  0.748394  1
  Au  Au27  1  0.157335  0.845397  0.248394  1
  Au  Au28  1  0.654603  0.342665  0.748394  1
  Au  Au29  1  0.654603  0.657335  0.248394  1
  Au  Au30  1  0.345397  0.342665  0.248394  1
  Au  Au31  1  0.345397  0.657335  0.748394  1
