# generated using pymatgen
data_YEr3(B6Ru)2
_symmetry_space_group_name_H-M   'P 1'
_cell_length_a   3.64025100
_cell_length_b   9.10724701
_cell_length_c   11.48580002
_cell_angle_alpha   89.99378436
_cell_angle_beta   90.00000000
_cell_angle_gamma   90.00000000
_symmetry_Int_Tables_number   1
_chemical_formula_structural   YEr3(B6Ru)2
_chemical_formula_sum   'Y2 Er6 B24 Ru4'
_cell_volume   380.78487853
_cell_formula_units_Z   2
loop_
 _symmetry_equiv_pos_site_id
 _symmetry_equiv_pos_as_xyz
  1  'x, y, z'
loop_
 _atom_site_type_symbol
 _atom_site_label
 _atom_site_symmetry_multiplicity
 _atom_site_fract_x
 _atom_site_fract_y
 _atom_site_fract_z
 _atom_site_occupancy
  Y  Y0  1  0.000000  0.322346  0.414030  1
  Y  Y1  1  0.000000  0.677654  0.585970  1
  Er  Er2  1  0.000000  0.822520  0.085681  1
  Er  Er3  1  0.000000  0.177480  0.914319  1
  Er  Er4  1  0.000000  0.943874  0.372003  1
  Er  Er5  1  0.000000  0.056126  0.627997  1
  Er  Er6  1  0.000000  0.443853  0.127318  1
  Er  Er7  1  0.000000  0.556147  0.872682  1
  B  B8  1  0.500000  0.554506  0.432669  1
  B  B9  1  0.500000  0.445494  0.567331  1
  B  B10  1  0.500000  0.053998  0.066474  1
  B  B11  1  0.500000  0.946002  0.933526  1
  B  B12  1  0.500000  0.748918  0.419192  1
  B  B13  1  0.500000  0.251082  0.580808  1
  B  B14  1  0.500000  0.248370  0.079779  1
  B  B15  1  0.500000  0.751630  0.920221  1
  B  B16  1  0.500000  0.791959  0.265394  1
  B  B17  1  0.500000  0.208041  0.734606  1
  B  B18  1  0.500000  0.291345  0.233399  1
  B  B19  1  0.500000  0.708655  0.766601  1
  B  B20  1  0.500000  0.632229  0.184381  1
  B  B21  1  0.500000  0.367771  0.815619  1
  B  B22  1  0.500000  0.131494  0.314690  1
  B  B23  1  0.500000  0.868506  0.685310  1
  B  B24  1  0.500000  0.983134  0.212524  1
  B  B25  1  0.500000  0.016866  0.787476  1
  B  B26  1  0.500000  0.483852  0.286473  1
  B  B27  1  0.500000  0.516148  0.713527  1
  B  B28  1  0.500000  0.607618  0.029609  1
  B  B29  1  0.500000  0.392382  0.970391  1
  B  B30  1  0.500000  0.106078  0.470724  1
  B  B31  1  0.500000  0.893922  0.529276  1
  Ru  Ru32  1  0.000000  0.638616  0.320198  1
  Ru  Ru33  1  0.000000  0.361384  0.679802  1
  Ru  Ru34  1  0.000000  0.137504  0.178399  1
  Ru  Ru35  1  0.000000  0.862496  0.821601  1
