# generated using pymatgen
data_Tb5Cd2(HgPd)2
_symmetry_space_group_name_H-M   'P 1'
_cell_length_a   7.97653300
_cell_length_b   18.38179600
_cell_length_c   3.66770900
_cell_angle_alpha   90.00000000
_cell_angle_beta   90.00000000
_cell_angle_gamma   90.00000000
_symmetry_Int_Tables_number   1
_chemical_formula_structural   Tb5Cd2(HgPd)2
_chemical_formula_sum   'Tb10 Cd4 Hg4 Pd4'
_cell_volume   537.77050548
_cell_formula_units_Z   2
loop_
 _symmetry_equiv_pos_site_id
 _symmetry_equiv_pos_as_xyz
  1  'x, y, z'
loop_
 _atom_site_type_symbol
 _atom_site_label
 _atom_site_symmetry_multiplicity
 _atom_site_fract_x
 _atom_site_fract_y
 _atom_site_fract_z
 _atom_site_occupancy
  Tb  Tb0  1  0.500000  0.500000  0.000000  1
  Tb  Tb1  1  0.000000  0.000000  0.000000  1
  Tb  Tb2  1  0.742905  0.283540  0.000000  1
  Tb  Tb3  1  0.257095  0.716460  0.000000  1
  Tb  Tb4  1  0.757095  0.783540  0.000000  1
  Tb  Tb5  1  0.242905  0.216460  0.000000  1
  Tb  Tb6  1  0.611693  0.083842  0.000000  1
  Tb  Tb7  1  0.388307  0.916158  0.000000  1
  Tb  Tb8  1  0.888307  0.583842  0.000000  1
  Tb  Tb9  1  0.111693  0.416158  0.000000  1
  Cd  Cd10  1  0.577829  0.649521  0.500000  1
  Cd  Cd11  1  0.422171  0.350479  0.500000  1
  Cd  Cd12  1  0.922171  0.149521  0.500000  1
  Cd  Cd13  1  0.077829  0.850479  0.500000  1
  Hg  Hg14  1  0.716597  0.933218  0.500000  1
  Hg  Hg15  1  0.283403  0.066782  0.500000  1
  Hg  Hg16  1  0.783403  0.433218  0.500000  1
  Hg  Hg17  1  0.216597  0.566782  0.500000  1
  Pd  Pd18  1  0.531829  0.196243  0.500000  1
  Pd  Pd19  1  0.468171  0.803757  0.500000  1
  Pd  Pd20  1  0.968171  0.696243  0.500000  1
  Pd  Pd21  1  0.031829  0.303757  0.500000  1
