# generated using pymatgen
data_Pr5HoAl24Ir5Os3
_symmetry_space_group_name_H-M   'P 1'
_cell_length_a   8.85249300
_cell_length_b   8.91384692
_cell_length_c   9.67319031
_cell_angle_alpha   90.14928121
_cell_angle_beta   90.00000000
_cell_angle_gamma   119.77256880
_symmetry_Int_Tables_number   1
_chemical_formula_structural   Pr5HoAl24Ir5Os3
_chemical_formula_sum   'Pr5 Ho1 Al24 Ir5 Os3'
_cell_volume   662.55190884
_cell_formula_units_Z   1
loop_
 _symmetry_equiv_pos_site_id
 _symmetry_equiv_pos_as_xyz
  1  'x, y, z'
loop_
 _atom_site_type_symbol
 _atom_site_label
 _atom_site_symmetry_multiplicity
 _atom_site_fract_x
 _atom_site_fract_y
 _atom_site_fract_z
 _atom_site_occupancy
  Pr  Pr0  1  0.809091  0.618181  0.749918  1
  Pr  Pr1  1  0.619964  0.811835  0.250489  1
  Pr  Pr2  1  0.380322  0.187883  0.749625  1
  Pr  Pr3  1  0.191870  0.811835  0.250489  1
  Pr  Pr4  1  0.807563  0.187883  0.749625  1
  Ho  Ho5  1  0.194365  0.388731  0.250142  1
  Al  Al6  1  0.332964  0.665928  0.025290  1
  Al  Al7  1  0.665949  0.331898  0.978612  1
  Al  Al8  1  0.665232  0.330463  0.521504  1
  Al  Al9  1  0.333593  0.667187  0.474794  1
  Al  Al10  1  0.163727  0.327453  0.570656  1
  Al  Al11  1  0.835835  0.671671  0.425266  1
  Al  Al12  1  0.670807  0.836412  0.573796  1
  Al  Al13  1  0.836202  0.672405  0.075544  1
  Al  Al14  1  0.327291  0.164242  0.423835  1
  Al  Al15  1  0.163471  0.326941  0.928568  1
  Al  Al16  1  0.165606  0.836412  0.573796  1
  Al  Al17  1  0.326658  0.166068  0.076718  1
  Al  Al18  1  0.836950  0.164242  0.423835  1
  Al  Al19  1  0.671251  0.834774  0.925820  1
  Al  Al20  1  0.839409  0.166068  0.076718  1
  Al  Al21  1  0.163523  0.834774  0.925820  1
  Al  Al22  1  0.564004  0.128008  0.250441  1
  Al  Al23  1  0.435774  0.871546  0.749111  1
  Al  Al24  1  0.875409  0.437114  0.249759  1
  Al  Al25  1  0.126575  0.561331  0.750232  1
  Al  Al26  1  0.561705  0.437114  0.249759  1
  Al  Al27  1  0.434757  0.561331  0.750232  1
  Al  Al28  1  0.005204  0.010407  0.250045  1
  Al  Al29  1  0.998711  0.997424  0.749976  1
  Ir  Ir30  1  0.499525  0.999049  0.000610  1
  Ir  Ir31  1  0.000785  0.498873  0.001522  1
  Ir  Ir32  1  0.498089  0.498873  0.001522  1
  Ir  Ir33  1  0.000702  0.498689  0.498453  1
  Ir  Ir34  1  0.497987  0.498689  0.498453  1
  Os  Os35  1  0.499514  0.999028  0.499043  1
  Os  Os36  1  0.999829  0.999657  0.000318  1
  Os  Os37  1  0.999788  0.999576  0.499663  1
