# generated using pymatgen
data_Cs3Na4Sr2Tl(B3O5)12
_symmetry_space_group_name_H-M   'P 1'
_cell_length_a   8.65495600
_cell_length_b   8.59957341
_cell_length_c   17.46180200
_cell_angle_alpha   87.19431785
_cell_angle_beta   90.00000000
_cell_angle_gamma   90.00000000
_symmetry_Int_Tables_number   1
_chemical_formula_structural   Cs3Na4Sr2Tl(B3O5)12
_chemical_formula_sum   'Cs3 Na4 Sr2 Tl1 B36 O60'
_cell_volume   1298.10530806
_cell_formula_units_Z   1
loop_
 _symmetry_equiv_pos_site_id
 _symmetry_equiv_pos_as_xyz
  1  'x, y, z'
loop_
 _atom_site_type_symbol
 _atom_site_label
 _atom_site_symmetry_multiplicity
 _atom_site_fract_x
 _atom_site_fract_y
 _atom_site_fract_z
 _atom_site_occupancy
  Cs  Cs0  1  0.959407  0.498096  0.695285  1
  Cs  Cs1  1  0.539259  0.497518  0.196137  1
  Cs  Cs2  1  0.039280  0.502876  0.304998  1
  Na  Na3  1  0.261235  0.227216  0.618388  1
  Na  Na4  1  0.757314  0.771364  0.880040  1
  Na  Na5  1  0.738954  0.774242  0.381958  1
  Na  Na6  1  0.238642  0.225698  0.118743  1
  Sr  Sr7  1  0.999593  0.998683  0.999481  1
  Sr  Sr8  1  0.499700  0.999824  0.500522  1
  Tl  Tl9  1  0.450846  0.482241  0.814444  1
  B  B10  1  0.651180  0.174135  0.916739  1
  B  B11  1  0.151106  0.827821  0.582519  1
  B  B12  1  0.348991  0.828126  0.082365  1
  B  B13  1  0.848855  0.171996  0.417437  1
  B  B14  1  0.620724  0.179235  0.057344  1
  B  B15  1  0.120802  0.821478  0.442357  1
  B  B16  1  0.379427  0.819802  0.942126  1
  B  B17  1  0.879023  0.178292  0.557631  1
  B  B18  1  0.395933  0.224459  0.974247  1
  B  B19  1  0.896456  0.777207  0.525878  1
  B  B20  1  0.603498  0.776733  0.025932  1
  B  B21  1  0.103312  0.222762  0.474163  1
  B  B22  1  0.142822  0.330155  0.913708  1
  B  B23  1  0.642290  0.670230  0.586212  1
  B  B24  1  0.857831  0.670198  0.085819  1
  B  B25  1  0.357755  0.329818  0.414161  1
  B  B26  1  0.861639  0.377155  0.905810  1
  B  B27  1  0.361318  0.624641  0.594193  1
  B  B28  1  0.139058  0.624363  0.093071  1
  B  B29  1  0.638825  0.375602  0.406965  1
  B  B30  1  0.041244  0.597189  0.894772  1
  B  B31  1  0.540124  0.404666  0.605865  1
  B  B32  1  0.959830  0.404091  0.104863  1
  B  B33  1  0.459783  0.595919  0.395101  1
  B  B34  1  0.190793  0.952892  0.710739  1
  B  B35  1  0.689775  0.047773  0.788704  1
  B  B36  1  0.809748  0.047096  0.288919  1
  B  B37  1  0.309766  0.952890  0.210884  1
  B  B38  1  0.167246  0.850369  0.844038  1
  B  B39  1  0.665338  0.149735  0.655486  1
  B  B40  1  0.833984  0.149407  0.155430  1
  B  B41  1  0.333964  0.850500  0.344344  1
  B  B42  1  0.176072  0.133585  0.814038  1
  B  B43  1  0.672742  0.866303  0.685725  1
  B  B44  1  0.827210  0.866200  0.185606  1
  B  B45  1  0.327250  0.133759  0.314306  1
  O  O46  1  0.714132  0.330886  0.896151  1
  O  O47  1  0.213971  0.671561  0.602805  1
  O  O48  1  0.286052  0.671373  0.102427  1
  O  O49  1  0.785798  0.328579  0.397308  1
  O  O50  1  0.706346  0.053901  0.866749  1
  O  O51  1  0.207680  0.947581  0.633047  1
  O  O52  1  0.292117  0.947335  0.132957  1
  O  O53  1  0.792378  0.052750  0.366656  1
  O  O54  1  0.701427  0.124860  0.996016  1
  O  O55  1  0.201710  0.877617  0.503120  1
  O  O56  1  0.298710  0.877422  0.002772  1
  O  O57  1  0.798284  0.122196  0.496741  1
  O  O58  1  0.480299  0.192727  0.911091  1
  O  O59  1  0.980768  0.812892  0.588130  1
  O  O60  1  0.519356  0.813072  0.088098  1
  O  O61  1  0.019171  0.187319  0.411779  1
  O  O62  1  0.677381  0.190635  0.129058  1
  O  O63  1  0.177448  0.809446  0.370465  1
  O  O64  1  0.323341  0.807093  0.870253  1
  O  O65  1  0.822249  0.190276  0.629465  1
  O  O66  1  0.467203  0.230820  0.046204  1
  O  O67  1  0.967891  0.768563  0.453738  1
  O  O68  1  0.532166  0.766948  0.953933  1
  O  O69  1  0.032019  0.231179  0.546252  1
  O  O70  1  0.239340  0.253944  0.974250  1
  O  O71  1  0.739914  0.746925  0.525874  1
  O  O72  1  0.760191  0.747144  0.025876  1
  O  O73  1  0.259889  0.253123  0.474083  1
  O  O74  1  0.981024  0.283186  0.931913  1
  O  O75  1  0.480682  0.717002  0.566713  1
  O  O76  1  0.019412  0.716945  0.066141  1
  O  O77  1  0.519199  0.282948  0.433715  1
  O  O78  1  0.163184  0.501767  0.912606  1
  O  O79  1  0.661656  0.498694  0.586722  1
  O  O80  1  0.838214  0.498600  0.086412  1
  O  O81  1  0.338130  0.501405  0.413400  1
  O  O82  1  0.182310  0.284909  0.834874  1
  O  O83  1  0.678825  0.716060  0.664984  1
  O  O84  1  0.822433  0.715471  0.164902  1
  O  O85  1  0.322254  0.284411  0.334944  1
  O  O86  1  0.893037  0.533616  0.884440  1
  O  O87  1  0.392117  0.468296  0.617071  1
  O  O88  1  0.108127  0.467768  0.115579  1
  O  O89  1  0.608074  0.532216  0.384386  1
  O  O90  1  0.044805  0.755888  0.883625  1
  O  O91  1  0.543801  0.245318  0.616364  1
  O  O92  1  0.955984  0.245082  0.116263  1
  O  O93  1  0.456003  0.754834  0.383321  1
  O  O94  1  0.210855  0.104697  0.738010  1
  O  O95  1  0.709651  0.896428  0.761778  1
  O  O96  1  0.791214  0.895328  0.261690  1
  O  O97  1  0.291198  0.104626  0.238049  1
  O  O98  1  0.159229  0.830757  0.760695  1
  O  O99  1  0.658929  0.170526  0.739178  1
  O  O100  1  0.840006  0.169861  0.238949  1
  O  O101  1  0.340161  0.830157  0.260606  1
  O  O102  1  0.131580  0.013459  0.863616  1
  O  O103  1  0.627497  0.987297  0.636616  1
  O  O104  1  0.871500  0.987124  0.136206  1
  O  O105  1  0.371730  0.012823  0.363444  1
