# generated using pymatgen
data_CaYSc2(ReB6)2
_symmetry_space_group_name_H-M   'P 1'
_cell_length_a   3.57362200
_cell_length_b   9.04626179
_cell_length_c   11.40575300
_cell_angle_alpha   90.04795962
_cell_angle_beta   90.00000000
_cell_angle_gamma   90.00000000
_symmetry_Int_Tables_number   1
_chemical_formula_structural   CaYSc2(ReB6)2
_chemical_formula_sum   'Ca2 Y2 Sc4 Re4 B24'
_cell_volume   368.72414312
_cell_formula_units_Z   2
loop_
 _symmetry_equiv_pos_site_id
 _symmetry_equiv_pos_as_xyz
  1  'x, y, z'
loop_
 _atom_site_type_symbol
 _atom_site_label
 _atom_site_symmetry_multiplicity
 _atom_site_fract_x
 _atom_site_fract_y
 _atom_site_fract_z
 _atom_site_occupancy
  Ca  Ca0  1  0.000000  0.323632  0.414967  1
  Ca  Ca1  1  0.000000  0.676368  0.585033  1
  Y  Y2  1  0.000000  0.822395  0.085268  1
  Y  Y3  1  0.000000  0.177605  0.914732  1
  Sc  Sc4  1  0.000000  0.943749  0.367602  1
  Sc  Sc5  1  0.000000  0.056251  0.632398  1
  Sc  Sc6  1  0.000000  0.444766  0.130772  1
  Sc  Sc7  1  0.000000  0.555234  0.869228  1
  Re  Re8  1  0.000000  0.645281  0.316722  1
  Re  Re9  1  0.000000  0.354719  0.683278  1
  Re  Re10  1  0.000000  0.141768  0.182099  1
  Re  Re11  1  0.000000  0.858232  0.817901  1
  B  B12  1  0.500000  0.554693  0.431907  1
  B  B13  1  0.500000  0.445307  0.568093  1
  B  B14  1  0.500000  0.054889  0.067437  1
  B  B15  1  0.500000  0.945111  0.932563  1
  B  B16  1  0.500000  0.755135  0.418205  1
  B  B17  1  0.500000  0.244865  0.581795  1
  B  B18  1  0.500000  0.254833  0.081969  1
  B  B19  1  0.500000  0.745167  0.918031  1
  B  B20  1  0.500000  0.796657  0.263792  1
  B  B21  1  0.500000  0.203343  0.736208  1
  B  B22  1  0.500000  0.296541  0.235571  1
  B  B23  1  0.500000  0.703459  0.764429  1
  B  B24  1  0.500000  0.629725  0.182407  1
  B  B25  1  0.500000  0.370275  0.817593  1
  B  B26  1  0.500000  0.129921  0.317453  1
  B  B27  1  0.500000  0.870079  0.682547  1
  B  B28  1  0.500000  0.982421  0.213460  1
  B  B29  1  0.500000  0.017579  0.786540  1
  B  B30  1  0.500000  0.482574  0.286222  1
  B  B31  1  0.500000  0.517426  0.713778  1
  B  B32  1  0.500000  0.594373  0.025463  1
  B  B33  1  0.500000  0.405627  0.974537  1
  B  B34  1  0.500000  0.091919  0.475181  1
  B  B35  1  0.500000  0.908081  0.524819  1
