# generated using pymatgen
data_Co4Si3GeRu4
_symmetry_space_group_name_H-M   'P 1'
_cell_length_a   3.79131300
_cell_length_b   5.52804409
_cell_length_c   7.04010946
_cell_angle_alpha   89.95875914
_cell_angle_beta   90.00000000
_cell_angle_gamma   90.00000000
_symmetry_Int_Tables_number   1
_chemical_formula_structural   Co4Si3GeRu4
_chemical_formula_sum   'Co4 Si3 Ge1 Ru4'
_cell_volume   147.55041547
_cell_formula_units_Z   1
loop_
 _symmetry_equiv_pos_site_id
 _symmetry_equiv_pos_as_xyz
  1  'x, y, z'
loop_
 _atom_site_type_symbol
 _atom_site_label
 _atom_site_symmetry_multiplicity
 _atom_site_fract_x
 _atom_site_fract_y
 _atom_site_fract_z
 _atom_site_occupancy
  Co  Co0  1  0.000000  0.650063  0.062696  1
  Co  Co1  1  0.000000  0.146517  0.432662  1
  Co  Co2  1  0.500000  0.351923  0.943084  1
  Co  Co3  1  0.500000  0.842700  0.560263  1
  Si  Si4  1  0.000000  0.243472  0.115072  1
  Si  Si5  1  0.000000  0.742131  0.385704  1
  Si  Si6  1  0.500000  0.756430  0.885038  1
  Ge  Ge7  1  0.500000  0.257856  0.614025  1
  Ru  Ru8  1  0.000000  0.536443  0.699722  1
  Ru  Ru9  1  0.000000  0.025986  0.809711  1
  Ru  Ru10  1  0.500000  0.475547  0.299277  1
  Ru  Ru11  1  0.500000  0.970931  0.192747  1
