# generated using pymatgen
data_Tb5Er7Rh4
_symmetry_space_group_name_H-M   'P 1'
_cell_length_a   6.31631061
_cell_length_b   7.16794815
_cell_length_c   9.36674496
_cell_angle_alpha   90.02685297
_cell_angle_beta   89.87422558
_cell_angle_gamma   89.94089108
_symmetry_Int_Tables_number   1
_chemical_formula_structural   Tb5Er7Rh4
_chemical_formula_sum   'Tb5 Er7 Rh4'
_cell_volume   424.07796117
_cell_formula_units_Z   1
loop_
 _symmetry_equiv_pos_site_id
 _symmetry_equiv_pos_as_xyz
  1  'x, y, z'
loop_
 _atom_site_type_symbol
 _atom_site_label
 _atom_site_symmetry_multiplicity
 _atom_site_fract_x
 _atom_site_fract_y
 _atom_site_fract_z
 _atom_site_occupancy
  Tb  Tb0  1  0.671947  0.177793  0.062415  1
  Tb  Tb1  1  0.867004  0.965685  0.749553  1
  Tb  Tb2  1  0.366236  0.534641  0.250295  1
  Tb  Tb3  1  0.633003  0.465918  0.749477  1
  Tb  Tb4  1  0.133707  0.033620  0.250493  1
  Er  Er5  1  0.171515  0.322705  0.936295  1
  Er  Er6  1  0.828198  0.677552  0.436762  1
  Er  Er7  1  0.328177  0.822439  0.563196  1
  Er  Er8  1  0.328061  0.822031  0.936372  1
  Er  Er9  1  0.828591  0.677572  0.063286  1
  Er  Er10  1  0.171462  0.322611  0.563097  1
  Er  Er11  1  0.671527  0.177480  0.437465  1
  Rh  Rh12  1  0.055657  0.616381  0.750267  1
  Rh  Rh13  1  0.555979  0.883001  0.251053  1
  Rh  Rh14  1  0.443838  0.116117  0.748858  1
  Rh  Rh15  1  0.945097  0.384453  0.251117  1
