# generated using pymatgen
data_Er12Th4MgZn3Rh4
_symmetry_space_group_name_H-M   'P 1'
_cell_length_a   9.58059566
_cell_length_b   9.60816284
_cell_length_c   9.60816300
_cell_angle_alpha   59.99999600
_cell_angle_beta   59.90476672
_cell_angle_gamma   59.90477361
_symmetry_Int_Tables_number   1
_chemical_formula_structural   Er12Th4MgZn3Rh4
_chemical_formula_sum   'Er12 Th4 Mg1 Zn3 Rh4'
_cell_volume   624.49877814
_cell_formula_units_Z   1
loop_
 _symmetry_equiv_pos_site_id
 _symmetry_equiv_pos_as_xyz
  1  'x, y, z'
loop_
 _atom_site_type_symbol
 _atom_site_label
 _atom_site_symmetry_multiplicity
 _atom_site_fract_x
 _atom_site_fract_y
 _atom_site_fract_z
 _atom_site_occupancy
  Er  Er0  1  0.811580  0.188269  0.188269  1
  Er  Er1  1  0.185624  0.813855  0.813855  1
  Er  Er2  1  0.185624  0.813855  0.186666  1
  Er  Er3  1  0.811580  0.188269  0.811883  1
  Er  Er4  1  0.185624  0.186666  0.813855  1
  Er  Er5  1  0.811580  0.811883  0.188269  1
  Er  Er6  1  0.929299  0.566990  0.566990  1
  Er  Er7  1  0.565084  0.933892  0.933892  1
  Er  Er8  1  0.565084  0.933892  0.567133  1
  Er  Er9  1  0.929299  0.566990  0.936722  1
  Er  Er10  1  0.565084  0.567133  0.933892  1
  Er  Er11  1  0.929299  0.936722  0.566990  1
  Th  Th12  1  0.354509  0.351651  0.351651  1
  Th  Th13  1  0.354509  0.351651  0.942186  1
  Th  Th14  1  0.354509  0.942186  0.351651  1
  Th  Th15  1  0.934774  0.355075  0.355075  1
  Mg  Mg16  1  0.276804  0.574398  0.574398  1
  Zn  Zn17  1  0.583894  0.586331  0.586331  1
  Zn  Zn18  1  0.583894  0.586331  0.243443  1
  Zn  Zn19  1  0.583894  0.243443  0.586331  1
  Rh  Rh20  1  0.143405  0.144367  0.144367  1
  Rh  Rh21  1  0.143405  0.144367  0.567860  1
  Rh  Rh22  1  0.143405  0.567860  0.144367  1
  Rh  Rh23  1  0.568234  0.143921  0.143921  1
