# generated using pymatgen
data_Os5RhW2
_symmetry_space_group_name_H-M   'P 1'
_cell_length_a   5.55829500
_cell_length_b   5.56473741
_cell_length_c   4.40070700
_cell_angle_alpha   90.00000000
_cell_angle_beta   90.00000000
_cell_angle_gamma   119.96171626
_symmetry_Int_Tables_number   1
_chemical_formula_structural   Os5RhW2
_chemical_formula_sum   'Os5 Rh1 W2'
_cell_volume   117.92523856
_cell_formula_units_Z   1
loop_
 _symmetry_equiv_pos_site_id
 _symmetry_equiv_pos_as_xyz
  1  'x, y, z'
loop_
 _atom_site_type_symbol
 _atom_site_label
 _atom_site_symmetry_multiplicity
 _atom_site_fract_x
 _atom_site_fract_y
 _atom_site_fract_z
 _atom_site_occupancy
  Os  Os0  1  0.833604  0.667208  0.250000  1
  Os  Os1  1  0.173698  0.839769  0.750000  1
  Os  Os2  1  0.666069  0.839769  0.750000  1
  Os  Os3  1  0.333040  0.163900  0.250000  1
  Os  Os4  1  0.830861  0.163900  0.250000  1
  Rh  Rh5  1  0.165259  0.330520  0.750000  1
  W  W6  1  0.334183  0.668367  0.250000  1
  W  W7  1  0.663284  0.326567  0.750000  1
