# generated using pymatgen
data_Y6AlNiRu
_symmetry_space_group_name_H-M   'P 1'
_cell_length_a   8.40596176
_cell_length_b   8.40596219
_cell_length_c   8.40596172
_cell_angle_alpha   112.84028824
_cell_angle_beta   110.55997136
_cell_angle_gamma   105.10855247
_symmetry_Int_Tables_number   1
_chemical_formula_structural   Y6AlNiRu
_chemical_formula_sum   'Y12 Al2 Ni2 Ru2'
_cell_volume   455.07175206
_cell_formula_units_Z   2
loop_
 _symmetry_equiv_pos_site_id
 _symmetry_equiv_pos_as_xyz
  1  'x, y, z'
loop_
 _atom_site_type_symbol
 _atom_site_label
 _atom_site_symmetry_multiplicity
 _atom_site_fract_x
 _atom_site_fract_y
 _atom_site_fract_z
 _atom_site_occupancy
  Y  Y0  1  0.435078  0.241203  0.193875  1
  Y  Y1  1  0.564922  0.758797  0.806125  1
  Y  Y2  1  0.047328  0.241203  0.806125  1
  Y  Y3  1  0.952672  0.758797  0.193875  1
  Y  Y4  1  0.181256  0.280593  0.461849  1
  Y  Y5  1  0.818744  0.719407  0.538151  1
  Y  Y6  1  0.181256  0.719407  0.900663  1
  Y  Y7  1  0.818744  0.280593  0.099337  1
  Y  Y8  1  0.328679  0.640324  0.311646  1
  Y  Y9  1  0.671321  0.359676  0.688354  1
  Y  Y10  1  0.328679  0.017034  0.688354  1
  Y  Y11  1  0.671321  0.982966  0.311646  1
  Al  Al12  1  0.500000  0.500000  0.000000  1
  Al  Al13  1  0.000000  0.000000  0.000000  1
  Ni  Ni14  1  0.116531  0.616531  0.500000  1
  Ni  Ni15  1  0.883469  0.383469  0.500000  1
  Ru  Ru16  1  0.325452  0.000000  0.325452  1
  Ru  Ru17  1  0.674548  0.000000  0.674548  1
