# generated using pymatgen
data_Li4CaYb3Si8
_symmetry_space_group_name_H-M   'P 1'
_cell_length_a   3.80063600
_cell_length_b   7.85554458
_cell_length_c   10.62729205
_cell_angle_alpha   89.98354716
_cell_angle_beta   90.00000000
_cell_angle_gamma   90.00000000
_symmetry_Int_Tables_number   1
_chemical_formula_structural   Li4CaYb3Si8
_chemical_formula_sum   'Li4 Ca1 Yb3 Si8'
_cell_volume   317.28911492
_cell_formula_units_Z   1
loop_
 _symmetry_equiv_pos_site_id
 _symmetry_equiv_pos_as_xyz
  1  'x, y, z'
loop_
 _atom_site_type_symbol
 _atom_site_label
 _atom_site_symmetry_multiplicity
 _atom_site_fract_x
 _atom_site_fract_y
 _atom_site_fract_z
 _atom_site_occupancy
  Li  Li0  1  0.250000  0.999661  0.387824  1
  Li  Li1  1  0.750000  0.999696  0.612032  1
  Li  Li2  1  0.250000  0.500700  0.111885  1
  Li  Li3  1  0.750000  0.499552  0.888166  1
  Ca  Ca4  1  0.750000  0.366197  0.365679  1
  Yb  Yb5  1  0.250000  0.133723  0.865826  1
  Yb  Yb6  1  0.750000  0.865358  0.133570  1
  Yb  Yb7  1  0.250000  0.634619  0.635142  1
  Si  Si8  1  0.750000  0.267081  0.067278  1
  Si  Si9  1  0.250000  0.733040  0.931775  1
  Si  Si10  1  0.750000  0.767396  0.432959  1
  Si  Si11  1  0.250000  0.231360  0.569453  1
  Si  Si12  1  0.750000  0.833578  0.823296  1
  Si  Si13  1  0.250000  0.164583  0.175011  1
  Si  Si14  1  0.750000  0.333479  0.677177  1
  Si  Si15  1  0.250000  0.669975  0.322928  1
