# generated using pymatgen
data_Pu(IO4)2
_symmetry_space_group_name_H-M   'P 1'
_cell_length_a   16.71074400
_cell_length_b   4.25739697
_cell_length_c   5.90658674
_cell_angle_alpha   64.88819859
_cell_angle_beta   90.00000000
_cell_angle_gamma   90.00000000
_symmetry_Int_Tables_number   1
_chemical_formula_structural   Pu(IO4)2
_chemical_formula_sum   'Pu2 I4 O16'
_cell_volume   380.50122146
_cell_formula_units_Z   2
loop_
 _symmetry_equiv_pos_site_id
 _symmetry_equiv_pos_as_xyz
  1  'x, y, z'
loop_
 _atom_site_type_symbol
 _atom_site_label
 _atom_site_symmetry_multiplicity
 _atom_site_fract_x
 _atom_site_fract_y
 _atom_site_fract_z
 _atom_site_occupancy
  Pu  Pu0  1  0.500000  0.500000  0.000000  1
  Pu  Pu1  1  0.000000  0.500000  0.500000  1
  I  I2  1  0.660372  0.905922  0.274432  1
  I  I3  1  0.160372  0.094078  0.225568  1
  I  I4  1  0.339628  0.094078  0.725568  1
  I  I5  1  0.839628  0.905922  0.774432  1
  O  O6  1  0.443670  0.338540  0.283889  1
  O  O7  1  0.943670  0.661460  0.216111  1
  O  O8  1  0.556330  0.661460  0.716111  1
  O  O9  1  0.056330  0.338540  0.783889  1
  O  O10  1  0.628483  0.339666  0.248236  1
  O  O11  1  0.128483  0.660334  0.251764  1
  O  O12  1  0.937575  0.921515  0.610881  1
  O  O13  1  0.437575  0.078485  0.889119  1
  O  O14  1  0.062425  0.078485  0.389119  1
  O  O15  1  0.562425  0.921515  0.110881  1
  O  O16  1  0.772255  0.043787  0.510354  1
  O  O17  1  0.272255  0.956213  0.989646  1
  O  O18  1  0.227745  0.956213  0.489646  1
  O  O19  1  0.727745  0.043787  0.010354  1
  O  O20  1  0.871517  0.339666  0.748236  1
  O  O21  1  0.371517  0.660334  0.751764  1
