# generated using pymatgen
data_V(CuPd3)2
_symmetry_space_group_name_H-M   'P 1'
_cell_length_a   6.27571989
_cell_length_b   6.27571943
_cell_length_c   5.84170234
_cell_angle_alpha   96.18979139
_cell_angle_beta   96.18979442
_cell_angle_gamma   143.06037236
_symmetry_Int_Tables_number   1
_chemical_formula_structural   V(CuPd3)2
_chemical_formula_sum   'V1 Cu2 Pd6'
_cell_volume   130.01357474
_cell_formula_units_Z   1
loop_
 _symmetry_equiv_pos_site_id
 _symmetry_equiv_pos_as_xyz
  1  'x, y, z'
loop_
 _atom_site_type_symbol
 _atom_site_label
 _atom_site_symmetry_multiplicity
 _atom_site_fract_x
 _atom_site_fract_y
 _atom_site_fract_z
 _atom_site_occupancy
  V  V0  1  0.000000  0.000000  0.000000  1
  Cu  Cu1  1  0.668086  0.331915  0.000000  1
  Cu  Cu2  1  0.331915  0.668086  0.000000  1
  Pd  Pd3  1  0.653052  0.653052  0.306100  1
  Pd  Pd4  1  0.320210  0.992458  0.312668  1
  Pd  Pd5  1  0.992458  0.320210  0.312668  1
  Pd  Pd6  1  0.679790  0.007542  0.687332  1
  Pd  Pd7  1  0.007542  0.679790  0.687332  1
  Pd  Pd8  1  0.346949  0.346949  0.693900  1
