# generated using pymatgen
data_Hf6Al8Si8RuRh6
_symmetry_space_group_name_H-M   'P 1'
_cell_length_a   8.54986004
_cell_length_b   8.56352747
_cell_length_c   8.56352659
_cell_angle_alpha   59.86222730
_cell_angle_beta   60.05278506
_cell_angle_gamma   60.05277535
_symmetry_Int_Tables_number   1
_chemical_formula_structural   Hf6Al8Si8RuRh6
_chemical_formula_sum   'Hf6 Al8 Si8 Ru1 Rh6'
_cell_volume   443.24149096
_cell_formula_units_Z   1
loop_
 _symmetry_equiv_pos_site_id
 _symmetry_equiv_pos_as_xyz
  1  'x, y, z'
loop_
 _atom_site_type_symbol
 _atom_site_label
 _atom_site_symmetry_multiplicity
 _atom_site_fract_x
 _atom_site_fract_y
 _atom_site_fract_z
 _atom_site_occupancy
  Hf  Hf0  1  0.690452  0.309547  0.309547  1
  Hf  Hf1  1  0.309547  0.690452  0.690452  1
  Hf  Hf2  1  0.309036  0.690039  0.309960  1
  Hf  Hf3  1  0.309036  0.309960  0.690039  1
  Hf  Hf4  1  0.690963  0.309960  0.690039  1
  Hf  Hf5  1  0.690963  0.690039  0.309960  1
  Al  Al6  1  0.120057  0.120773  0.120773  1
  Al  Al7  1  0.119499  0.123508  0.637494  1
  Al  Al8  1  0.638398  0.120773  0.120773  1
  Al  Al9  1  0.119499  0.637494  0.123508  1
  Al  Al10  1  0.879942  0.879226  0.879226  1
  Al  Al11  1  0.880500  0.876491  0.362509  1
  Al  Al12  1  0.880500  0.362509  0.876491  1
  Al  Al13  1  0.361605  0.879226  0.879226  1
  Si  Si14  1  0.340900  0.342936  0.342936  1
  Si  Si15  1  0.341804  0.342008  0.974382  1
  Si  Si16  1  0.973226  0.342936  0.342936  1
  Si  Si17  1  0.341804  0.974382  0.342008  1
  Si  Si18  1  0.659100  0.657064  0.657064  1
  Si  Si19  1  0.658196  0.657992  0.025618  1
  Si  Si20  1  0.658196  0.025618  0.657992  1
  Si  Si21  1  0.026774  0.657064  0.657064  1
  Ru  Ru22  1  0.000000  0.500000  0.500000  1
  Rh  Rh23  1  0.000000  0.000000  0.000000  1
  Rh  Rh24  1  0.500000  0.000000  0.000000  1
  Rh  Rh25  1  0.000000  0.500000  0.000000  1
  Rh  Rh26  1  0.000000  0.000000  0.500000  1
  Rh  Rh27  1  0.500000  0.000000  0.500000  1
  Rh  Rh28  1  0.500000  0.500000  0.000000  1
