# generated using pymatgen
data_Ti12Al3Ga5Pt4(CN)2
_symmetry_space_group_name_H-M   'P 1'
_cell_length_a   8.19817342
_cell_length_b   8.18719196
_cell_length_c   8.18850700
_cell_angle_alpha   59.99469058
_cell_angle_beta   60.03900051
_cell_angle_gamma   60.00503364
_symmetry_Int_Tables_number   1
_chemical_formula_structural   Ti12Al3Ga5Pt4(CN)2
_chemical_formula_sum   'Ti12 Al3 Ga5 Pt4 C2 N2'
_cell_volume   388.74850458
_cell_formula_units_Z   1
loop_
 _symmetry_equiv_pos_site_id
 _symmetry_equiv_pos_as_xyz
  1  'x, y, z'
loop_
 _atom_site_type_symbol
 _atom_site_label
 _atom_site_symmetry_multiplicity
 _atom_site_fract_x
 _atom_site_fract_y
 _atom_site_fract_z
 _atom_site_occupancy
  Ti  Ti0  1  0.813976  0.816003  0.185268  1
  Ti  Ti1  1  0.066730  0.433758  0.434799  1
  Ti  Ti2  1  0.432779  0.067549  0.066383  1
  Ti  Ti3  1  0.065429  0.063938  0.433926  1
  Ti  Ti4  1  0.067937  0.431260  0.065471  1
  Ti  Ti5  1  0.435229  0.066289  0.432874  1
  Ti  Ti6  1  0.183447  0.816582  0.184841  1
  Ti  Ti7  1  0.184718  0.814232  0.815402  1
  Ti  Ti8  1  0.817503  0.182869  0.181310  1
  Ti  Ti9  1  0.815331  0.183837  0.818816  1
  Ti  Ti10  1  0.433865  0.430259  0.067747  1
  Ti  Ti11  1  0.181084  0.183908  0.818944  1
  Al  Al12  1  0.414411  0.414909  0.414182  1
  Al  Al13  1  0.414983  0.415580  0.755443  1
  Al  Al14  1  0.835002  0.495775  0.834268  1
  Ga  Ga15  1  0.410928  0.766757  0.411538  1
  Ga  Ga16  1  0.839040  0.838556  0.483369  1
  Ga  Ga17  1  0.482204  0.839155  0.838979  1
  Ga  Ga18  1  0.839660  0.838949  0.838871  1
  Ga  Ga19  1  0.767823  0.410948  0.410911  1
  Pt  Pt20  1  0.621398  0.127416  0.625643  1
  Pt  Pt21  1  0.625136  0.621540  0.124544  1
  Pt  Pt22  1  0.126173  0.620052  0.626861  1
  Pt  Pt23  1  0.625213  0.621620  0.628662  1
  C  C24  1  0.124822  0.625050  0.125024  1
  C  C25  1  0.125138  0.124679  0.624919  1
  N  N26  1  0.625096  0.124090  0.125412  1
  N  N27  1  0.124945  0.124441  0.125592  1
