# generated using pymatgen
data_Pr7Nd(CdIr)2
_symmetry_space_group_name_H-M   'P 1'
_cell_length_a   10.03456732
_cell_length_b   10.03456676
_cell_length_c   10.02474400
_cell_angle_alpha   60.03238281
_cell_angle_beta   60.03238466
_cell_angle_gamma   60.05895264
_symmetry_Int_Tables_number   1
_chemical_formula_structural   Pr7Nd(CdIr)2
_chemical_formula_sum   'Pr14 Nd2 Cd4 Ir4'
_cell_volume   714.43263540
_cell_formula_units_Z   2
loop_
 _symmetry_equiv_pos_site_id
 _symmetry_equiv_pos_as_xyz
  1  'x, y, z'
loop_
 _atom_site_type_symbol
 _atom_site_label
 _atom_site_symmetry_multiplicity
 _atom_site_fract_x
 _atom_site_fract_y
 _atom_site_fract_z
 _atom_site_occupancy
  Pr  Pr0  1  0.348536  0.954630  0.348417  1
  Pr  Pr1  1  0.954630  0.348536  0.348417  1
  Pr  Pr2  1  0.808834  0.190297  0.191439  1
  Pr  Pr3  1  0.190297  0.808834  0.809430  1
  Pr  Pr4  1  0.190297  0.808834  0.191439  1
  Pr  Pr5  1  0.808834  0.190297  0.809430  1
  Pr  Pr6  1  0.190669  0.190669  0.809331  1
  Pr  Pr7  1  0.808960  0.808960  0.191040  1
  Pr  Pr8  1  0.939569  0.560615  0.561190  1
  Pr  Pr9  1  0.560615  0.939569  0.938625  1
  Pr  Pr10  1  0.560615  0.939569  0.561190  1
  Pr  Pr11  1  0.939569  0.560615  0.938625  1
  Pr  Pr12  1  0.561109  0.561109  0.938891  1
  Pr  Pr13  1  0.939290  0.939290  0.560710  1
  Nd  Nd14  1  0.347736  0.347736  0.347534  1
  Nd  Nd15  1  0.347736  0.347736  0.956993  1
  Cd  Cd16  1  0.579570  0.579570  0.580191  1
  Cd  Cd17  1  0.579570  0.579570  0.260669  1
  Cd  Cd18  1  0.579479  0.260349  0.580086  1
  Cd  Cd19  1  0.260349  0.579479  0.580086  1
  Ir  Ir20  1  0.142691  0.142691  0.139750  1
  Ir  Ir21  1  0.142691  0.142691  0.574868  1
  Ir  Ir22  1  0.143730  0.574622  0.140824  1
  Ir  Ir23  1  0.574622  0.143730  0.140824  1
