# generated using pymatgen
data_Ac2SiTeO4
_symmetry_space_group_name_H-M   'P 1'
_cell_length_a   10.06159399
_cell_length_b   6.65707500
_cell_length_c   8.93630900
_cell_angle_alpha   90.00000000
_cell_angle_beta   86.74521923
_cell_angle_gamma   90.00000000
_symmetry_Int_Tables_number   1
_chemical_formula_structural   Ac2SiTeO4
_chemical_formula_sum   'Ac8 Si4 Te4 O16'
_cell_volume   597.59548217
_cell_formula_units_Z   4
loop_
 _symmetry_equiv_pos_site_id
 _symmetry_equiv_pos_as_xyz
  1  'x, y, z'
loop_
 _atom_site_type_symbol
 _atom_site_label
 _atom_site_symmetry_multiplicity
 _atom_site_fract_x
 _atom_site_fract_y
 _atom_site_fract_z
 _atom_site_occupancy
  Ac  Ac0  1  0.854839  0.192308  0.169886  1
  Ac  Ac1  1  0.391706  0.154216  0.187444  1
  Ac  Ac2  1  0.608295  0.654215  0.312555  1
  Ac  Ac3  1  0.145161  0.692309  0.330114  1
  Ac  Ac4  1  0.854839  0.307692  0.669887  1
  Ac  Ac5  1  0.391706  0.345785  0.687445  1
  Ac  Ac6  1  0.608294  0.845785  0.812554  1
  Ac  Ac7  1  0.145162  0.807691  0.830114  1
  Si  Si8  1  0.371020  0.690071  0.057310  1
  Si  Si9  1  0.628980  0.190070  0.442690  1
  Si  Si10  1  0.371020  0.809929  0.557310  1
  Si  Si11  1  0.628980  0.309930  0.942690  1
  Te  Te12  1  0.893193  0.708177  0.093559  1
  Te  Te13  1  0.106806  0.208176  0.406440  1
  Te  Te14  1  0.893193  0.791823  0.593559  1
  Te  Te15  1  0.106808  0.291825  0.906441  1
  O  O16  1  0.510523  0.810085  0.082743  1
  O  O17  1  0.245780  0.850914  0.085820  1
  O  O18  1  0.628108  0.370177  0.119296  1
  O  O19  1  0.345702  0.518891  0.185268  1
  O  O20  1  0.654297  0.018891  0.314731  1
  O  O21  1  0.371891  0.870178  0.380706  1
  O  O22  1  0.754220  0.350913  0.414178  1
  O  O23  1  0.489476  0.310086  0.417257  1
  O  O24  1  0.510524  0.689915  0.582744  1
  O  O25  1  0.245781  0.649085  0.585820  1
  O  O26  1  0.628109  0.129822  0.619295  1
  O  O27  1  0.345703  0.981109  0.685270  1
  O  O28  1  0.654299  0.481108  0.814731  1
  O  O29  1  0.371891  0.629820  0.880705  1
  O  O30  1  0.754220  0.149087  0.914179  1
  O  O31  1  0.489476  0.189915  0.917257  1
