# generated using pymatgen
data_Ho4Er(SiHg)2
_symmetry_space_group_name_H-M   'P 1'
_cell_length_a   8.72440416
_cell_length_b   8.72440504
_cell_length_c   7.53160900
_cell_angle_alpha   90.00000000
_cell_angle_beta   90.00000000
_cell_angle_gamma   129.02171576
_symmetry_Int_Tables_number   1
_chemical_formula_structural   Ho4Er(SiHg)2
_chemical_formula_sum   'Ho8 Er2 Si4 Hg4'
_cell_volume   445.37784746
_cell_formula_units_Z   2
loop_
 _symmetry_equiv_pos_site_id
 _symmetry_equiv_pos_as_xyz
  1  'x, y, z'
loop_
 _atom_site_type_symbol
 _atom_site_label
 _atom_site_symmetry_multiplicity
 _atom_site_fract_x
 _atom_site_fract_y
 _atom_site_fract_z
 _atom_site_occupancy
  Ho  Ho0  1  0.051981  0.306769  0.325958  1
  Ho  Ho1  1  0.948019  0.693231  0.674042  1
  Ho  Ho2  1  0.448019  0.193231  0.825958  1
  Ho  Ho3  1  0.806769  0.551981  0.174042  1
  Ho  Ho4  1  0.551981  0.806769  0.174042  1
  Ho  Ho5  1  0.193231  0.448019  0.825958  1
  Ho  Ho6  1  0.693231  0.948019  0.674042  1
  Ho  Ho7  1  0.306769  0.051981  0.325958  1
  Er  Er8  1  0.000000  0.000000  0.000000  1
  Er  Er9  1  0.500000  0.500000  0.500000  1
  Si  Si10  1  0.378243  0.378243  0.124528  1
  Si  Si11  1  0.621757  0.621757  0.875472  1
  Si  Si12  1  0.121757  0.121757  0.624528  1
  Si  Si13  1  0.878243  0.878243  0.375472  1
  Hg  Hg14  1  0.783898  0.216102  0.000000  1
  Hg  Hg15  1  0.216103  0.783898  0.000000  1
  Hg  Hg16  1  0.716102  0.283898  0.500000  1
  Hg  Hg17  1  0.283898  0.716102  0.500000  1
