# generated using pymatgen
data_Ho13Tm3InAg3Rh4
_symmetry_space_group_name_H-M   'P 1'
_cell_length_a   9.52124615
_cell_length_b   9.53143570
_cell_length_c   9.51205332
_cell_angle_alpha   59.80051706
_cell_angle_beta   59.83486598
_cell_angle_gamma   59.89306777
_symmetry_Int_Tables_number   1
_chemical_formula_structural   Ho13Tm3InAg3Rh4
_chemical_formula_sum   'Ho13 Tm3 In1 Ag3 Rh4'
_cell_volume   608.21735582
_cell_formula_units_Z   1
loop_
 _symmetry_equiv_pos_site_id
 _symmetry_equiv_pos_as_xyz
  1  'x, y, z'
loop_
 _atom_site_type_symbol
 _atom_site_label
 _atom_site_symmetry_multiplicity
 _atom_site_fract_x
 _atom_site_fract_y
 _atom_site_fract_z
 _atom_site_occupancy
  Ho  Ho0  1  0.063191  0.062730  0.438004  1
  Ho  Ho1  1  0.435843  0.061263  0.439118  1
  Ho  Ho2  1  0.061558  0.436023  0.067498  1
  Ho  Ho3  1  0.053125  0.647802  0.649152  1
  Ho  Ho4  1  0.435665  0.436491  0.066522  1
  Ho  Ho5  1  0.647492  0.052786  0.649638  1
  Ho  Ho6  1  0.189148  0.813273  0.187379  1
  Ho  Ho7  1  0.190275  0.189726  0.811194  1
  Ho  Ho8  1  0.812598  0.811943  0.188258  1
  Ho  Ho9  1  0.435396  0.061794  0.067728  1
  Ho  Ho10  1  0.813445  0.189184  0.187907  1
  Ho  Ho11  1  0.061669  0.436023  0.438756  1
  Ho  Ho12  1  0.809456  0.190816  0.811681  1
  Tm  Tm13  1  0.191011  0.808831  0.812016  1
  Tm  Tm14  1  0.647824  0.648367  0.053093  1
  Tm  Tm15  1  0.648836  0.649288  0.649677  1
  In  In16  1  0.420996  0.421286  0.738991  1
  Ag  Ag17  1  0.418273  0.418136  0.414377  1
  Ag  Ag18  1  0.749474  0.418121  0.414530  1
  Ag  Ag19  1  0.417969  0.749483  0.414727  1
  Rh  Rh20  1  0.855248  0.855778  0.429623  1
  Rh  Rh21  1  0.857972  0.856519  0.858167  1
  Rh  Rh22  1  0.429011  0.854493  0.855801  1
  Rh  Rh23  1  0.854526  0.429845  0.856165  1
