# generated using pymatgen
data_Al7Ga7Se20
_symmetry_space_group_name_H-M   'P 1'
_cell_length_a   9.71854392
_cell_length_b   9.71675703
_cell_length_c   9.72057623
_cell_angle_alpha   89.54582720
_cell_angle_beta   89.54713891
_cell_angle_gamma   89.51664678
_symmetry_Int_Tables_number   1
_chemical_formula_structural   Al7Ga7Se20
_chemical_formula_sum   'Al7 Ga7 Se20'
_cell_volume   917.85085715
_cell_formula_units_Z   1
loop_
 _symmetry_equiv_pos_site_id
 _symmetry_equiv_pos_as_xyz
  1  'x, y, z'
loop_
 _atom_site_type_symbol
 _atom_site_label
 _atom_site_symmetry_multiplicity
 _atom_site_fract_x
 _atom_site_fract_y
 _atom_site_fract_z
 _atom_site_occupancy
  Al  Al0  1  0.421235  0.109384  0.152568  1
  Al  Al1  1  0.741204  0.164443  0.345469  1
  Al  Al2  1  0.345636  0.741310  0.164337  1
  Al  Al3  1  0.164582  0.345492  0.741240  1
  Al  Al4  1  0.258831  0.654499  0.835410  1
  Al  Al5  1  0.835424  0.258721  0.654405  1
  Al  Al6  1  0.654471  0.835549  0.258515  1
  Ga  Ga7  1  0.847996  0.890821  0.578851  1
  Ga  Ga8  1  0.578641  0.848477  0.890904  1
  Ga  Ga9  1  0.890713  0.578885  0.848019  1
  Ga  Ga10  1  0.152023  0.421015  0.109161  1
  Ga  Ga11  1  0.109314  0.151924  0.421030  1
  Ga  Ga12  1  0.573898  0.573856  0.573893  1
  Ga  Ga13  1  0.426041  0.426131  0.426045  1
  Se  Se14  1  0.422998  0.920912  0.323367  1
  Se  Se15  1  0.919285  0.325007  0.422968  1
  Se  Se16  1  0.325039  0.423054  0.919287  1
  Se  Se17  1  0.080738  0.576945  0.675036  1
  Se  Se18  1  0.576941  0.674770  0.080885  1
  Se  Se19  1  0.675002  0.080801  0.576678  1
  Se  Se20  1  0.757935  0.696091  0.440453  1
  Se  Se21  1  0.440529  0.758144  0.696092  1
  Se  Se22  1  0.696002  0.440488  0.758072  1
  Se  Se23  1  0.241924  0.559621  0.303981  1
  Se  Se24  1  0.303937  0.241978  0.559581  1
  Se  Se25  1  0.558085  0.302156  0.241298  1
  Se  Se26  1  0.499393  0.079531  0.922576  1
  Se  Se27  1  0.920246  0.499967  0.079795  1
  Se  Se28  1  0.079792  0.920171  0.499983  1
  Se  Se29  1  0.999978  0.185048  0.814975  1
  Se  Se30  1  0.815066  0.999968  0.184961  1
  Se  Se31  1  0.184916  0.814943  0.999996  1
  Se  Se32  1  0.828255  0.828481  0.828408  1
  Se  Se33  1  0.173931  0.171416  0.171764  1
