# generated using pymatgen
data_Dy5ErSi24Os3Ru5
_symmetry_space_group_name_H-M   'P 1'
_cell_length_a   10.11969403
_cell_length_b   10.11969376
_cell_length_c   8.14910002
_cell_angle_alpha   90.00342632
_cell_angle_beta   90.00342981
_cell_angle_gamma   132.50900987
_symmetry_Int_Tables_number   1
_chemical_formula_structural   Dy5ErSi24Os3Ru5
_chemical_formula_sum   'Dy5 Er1 Si24 Os3 Ru5'
_cell_volume   615.19484919
_cell_formula_units_Z   1
loop_
 _symmetry_equiv_pos_site_id
 _symmetry_equiv_pos_as_xyz
  1  'x, y, z'
loop_
 _atom_site_type_symbol
 _atom_site_label
 _atom_site_symmetry_multiplicity
 _atom_site_fract_x
 _atom_site_fract_y
 _atom_site_fract_z
 _atom_site_occupancy
  Dy  Dy0  1  0.999961  0.000039  0.000000  1
  Dy  Dy1  1  0.502296  0.002351  0.750178  1
  Dy  Dy2  1  0.997649  0.497704  0.249822  1
  Dy  Dy3  1  0.497802  0.997570  0.249684  1
  Dy  Dy4  1  0.002430  0.502198  0.750316  1
  Er  Er5  1  0.499968  0.500032  0.500000  1
  Si  Si6  1  0.795948  0.204052  0.500000  1
  Si  Si7  1  0.295901  0.704099  0.000000  1
  Si  Si8  1  0.204146  0.795854  0.500000  1
  Si  Si9  1  0.704728  0.295272  0.000000  1
  Si  Si10  1  0.332543  0.332296  0.833411  1
  Si  Si11  1  0.667704  0.667457  0.166589  1
  Si  Si12  1  0.166754  0.166902  0.332604  1
  Si  Si13  1  0.833098  0.833246  0.667396  1
  Si  Si14  1  0.121491  0.888276  0.728292  1
  Si  Si15  1  0.111724  0.878509  0.271708  1
  Si  Si16  1  0.612389  0.378687  0.227422  1
  Si  Si17  1  0.621313  0.387611  0.772578  1
  Si  Si18  1  0.877968  0.111635  0.270659  1
  Si  Si19  1  0.888365  0.122032  0.729341  1
  Si  Si20  1  0.388389  0.621983  0.772187  1
  Si  Si21  1  0.378017  0.611611  0.227813  1
  Si  Si22  1  0.344860  0.111815  0.505543  1
  Si  Si23  1  0.888185  0.655140  0.494457  1
  Si  Si24  1  0.388508  0.155589  0.004433  1
  Si  Si25  1  0.844411  0.611492  0.995567  1
  Si  Si26  1  0.655360  0.888360  0.494208  1
  Si  Si27  1  0.111640  0.344640  0.505792  1
  Si  Si28  1  0.612894  0.846174  0.994783  1
  Si  Si29  1  0.153826  0.387106  0.005217  1
  Os  Os30  1  0.669575  0.330425  0.500000  1
  Os  Os31  1  0.169852  0.830148  0.000000  1
  Os  Os32  1  0.330423  0.669577  0.500000  1
  Ru  Ru33  1  0.830037  0.169963  0.000000  1
  Ru  Ru34  1  0.128259  0.128128  0.626461  1
  Ru  Ru35  1  0.871872  0.871741  0.373539  1
  Ru  Ru36  1  0.373891  0.374172  0.128500  1
  Ru  Ru37  1  0.625828  0.626109  0.871500  1
