# generated using pymatgen
data_Ce8Tm9Lu3Si16
_symmetry_space_group_name_H-M   'P 1'
_cell_length_a   7.44676500
_cell_length_b   7.74701214
_cell_length_c   14.70177400
_cell_angle_alpha   90.00000000
_cell_angle_beta   90.00000000
_cell_angle_gamma   89.98919466
_symmetry_Int_Tables_number   1
_chemical_formula_structural   Ce8Tm9Lu3Si16
_chemical_formula_sum   'Ce8 Tm9 Lu3 Si16'
_cell_volume   848.14795627
_cell_formula_units_Z   1
loop_
 _symmetry_equiv_pos_site_id
 _symmetry_equiv_pos_as_xyz
  1  'x, y, z'
loop_
 _atom_site_type_symbol
 _atom_site_label
 _atom_site_symmetry_multiplicity
 _atom_site_fract_x
 _atom_site_fract_y
 _atom_site_fract_z
 _atom_site_occupancy
  Ce  Ce0  1  0.019816  0.177040  0.401443  1
  Ce  Ce1  1  0.519365  0.324033  0.402061  1
  Ce  Ce2  1  0.480044  0.675655  0.902246  1
  Ce  Ce3  1  0.480044  0.675655  0.597754  1
  Ce  Ce4  1  0.980200  0.823600  0.597541  1
  Ce  Ce5  1  0.980200  0.823600  0.902459  1
  Ce  Ce6  1  0.519365  0.324033  0.097939  1
  Ce  Ce7  1  0.019816  0.177040  0.098557  1
  Tm  Tm8  1  0.322260  0.178002  0.622661  1
  Tm  Tm9  1  0.677998  0.822146  0.376952  1
  Tm  Tm10  1  0.655691  0.986957  0.750000  1
  Tm  Tm11  1  0.178177  0.677833  0.377047  1
  Tm  Tm12  1  0.822283  0.321924  0.877417  1
  Tm  Tm13  1  0.822283  0.321924  0.622583  1
  Tm  Tm14  1  0.322260  0.178002  0.877339  1
  Tm  Tm15  1  0.178177  0.677833  0.122953  1
  Tm  Tm16  1  0.677998  0.822146  0.123048  1
  Lu  Lu17  1  0.844329  0.487851  0.250000  1
  Lu  Lu18  1  0.344987  0.012526  0.250000  1
  Lu  Lu19  1  0.155060  0.512125  0.750000  1
  Si  Si20  1  0.276181  0.875606  0.750000  1
  Si  Si21  1  0.472467  0.610918  0.250000  1
  Si  Si22  1  0.028789  0.111550  0.750000  1
  Si  Si23  1  0.528013  0.388841  0.750000  1
  Si  Si24  1  0.149205  0.469893  0.539230  1
  Si  Si25  1  0.972642  0.888974  0.250000  1
  Si  Si26  1  0.722226  0.124982  0.250000  1
  Si  Si27  1  0.850702  0.529960  0.039738  1
  Si  Si28  1  0.350788  0.970086  0.039731  1
  Si  Si29  1  0.149205  0.469893  0.960770  1
  Si  Si30  1  0.648957  0.030350  0.538932  1
  Si  Si31  1  0.350788  0.970086  0.460269  1
  Si  Si32  1  0.850702  0.529960  0.460262  1
  Si  Si33  1  0.777317  0.623039  0.750000  1
  Si  Si34  1  0.222706  0.375589  0.250000  1
  Si  Si35  1  0.648957  0.030350  0.961068  1
