# generated using pymatgen
data_PrTh2Sc2AlIr3
_symmetry_space_group_name_H-M   'P 1'
_cell_length_a   7.31344127
_cell_length_b   7.43175312
_cell_length_c   4.29957600
_cell_angle_alpha   90.00000000
_cell_angle_beta   90.00000000
_cell_angle_gamma   120.08425445
_symmetry_Int_Tables_number   1
_chemical_formula_structural   PrTh2Sc2AlIr3
_chemical_formula_sum   'Pr1 Th2 Sc2 Al1 Ir3'
_cell_volume   202.20876191
_cell_formula_units_Z   1
loop_
 _symmetry_equiv_pos_site_id
 _symmetry_equiv_pos_as_xyz
  1  'x, y, z'
loop_
 _atom_site_type_symbol
 _atom_site_label
 _atom_site_symmetry_multiplicity
 _atom_site_fract_x
 _atom_site_fract_y
 _atom_site_fract_z
 _atom_site_occupancy
  Pr  Pr0  1  0.418087  0.018194  0.500000  1
  Th  Th1  1  0.013137  0.417246  0.500000  1
  Th  Th2  1  0.571323  0.568825  0.500000  1
  Sc  Sc3  1  0.750703  0.000883  0.000000  1
  Sc  Sc4  1  0.015193  0.773895  0.000000  1
  Al  Al5  1  0.235172  0.232847  0.000000  1
  Ir  Ir6  1  0.336094  0.638010  0.000000  1
  Ir  Ir7  1  0.684282  0.357936  0.000000  1
  Ir  Ir8  1  0.976009  0.992163  0.500000  1
