# generated using pymatgen
data_Th5GeBi2Pb
_symmetry_space_group_name_H-M   'P 1'
_cell_length_a   9.71276578
_cell_length_b   9.71276594
_cell_length_c   6.56451300
_cell_angle_alpha   90.00000000
_cell_angle_beta   90.00000000
_cell_angle_gamma   120.06930768
_symmetry_Int_Tables_number   1
_chemical_formula_structural   Th5GeBi2Pb
_chemical_formula_sum   'Th10 Ge2 Bi4 Pb2'
_cell_volume   535.93886569
_cell_formula_units_Z   2
loop_
 _symmetry_equiv_pos_site_id
 _symmetry_equiv_pos_as_xyz
  1  'x, y, z'
loop_
 _atom_site_type_symbol
 _atom_site_label
 _atom_site_symmetry_multiplicity
 _atom_site_fract_x
 _atom_site_fract_y
 _atom_site_fract_z
 _atom_site_occupancy
  Th  Th0  1  0.666544  0.333057  0.502084  1
  Th  Th1  1  0.333057  0.666544  0.502084  1
  Th  Th2  1  0.333057  0.666544  0.997916  1
  Th  Th3  1  0.666544  0.333057  0.997916  1
  Th  Th4  1  0.739375  0.739375  0.250000  1
  Th  Th5  1  0.260606  0.000017  0.250000  1
  Th  Th6  1  0.000017  0.260606  0.250000  1
  Th  Th7  1  0.260955  0.260955  0.750000  1
  Th  Th8  1  0.739939  0.001041  0.750000  1
  Th  Th9  1  0.001041  0.739939  0.750000  1
  Ge  Ge10  1  0.999838  0.999838  0.498971  1
  Ge  Ge11  1  0.999838  0.999838  0.001029  1
  Bi  Bi12  1  0.388686  0.388686  0.250000  1
  Bi  Bi13  1  0.610486  0.000402  0.250000  1
  Bi  Bi14  1  0.000402  0.610486  0.250000  1
  Bi  Bi15  1  0.611620  0.611620  0.750000  1
  Pb  Pb16  1  0.387821  0.000174  0.750000  1
  Pb  Pb17  1  0.000174  0.387821  0.750000  1
