# generated using pymatgen
data_Ho7Tm3(Bi2As)2
_symmetry_space_group_name_H-M   'P 1'
_cell_length_a   8.00660502
_cell_length_b   9.09412102
_cell_length_c   12.00995800
_cell_angle_alpha   90.00000000
_cell_angle_beta   90.00000000
_cell_angle_gamma   89.99264326
_symmetry_Int_Tables_number   1
_chemical_formula_structural   Ho7Tm3(Bi2As)2
_chemical_formula_sum   'Ho14 Tm6 Bi8 As4'
_cell_volume   874.48148463
_cell_formula_units_Z   2
loop_
 _symmetry_equiv_pos_site_id
 _symmetry_equiv_pos_as_xyz
  1  'x, y, z'
loop_
 _atom_site_type_symbol
 _atom_site_label
 _atom_site_symmetry_multiplicity
 _atom_site_fract_x
 _atom_site_fract_y
 _atom_site_fract_z
 _atom_site_occupancy
  Ho  Ho0  1  0.817052  0.943625  0.062892  1
  Ho  Ho1  1  0.682948  0.556375  0.562892  1
  Ho  Ho2  1  0.156306  0.749908  0.210928  1
  Ho  Ho3  1  0.343694  0.750092  0.710928  1
  Ho  Ho4  1  0.843643  0.249957  0.789169  1
  Ho  Ho5  1  0.656357  0.250043  0.289169  1
  Ho  Ho6  1  0.463711  0.749937  0.999931  1
  Ho  Ho7  1  0.036289  0.750063  0.499931  1
  Ho  Ho8  1  0.536003  0.250058  0.000067  1
  Ho  Ho9  1  0.963997  0.249942  0.500067  1
  Ho  Ho10  1  0.634491  0.749907  0.292710  1
  Ho  Ho11  1  0.865509  0.750093  0.792710  1
  Ho  Ho12  1  0.365431  0.250004  0.707309  1
  Ho  Ho13  1  0.134569  0.249996  0.207309  1
  Tm  Tm14  1  0.817417  0.556661  0.062907  1
  Tm  Tm15  1  0.682583  0.943339  0.562907  1
  Tm  Tm16  1  0.182706  0.056863  0.937092  1
  Tm  Tm17  1  0.317294  0.443137  0.437092  1
  Tm  Tm18  1  0.182699  0.443206  0.937153  1
  Tm  Tm19  1  0.317301  0.056794  0.437153  1
  Bi  Bi20  1  0.925497  0.510004  0.326709  1
  Bi  Bi21  1  0.574503  0.989996  0.826709  1
  Bi  Bi22  1  0.074515  0.010005  0.673193  1
  Bi  Bi23  1  0.425485  0.489995  0.173193  1
  Bi  Bi24  1  0.074530  0.490062  0.673236  1
  Bi  Bi25  1  0.425470  0.009938  0.173236  1
  Bi  Bi26  1  0.925628  0.990022  0.326875  1
  Bi  Bi27  1  0.574372  0.509978  0.826875  1
  As  As28  1  0.412575  0.750358  0.478394  1
  As  As29  1  0.087425  0.749642  0.978394  1
  As  As30  1  0.586961  0.249362  0.521435  1
  As  As31  1  0.913039  0.250638  0.021435  1
