# generated using pymatgen
data_Pr3SmFe4(WO6)4
_symmetry_space_group_name_H-M   'P 1'
_cell_length_a   5.40386283
_cell_length_b   7.57490532
_cell_length_c   11.12325529
_cell_angle_alpha   90.06309788
_cell_angle_beta   89.90858657
_cell_angle_gamma   89.97441566
_symmetry_Int_Tables_number   1
_chemical_formula_structural   Pr3SmFe4(WO6)4
_chemical_formula_sum   'Pr3 Sm1 Fe4 W4 O24'
_cell_volume   455.31564266
_cell_formula_units_Z   1
loop_
 _symmetry_equiv_pos_site_id
 _symmetry_equiv_pos_as_xyz
  1  'x, y, z'
loop_
 _atom_site_type_symbol
 _atom_site_label
 _atom_site_symmetry_multiplicity
 _atom_site_fract_x
 _atom_site_fract_y
 _atom_site_fract_z
 _atom_site_occupancy
  Pr  Pr0  1  0.543092  0.252866  0.044327  1
  Pr  Pr1  1  0.044219  0.752778  0.455242  1
  Pr  Pr2  1  0.955610  0.253010  0.545056  1
  Sm  Sm3  1  0.452390  0.753053  0.954842  1
  Fe  Fe4  1  0.043104  0.508885  0.138618  1
  Fe  Fe5  1  0.542314  0.007440  0.360400  1
  Fe  Fe6  1  0.456679  0.507932  0.640570  1
  Fe  Fe7  1  0.956697  0.006284  0.860403  1
  W  W8  1  0.050305  0.997165  0.141979  1
  W  W9  1  0.550525  0.497912  0.356843  1
  W  W10  1  0.449481  0.997723  0.644048  1
  W  W11  1  0.948624  0.500188  0.857521  1
  O  O12  1  0.763684  0.543522  0.019645  1
  O  O13  1  0.768432  0.959396  0.028854  1
  O  O14  1  0.165137  0.756608  0.120503  1
  O  O15  1  0.951808  0.244374  0.141748  1
  O  O16  1  0.364672  0.062178  0.209904  1
  O  O17  1  0.380521  0.444019  0.214174  1
  O  O18  1  0.881515  0.943533  0.285114  1
  O  O19  1  0.866532  0.561723  0.289697  1
  O  O20  1  0.451875  0.745119  0.355846  1
  O  O21  1  0.659547  0.256354  0.377274  1
  O  O22  1  0.270550  0.463095  0.470696  1
  O  O23  1  0.267190  0.039234  0.480476  1
  O  O24  1  0.732741  0.539198  0.520256  1
  O  O25  1  0.729601  0.963226  0.530177  1
  O  O26  1  0.341198  0.756714  0.622452  1
  O  O27  1  0.548479  0.245174  0.645563  1
  O  O28  1  0.132854  0.061918  0.709968  1
  O  O29  1  0.117147  0.445438  0.713970  1
  O  O30  1  0.615730  0.942632  0.787911  1
  O  O31  1  0.632584  0.565845  0.791960  1
  O  O32  1  0.056216  0.745533  0.855742  1
  O  O33  1  0.842934  0.257897  0.878229  1
  O  O34  1  0.230611  0.466100  0.970716  1
  O  O35  1  0.235403  0.036339  0.979275  1
