# generated using pymatgen
data_Tb6Sc4Si6H
_symmetry_space_group_name_H-M   'P 1'
_cell_length_a   8.29528400
_cell_length_b   8.29528428
_cell_length_c   5.99139200
_cell_angle_alpha   90.00000000
_cell_angle_beta   90.00000000
_cell_angle_gamma   119.99999888
_symmetry_Int_Tables_number   1
_chemical_formula_structural   Tb6Sc4Si6H
_chemical_formula_sum   'Tb6 Sc4 Si6 H1'
_cell_volume   357.04331411
_cell_formula_units_Z   1
loop_
 _symmetry_equiv_pos_site_id
 _symmetry_equiv_pos_as_xyz
  1  'x, y, z'
loop_
 _atom_site_type_symbol
 _atom_site_label
 _atom_site_symmetry_multiplicity
 _atom_site_fract_x
 _atom_site_fract_y
 _atom_site_fract_z
 _atom_site_occupancy
  Tb  Tb0  1  0.000000  0.749504  0.248114  1
  Tb  Tb1  1  0.250496  0.250496  0.248114  1
  Tb  Tb2  1  0.749504  0.000000  0.248114  1
  Tb  Tb3  1  0.000000  0.250496  0.751886  1
  Tb  Tb4  1  0.749504  0.749504  0.751886  1
  Tb  Tb5  1  0.250496  0.000000  0.751886  1
  Sc  Sc6  1  0.333333  0.666667  0.500000  1
  Sc  Sc7  1  0.666667  0.333333  0.500000  1
  Sc  Sc8  1  0.666667  0.333333  0.000000  1
  Sc  Sc9  1  0.333333  0.666667  0.000000  1
  Si  Si10  1  0.000000  0.395547  0.249973  1
  Si  Si11  1  0.604453  0.604453  0.249973  1
  Si  Si12  1  0.395547  0.000000  0.249973  1
  Si  Si13  1  0.000000  0.604453  0.750027  1
  Si  Si14  1  0.395547  0.395547  0.750027  1
  Si  Si15  1  0.604453  0.000000  0.750027  1
  H  H16  1  0.000000  0.000000  0.500000  1
