# generated using pymatgen
data_Ho15Tm5Si15Au
_symmetry_space_group_name_H-M   'P 1'
_cell_length_a   7.37595278
_cell_length_b   7.63587500
_cell_length_c   14.52920791
_cell_angle_alpha   89.88478555
_cell_angle_beta   89.44033941
_cell_angle_gamma   90.14768961
_symmetry_Int_Tables_number   1
_chemical_formula_structural   Ho15Tm5Si15Au
_chemical_formula_sum   'Ho15 Tm5 Si15 Au1'
_cell_volume   818.26846521
_cell_formula_units_Z   1
loop_
 _symmetry_equiv_pos_site_id
 _symmetry_equiv_pos_as_xyz
  1  'x, y, z'
loop_
 _atom_site_type_symbol
 _atom_site_label
 _atom_site_symmetry_multiplicity
 _atom_site_fract_x
 _atom_site_fract_y
 _atom_site_fract_z
 _atom_site_occupancy
  Ho  Ho0  1  0.473153  0.684034  0.401263  1
  Ho  Ho1  1  0.522406  0.318374  0.900061  1
  Ho  Ho2  1  0.028619  0.182374  0.598391  1
  Ho  Ho3  1  0.026885  0.178693  0.900393  1
  Ho  Ho4  1  0.528315  0.316625  0.598099  1
  Ho  Ho5  1  0.476989  0.682155  0.100854  1
  Ho  Ho6  1  0.970543  0.816533  0.400403  1
  Ho  Ho7  1  0.675939  0.822641  0.876953  1
  Ho  Ho8  1  0.180795  0.679573  0.621923  1
  Ho  Ho9  1  0.820455  0.327348  0.123747  1
  Ho  Ho10  1  0.317542  0.176779  0.376180  1
  Ho  Ho11  1  0.322980  0.177879  0.124433  1
  Ho  Ho12  1  0.819978  0.321764  0.376685  1
  Ho  Ho13  1  0.179073  0.674358  0.877247  1
  Ho  Ho14  1  0.681612  0.821984  0.622499  1
  Tm  Tm15  1  0.649232  0.992173  0.249811  1
  Tm  Tm16  1  0.151456  0.510854  0.248468  1
  Tm  Tm17  1  0.847138  0.488475  0.750879  1
  Tm  Tm18  1  0.349309  0.010934  0.750138  1
  Tm  Tm19  1  0.975158  0.819352  0.101304  1
  Si  Si20  1  0.769793  0.632348  0.252235  1
  Si  Si21  1  0.269033  0.869958  0.250747  1
  Si  Si22  1  0.731491  0.126745  0.748728  1
  Si  Si23  1  0.229166  0.371086  0.746871  1
  Si  Si24  1  0.019680  0.103277  0.249877  1
  Si  Si25  1  0.522373  0.396504  0.252331  1
  Si  Si26  1  0.475231  0.604620  0.747327  1
  Si  Si27  1  0.978280  0.894252  0.748266  1
  Si  Si28  1  0.353490  0.972040  0.540277  1
  Si  Si29  1  0.652429  0.028831  0.042142  1
  Si  Si30  1  0.148199  0.470012  0.459764  1
  Si  Si31  1  0.160050  0.472086  0.043064  1
  Si  Si32  1  0.646338  0.029139  0.459057  1
  Si  Si33  1  0.349642  0.968433  0.961657  1
  Si  Si34  1  0.853675  0.529749  0.539539  1
  Au  Au35  1  0.843551  0.528014  0.958385  1
