# generated using pymatgen
data_Y3Er17(Cd3Co)2
_symmetry_space_group_name_H-M   'P 1'
_cell_length_a   9.52110700
_cell_length_b   9.52110715
_cell_length_c   9.67329500
_cell_angle_alpha   90.00000000
_cell_angle_beta   90.00000000
_cell_angle_gamma   119.99999599
_symmetry_Int_Tables_number   1
_chemical_formula_structural   Y3Er17(Cd3Co)2
_chemical_formula_sum   'Y3 Er17 Cd6 Co2'
_cell_volume   759.41641505
_cell_formula_units_Z   1
loop_
 _symmetry_equiv_pos_site_id
 _symmetry_equiv_pos_as_xyz
  1  'x, y, z'
loop_
 _atom_site_type_symbol
 _atom_site_label
 _atom_site_symmetry_multiplicity
 _atom_site_fract_x
 _atom_site_fract_y
 _atom_site_fract_z
 _atom_site_occupancy
  Y  Y0  1  0.458190  0.541810  0.750000  1
  Y  Y1  1  0.458190  0.916380  0.750000  1
  Y  Y2  1  0.083620  0.541810  0.750000  1
  Er  Er3  1  0.000000  0.000000  0.499675  1
  Er  Er4  1  0.000000  0.000000  0.000325  1
  Er  Er5  1  0.542617  0.457383  0.250000  1
  Er  Er6  1  0.542617  0.085234  0.250000  1
  Er  Er7  1  0.914766  0.457383  0.250000  1
  Er  Er8  1  0.211634  0.788366  0.435688  1
  Er  Er9  1  0.211634  0.423269  0.435688  1
  Er  Er10  1  0.576731  0.788366  0.435688  1
  Er  Er11  1  0.787996  0.212004  0.562242  1
  Er  Er12  1  0.787996  0.575989  0.562242  1
  Er  Er13  1  0.424011  0.212004  0.562242  1
  Er  Er14  1  0.787996  0.212004  0.937758  1
  Er  Er15  1  0.787996  0.575989  0.937758  1
  Er  Er16  1  0.424011  0.212004  0.937758  1
  Er  Er17  1  0.211634  0.788366  0.064312  1
  Er  Er18  1  0.211634  0.423269  0.064312  1
  Er  Er19  1  0.576731  0.788366  0.064312  1
  Cd  Cd20  1  0.884636  0.115364  0.250000  1
  Cd  Cd21  1  0.884636  0.769272  0.250000  1
  Cd  Cd22  1  0.230728  0.115364  0.250000  1
  Cd  Cd23  1  0.114241  0.885759  0.750000  1
  Cd  Cd24  1  0.114241  0.228482  0.750000  1
  Cd  Cd25  1  0.771518  0.885759  0.750000  1
  Co  Co26  1  0.333333  0.666667  0.250000  1
  Co  Co27  1  0.666667  0.333333  0.750000  1
