# generated using pymatgen
data_Ac(ErPb)4
_symmetry_space_group_name_H-M   'P 1'
_cell_length_a   8.45626900
_cell_length_b   8.26537334
_cell_length_c   8.47496330
_cell_angle_alpha   68.49741152
_cell_angle_beta   90.00000000
_cell_angle_gamma   90.00000000
_symmetry_Int_Tables_number   1
_chemical_formula_structural   Ac(ErPb)4
_chemical_formula_sum   'Ac2 Er8 Pb8'
_cell_volume   551.12392419
_cell_formula_units_Z   2
loop_
 _symmetry_equiv_pos_site_id
 _symmetry_equiv_pos_as_xyz
  1  'x, y, z'
loop_
 _atom_site_type_symbol
 _atom_site_label
 _atom_site_symmetry_multiplicity
 _atom_site_fract_x
 _atom_site_fract_y
 _atom_site_fract_z
 _atom_site_occupancy
  Ac  Ac0  1  0.325752  0.059228  0.311838  1
  Ac  Ac1  1  0.174248  0.559228  0.311838  1
  Er  Er2  1  0.818261  0.445906  0.695304  1
  Er  Er3  1  0.341487  0.254899  0.747316  1
  Er  Er4  1  0.998014  0.999327  0.996224  1
  Er  Er5  1  0.681739  0.945906  0.695304  1
  Er  Er6  1  0.838754  0.239135  0.250258  1
  Er  Er7  1  0.158513  0.754899  0.747316  1
  Er  Er8  1  0.661246  0.739135  0.250258  1
  Er  Er9  1  0.501986  0.499327  0.996224  1
  Pb  Pb10  1  0.852377  0.645165  0.982380  1
  Pb  Pb11  1  0.943228  0.834836  0.424453  1
  Pb  Pb12  1  0.136068  0.358956  0.997808  1
  Pb  Pb13  1  0.556772  0.334836  0.424453  1
  Pb  Pb14  1  0.363932  0.858956  0.997808  1
  Pb  Pb15  1  0.469892  0.662549  0.594420  1
  Pb  Pb16  1  0.030108  0.162549  0.594420  1
  Pb  Pb17  1  0.647623  0.145165  0.982380  1
