# generated using pymatgen
data_Y2Tm10InNi5
_symmetry_space_group_name_H-M   'P 1'
_cell_length_a   8.19045533
_cell_length_b   8.19045616
_cell_length_c   8.18430800
_cell_angle_alpha   111.03783772
_cell_angle_beta   110.77307272
_cell_angle_gamma   106.67147879
_symmetry_Int_Tables_number   1
_chemical_formula_structural   Y2Tm10InNi5
_chemical_formula_sum   'Y2 Tm10 In1 Ni5'
_cell_volume   421.71516390
_cell_formula_units_Z   1
loop_
 _symmetry_equiv_pos_site_id
 _symmetry_equiv_pos_as_xyz
  1  'x, y, z'
loop_
 _atom_site_type_symbol
 _atom_site_label
 _atom_site_symmetry_multiplicity
 _atom_site_fract_x
 _atom_site_fract_y
 _atom_site_fract_z
 _atom_site_occupancy
  Y  Y0  1  0.291519  0.185334  0.476852  1
  Y  Y1  1  0.708481  0.814666  0.523148  1
  Tm  Tm2  1  0.292070  0.815457  0.107527  1
  Tm  Tm3  1  0.707930  0.184543  0.892473  1
  Tm  Tm4  1  0.624390  0.318346  0.303691  1
  Tm  Tm5  1  0.375610  0.681654  0.696309  1
  Tm  Tm6  1  0.014654  0.320699  0.696309  1
  Tm  Tm7  1  0.985346  0.679301  0.303691  1
  Tm  Tm8  1  0.213443  0.405825  0.189574  1
  Tm  Tm9  1  0.786557  0.594175  0.810426  1
  Tm  Tm10  1  0.216252  0.023869  0.810426  1
  Tm  Tm11  1  0.783748  0.976131  0.189574  1
  In  In12  1  0.500000  0.500000  0.000000  1
  Ni  Ni13  1  0.998759  0.364810  0.363570  1
  Ni  Ni14  1  0.001241  0.635190  0.636430  1
  Ni  Ni15  1  0.376180  0.876180  0.500000  1
  Ni  Ni16  1  0.623820  0.123820  0.500000  1
  Ni  Ni17  1  0.000000  0.000000  0.000000  1
