# generated using pymatgen
data_TiTe28
_symmetry_space_group_name_H-M   'P 1'
_cell_length_a   12.07044839
_cell_length_b   10.81983923
_cell_length_c   12.67756400
_cell_angle_alpha   115.00825248
_cell_angle_beta   124.68022695
_cell_angle_gamma   88.22720311
_symmetry_Int_Tables_number   1
_chemical_formula_structural   TiTe28
_chemical_formula_sum   'Ti1 Te28'
_cell_volume   1184.08520647
_cell_formula_units_Z   1
loop_
 _symmetry_equiv_pos_site_id
 _symmetry_equiv_pos_as_xyz
  1  'x, y, z'
loop_
 _atom_site_type_symbol
 _atom_site_label
 _atom_site_symmetry_multiplicity
 _atom_site_fract_x
 _atom_site_fract_y
 _atom_site_fract_z
 _atom_site_occupancy
  Ti  Ti0  1  0.500000  0.000000  0.000000  1
  Te  Te1  1  0.245436  0.108238  0.421206  1
  Te  Te2  1  0.614845  0.155512  0.439502  1
  Te  Te3  1  0.267999  0.267652  0.902930  1
  Te  Te4  1  0.889408  0.300100  0.893475  1
  Te  Te5  1  0.208760  0.556753  0.721052  1
  Te  Te6  1  0.803285  0.518900  0.623837  1
  Te  Te7  1  0.385155  0.844488  0.560498  1
  Te  Te8  1  0.754564  0.891762  0.578794  1
  Te  Te9  1  0.110592  0.699900  0.106525  1
  Te  Te10  1  0.732001  0.732348  0.097070  1
  Te  Te11  1  0.196715  0.481100  0.376163  1
  Te  Te12  1  0.791240  0.443247  0.278948  1
  Te  Te13  1  0.757425  0.064048  0.854478  1
  Te  Te14  1  0.249379  0.980949  0.752972  1
  Te  Te15  1  0.826428  0.664893  0.889029  1
  Te  Te16  1  0.384037  0.791405  0.022012  1
  Te  Te17  1  0.501283  0.231183  0.212382  1
  Te  Te18  1  0.048259  0.277984  0.368070  1
  Te  Te19  1  0.750621  0.019051  0.247028  1
  Te  Te20  1  0.242575  0.935952  0.145522  1
  Te  Te21  1  0.615963  0.208595  0.977988  1
  Te  Te22  1  0.173572  0.335107  0.110971  1
  Te  Te23  1  0.951741  0.722016  0.631930  1
  Te  Te24  1  0.498717  0.768817  0.787618  1
  Te  Te25  1  0.056861  0.380188  0.736665  1
  Te  Te26  1  0.510910  0.300005  0.589694  1
  Te  Te27  1  0.489090  0.699995  0.410306  1
  Te  Te28  1  0.943139  0.619812  0.263335  1
