# generated using pymatgen
data_LuScReB6
_symmetry_space_group_name_H-M   'P 1'
_cell_length_a   3.55656000
_cell_length_b   8.97084600
_cell_length_c   11.30854000
_cell_angle_alpha   90.00000000
_cell_angle_beta   90.00000000
_cell_angle_gamma   90.00000000
_symmetry_Int_Tables_number   1
_chemical_formula_structural   LuScReB6
_chemical_formula_sum   'Lu4 Sc4 Re4 B24'
_cell_volume   360.80294987
_cell_formula_units_Z   4
loop_
 _symmetry_equiv_pos_site_id
 _symmetry_equiv_pos_as_xyz
  1  'x, y, z'
loop_
 _atom_site_type_symbol
 _atom_site_label
 _atom_site_symmetry_multiplicity
 _atom_site_fract_x
 _atom_site_fract_y
 _atom_site_fract_z
 _atom_site_occupancy
  Lu  Lu0  1  0.500000  0.321939  0.413861  1
  Lu  Lu1  1  0.500000  0.678061  0.586139  1
  Lu  Lu2  1  0.500000  0.178061  0.913861  1
  Lu  Lu3  1  0.500000  0.821939  0.086139  1
  Sc  Sc4  1  0.500000  0.444131  0.129382  1
  Sc  Sc5  1  0.500000  0.555869  0.870618  1
  Sc  Sc6  1  0.500000  0.055869  0.629382  1
  Sc  Sc7  1  0.500000  0.944131  0.370618  1
  Re  Re8  1  0.500000  0.140170  0.180989  1
  Re  Re9  1  0.500000  0.859830  0.819011  1
  Re  Re10  1  0.500000  0.359830  0.680989  1
  Re  Re11  1  0.500000  0.640170  0.319011  1
  B  B12  1  0.000000  0.096480  0.473543  1
  B  B13  1  0.000000  0.903520  0.526457  1
  B  B14  1  0.000000  0.403520  0.973543  1
  B  B15  1  0.000000  0.596480  0.026457  1
  B  B16  1  0.000000  0.129821  0.317505  1
  B  B17  1  0.000000  0.870179  0.682495  1
  B  B18  1  0.000000  0.370179  0.817505  1
  B  B19  1  0.000000  0.629821  0.182495  1
  B  B20  1  0.000000  0.053767  0.066399  1
  B  B21  1  0.000000  0.946233  0.933601  1
  B  B22  1  0.000000  0.446233  0.566399  1
  B  B23  1  0.000000  0.553767  0.433601  1
  B  B24  1  0.000000  0.480763  0.286760  1
  B  B25  1  0.000000  0.519237  0.713240  1
  B  B26  1  0.000000  0.019237  0.786760  1
  B  B27  1  0.000000  0.980763  0.213240  1
  B  B28  1  0.000000  0.254137  0.080274  1
  B  B29  1  0.000000  0.745863  0.919726  1
  B  B30  1  0.000000  0.245863  0.580274  1
  B  B31  1  0.000000  0.754137  0.419726  1
  B  B32  1  0.000000  0.295467  0.235649  1
  B  B33  1  0.000000  0.704533  0.764351  1
  B  B34  1  0.000000  0.204533  0.735649  1
  B  B35  1  0.000000  0.795467  0.264351  1
