# generated using pymatgen
data_Hf18MnBeRe8
_symmetry_space_group_name_H-M   'P 1'
_cell_length_a   8.54555200
_cell_length_b   8.54555189
_cell_length_c   8.53331200
_cell_angle_alpha   90.00000000
_cell_angle_beta   90.00000000
_cell_angle_gamma   120.00000041
_symmetry_Int_Tables_number   1
_chemical_formula_structural   Hf18MnBeRe8
_chemical_formula_sum   'Hf18 Mn1 Be1 Re8'
_cell_volume   539.67026761
_cell_formula_units_Z   1
loop_
 _symmetry_equiv_pos_site_id
 _symmetry_equiv_pos_as_xyz
  1  'x, y, z'
loop_
 _atom_site_type_symbol
 _atom_site_label
 _atom_site_symmetry_multiplicity
 _atom_site_fract_x
 _atom_site_fract_y
 _atom_site_fract_z
 _atom_site_occupancy
  Hf  Hf0  1  0.201158  0.798842  0.442952  1
  Hf  Hf1  1  0.201158  0.402314  0.442952  1
  Hf  Hf2  1  0.597686  0.798842  0.442952  1
  Hf  Hf3  1  0.803407  0.196593  0.554174  1
  Hf  Hf4  1  0.803407  0.606815  0.554174  1
  Hf  Hf5  1  0.393185  0.196593  0.554174  1
  Hf  Hf6  1  0.803407  0.196593  0.945826  1
  Hf  Hf7  1  0.803407  0.606815  0.945826  1
  Hf  Hf8  1  0.393185  0.196593  0.945826  1
  Hf  Hf9  1  0.201158  0.798842  0.057048  1
  Hf  Hf10  1  0.201158  0.402314  0.057048  1
  Hf  Hf11  1  0.597686  0.798842  0.057048  1
  Hf  Hf12  1  0.539720  0.460280  0.250000  1
  Hf  Hf13  1  0.539720  0.079440  0.250000  1
  Hf  Hf14  1  0.920560  0.460280  0.250000  1
  Hf  Hf15  1  0.460588  0.539412  0.750000  1
  Hf  Hf16  1  0.460588  0.921177  0.750000  1
  Hf  Hf17  1  0.078823  0.539412  0.750000  1
  Mn  Mn18  1  0.333333  0.666667  0.250000  1
  Be  Be19  1  0.666667  0.333333  0.750000  1
  Re  Re20  1  0.889399  0.110601  0.250000  1
  Re  Re21  1  0.889399  0.778796  0.250000  1
  Re  Re22  1  0.221204  0.110601  0.250000  1
  Re  Re23  1  0.110918  0.889082  0.750000  1
  Re  Re24  1  0.110918  0.221836  0.750000  1
  Re  Re25  1  0.778164  0.889082  0.750000  1
  Re  Re26  1  0.000000  0.000000  0.499863  1
  Re  Re27  1  0.000000  0.000000  0.000137  1
