# generated using pymatgen
data_DyPa2(P2Ir3)3
_symmetry_space_group_name_H-M   'P 1'
_cell_length_a   4.01725400
_cell_length_b   11.04194700
_cell_length_c   12.97776300
_cell_angle_alpha   90.00000000
_cell_angle_beta   90.00000000
_cell_angle_gamma   90.00000000
_symmetry_Int_Tables_number   1
_chemical_formula_structural   DyPa2(P2Ir3)3
_chemical_formula_sum   'Dy2 Pa4 P12 Ir18'
_cell_volume   575.67157915
_cell_formula_units_Z   2
loop_
 _symmetry_equiv_pos_site_id
 _symmetry_equiv_pos_as_xyz
  1  'x, y, z'
loop_
 _atom_site_type_symbol
 _atom_site_label
 _atom_site_symmetry_multiplicity
 _atom_site_fract_x
 _atom_site_fract_y
 _atom_site_fract_z
 _atom_site_occupancy
  Dy  Dy0  1  0.000000  0.500000  0.522872  1
  Dy  Dy1  1  0.500000  0.000000  0.477128  1
  Pa  Pa2  1  0.500000  0.818646  0.208093  1
  Pa  Pa3  1  0.500000  0.181354  0.208093  1
  Pa  Pa4  1  0.000000  0.681354  0.791907  1
  Pa  Pa5  1  0.000000  0.318646  0.791907  1
  P  P6  1  0.500000  0.500000  0.878962  1
  P  P7  1  0.000000  0.000000  0.121038  1
  P  P8  1  0.500000  0.500000  0.362016  1
  P  P9  1  0.000000  0.000000  0.637984  1
  P  P10  1  0.500000  0.319405  0.614066  1
  P  P11  1  0.500000  0.680595  0.614066  1
  P  P12  1  0.000000  0.180595  0.385934  1
  P  P13  1  0.000000  0.819405  0.385934  1
  P  P14  1  0.500000  0.847526  0.891619  1
  P  P15  1  0.500000  0.152474  0.891619  1
  P  P16  1  0.000000  0.652474  0.108381  1
  P  P17  1  0.000000  0.347526  0.108381  1
  Ir  Ir18  1  0.500000  0.500000  0.186492  1
  Ir  Ir19  1  0.000000  0.000000  0.813508  1
  Ir  Ir20  1  0.500000  0.500000  0.704212  1
  Ir  Ir21  1  0.000000  0.000000  0.295788  1
  Ir  Ir22  1  0.000000  0.500000  0.969506  1
  Ir  Ir23  1  0.500000  0.000000  0.030494  1
  Ir  Ir24  1  0.500000  0.335891  0.009414  1
  Ir  Ir25  1  0.500000  0.664109  0.009414  1
  Ir  Ir26  1  0.000000  0.164109  0.990586  1
  Ir  Ir27  1  0.000000  0.835891  0.990586  1
  Ir  Ir28  1  0.500000  0.300973  0.431639  1
  Ir  Ir29  1  0.500000  0.699027  0.431639  1
  Ir  Ir30  1  0.000000  0.199027  0.568361  1
  Ir  Ir31  1  0.000000  0.800973  0.568361  1
  Ir  Ir32  1  0.500000  0.866877  0.711590  1
  Ir  Ir33  1  0.500000  0.133123  0.711590  1
  Ir  Ir34  1  0.000000  0.633123  0.288410  1
  Ir  Ir35  1  0.000000  0.366877  0.288410  1
