# generated using pymatgen
data_Tm8Al2RuRh
_symmetry_space_group_name_H-M   'P 1'
_cell_length_a   9.39329121
_cell_length_b   9.39329092
_cell_length_c   9.40428500
_cell_angle_alpha   59.96126473
_cell_angle_beta   59.96126575
_cell_angle_gamma   59.86633379
_symmetry_Int_Tables_number   1
_chemical_formula_structural   Tm8Al2RuRh
_chemical_formula_sum   'Tm16 Al4 Ru2 Rh2'
_cell_volume   585.80314878
_cell_formula_units_Z   2
loop_
 _symmetry_equiv_pos_site_id
 _symmetry_equiv_pos_as_xyz
  1  'x, y, z'
loop_
 _atom_site_type_symbol
 _atom_site_label
 _atom_site_symmetry_multiplicity
 _atom_site_fract_x
 _atom_site_fract_y
 _atom_site_fract_z
 _atom_site_occupancy
  Tm  Tm0  1  0.061217  0.061217  0.438783  1
  Tm  Tm1  1  0.440526  0.062449  0.435952  1
  Tm  Tm2  1  0.062449  0.440526  0.061073  1
  Tm  Tm3  1  0.053398  0.649827  0.648388  1
  Tm  Tm4  1  0.437517  0.437517  0.062483  1
  Tm  Tm5  1  0.649827  0.053398  0.648388  1
  Tm  Tm6  1  0.192529  0.806310  0.196198  1
  Tm  Tm7  1  0.195190  0.195190  0.804810  1
  Tm  Tm8  1  0.806043  0.806043  0.193957  1
  Tm  Tm9  1  0.440526  0.062449  0.061073  1
  Tm  Tm10  1  0.806310  0.192529  0.196198  1
  Tm  Tm11  1  0.062449  0.440526  0.435952  1
  Tm  Tm12  1  0.806310  0.192529  0.804963  1
  Tm  Tm13  1  0.192529  0.806310  0.804963  1
  Tm  Tm14  1  0.648277  0.648277  0.056781  1
  Tm  Tm15  1  0.648277  0.648277  0.646667  1
  Al  Al16  1  0.422287  0.422287  0.423066  1
  Al  Al17  1  0.733797  0.421749  0.422227  1
  Al  Al18  1  0.421749  0.733797  0.422227  1
  Al  Al19  1  0.422287  0.422287  0.732360  1
  Ru  Ru20  1  0.857853  0.857853  0.424024  1
  Ru  Ru21  1  0.857853  0.857853  0.860268  1
  Rh  Rh22  1  0.423778  0.857026  0.859598  1
  Rh  Rh23  1  0.857026  0.423778  0.859598  1
