# generated using pymatgen
data_Nd5HoZn4IrPd12
_symmetry_space_group_name_H-M   'P 1'
_cell_length_a   8.35267965
_cell_length_b   8.35267976
_cell_length_c   8.35267960
_cell_angle_alpha   109.43577368
_cell_angle_beta   109.43577622
_cell_angle_gamma   109.54213579
_symmetry_Int_Tables_number   1
_chemical_formula_structural   Nd5HoZn4IrPd12
_chemical_formula_sum   'Nd5 Ho1 Zn4 Ir1 Pd12'
_cell_volume   448.59567916
_cell_formula_units_Z   1
loop_
 _symmetry_equiv_pos_site_id
 _symmetry_equiv_pos_as_xyz
  1  'x, y, z'
loop_
 _atom_site_type_symbol
 _atom_site_label
 _atom_site_symmetry_multiplicity
 _atom_site_fract_x
 _atom_site_fract_y
 _atom_site_fract_z
 _atom_site_occupancy
  Nd  Nd0  1  0.295449  0.999528  0.295921  1
  Nd  Nd1  1  0.999528  0.295449  0.295921  1
  Nd  Nd2  1  0.295605  0.295605  0.000000  1
  Nd  Nd3  1  0.703607  0.999528  0.704079  1
  Nd  Nd4  1  0.999528  0.703607  0.704079  1
  Ho  Ho5  1  0.700196  0.700196  0.000000  1
  Zn  Zn6  1  0.000181  0.000181  0.498386  1
  Zn  Zn7  1  0.000181  0.501795  0.000000  1
  Zn  Zn8  1  0.501795  0.000181  0.000000  1
  Zn  Zn9  1  0.501795  0.501795  0.501614  1
  Ir  Ir10  1  0.992889  0.992889  0.000000  1
  Pd  Pd11  1  0.335756  0.335756  0.668731  1
  Pd  Pd12  1  0.668866  0.998894  0.330028  1
  Pd  Pd13  1  0.998894  0.668866  0.330028  1
  Pd  Pd14  1  0.667025  0.335756  0.000000  1
  Pd  Pd15  1  0.332055  0.664129  0.332074  1
  Pd  Pd16  1  0.999980  0.332055  0.667926  1
  Pd  Pd17  1  0.335756  0.667025  0.000000  1
  Pd  Pd18  1  0.332055  0.999980  0.667926  1
  Pd  Pd19  1  0.664129  0.332055  0.332074  1
  Pd  Pd20  1  0.667025  0.667025  0.331269  1
  Pd  Pd21  1  0.668866  0.338838  0.669972  1
  Pd  Pd22  1  0.338838  0.668866  0.669972  1
