# generated using pymatgen
data_Ti8ZnFe(PO4)12
_symmetry_space_group_name_H-M   'P 1'
_cell_length_a   8.63713254
_cell_length_b   8.63713194
_cell_length_c   14.95814198
_cell_angle_alpha   89.99999892
_cell_angle_beta   73.21925216
_cell_angle_gamma   119.99999597
_symmetry_Int_Tables_number   1
_chemical_formula_structural   Ti8ZnFe(PO4)12
_chemical_formula_sum   'Ti8 Zn1 Fe1 P12 O48'
_cell_volume   911.09696516
_cell_formula_units_Z   1
loop_
 _symmetry_equiv_pos_site_id
 _symmetry_equiv_pos_as_xyz
  1  'x, y, z'
loop_
 _atom_site_type_symbol
 _atom_site_label
 _atom_site_symmetry_multiplicity
 _atom_site_fract_x
 _atom_site_fract_y
 _atom_site_fract_z
 _atom_site_occupancy
  Ti  Ti0  1  0.607961  0.303981  0.088058  1
  Ti  Ti1  1  0.894677  0.947338  0.157984  1
  Ti  Ti2  1  0.112369  0.556184  0.331446  1
  Ti  Ti3  1  0.390056  0.195028  0.414916  1
  Ti  Ti4  1  0.609277  0.804638  0.586084  1
  Ti  Ti5  1  0.888301  0.444150  0.667548  1
  Ti  Ti6  1  0.105781  0.052891  0.841328  1
  Ti  Ti7  1  0.391557  0.695779  0.912663  1
  Zn  Zn8  1  0.750910  0.875454  0.373635  1
  Fe  Fe9  1  0.249583  0.124791  0.625625  1
  P  P10  1  0.289794  0.000328  0.999898  1
  P  P11  1  0.999775  0.289466  0.999898  1
  P  P12  1  0.710637  0.710309  0.999898  1
  P  P13  1  0.202855  0.239519  0.256061  1
  P  P14  1  0.780603  0.541084  0.256061  1
  P  P15  1  0.504419  0.963335  0.256061  1
  P  P16  1  0.713488  0.211958  0.499498  1
  P  P17  1  0.288543  0.501529  0.499498  1
  P  P18  1  0.998973  0.787014  0.499498  1
  P  P19  1  0.795911  0.037229  0.744624  1
  P  P20  1  0.496694  0.459466  0.744624  1
  P  P21  1  0.218147  0.758682  0.744624  1
  O  O22  1  0.467787  0.164020  0.008377  1
  O  O23  1  0.827603  0.303766  0.008377  1
  O  O24  1  0.687857  0.523837  0.008377  1
  O  O25  1  0.963833  0.165776  0.088545  1
  O  O26  1  0.745678  0.798057  0.088545  1
  O  O27  1  0.113397  0.947621  0.088545  1
  O  O28  1  0.555771  0.090711  0.167816  1
  O  O29  1  0.367124  0.276413  0.167816  1
  O  O30  1  0.741474  0.465061  0.167816  1
  O  O31  1  0.170803  0.398775  0.256075  1
  O  O32  1  0.971896  0.573121  0.256075  1
  O  O33  1  0.345149  0.772028  0.256075  1
  O  O34  1  0.015196  0.060922  0.260730  1
  O  O35  1  0.784996  0.724075  0.260730  1
  O  O36  1  0.678346  0.954272  0.260730  1
  O  O37  1  0.447331  0.037700  0.346604  1
  O  O38  1  0.243765  0.206064  0.346604  1
  O  O39  1  0.615695  0.409630  0.346604  1
  O  O40  1  0.865077  0.347804  0.410352  1
  O  O41  1  0.241844  0.517273  0.410352  1
  O  O42  1  0.072376  0.724571  0.410352  1
  O  O43  1  0.698640  0.024544  0.487015  1
  O  O44  1  0.488441  0.674096  0.487015  1
  O  O45  1  0.838888  0.814344  0.487015  1
  O  O46  1  0.513262  0.184172  0.512527  1
  O  O47  1  0.303300  0.329089  0.512527  1
  O  O48  1  0.158383  0.974211  0.512527  1
  O  O49  1  0.759970  0.274877  0.588711  1
  O  O50  1  0.136414  0.485093  0.588711  1
  O  O51  1  0.926196  0.651320  0.588711  1
  O  O52  1  0.552685  0.590455  0.654051  1
  O  O53  1  0.383717  0.793263  0.654051  1
  O  O54  1  0.755494  0.962231  0.654051  1
  O  O55  1  0.983593  0.046673  0.739834  1
  O  O56  1  0.323247  0.276574  0.739834  1
  O  O57  1  0.213493  0.936920  0.739834  1
  O  O58  1  0.828882  0.228710  0.743804  1
  O  O59  1  0.656023  0.427312  0.743804  1
  O  O60  1  0.027484  0.600173  0.743804  1
  O  O61  1  0.446054  0.535757  0.832792  1
  O  O62  1  0.256910  0.721151  0.832792  1
  O  O63  1  0.631451  0.910298  0.832792  1
  O  O64  1  0.254745  0.052800  0.911195  1
  O  O65  1  0.036003  0.201944  0.911195  1
  O  O66  1  0.886860  0.834059  0.911195  1
  O  O67  1  0.172130  0.475877  0.991729  1
  O  O68  1  0.532394  0.696251  0.991729  1
  O  O69  1  0.312019  0.836142  0.991729  1
