# generated using pymatgen
data_CeThZr4F22
_symmetry_space_group_name_H-M   'P 1'
_cell_length_a   8.52887342
_cell_length_b   8.52887466
_cell_length_c   8.52887300
_cell_angle_alpha   124.70796150
_cell_angle_beta   106.34837155
_cell_angle_gamma   98.57647038
_symmetry_Int_Tables_number   1
_chemical_formula_structural   CeThZr4F22
_chemical_formula_sum   'Ce1 Th1 Zr4 F22'
_cell_volume   450.17602154
_cell_formula_units_Z   1
loop_
 _symmetry_equiv_pos_site_id
 _symmetry_equiv_pos_as_xyz
  1  'x, y, z'
loop_
 _atom_site_type_symbol
 _atom_site_label
 _atom_site_symmetry_multiplicity
 _atom_site_fract_x
 _atom_site_fract_y
 _atom_site_fract_z
 _atom_site_occupancy
  Ce  Ce0  1  0.250000  0.250000  0.000000  1
  Th  Th1  1  0.750000  0.750000  0.000000  1
  Zr  Zr2  1  0.818351  0.631317  0.452462  1
  Zr  Zr3  1  0.178856  0.365891  0.547538  1
  Zr  Zr4  1  0.321144  0.868683  0.187035  1
  Zr  Zr5  1  0.681649  0.134109  0.812965  1
  F  F6  1  0.326869  0.037237  0.085740  1
  F  F7  1  0.718917  0.867495  0.590358  1
  F  F8  1  0.951498  0.241128  0.914260  1
  F  F9  1  0.939611  0.095759  0.300370  1
  F  F10  1  0.222864  0.632505  0.851425  1
  F  F11  1  0.795390  0.639240  0.699630  1
  F  F12  1  0.548502  0.462763  0.289632  1
  F  F13  1  0.446580  0.130244  0.835160  1
  F  F14  1  0.781083  0.371441  0.148575  1
  F  F15  1  0.295084  0.611420  0.164840  1
  F  F16  1  0.458220  0.538924  0.722960  1
  F  F17  1  0.704610  0.404241  0.843852  1
  F  F18  1  0.560389  0.860760  0.156148  1
  F  F19  1  0.041780  0.764740  0.080705  1
  F  F20  1  0.989279  0.489279  0.500000  1
  F  F21  1  0.815964  0.735260  0.277040  1
  F  F22  1  0.204916  0.369756  0.316336  1
  F  F23  1  0.684036  0.961076  0.919295  1
  F  F24  1  0.173131  0.258872  0.710368  1
  F  F25  1  0.277136  0.128559  0.409642  1
  F  F26  1  0.053420  0.888580  0.683664  1
  F  F27  1  0.510721  0.010721  0.500000  1
