# generated using pymatgen
data_Ce4Si(PtRh2)4
_symmetry_space_group_name_H-M   'P 1'
_cell_length_a   7.26348695
_cell_length_b   7.26093408
_cell_length_c   7.26348757
_cell_angle_alpha   109.14637612
_cell_angle_beta   110.13693899
_cell_angle_gamma   109.14637984
_symmetry_Int_Tables_number   1
_chemical_formula_structural   Ce4Si(PtRh2)4
_chemical_formula_sum   'Ce4 Si1 Pt4 Rh8'
_cell_volume   294.81016831
_cell_formula_units_Z   1
loop_
 _symmetry_equiv_pos_site_id
 _symmetry_equiv_pos_as_xyz
  1  'x, y, z'
loop_
 _atom_site_type_symbol
 _atom_site_label
 _atom_site_symmetry_multiplicity
 _atom_site_fract_x
 _atom_site_fract_y
 _atom_site_fract_z
 _atom_site_occupancy
  Ce  Ce0  1  0.997541  0.995082  0.497541  1
  Ce  Ce1  1  0.008595  0.505695  0.008595  1
  Ce  Ce2  1  0.497541  0.995082  0.997541  1
  Ce  Ce3  1  0.497100  0.505695  0.497100  1
  Si  Si4  1  0.000095  0.000191  0.000095  1
  Pt  Pt5  1  0.750044  0.250063  0.500019  1
  Pt  Pt6  1  0.750109  0.500219  0.250109  1
  Pt  Pt7  1  0.500019  0.250063  0.750044  1
  Pt  Pt8  1  0.250109  0.500219  0.750109  1
  Rh  Rh9  1  0.249396  0.749265  0.499869  1
  Rh  Rh10  1  0.499869  0.749265  0.249396  1
  Rh  Rh11  1  0.723997  0.723831  0.999834  1
  Rh  Rh12  1  0.277837  0.000050  0.277837  1
  Rh  Rh13  1  0.999576  0.275700  0.276124  1
  Rh  Rh14  1  0.276124  0.275700  0.999576  1
  Rh  Rh15  1  0.722213  0.000050  0.722213  1
  Rh  Rh16  1  0.999834  0.723831  0.723997  1
