# generated using pymatgen
data_Yb2Ir3Ru
_symmetry_space_group_name_H-M   'P 1'
_cell_length_a   5.36105600
_cell_length_b   5.36105627
_cell_length_c   8.53670100
_cell_angle_alpha   90.00000000
_cell_angle_beta   90.00000000
_cell_angle_gamma   119.99999833
_symmetry_Int_Tables_number   1
_chemical_formula_structural   Yb2Ir3Ru
_chemical_formula_sum   'Yb4 Ir6 Ru2'
_cell_volume   212.48164449
_cell_formula_units_Z   2
loop_
 _symmetry_equiv_pos_site_id
 _symmetry_equiv_pos_as_xyz
  1  'x, y, z'
loop_
 _atom_site_type_symbol
 _atom_site_label
 _atom_site_symmetry_multiplicity
 _atom_site_fract_x
 _atom_site_fract_y
 _atom_site_fract_z
 _atom_site_occupancy
  Yb  Yb0  1  0.666666  0.333333  0.068828  1
  Yb  Yb1  1  0.666666  0.333333  0.431173  1
  Yb  Yb2  1  0.333333  0.666666  0.568828  1
  Yb  Yb3  1  0.333333  0.666666  0.931172  1
  Ir  Ir4  1  0.172219  0.344438  0.250000  1
  Ir  Ir5  1  0.172219  0.827781  0.250000  1
  Ir  Ir6  1  0.655562  0.827781  0.250000  1
  Ir  Ir7  1  0.344437  0.172218  0.750000  1
  Ir  Ir8  1  0.827780  0.172218  0.750000  1
  Ir  Ir9  1  0.827781  0.655563  0.750000  1
  Ru  Ru10  1  0.000000  0.000000  0.000000  1
  Ru  Ru11  1  0.000000  0.000000  0.500000  1
