# generated using pymatgen
data_LaNd5(Ir8Rh)2
_symmetry_space_group_name_H-M   'P 1'
_cell_length_a   5.37938300
_cell_length_b   5.37942970
_cell_length_c   17.67867800
_cell_angle_alpha   90.00000000
_cell_angle_beta   90.00000000
_cell_angle_gamma   120.00081539
_symmetry_Int_Tables_number   1
_chemical_formula_structural   LaNd5(Ir8Rh)2
_chemical_formula_sum   'La1 Nd5 Ir16 Rh2'
_cell_volume   443.04266574
_cell_formula_units_Z   1
loop_
 _symmetry_equiv_pos_site_id
 _symmetry_equiv_pos_as_xyz
  1  'x, y, z'
loop_
 _atom_site_type_symbol
 _atom_site_label
 _atom_site_symmetry_multiplicity
 _atom_site_fract_x
 _atom_site_fract_y
 _atom_site_fract_z
 _atom_site_occupancy
  La  La0  1  0.333342  0.666667  0.750000  1
  Nd  Nd1  1  0.333329  0.666662  0.540897  1
  Nd  Nd2  1  0.666665  0.333333  0.041084  1
  Nd  Nd3  1  0.666665  0.333333  0.458916  1
  Nd  Nd4  1  0.333329  0.666662  0.959103  1
  Nd  Nd5  1  0.666672  0.333343  0.250000  1
  Ir  Ir6  1  0.166886  0.333766  0.127847  1
  Ir  Ir7  1  0.833132  0.666272  0.627191  1
  Ir  Ir8  1  0.666235  0.833116  0.127844  1
  Ir  Ir9  1  0.166884  0.833119  0.127841  1
  Ir  Ir10  1  0.833128  0.166856  0.627196  1
  Ir  Ir11  1  0.333720  0.166853  0.627191  1
  Ir  Ir12  1  0.833132  0.666272  0.872809  1
  Ir  Ir13  1  0.833128  0.166856  0.872804  1
  Ir  Ir14  1  0.333720  0.166853  0.872809  1
  Ir  Ir15  1  0.666235  0.833116  0.372156  1
  Ir  Ir16  1  0.166884  0.833119  0.372159  1
  Ir  Ir17  1  0.166886  0.333766  0.372153  1
  Ir  Ir18  1  0.000000  0.999980  0.250000  1
  Ir  Ir19  1  0.000029  0.999997  0.750000  1
  Ir  Ir20  1  0.999999  0.000001  0.000254  1
  Ir  Ir21  1  0.999999  0.000001  0.499746  1
  Rh  Rh22  1  0.333364  0.666722  0.250000  1
  Rh  Rh23  1  0.666640  0.333334  0.750000  1
