# generated using pymatgen
data_TbY3CdInPd4
_symmetry_space_group_name_H-M   'P 1'
_cell_length_a   7.76416396
_cell_length_b   7.76007496
_cell_length_c   3.74067800
_cell_angle_alpha   90.00000000
_cell_angle_beta   90.00000000
_cell_angle_gamma   90.05713251
_symmetry_Int_Tables_number   1
_chemical_formula_structural   TbY3CdInPd4
_chemical_formula_sum   'Tb1 Y3 Cd1 In1 Pd4'
_cell_volume   225.37758686
_cell_formula_units_Z   1
loop_
 _symmetry_equiv_pos_site_id
 _symmetry_equiv_pos_as_xyz
  1  'x, y, z'
loop_
 _atom_site_type_symbol
 _atom_site_label
 _atom_site_symmetry_multiplicity
 _atom_site_fract_x
 _atom_site_fract_y
 _atom_site_fract_z
 _atom_site_occupancy
  Tb  Tb0  1  0.675098  0.165204  0.500000  1
  Y  Y1  1  0.324642  0.834741  0.500000  1
  Y  Y2  1  0.165225  0.324771  0.500000  1
  Y  Y3  1  0.834909  0.675285  0.500000  1
  Cd  Cd4  1  0.499913  0.500134  0.000000  1
  In  In5  1  0.000134  0.999901  0.000000  1
  Pd  Pd6  1  0.131715  0.626973  0.000000  1
  Pd  Pd7  1  0.867956  0.372595  0.000000  1
  Pd  Pd8  1  0.627180  0.868554  0.000000  1
  Pd  Pd9  1  0.373228  0.131841  0.000000  1
