# generated using pymatgen
data_Pa2TiGa6
_symmetry_space_group_name_H-M   'P 1'
_cell_length_a   6.26903289
_cell_length_b   6.26903194
_cell_length_c   6.26903300
_cell_angle_alpha   59.99999969
_cell_angle_beta   60.00000471
_cell_angle_gamma   59.99999812
_symmetry_Int_Tables_number   1
_chemical_formula_structural   Pa2TiGa6
_chemical_formula_sum   'Pa2 Ti1 Ga6'
_cell_volume   174.21542211
_cell_formula_units_Z   1
loop_
 _symmetry_equiv_pos_site_id
 _symmetry_equiv_pos_as_xyz
  1  'x, y, z'
loop_
 _atom_site_type_symbol
 _atom_site_label
 _atom_site_symmetry_multiplicity
 _atom_site_fract_x
 _atom_site_fract_y
 _atom_site_fract_z
 _atom_site_occupancy
  Pa  Pa0  1  0.750000  0.750000  0.750000  1
  Pa  Pa1  1  0.250000  0.250000  0.250000  1
  Ti  Ti2  1  0.500000  0.500000  0.500000  1
  Ga  Ga3  1  0.786241  0.786241  0.213759  1
  Ga  Ga4  1  0.213759  0.786241  0.213759  1
  Ga  Ga5  1  0.786241  0.213759  0.213759  1
  Ga  Ga6  1  0.213759  0.213759  0.786241  1
  Ga  Ga7  1  0.786241  0.213759  0.786241  1
  Ga  Ga8  1  0.213759  0.786241  0.786241  1
