# generated using pymatgen
data_Zr10Tl2In3Ga2Pb
_symmetry_space_group_name_H-M   'P 1'
_cell_length_a   8.80803686
_cell_length_b   8.82410593
_cell_length_c   5.92036500
_cell_angle_alpha   90.00000000
_cell_angle_beta   90.00000000
_cell_angle_gamma   120.06004609
_symmetry_Int_Tables_number   1
_chemical_formula_structural   Zr10Tl2In3Ga2Pb
_chemical_formula_sum   'Zr10 Tl2 In3 Ga2 Pb1'
_cell_volume   398.25923604
_cell_formula_units_Z   1
loop_
 _symmetry_equiv_pos_site_id
 _symmetry_equiv_pos_as_xyz
  1  'x, y, z'
loop_
 _atom_site_type_symbol
 _atom_site_label
 _atom_site_symmetry_multiplicity
 _atom_site_fract_x
 _atom_site_fract_y
 _atom_site_fract_z
 _atom_site_occupancy
  Zr  Zr0  1  0.666027  0.333344  0.997781  1
  Zr  Zr1  1  0.333968  0.667308  0.997763  1
  Zr  Zr2  1  0.333968  0.667308  0.502237  1
  Zr  Zr3  1  0.666027  0.333344  0.502219  1
  Zr  Zr4  1  0.736066  0.735856  0.750000  1
  Zr  Zr5  1  0.263933  0.999794  0.750000  1
  Zr  Zr6  1  0.000001  0.262975  0.750000  1
  Zr  Zr7  1  0.260558  0.260384  0.250000  1
  Zr  Zr8  1  0.739445  0.999834  0.250000  1
  Zr  Zr9  1  0.999999  0.739956  0.250000  1
  Tl  Tl10  1  0.611835  0.612325  0.250000  1
  Tl  Tl11  1  0.388156  0.000475  0.250000  1
  In  In12  1  0.385078  0.384893  0.750000  1
  In  In13  1  0.614923  0.999793  0.750000  1
  In  In14  1  0.000012  0.616321  0.750000  1
  Ga  Ga15  1  0.999998  0.999394  0.996541  1
  Ga  Ga16  1  0.999998  0.999394  0.503459  1
  Pb  Pb17  1  0.000008  0.387302  0.250000  1
