# generated using pymatgen
data_Ho3Er9Ni5Sn
_symmetry_space_group_name_H-M   'P 1'
_cell_length_a   8.29365872
_cell_length_b   8.28217849
_cell_length_c   8.29438500
_cell_angle_alpha   111.70855049
_cell_angle_beta   109.42022296
_cell_angle_gamma   107.36882848
_symmetry_Int_Tables_number   1
_chemical_formula_structural   Ho3Er9Ni5Sn
_chemical_formula_sum   'Ho3 Er9 Ni5 Sn1'
_cell_volume   437.65725549
_cell_formula_units_Z   1
loop_
 _symmetry_equiv_pos_site_id
 _symmetry_equiv_pos_as_xyz
  1  'x, y, z'
loop_
 _atom_site_type_symbol
 _atom_site_label
 _atom_site_symmetry_multiplicity
 _atom_site_fract_x
 _atom_site_fract_y
 _atom_site_fract_z
 _atom_site_occupancy
  Ho  Ho0  1  0.818193  0.703973  0.522279  1
  Ho  Ho1  1  0.181594  0.295597  0.477179  1
  Ho  Ho2  1  0.181988  0.704169  0.886033  1
  Er  Er3  1  0.818142  0.295836  0.114265  1
  Er  Er4  1  0.677761  0.370319  0.693589  1
  Er  Er5  1  0.322450  0.629772  0.307014  1
  Er  Er6  1  0.677141  0.983873  0.306723  1
  Er  Er7  1  0.323412  0.016391  0.693759  1
  Er  Er8  1  0.599194  0.790115  0.809188  1
  Er  Er9  1  0.401917  0.210656  0.191273  1
  Er  Er10  1  0.980797  0.789235  0.191209  1
  Er  Er11  1  0.019108  0.210182  0.809417  1
  Ni  Ni12  1  0.634851  0.999865  0.635180  1
  Ni  Ni13  1  0.364673  0.000182  0.364230  1
  Ni  Ni14  1  0.124730  0.625118  0.499631  1
  Ni  Ni15  1  0.873761  0.374803  0.499298  1
  Ni  Ni16  1  0.000132  0.999716  0.999660  1
  Sn  Sn17  1  0.500159  0.500197  0.000072  1
