# generated using pymatgen
data_Dy20Ir7Au5
_symmetry_space_group_name_H-M   'P 1'
_cell_length_a   11.19964026
_cell_length_b   11.19964040
_cell_length_c   6.31510408
_cell_angle_alpha   90.02397025
_cell_angle_beta   90.02396923
_cell_angle_gamma   89.50539249
_symmetry_Int_Tables_number   1
_chemical_formula_structural   Dy20Ir7Au5
_chemical_formula_sum   'Dy20 Ir7 Au5'
_cell_volume   792.08612604
_cell_formula_units_Z   1
loop_
 _symmetry_equiv_pos_site_id
 _symmetry_equiv_pos_as_xyz
  1  'x, y, z'
loop_
 _atom_site_type_symbol
 _atom_site_label
 _atom_site_symmetry_multiplicity
 _atom_site_fract_x
 _atom_site_fract_y
 _atom_site_fract_z
 _atom_site_occupancy
  Dy  Dy0  1  0.300119  0.091268  0.363448  1
  Dy  Dy1  1  0.301597  0.907032  0.863261  1
  Dy  Dy2  1  0.697647  0.080769  0.858081  1
  Dy  Dy3  1  0.697600  0.905537  0.361028  1
  Dy  Dy4  1  0.580813  0.784712  0.876464  1
  Dy  Dy5  1  0.576163  0.206506  0.361263  1
  Dy  Dy6  1  0.417394  0.788331  0.376423  1
  Dy  Dy7  1  0.410858  0.207867  0.875385  1
  Dy  Dy8  1  0.215288  0.419187  0.623536  1
  Dy  Dy9  1  0.211669  0.582606  0.123577  1
  Dy  Dy10  1  0.793494  0.423837  0.138737  1
  Dy  Dy11  1  0.792133  0.589142  0.624615  1
  Dy  Dy12  1  0.908732  0.699881  0.136552  1
  Dy  Dy13  1  0.919231  0.302353  0.641919  1
  Dy  Dy14  1  0.092968  0.698403  0.636739  1
  Dy  Dy15  1  0.094463  0.302400  0.138972  1
  Dy  Dy16  1  0.998511  0.000973  0.499245  1
  Dy  Dy17  1  0.999027  0.001489  0.000755  1
  Dy  Dy18  1  0.496007  0.501952  0.001025  1
  Dy  Dy19  1  0.498048  0.503993  0.498975  1
  Ir  Ir20  1  0.653921  0.651198  0.250818  1
  Ir  Ir21  1  0.348802  0.346079  0.249182  1
  Ir  Ir22  1  0.345136  0.654864  0.750000  1
  Ir  Ir23  1  0.499330  0.999130  0.110311  1
  Ir  Ir24  1  0.499114  0.000302  0.611360  1
  Ir  Ir25  1  0.999698  0.500886  0.888640  1
  Ir  Ir26  1  0.000870  0.500670  0.389689  1
  Au  Au27  1  0.841442  0.158558  0.250000  1
  Au  Au28  1  0.843470  0.845815  0.750744  1
  Au  Au29  1  0.154185  0.156530  0.749256  1
  Au  Au30  1  0.155749  0.844251  0.250000  1
  Au  Au31  1  0.656521  0.343479  0.750000  1
