# generated using pymatgen
data_Tm2LuSc2Pb3
_symmetry_space_group_name_H-M   'P 1'
_cell_length_a   8.80457137
_cell_length_b   8.80017739
_cell_length_c   6.31752800
_cell_angle_alpha   90.00000000
_cell_angle_beta   90.00000000
_cell_angle_gamma   119.98349927
_symmetry_Int_Tables_number   1
_chemical_formula_structural   Tm2LuSc2Pb3
_chemical_formula_sum   'Tm4 Lu2 Sc4 Pb6'
_cell_volume   423.98416686
_cell_formula_units_Z   2
loop_
 _symmetry_equiv_pos_site_id
 _symmetry_equiv_pos_as_xyz
  1  'x, y, z'
loop_
 _atom_site_type_symbol
 _atom_site_label
 _atom_site_symmetry_multiplicity
 _atom_site_fract_x
 _atom_site_fract_y
 _atom_site_fract_z
 _atom_site_occupancy
  Tm  Tm0  1  0.237188  0.999896  0.250000  1
  Tm  Tm1  1  0.237188  0.237292  0.750000  1
  Tm  Tm2  1  0.999681  0.763024  0.750000  1
  Tm  Tm3  1  0.999681  0.236658  0.250000  1
  Lu  Lu4  1  0.763073  0.763200  0.250000  1
  Lu  Lu5  1  0.763073  0.999872  0.750000  1
  Sc  Sc6  1  0.333321  0.666661  0.000000  1
  Sc  Sc7  1  0.666760  0.333379  0.500000  1
  Sc  Sc8  1  0.666760  0.333379  0.000000  1
  Sc  Sc9  1  0.333321  0.666661  0.500000  1
  Pb  Pb10  1  0.601457  0.999457  0.250000  1
  Pb  Pb11  1  0.601457  0.601999  0.750000  1
  Pb  Pb12  1  0.999609  0.398029  0.750000  1
  Pb  Pb13  1  0.999609  0.601580  0.250000  1
  Pb  Pb14  1  0.398911  0.399019  0.250000  1
  Pb  Pb15  1  0.398911  0.999892  0.750000  1
