# generated using pymatgen
data_NdUCu2(BiSb)2
_symmetry_space_group_name_H-M   'P 1'
_cell_length_a   4.46045200
_cell_length_b   4.46045200
_cell_length_c   9.81736800
_cell_angle_alpha   90.00000000
_cell_angle_beta   90.00000000
_cell_angle_gamma   90.00000000
_symmetry_Int_Tables_number   1
_chemical_formula_structural   NdUCu2(BiSb)2
_chemical_formula_sum   'Nd1 U1 Cu2 Bi2 Sb2'
_cell_volume   195.32274137
_cell_formula_units_Z   1
loop_
 _symmetry_equiv_pos_site_id
 _symmetry_equiv_pos_as_xyz
  1  'x, y, z'
loop_
 _atom_site_type_symbol
 _atom_site_label
 _atom_site_symmetry_multiplicity
 _atom_site_fract_x
 _atom_site_fract_y
 _atom_site_fract_z
 _atom_site_occupancy
  Nd  Nd0  1  0.500000  0.000000  0.255809  1
  U  U1  1  0.000000  0.500000  0.730438  1
  Cu  Cu2  1  0.500000  0.500000  0.506135  1
  Cu  Cu3  1  0.000000  0.000000  0.506135  1
  Bi  Bi4  1  0.500000  0.500000  0.990231  1
  Bi  Bi5  1  0.000000  0.000000  0.990231  1
  Sb  Sb6  1  0.000000  0.500000  0.352942  1
  Sb  Sb7  1  0.500000  0.000000  0.668079  1
