# generated using pymatgen
data_Ba7Sr2Mn5O20
_symmetry_space_group_name_H-M   'P 1'
_cell_length_a   5.97901760
_cell_length_b   5.97905777
_cell_length_c   18.01111039
_cell_angle_alpha   80.44351274
_cell_angle_beta   99.55638741
_cell_angle_gamma   119.99820021
_symmetry_Int_Tables_number   1
_chemical_formula_structural   Ba7Sr2Mn5O20
_chemical_formula_sum   'Ba7 Sr2 Mn5 O20'
_cell_volume   547.28178027
_cell_formula_units_Z   1
loop_
 _symmetry_equiv_pos_site_id
 _symmetry_equiv_pos_as_xyz
  1  'x, y, z'
loop_
 _atom_site_type_symbol
 _atom_site_label
 _atom_site_symmetry_multiplicity
 _atom_site_fract_x
 _atom_site_fract_y
 _atom_site_fract_z
 _atom_site_occupancy
  Ba  Ba0  1  0.000008  0.999991  0.000027  1
  Ba  Ba1  1  0.388308  0.611687  0.164995  1
  Ba  Ba2  1  0.775223  0.224778  0.325738  1
  Ba  Ba3  1  0.146052  0.853943  0.438233  1
  Ba  Ba4  1  0.853939  0.146065  0.561743  1
  Ba  Ba5  1  0.224767  0.775231  0.674233  1
  Ba  Ba6  1  0.611691  0.388314  0.834999  1
  Sr  Sr7  1  0.073556  0.926443  0.220712  1
  Sr  Sr8  1  0.926422  0.073576  0.779237  1
  Mn  Mn9  1  0.695340  0.304665  0.086085  1
  Mn  Mn10  1  0.304664  0.695330  0.913936  1
  Mn  Mn11  1  0.451201  0.548794  0.353591  1
  Mn  Mn12  1  0.500014  0.499986  0.500037  1
  Mn  Mn13  1  0.548797  0.451211  0.646403  1
  O  O14  1  0.336374  0.663628  0.009123  1
  O  O15  1  0.862894  0.136616  0.121451  1
  O  O16  1  0.395132  0.137123  0.121460  1
  O  O17  1  0.863394  0.604874  0.121457  1
  O  O18  1  0.281122  0.268181  0.294771  1
  O  O19  1  0.731819  0.718117  0.294773  1
  O  O20  1  0.281849  0.718890  0.294762  1
  O  O21  1  0.622549  0.376968  0.431156  1
  O  O22  1  0.185584  0.377451  0.431150  1
  O  O23  1  0.623028  0.814408  0.431147  1
  O  O24  1  0.376950  0.185526  0.568874  1
  O  O25  1  0.814481  0.622568  0.568871  1
  O  O26  1  0.377435  0.623052  0.568865  1
  O  O27  1  0.718125  0.281133  0.705215  1
  O  O28  1  0.268206  0.281908  0.705204  1
  O  O29  1  0.718858  0.731797  0.705205  1
  O  O30  1  0.136638  0.395194  0.878540  1
  O  O31  1  0.604800  0.862846  0.878538  1
  O  O32  1  0.137137  0.863353  0.878546  1
  O  O33  1  0.663637  0.336360  0.990922  1
