# generated using pymatgen
data_LiPr8HoSi6
_symmetry_space_group_name_H-M   'P 1'
_cell_length_a   7.67744511
_cell_length_b   7.67744365
_cell_length_c   8.98430514
_cell_angle_alpha   115.29442299
_cell_angle_beta   115.29441887
_cell_angle_gamma   89.99999924
_symmetry_Int_Tables_number   1
_chemical_formula_structural   LiPr8HoSi6
_chemical_formula_sum   'Li1 Pr8 Ho1 Si6'
_cell_volume   421.95293737
_cell_formula_units_Z   1
loop_
 _symmetry_equiv_pos_site_id
 _symmetry_equiv_pos_as_xyz
  1  'x, y, z'
loop_
 _atom_site_type_symbol
 _atom_site_label
 _atom_site_symmetry_multiplicity
 _atom_site_fract_x
 _atom_site_fract_y
 _atom_site_fract_z
 _atom_site_occupancy
  Li  Li0  1  0.500000  0.500000  0.000000  1
  Pr  Pr1  1  0.957878  0.816299  0.287148  1
  Pr  Pr2  1  0.329269  0.470849  0.287148  1
  Pr  Pr3  1  0.816299  0.329269  0.287148  1
  Pr  Pr4  1  0.470849  0.957878  0.287148  1
  Pr  Pr5  1  0.042122  0.183701  0.712852  1
  Pr  Pr6  1  0.670731  0.529151  0.712852  1
  Pr  Pr7  1  0.183701  0.670731  0.712852  1
  Pr  Pr8  1  0.529151  0.042122  0.712852  1
  Ho  Ho9  1  0.000000  0.000000  0.000000  1
  Si  Si10  1  0.767303  0.767303  0.534607  1
  Si  Si11  1  0.232697  0.232697  0.465393  1
  Si  Si12  1  0.618370  0.889273  0.000000  1
  Si  Si13  1  0.381630  0.110727  0.000000  1
  Si  Si14  1  0.889273  0.381630  0.000000  1
  Si  Si15  1  0.110727  0.618370  0.000000  1
