# generated using pymatgen
data_Nd16Sm4Si15Ge
_symmetry_space_group_name_H-M   'P 1'
_cell_length_a   7.92221626
_cell_length_b   7.92714192
_cell_length_c   15.37958800
_cell_angle_alpha   89.99090743
_cell_angle_beta   90.04331420
_cell_angle_gamma   90.02603417
_symmetry_Int_Tables_number   1
_chemical_formula_structural   Nd16Sm4Si15Ge
_chemical_formula_sum   'Nd16 Sm4 Si15 Ge1'
_cell_volume   965.84593016
_cell_formula_units_Z   1
loop_
 _symmetry_equiv_pos_site_id
 _symmetry_equiv_pos_as_xyz
  1  'x, y, z'
loop_
 _atom_site_type_symbol
 _atom_site_label
 _atom_site_symmetry_multiplicity
 _atom_site_fract_x
 _atom_site_fract_y
 _atom_site_fract_z
 _atom_site_occupancy
  Nd  Nd0  1  0.479673  0.373584  0.126887  1
  Nd  Nd1  1  0.977515  0.127781  0.624089  1
  Nd  Nd2  1  0.873539  0.020620  0.877223  1
  Nd  Nd3  1  0.125976  0.979878  0.376583  1
  Nd  Nd4  1  0.520578  0.625427  0.626889  1
  Nd  Nd5  1  0.374054  0.479486  0.873305  1
  Nd  Nd6  1  0.627658  0.519658  0.372340  1
  Nd  Nd7  1  0.020008  0.874184  0.122473  1
  Nd  Nd8  1  0.621023  0.988885  0.445198  1
  Nd  Nd9  1  0.380591  0.010898  0.946356  1
  Nd  Nd10  1  0.988481  0.618615  0.553783  1
  Nd  Nd11  1  0.489008  0.880075  0.195720  1
  Nd  Nd12  1  0.512935  0.122464  0.698231  1
  Nd  Nd13  1  0.879804  0.488599  0.804245  1
  Nd  Nd14  1  0.119173  0.510353  0.303305  1
  Nd  Nd15  1  0.010870  0.380097  0.054031  1
  Sm  Sm16  1  0.308922  0.312058  0.499312  1
  Sm  Sm17  1  0.190684  0.808523  0.751864  1
  Sm  Sm18  1  0.809227  0.190334  0.249664  1
  Sm  Sm19  1  0.690859  0.690886  0.999858  1
  Si  Si20  1  0.712791  0.078451  0.061176  1
  Si  Si21  1  0.921454  0.285874  0.438892  1
  Si  Si22  1  0.421441  0.212440  0.311121  1
  Si  Si23  1  0.578104  0.786617  0.811113  1
  Si  Si24  1  0.213259  0.421268  0.688796  1
  Si  Si25  1  0.786537  0.579074  0.188161  1
  Si  Si26  1  0.078335  0.713209  0.939178  1
  Si  Si27  1  0.807679  0.829751  0.704615  1
  Si  Si28  1  0.192054  0.169828  0.204287  1
  Si  Si29  1  0.830540  0.807842  0.295176  1
  Si  Si30  1  0.330159  0.689015  0.452071  1
  Si  Si31  1  0.669702  0.307805  0.954394  1
  Si  Si32  1  0.691855  0.329792  0.545334  1
  Si  Si33  1  0.308295  0.670043  0.045644  1
  Si  Si34  1  0.170208  0.191927  0.795704  1
  Ge  Ge35  1  0.287009  0.924656  0.562981  1
