# generated using pymatgen
data_Lu12FeCo4Bi
_symmetry_space_group_name_H-M   'P 1'
_cell_length_a   8.13069347
_cell_length_b   8.13069261
_cell_length_c   8.13069270
_cell_angle_alpha   111.23697821
_cell_angle_beta   111.22906496
_cell_angle_gamma   106.00232822
_symmetry_Int_Tables_number   1
_chemical_formula_structural   Lu12FeCo4Bi
_chemical_formula_sum   'Lu12 Fe1 Co4 Bi1'
_cell_volume   412.64300211
_cell_formula_units_Z   1
loop_
 _symmetry_equiv_pos_site_id
 _symmetry_equiv_pos_as_xyz
  1  'x, y, z'
loop_
 _atom_site_type_symbol
 _atom_site_label
 _atom_site_symmetry_multiplicity
 _atom_site_fract_x
 _atom_site_fract_y
 _atom_site_fract_z
 _atom_site_occupancy
  Lu  Lu0  1  0.815268  0.715727  0.530996  1
  Lu  Lu1  1  0.183616  0.285792  0.469408  1
  Lu  Lu2  1  0.183616  0.714208  0.897825  1
  Lu  Lu3  1  0.815268  0.284273  0.099540  1
  Lu  Lu4  1  0.690359  0.380298  0.692738  1
  Lu  Lu5  1  0.312440  0.619702  0.310061  1
  Lu  Lu6  1  0.690359  0.997622  0.310061  1
  Lu  Lu7  1  0.312440  0.002378  0.692738  1
  Lu  Lu8  1  0.593971  0.789983  0.803989  1
  Lu  Lu9  1  0.405024  0.209224  0.195798  1
  Lu  Lu10  1  0.986574  0.790776  0.195798  1
  Lu  Lu11  1  0.014006  0.210017  0.803989  1
  Fe  Fe12  1  0.620688  0.000000  0.620688  1
  Co  Co13  1  0.375614  0.000000  0.375614  1
  Co  Co14  1  0.112228  0.611892  0.500335  1
  Co  Co15  1  0.888443  0.388108  0.500335  1
  Co  Co16  1  0.999769  0.000000  0.999769  1
  Bi  Bi17  1  0.500315  0.500000  0.000315  1
