# generated using pymatgen
data_TaNbB6(Ru3W2)2
_symmetry_space_group_name_H-M   'P 1'
_cell_length_a   3.03197400
_cell_length_b   8.98170869
_cell_length_c   15.80774856
_cell_angle_alpha   89.69588120
_cell_angle_beta   90.00000000
_cell_angle_gamma   90.00000000
_symmetry_Int_Tables_number   1
_chemical_formula_structural   TaNbB6(Ru3W2)2
_chemical_formula_sum   'Ta2 Nb2 B12 Ru12 W8'
_cell_volume   430.47540138
_cell_formula_units_Z   2
loop_
 _symmetry_equiv_pos_site_id
 _symmetry_equiv_pos_as_xyz
  1  'x, y, z'
loop_
 _atom_site_type_symbol
 _atom_site_label
 _atom_site_symmetry_multiplicity
 _atom_site_fract_x
 _atom_site_fract_y
 _atom_site_fract_z
 _atom_site_occupancy
  Ta  Ta0  1  0.000000  0.198123  0.301140  1
  Ta  Ta1  1  0.000000  0.801877  0.698860  1
  Nb  Nb2  1  0.000000  0.699400  0.198127  1
  Nb  Nb3  1  0.000000  0.300600  0.801873  1
  B  B4  1  0.500000  0.603575  0.495969  1
  B  B5  1  0.500000  0.396425  0.504031  1
  B  B6  1  0.500000  0.103440  0.004518  1
  B  B7  1  0.500000  0.896560  0.995482  1
  B  B8  1  0.000000  0.601597  0.832186  1
  B  B9  1  0.000000  0.398403  0.167814  1
  B  B10  1  0.000000  0.101446  0.668197  1
  B  B11  1  0.000000  0.898554  0.331803  1
  B  B12  1  0.500000  0.711724  0.594684  1
  B  B13  1  0.500000  0.288276  0.405316  1
  B  B14  1  0.500000  0.213241  0.906224  1
  B  B15  1  0.500000  0.786759  0.093776  1
  Ru  Ru16  1  0.500000  0.724464  0.351077  1
  Ru  Ru17  1  0.500000  0.275536  0.648923  1
  Ru  Ru18  1  0.500000  0.223584  0.149367  1
  Ru  Ru19  1  0.500000  0.776416  0.850633  1
  Ru  Ru20  1  0.500000  0.516189  0.088255  1
  Ru  Ru21  1  0.500000  0.483811  0.911745  1
  Ru  Ru22  1  0.500000  0.018541  0.411698  1
  Ru  Ru23  1  0.500000  0.981459  0.588302  1
  Ru  Ru24  1  0.500000  0.547531  0.735039  1
  Ru  Ru25  1  0.500000  0.452469  0.264961  1
  Ru  Ru26  1  0.500000  0.042974  0.763288  1
  Ru  Ru27  1  0.500000  0.957026  0.236712  1
  W  W28  1  0.000000  0.790370  0.492613  1
  W  W29  1  0.000000  0.209630  0.507387  1
  W  W30  1  0.000000  0.290687  0.007330  1
  W  W31  1  0.000000  0.709313  0.992670  1
  W  W32  1  0.000000  0.512342  0.591210  1
  W  W33  1  0.000000  0.487658  0.408790  1
  W  W34  1  0.000000  0.014332  0.908809  1
  W  W35  1  0.000000  0.985668  0.091191  1
