# generated using pymatgen
data_PrYCo2I
_symmetry_space_group_name_H-M   'P 1'
_cell_length_a   3.99058700
_cell_length_b   3.99058713
_cell_length_c   17.51461600
_cell_angle_alpha   90.00000000
_cell_angle_beta   90.00000000
_cell_angle_gamma   120.00002381
_symmetry_Int_Tables_number   1
_chemical_formula_structural   PrYCo2I
_chemical_formula_sum   'Pr2 Y2 Co4 I2'
_cell_volume   241.54871329
_cell_formula_units_Z   2
loop_
 _symmetry_equiv_pos_site_id
 _symmetry_equiv_pos_as_xyz
  1  'x, y, z'
loop_
 _atom_site_type_symbol
 _atom_site_label
 _atom_site_symmetry_multiplicity
 _atom_site_fract_x
 _atom_site_fract_y
 _atom_site_fract_z
 _atom_site_occupancy
  Pr  Pr0  1  0.000000  0.000000  0.108371  1
  Pr  Pr1  1  0.000000  0.000000  0.891629  1
  Y  Y2  1  0.000000  0.000000  0.600644  1
  Y  Y3  1  0.000000  0.000000  0.399356  1
  Co  Co4  1  0.333333  0.666667  0.501708  1
  Co  Co5  1  0.666667  0.333333  0.498292  1
  Co  Co6  1  0.666667  0.333333  0.999532  1
  Co  Co7  1  0.333333  0.666667  0.000468  1
  I  I8  1  0.333333  0.666667  0.259122  1
  I  I9  1  0.666667  0.333333  0.740878  1
