# generated using pymatgen
data_Zr10AlNiSnBi5
_symmetry_space_group_name_H-M   'P 1'
_cell_length_a   8.80704711
_cell_length_b   8.83189503
_cell_length_c   5.93670246
_cell_angle_alpha   89.90935316
_cell_angle_beta   90.18181190
_cell_angle_gamma   119.90697601
_symmetry_Int_Tables_number   1
_chemical_formula_structural   Zr10AlNiSnBi5
_chemical_formula_sum   'Zr10 Al1 Ni1 Sn1 Bi5'
_cell_volume   400.28035735
_cell_formula_units_Z   1
loop_
 _symmetry_equiv_pos_site_id
 _symmetry_equiv_pos_as_xyz
  1  'x, y, z'
loop_
 _atom_site_type_symbol
 _atom_site_label
 _atom_site_symmetry_multiplicity
 _atom_site_fract_x
 _atom_site_fract_y
 _atom_site_fract_z
 _atom_site_occupancy
  Zr  Zr0  1  0.333320  0.668682  0.998249  1
  Zr  Zr1  1  0.664033  0.329664  0.501747  1
  Zr  Zr2  1  0.664639  0.331318  0.998249  1
  Zr  Zr3  1  0.334368  0.670336  0.501747  1
  Zr  Zr4  1  0.259203  0.000000  0.238640  1
  Zr  Zr5  1  0.263329  0.258549  0.760266  1
  Zr  Zr6  1  0.004781  0.741451  0.760266  1
  Zr  Zr7  1  0.999412  0.258933  0.240117  1
  Zr  Zr8  1  0.740478  0.741067  0.240117  1
  Zr  Zr9  1  0.736332  0.000000  0.759641  1
  Al  Al10  1  0.000043  0.000000  0.503802  1
  Ni  Ni11  1  0.000763  0.000000  0.996793  1
  Sn  Sn12  1  0.387480  0.000000  0.747868  1
  Bi  Bi13  1  0.609980  0.000000  0.251889  1
  Bi  Bi14  1  0.614335  0.613580  0.748007  1
  Bi  Bi15  1  0.000755  0.386420  0.748007  1
  Bi  Bi16  1  0.999125  0.611499  0.252297  1
  Bi  Bi17  1  0.387626  0.388501  0.252297  1
