# generated using pymatgen
data_Zn14CuB6Ir17
_symmetry_space_group_name_H-M   'P 1'
_cell_length_a   2.89750500
_cell_length_b   11.38763400
_cell_length_c   14.96162500
_cell_angle_alpha   90.00000000
_cell_angle_beta   90.00000000
_cell_angle_gamma   90.00000000
_symmetry_Int_Tables_number   1
_chemical_formula_structural   Zn14CuB6Ir17
_chemical_formula_sum   'Zn14 Cu1 B6 Ir17'
_cell_volume   493.66968579
_cell_formula_units_Z   1
loop_
 _symmetry_equiv_pos_site_id
 _symmetry_equiv_pos_as_xyz
  1  'x, y, z'
loop_
 _atom_site_type_symbol
 _atom_site_label
 _atom_site_symmetry_multiplicity
 _atom_site_fract_x
 _atom_site_fract_y
 _atom_site_fract_z
 _atom_site_occupancy
  Zn  Zn0  1  0.500000  0.500000  0.348504  1
  Zn  Zn1  1  0.500000  0.000000  0.651614  1
  Zn  Zn2  1  0.500000  0.387981  0.000684  1
  Zn  Zn3  1  0.500000  0.111472  0.999335  1
  Zn  Zn4  1  0.500000  0.612019  0.000684  1
  Zn  Zn5  1  0.500000  0.888528  0.999335  1
  Zn  Zn6  1  0.500000  0.372587  0.769548  1
  Zn  Zn7  1  0.500000  0.127092  0.231767  1
  Zn  Zn8  1  0.500000  0.627413  0.769548  1
  Zn  Zn9  1  0.500000  0.872908  0.231767  1
  Zn  Zn10  1  0.500000  0.297445  0.603880  1
  Zn  Zn11  1  0.500000  0.203090  0.396202  1
  Zn  Zn12  1  0.500000  0.702555  0.603880  1
  Zn  Zn13  1  0.500000  0.796910  0.396202  1
  Cu  Cu14  1  0.000000  0.000000  0.121315  1
  B  B15  1  0.500000  0.500000  0.529885  1
  B  B16  1  0.500000  0.000000  0.469251  1
  B  B17  1  0.500000  0.141921  0.821610  1
  B  B18  1  0.500000  0.356359  0.177862  1
  B  B19  1  0.500000  0.858079  0.821610  1
  B  B20  1  0.500000  0.643641  0.177862  1
  Ir  Ir21  1  0.000000  0.246769  0.894641  1
  Ir  Ir22  1  0.000000  0.246878  0.105771  1
  Ir  Ir23  1  0.000000  0.753231  0.894641  1
  Ir  Ir24  1  0.000000  0.753122  0.105771  1
  Ir  Ir25  1  0.000000  0.500000  0.641929  1
  Ir  Ir26  1  0.000000  0.000000  0.355514  1
  Ir  Ir27  1  0.000000  0.171744  0.716958  1
  Ir  Ir28  1  0.000000  0.329226  0.282830  1
  Ir  Ir29  1  0.000000  0.828256  0.716958  1
  Ir  Ir30  1  0.000000  0.670774  0.282830  1
  Ir  Ir31  1  0.000000  0.500000  0.138363  1
  Ir  Ir32  1  0.000000  0.000000  0.863903  1
  Ir  Ir33  1  0.000000  0.122577  0.529226  1
  Ir  Ir34  1  0.000000  0.377655  0.469995  1
  Ir  Ir35  1  0.000000  0.877423  0.529226  1
  Ir  Ir36  1  0.000000  0.622345  0.469995  1
  Ir  Ir37  1  0.000000  0.500000  0.879097  1
