# generated using pymatgen
data_Nd2ErCd3(IrO7)2
_symmetry_space_group_name_H-M   'P 1'
_cell_length_a   6.44864703
_cell_length_b   6.58547196
_cell_length_c   7.61291300
_cell_angle_alpha   90.00000000
_cell_angle_beta   90.00000000
_cell_angle_gamma   112.15320420
_symmetry_Int_Tables_number   1
_chemical_formula_structural   Nd2ErCd3(IrO7)2
_chemical_formula_sum   'Nd2 Er1 Cd3 Ir2 O14'
_cell_volume   299.43409421
_cell_formula_units_Z   1
loop_
 _symmetry_equiv_pos_site_id
 _symmetry_equiv_pos_as_xyz
  1  'x, y, z'
loop_
 _atom_site_type_symbol
 _atom_site_label
 _atom_site_symmetry_multiplicity
 _atom_site_fract_x
 _atom_site_fract_y
 _atom_site_fract_z
 _atom_site_occupancy
  Nd  Nd0  1  0.998665  0.999515  0.999876  1
  Nd  Nd1  1  0.998665  0.999515  0.500124  1
  Er  Er2  1  0.050177  0.509201  0.250000  1
  Cd  Cd3  1  0.488006  0.991206  0.750000  1
  Cd  Cd4  1  0.514011  0.018103  0.250000  1
  Cd  Cd5  1  0.971130  0.492972  0.750000  1
  Ir  Ir6  1  0.501545  0.500387  0.999180  1
  Ir  Ir7  1  0.501545  0.500387  0.500820  1
  O  O8  1  0.587814  0.506991  0.750000  1
  O  O9  1  0.408129  0.494082  0.250000  1
  O  O10  1  0.851474  0.132261  0.750000  1
  O  O11  1  0.153224  0.869913  0.250000  1
  O  O12  1  0.120374  0.852316  0.750000  1
  O  O13  1  0.875679  0.147378  0.250000  1
  O  O14  1  0.426331  0.189877  0.000819  1
  O  O15  1  0.570687  0.809452  0.503567  1
  O  O16  1  0.180125  0.428469  0.976851  1
  O  O17  1  0.812637  0.565088  0.451575  1
  O  O18  1  0.426331  0.189877  0.499181  1
  O  O19  1  0.570687  0.809452  0.996433  1
  O  O20  1  0.812637  0.565088  0.048425  1
  O  O21  1  0.180125  0.428469  0.523149  1
