# generated using pymatgen
data_Dy3Y(Lu2Os)4
_symmetry_space_group_name_H-M   'P 1'
_cell_length_a   7.38215800
_cell_length_b   8.82664600
_cell_length_c   6.21941970
_cell_angle_alpha   90.00000000
_cell_angle_beta   90.08593026
_cell_angle_gamma   90.00000000
_symmetry_Int_Tables_number   1
_chemical_formula_structural   Dy3Y(Lu2Os)4
_chemical_formula_sum   'Dy3 Y1 Lu8 Os4'
_cell_volume   405.25503744
_cell_formula_units_Z   1
loop_
 _symmetry_equiv_pos_site_id
 _symmetry_equiv_pos_as_xyz
  1  'x, y, z'
loop_
 _atom_site_type_symbol
 _atom_site_label
 _atom_site_symmetry_multiplicity
 _atom_site_fract_x
 _atom_site_fract_y
 _atom_site_fract_z
 _atom_site_occupancy
  Dy  Dy0  1  0.539057  0.250000  0.872122  1
  Dy  Dy1  1  0.039413  0.250000  0.627773  1
  Dy  Dy2  1  0.460555  0.750000  0.127863  1
  Y  Y3  1  0.961780  0.750000  0.373620  1
  Lu  Lu4  1  0.674101  0.062711  0.336301  1
  Lu  Lu5  1  0.173868  0.437225  0.163567  1
  Lu  Lu6  1  0.325989  0.562405  0.663618  1
  Lu  Lu7  1  0.825796  0.937285  0.836205  1
  Lu  Lu8  1  0.325989  0.937595  0.663618  1
  Lu  Lu9  1  0.825796  0.562715  0.836205  1
  Lu  Lu10  1  0.674101  0.437289  0.336301  1
  Lu  Lu11  1  0.173868  0.062775  0.163567  1
  Os  Os12  1  0.882169  0.250000  0.043417  1
  Os  Os13  1  0.382345  0.250000  0.456373  1
  Os  Os14  1  0.118099  0.750000  0.955536  1
  Os  Os15  1  0.617075  0.750000  0.543917  1
