# generated using pymatgen
data_Er3Tc(Ni4As3)2
_symmetry_space_group_name_H-M   'P 1'
_cell_length_a   3.86484300
_cell_length_b   10.90097400
_cell_length_c   12.73204900
_cell_angle_alpha   90.00000000
_cell_angle_beta   90.00000000
_cell_angle_gamma   90.00000000
_symmetry_Int_Tables_number   1
_chemical_formula_structural   Er3Tc(Ni4As3)2
_chemical_formula_sum   'Er6 Tc2 Ni16 As12'
_cell_volume   536.40826592
_cell_formula_units_Z   2
loop_
 _symmetry_equiv_pos_site_id
 _symmetry_equiv_pos_as_xyz
  1  'x, y, z'
loop_
 _atom_site_type_symbol
 _atom_site_label
 _atom_site_symmetry_multiplicity
 _atom_site_fract_x
 _atom_site_fract_y
 _atom_site_fract_z
 _atom_site_occupancy
  Er  Er0  1  0.750000  0.250000  0.475182  1
  Er  Er1  1  0.250000  0.750000  0.524818  1
  Er  Er2  1  0.250000  0.933801  0.791434  1
  Er  Er3  1  0.250000  0.566199  0.791434  1
  Er  Er4  1  0.750000  0.066199  0.208566  1
  Er  Er5  1  0.750000  0.433801  0.208566  1
  Tc  Tc6  1  0.250000  0.250000  0.846342  1
  Tc  Tc7  1  0.750000  0.750000  0.153658  1
  Ni  Ni8  1  0.250000  0.250000  0.302070  1
  Ni  Ni9  1  0.750000  0.750000  0.697930  1
  Ni  Ni10  1  0.750000  0.250000  0.019452  1
  Ni  Ni11  1  0.250000  0.750000  0.980548  1
  Ni  Ni12  1  0.250000  0.417164  0.010698  1
  Ni  Ni13  1  0.250000  0.082836  0.010698  1
  Ni  Ni14  1  0.750000  0.582836  0.989302  1
  Ni  Ni15  1  0.750000  0.917164  0.989302  1
  Ni  Ni16  1  0.250000  0.446068  0.572330  1
  Ni  Ni17  1  0.250000  0.053932  0.572330  1
  Ni  Ni18  1  0.750000  0.553932  0.427670  1
  Ni  Ni19  1  0.750000  0.946068  0.427670  1
  Ni  Ni20  1  0.250000  0.870015  0.291974  1
  Ni  Ni21  1  0.250000  0.629985  0.291974  1
  Ni  Ni22  1  0.750000  0.129985  0.708026  1
  Ni  Ni23  1  0.750000  0.370015  0.708026  1
  As  As24  1  0.250000  0.250000  0.125157  1
  As  As25  1  0.750000  0.750000  0.874843  1
  As  As26  1  0.250000  0.250000  0.650474  1
  As  As27  1  0.750000  0.750000  0.349526  1
  As  As28  1  0.250000  0.435689  0.385889  1
  As  As29  1  0.250000  0.064311  0.385889  1
  As  As30  1  0.750000  0.564311  0.614111  1
  As  As31  1  0.750000  0.935689  0.614111  1
  As  As32  1  0.250000  0.902820  0.109269  1
  As  As33  1  0.250000  0.597180  0.109269  1
  As  As34  1  0.750000  0.097180  0.890731  1
  As  As35  1  0.750000  0.402820  0.890731  1
