# generated using pymatgen
data_Li3Ho3CdSn4
_symmetry_space_group_name_H-M   'P 1'
_cell_length_a   8.64902997
_cell_length_b   8.71785875
_cell_length_c   8.71785900
_cell_angle_alpha   149.40515953
_cell_angle_beta   130.40618999
_cell_angle_gamma   59.47713113
_symmetry_Int_Tables_number   1
_chemical_formula_structural   Li3Ho3CdSn4
_chemical_formula_sum   'Li3 Ho3 Cd1 Sn4'
_cell_volume   252.62079844
_cell_formula_units_Z   1
loop_
 _symmetry_equiv_pos_site_id
 _symmetry_equiv_pos_as_xyz
  1  'x, y, z'
loop_
 _atom_site_type_symbol
 _atom_site_label
 _atom_site_symmetry_multiplicity
 _atom_site_fract_x
 _atom_site_fract_y
 _atom_site_fract_z
 _atom_site_occupancy
  Li  Li0  1  0.010085  0.328593  0.681492  1
  Li  Li1  1  0.978456  0.670448  0.308008  1
  Li  Li2  1  0.632108  0.323458  0.308650  1
  Ho  Ho3  1  0.001778  0.002098  0.999681  1
  Ho  Ho4  1  0.373873  0.875203  0.498671  1
  Ho  Ho5  1  0.642675  0.125830  0.516844  1
  Cd  Cd6  1  0.369580  0.675317  0.694264  1
  Sn  Sn7  1  0.188906  0.217687  0.971220  1
  Sn  Sn8  1  0.699428  0.497862  0.201565  1
  Sn  Sn9  1  0.299639  0.495395  0.804244  1
  Sn  Sn10  1  0.803472  0.788111  0.015361  1
