# generated using pymatgen
data_La4PrDy(RuI3)2
_symmetry_space_group_name_H-M   'P 1'
_cell_length_a   4.36377600
_cell_length_b   9.51520565
_cell_length_c   12.55784031
_cell_angle_alpha   86.80079358
_cell_angle_beta   90.00000000
_cell_angle_gamma   90.00000000
_symmetry_Int_Tables_number   1
_chemical_formula_structural   La4PrDy(RuI3)2
_chemical_formula_sum   'La4 Pr1 Dy1 Ru2 I6'
_cell_volume   520.61685564
_cell_formula_units_Z   1
loop_
 _symmetry_equiv_pos_site_id
 _symmetry_equiv_pos_as_xyz
  1  'x, y, z'
loop_
 _atom_site_type_symbol
 _atom_site_label
 _atom_site_symmetry_multiplicity
 _atom_site_fract_x
 _atom_site_fract_y
 _atom_site_fract_z
 _atom_site_occupancy
  La  La0  1  0.750000  0.686401  0.116007  1
  La  La1  1  0.250000  0.314422  0.881516  1
  La  La2  1  0.250000  0.884056  0.329215  1
  La  La3  1  0.750000  0.111450  0.671065  1
  Pr  Pr4  1  0.750000  0.095911  0.103126  1
  Dy  Dy5  1  0.250000  0.913206  0.898713  1
  Ru  Ru6  1  0.250000  0.885439  0.126441  1
  Ru  Ru7  1  0.750000  0.111427  0.871072  1
  I  I8  1  0.250000  0.861770  0.624191  1
  I  I9  1  0.750000  0.134981  0.379574  1
  I  I10  1  0.750000  0.632546  0.377843  1
  I  I11  1  0.250000  0.365427  0.621818  1
  I  I12  1  0.250000  0.392456  0.137508  1
  I  I13  1  0.750000  0.610506  0.861913  1
