# generated using pymatgen
data_Li2Tb2Dy3P12Ir17
_symmetry_space_group_name_H-M   'P 1'
_cell_length_a   12.67396100
_cell_length_b   12.77547854
_cell_length_c   3.95982900
_cell_angle_alpha   90.00000000
_cell_angle_beta   90.00000000
_cell_angle_gamma   119.73748285
_symmetry_Int_Tables_number   1
_chemical_formula_structural   Li2Tb2Dy3P12Ir17
_chemical_formula_sum   'Li2 Tb2 Dy3 P12 Ir17'
_cell_volume   556.72327371
_cell_formula_units_Z   1
loop_
 _symmetry_equiv_pos_site_id
 _symmetry_equiv_pos_as_xyz
  1  'x, y, z'
loop_
 _atom_site_type_symbol
 _atom_site_label
 _atom_site_symmetry_multiplicity
 _atom_site_fract_x
 _atom_site_fract_y
 _atom_site_fract_z
 _atom_site_occupancy
  Li  Li0  1  0.999225  0.441711  0.500000  1
  Li  Li1  1  0.557515  0.558289  0.500000  1
  Tb  Tb2  1  0.001917  0.809234  0.000000  1
  Tb  Tb3  1  0.192683  0.190766  0.000000  1
  Dy  Dy4  1  0.332346  0.662390  0.500000  1
  Dy  Dy5  1  0.669957  0.337610  0.500000  1
  Dy  Dy6  1  0.811071  0.000000  0.000000  1
  P  P7  1  0.999106  0.629694  0.500000  1
  P  P8  1  0.369412  0.370306  0.500000  1
  P  P9  1  0.639122  0.000000  0.500000  1
  P  P10  1  0.513598  0.683575  0.000000  1
  P  P11  1  0.306905  0.822612  0.000000  1
  P  P12  1  0.166870  0.479689  0.000000  1
  P  P13  1  0.484293  0.177388  0.000000  1
  P  P14  1  0.687181  0.520311  0.000000  1
  P  P15  1  0.830024  0.316425  0.000000  1
  P  P16  1  0.997476  0.177721  0.500000  1
  P  P17  1  0.819754  0.822279  0.500000  1
  P  P18  1  0.178829  0.000000  0.500000  1
  Ir  Ir19  1  0.503233  0.865119  0.000000  1
  Ir  Ir20  1  0.129257  0.638337  0.000000  1
  Ir  Ir21  1  0.356430  0.488257  0.000000  1
  Ir  Ir22  1  0.490920  0.361663  0.000000  1
  Ir  Ir23  1  0.868175  0.511743  0.000000  1
  Ir  Ir24  1  0.638116  0.134881  0.000000  1
  Ir  Ir25  1  0.458509  0.000000  0.500000  1
  Ir  Ir26  1  0.996086  0.277238  0.000000  1
  Ir  Ir27  1  0.718849  0.722762  0.000000  1
  Ir  Ir28  1  0.287009  0.000000  0.000000  1
  Ir  Ir29  1  0.622346  0.807614  0.500000  1
  Ir  Ir30  1  0.200509  0.823511  0.500000  1
  Ir  Ir31  1  0.176959  0.371100  0.500000  1
  Ir  Ir32  1  0.376999  0.176489  0.500000  1
  Ir  Ir33  1  0.805859  0.628900  0.500000  1
  Ir  Ir34  1  0.814732  0.192386  0.500000  1
  Ir  Ir35  1  0.998726  0.000000  0.500000  1
