# generated using pymatgen
data_YEr3(Pd2Pb)2
_symmetry_space_group_name_H-M   'P 1'
_cell_length_a   7.89538694
_cell_length_b   7.89538694
_cell_length_c   3.61666100
_cell_angle_alpha   90.00000000
_cell_angle_beta   90.00000000
_cell_angle_gamma   89.58034891
_symmetry_Int_Tables_number   1
_chemical_formula_structural   YEr3(Pd2Pb)2
_chemical_formula_sum   'Y1 Er3 Pd4 Pb2'
_cell_volume   225.44623778
_cell_formula_units_Z   1
loop_
 _symmetry_equiv_pos_site_id
 _symmetry_equiv_pos_as_xyz
  1  'x, y, z'
loop_
 _atom_site_type_symbol
 _atom_site_label
 _atom_site_symmetry_multiplicity
 _atom_site_fract_x
 _atom_site_fract_y
 _atom_site_fract_z
 _atom_site_occupancy
  Y  Y0  1  0.327986  0.827986  0.500000  1
  Er  Er1  1  0.671774  0.171774  0.500000  1
  Er  Er2  1  0.171447  0.328093  0.500000  1
  Er  Er3  1  0.828093  0.671447  0.500000  1
  Pd  Pd4  1  0.874086  0.374086  0.000000  1
  Pd  Pd5  1  0.375472  0.127596  0.000000  1
  Pd  Pd6  1  0.627596  0.875472  0.000000  1
  Pd  Pd7  1  0.123167  0.623167  0.000000  1
  Pb  Pb8  1  0.999688  0.000690  0.000000  1
  Pb  Pb9  1  0.500690  0.499688  0.000000  1
