# generated using pymatgen
data_Pa4Ni4SnGe
_symmetry_space_group_name_H-M   'P 1'
_cell_length_a   7.15025000
_cell_length_b   7.15025000
_cell_length_c   3.76399700
_cell_angle_alpha   90.00000000
_cell_angle_beta   90.00000000
_cell_angle_gamma   90.00000000
_symmetry_Int_Tables_number   1
_chemical_formula_structural   Pa4Ni4SnGe
_chemical_formula_sum   'Pa4 Ni4 Sn1 Ge1'
_cell_volume   192.43839316
_cell_formula_units_Z   1
loop_
 _symmetry_equiv_pos_site_id
 _symmetry_equiv_pos_as_xyz
  1  'x, y, z'
loop_
 _atom_site_type_symbol
 _atom_site_label
 _atom_site_symmetry_multiplicity
 _atom_site_fract_x
 _atom_site_fract_y
 _atom_site_fract_z
 _atom_site_occupancy
  Pa  Pa0  1  0.666755  0.186274  0.500000  1
  Pa  Pa1  1  0.333245  0.813726  0.500000  1
  Pa  Pa2  1  0.813726  0.666755  0.500000  1
  Pa  Pa3  1  0.186274  0.333245  0.500000  1
  Ni  Ni4  1  0.623707  0.870590  0.000000  1
  Ni  Ni5  1  0.129410  0.623707  0.000000  1
  Ni  Ni6  1  0.870590  0.376293  0.000000  1
  Ni  Ni7  1  0.376293  0.129410  0.000000  1
  Sn  Sn8  1  0.000000  0.000000  0.000000  1
  Ge  Ge9  1  0.500000  0.500000  0.000000  1
