# generated using pymatgen
data_Eu2CdAgPb2
_symmetry_space_group_name_H-M   'P 1'
_cell_length_a   5.02370400
_cell_length_b   5.02370325
_cell_length_c   7.95518300
_cell_angle_alpha   90.00000000
_cell_angle_beta   90.00000000
_cell_angle_gamma   119.99999175
_symmetry_Int_Tables_number   1
_chemical_formula_structural   Eu2CdAgPb2
_chemical_formula_sum   'Eu2 Cd1 Ag1 Pb2'
_cell_volume   173.87168500
_cell_formula_units_Z   1
loop_
 _symmetry_equiv_pos_site_id
 _symmetry_equiv_pos_as_xyz
  1  'x, y, z'
loop_
 _atom_site_type_symbol
 _atom_site_label
 _atom_site_symmetry_multiplicity
 _atom_site_fract_x
 _atom_site_fract_y
 _atom_site_fract_z
 _atom_site_occupancy
  Eu  Eu0  1  0.000000  0.000000  0.763979  1
  Eu  Eu1  1  0.000000  0.000000  0.244125  1
  Cd  Cd2  1  0.333333  0.666667  0.448502  1
  Ag  Ag3  1  0.666667  0.333333  0.956645  1
  Pb  Pb4  1  0.666667  0.333333  0.548785  1
  Pb  Pb5  1  0.333333  0.666667  0.031964  1
