# generated using pymatgen
data_Lu2B8IrOs
_symmetry_space_group_name_H-M   'P 1'
_cell_length_a   3.53840200
_cell_length_b   5.91923170
_cell_length_c   11.47576820
_cell_angle_alpha   90.10932339
_cell_angle_beta   90.00000000
_cell_angle_gamma   90.00000000
_symmetry_Int_Tables_number   1
_chemical_formula_structural   Lu2B8IrOs
_chemical_formula_sum   'Lu4 B16 Ir2 Os2'
_cell_volume   240.35518160
_cell_formula_units_Z   2
loop_
 _symmetry_equiv_pos_site_id
 _symmetry_equiv_pos_as_xyz
  1  'x, y, z'
loop_
 _atom_site_type_symbol
 _atom_site_label
 _atom_site_symmetry_multiplicity
 _atom_site_fract_x
 _atom_site_fract_y
 _atom_site_fract_z
 _atom_site_occupancy
  Lu  Lu0  1  0.500000  0.130586  0.648018  1
  Lu  Lu1  1  0.500000  0.869414  0.351982  1
  Lu  Lu2  1  0.500000  0.631609  0.849709  1
  Lu  Lu3  1  0.500000  0.368391  0.150291  1
  B  B4  1  0.000000  0.475602  0.692403  1
  B  B5  1  0.000000  0.524398  0.307597  1
  B  B6  1  0.000000  0.977507  0.805839  1
  B  B7  1  0.000000  0.022493  0.194161  1
  B  B8  1  0.000000  0.292620  0.811468  1
  B  B9  1  0.000000  0.707380  0.188532  1
  B  B10  1  0.000000  0.792256  0.686898  1
  B  B11  1  0.000000  0.207744  0.313102  1
  B  B12  1  0.000000  0.364348  0.971090  1
  B  B13  1  0.000000  0.635652  0.028910  1
  B  B14  1  0.000000  0.864958  0.529758  1
  B  B15  1  0.000000  0.135042  0.470242  1
  B  B16  1  0.000000  0.386786  0.547070  1
  B  B17  1  0.000000  0.613214  0.452930  1
  B  B18  1  0.000000  0.886858  0.951797  1
  B  B19  1  0.000000  0.113142  0.048203  1
  Ir  Ir20  1  0.500000  0.146106  0.902705  1
  Ir  Ir21  1  0.500000  0.853894  0.097295  1
  Os  Os22  1  0.500000  0.643048  0.594358  1
  Os  Os23  1  0.500000  0.356952  0.405642  1
