# generated using pymatgen
data_TaZn3(GaRh3)2
_symmetry_space_group_name_H-M   'P 1'
_cell_length_a   4.33962100
_cell_length_b   6.09401400
_cell_length_c   12.97540000
_cell_angle_alpha   90.00000000
_cell_angle_beta   89.99998662
_cell_angle_gamma   90.00000000
_symmetry_Int_Tables_number   1
_chemical_formula_structural   TaZn3(GaRh3)2
_chemical_formula_sum   'Ta2 Zn6 Ga4 Rh12'
_cell_volume   343.14368018
_cell_formula_units_Z   2
loop_
 _symmetry_equiv_pos_site_id
 _symmetry_equiv_pos_as_xyz
  1  'x, y, z'
loop_
 _atom_site_type_symbol
 _atom_site_label
 _atom_site_symmetry_multiplicity
 _atom_site_fract_x
 _atom_site_fract_y
 _atom_site_fract_z
 _atom_site_occupancy
  Ta  Ta0  1  0.000066  0.000000  0.662269  1
  Ta  Ta1  1  0.500068  0.500000  0.837817  1
  Zn  Zn2  1  0.000003  0.500000  0.002350  1
  Zn  Zn3  1  0.499919  0.000000  0.170472  1
  Zn  Zn4  1  0.999922  0.500000  0.329511  1
  Zn  Zn5  1  0.500004  0.000000  0.497645  1
  Zn  Zn6  1  0.000075  0.500000  0.668958  1
  Zn  Zn7  1  0.500077  0.000000  0.831057  1
  Ga  Ga8  1  0.000000  0.000000  0.004926  1
  Ga  Ga9  1  0.499923  0.500000  0.168651  1
  Ga  Ga10  1  0.999923  0.000000  0.331311  1
  Ga  Ga11  1  0.500000  0.500000  0.495090  1
  Rh  Rh12  1  0.500002  0.247717  0.000720  1
  Rh  Rh13  1  0.500002  0.752283  0.000720  1
  Rh  Rh14  1  0.999926  0.249988  0.165866  1
  Rh  Rh15  1  0.999926  0.750013  0.165866  1
  Rh  Rh16  1  0.499926  0.250024  0.334132  1
  Rh  Rh17  1  0.499926  0.749975  0.334132  1
  Rh  Rh18  1  0.000000  0.252254  0.499300  1
  Rh  Rh19  1  0.000000  0.747746  0.499300  1
  Rh  Rh20  1  0.500077  0.255850  0.663770  1
  Rh  Rh21  1  0.500077  0.744149  0.663770  1
  Rh  Rh22  1  0.000078  0.244149  0.836183  1
  Rh  Rh23  1  0.000078  0.755852  0.836183  1
