# generated using pymatgen
data_AlSeI2Br5
_symmetry_space_group_name_H-M   'P 1'
_cell_length_a   7.12086319
_cell_length_b   7.27576858
_cell_length_c   15.55669124
_cell_angle_alpha   75.16332611
_cell_angle_beta   88.88308477
_cell_angle_gamma   89.35069936
_symmetry_Int_Tables_number   1
_chemical_formula_structural   AlSeI2Br5
_chemical_formula_sum   'Al2 Se2 I4 Br10'
_cell_volume   778.95162387
_cell_formula_units_Z   2
loop_
 _symmetry_equiv_pos_site_id
 _symmetry_equiv_pos_as_xyz
  1  'x, y, z'
loop_
 _atom_site_type_symbol
 _atom_site_label
 _atom_site_symmetry_multiplicity
 _atom_site_fract_x
 _atom_site_fract_y
 _atom_site_fract_z
 _atom_site_occupancy
  Al  Al0  1  0.994515  0.690893  0.664159  1
  Al  Al1  1  0.008758  0.698552  0.161185  1
  Se  Se2  1  0.597386  0.009397  0.499748  1
  Se  Se3  1  0.397012  0.000509  0.002451  1
  I  I4  1  0.394050  0.896559  0.388409  1
  I  I5  1  0.397124  0.263233  0.548607  1
  I  I6  1  0.160621  0.221561  0.894213  1
  I  I7  1  0.839218  0.227359  0.391762  1
  Br  Br8  1  0.116124  0.998753  0.166344  1
  Br  Br9  1  0.589705  0.235165  0.036919  1
  Br  Br10  1  0.135128  0.645753  0.029597  1
  Br  Br11  1  0.878725  0.631037  0.535262  1
  Br  Br12  1  0.688047  0.666033  0.168688  1
  Br  Br13  1  0.317814  0.655945  0.668250  1
  Br  Br14  1  0.143997  0.477150  0.283550  1
  Br  Br15  1  0.862950  0.465623  0.788847  1
  Br  Br16  1  0.592933  0.899313  0.898483  1
  Br  Br17  1  0.885893  0.987762  0.673323  1
