# generated using pymatgen
data_TmScMn5(PIr)7
_symmetry_space_group_name_H-M   'P 1'
_cell_length_a   9.34195549
_cell_length_b   9.38163885
_cell_length_c   3.83007600
_cell_angle_alpha   90.00000000
_cell_angle_beta   90.00000000
_cell_angle_gamma   119.89575044
_symmetry_Int_Tables_number   1
_chemical_formula_structural   TmScMn5(PIr)7
_chemical_formula_sum   'Tm1 Sc1 Mn5 P7 Ir7'
_cell_volume   291.01125831
_cell_formula_units_Z   1
loop_
 _symmetry_equiv_pos_site_id
 _symmetry_equiv_pos_as_xyz
  1  'x, y, z'
loop_
 _atom_site_type_symbol
 _atom_site_label
 _atom_site_symmetry_multiplicity
 _atom_site_fract_x
 _atom_site_fract_y
 _atom_site_fract_z
 _atom_site_occupancy
  Tm  Tm0  1  0.666955  0.332278  0.500000  1
  Sc  Sc1  1  0.000793  0.999162  0.000000  1
  Mn  Mn2  1  0.225083  0.399412  0.000000  1
  Mn  Mn3  1  0.605172  0.826076  0.000000  1
  Mn  Mn4  1  0.171656  0.775529  0.000000  1
  Mn  Mn5  1  0.430944  0.888820  0.500000  1
  Mn  Mn6  1  0.110924  0.543262  0.500000  1
  P  P7  1  0.441985  0.362346  0.000000  1
  P  P8  1  0.631883  0.074365  0.000000  1
  P  P9  1  0.921645  0.554300  0.000000  1
  P  P10  1  0.054506  0.266557  0.500000  1
  P  P11  1  0.735313  0.792938  0.500000  1
  P  P12  1  0.213247  0.942048  0.500000  1
  P  P13  1  0.336150  0.671300  0.000000  1
  Ir  Ir14  1  0.693735  0.597280  0.000000  1
  Ir  Ir15  1  0.398617  0.093500  0.000000  1
  Ir  Ir16  1  0.905224  0.304139  0.000000  1
  Ir  Ir17  1  0.271828  0.217767  0.500000  1
  Ir  Ir18  1  0.780580  0.054747  0.500000  1
  Ir  Ir19  1  0.943691  0.726280  0.500000  1
  Ir  Ir20  1  0.460067  0.577892  0.500000  1
