# generated using pymatgen
data_PrDy3Ir2(RhO7)2
_symmetry_space_group_name_H-M   'P 1'
_cell_length_a   7.32940674
_cell_length_b   7.25785629
_cell_length_c   7.25785656
_cell_angle_alpha   60.16398020
_cell_angle_beta   60.39644488
_cell_angle_gamma   60.39644660
_symmetry_Int_Tables_number   1
_chemical_formula_structural   PrDy3Ir2(RhO7)2
_chemical_formula_sum   'Pr1 Dy3 Ir2 Rh2 O14'
_cell_volume   274.97223853
_cell_formula_units_Z   1
loop_
 _symmetry_equiv_pos_site_id
 _symmetry_equiv_pos_as_xyz
  1  'x, y, z'
loop_
 _atom_site_type_symbol
 _atom_site_label
 _atom_site_symmetry_multiplicity
 _atom_site_fract_x
 _atom_site_fract_y
 _atom_site_fract_z
 _atom_site_occupancy
  Pr  Pr0  1  0.625000  0.125000  0.125000  1
  Dy  Dy1  1  0.125000  0.125000  0.625000  1
  Dy  Dy2  1  0.125000  0.125000  0.125000  1
  Dy  Dy3  1  0.125000  0.625000  0.125000  1
  Ir  Ir4  1  0.625000  0.625000  0.625000  1
  Ir  Ir5  1  0.125000  0.625000  0.625000  1
  Rh  Rh6  1  0.625000  0.125000  0.625000  1
  Rh  Rh7  1  0.625000  0.625000  0.125000  1
  O  O8  1  0.958720  0.541889  0.541889  1
  O  O9  1  0.286244  0.292502  0.707729  1
  O  O10  1  0.963756  0.542271  0.957498  1
  O  O11  1  0.723245  0.285862  0.285862  1
  O  O12  1  0.528174  0.551670  0.957130  1
  O  O13  1  0.528174  0.957130  0.551670  1
  O  O14  1  0.526755  0.964138  0.964138  1
  O  O15  1  0.237773  0.255062  0.255062  1
  O  O16  1  0.291280  0.708111  0.708111  1
  O  O17  1  0.721826  0.292870  0.698330  1
  O  O18  1  0.012227  0.994938  0.994938  1
  O  O19  1  0.963756  0.957498  0.542271  1
  O  O20  1  0.286244  0.707729  0.292502  1
  O  O21  1  0.721826  0.698330  0.292870  1
