# generated using pymatgen
data_Ta2ZnB2Ir2Ru3
_symmetry_space_group_name_H-M   'P 1'
_cell_length_a   9.40893800
_cell_length_b   9.30616200
_cell_length_c   2.99721500
_cell_angle_alpha   90.00000000
_cell_angle_beta   90.00000000
_cell_angle_gamma   90.00000000
_symmetry_Int_Tables_number   1
_chemical_formula_structural   Ta2ZnB2Ir2Ru3
_chemical_formula_sum   'Ta4 Zn2 B4 Ir4 Ru6'
_cell_volume   262.43944616
_cell_formula_units_Z   2
loop_
 _symmetry_equiv_pos_site_id
 _symmetry_equiv_pos_as_xyz
  1  'x, y, z'
loop_
 _atom_site_type_symbol
 _atom_site_label
 _atom_site_symmetry_multiplicity
 _atom_site_fract_x
 _atom_site_fract_y
 _atom_site_fract_z
 _atom_site_occupancy
  Ta  Ta0  1  0.822387  0.675958  0.000000  1
  Ta  Ta1  1  0.177613  0.324042  0.000000  1
  Ta  Ta2  1  0.322387  0.824042  0.000000  1
  Ta  Ta3  1  0.677613  0.175958  0.000000  1
  Zn  Zn4  1  0.500000  0.500000  0.000000  1
  Zn  Zn5  1  0.000000  0.000000  0.000000  1
  B  B6  1  0.628511  0.878946  0.000000  1
  B  B7  1  0.371489  0.121054  0.000000  1
  B  B8  1  0.128511  0.621054  0.000000  1
  B  B9  1  0.871489  0.378946  0.000000  1
  Ir  Ir10  1  0.569880  0.717527  0.500000  1
  Ir  Ir11  1  0.430120  0.282473  0.500000  1
  Ir  Ir12  1  0.069880  0.782473  0.500000  1
  Ir  Ir13  1  0.930120  0.217527  0.500000  1
  Ru  Ru14  1  0.283967  0.569106  0.500000  1
  Ru  Ru15  1  0.716033  0.430894  0.500000  1
  Ru  Ru16  1  0.216033  0.069106  0.500000  1
  Ru  Ru17  1  0.783967  0.930894  0.500000  1
  Ru  Ru18  1  0.500000  0.000000  0.500000  1
  Ru  Ru19  1  0.000000  0.500000  0.500000  1
