# generated using pymatgen
data_Y9Er(In2Bi)2
_symmetry_space_group_name_H-M   'P 1'
_cell_length_a   8.99526303
_cell_length_b   8.95142084
_cell_length_c   6.61050400
_cell_angle_alpha   89.99116057
_cell_angle_beta   90.00440136
_cell_angle_gamma   119.83889466
_symmetry_Int_Tables_number   1
_chemical_formula_structural   Y9Er(In2Bi)2
_chemical_formula_sum   'Y9 Er1 In4 Bi2'
_cell_volume   461.71479375
_cell_formula_units_Z   1
loop_
 _symmetry_equiv_pos_site_id
 _symmetry_equiv_pos_as_xyz
  1  'x, y, z'
loop_
 _atom_site_type_symbol
 _atom_site_label
 _atom_site_symmetry_multiplicity
 _atom_site_fract_x
 _atom_site_fract_y
 _atom_site_fract_z
 _atom_site_occupancy
  Y  Y0  1  0.007099  0.765252  0.750267  1
  Y  Y1  1  0.007099  0.241845  0.249733  1
  Y  Y2  1  0.764558  0.756195  0.249783  1
  Y  Y3  1  0.764558  0.008363  0.750217  1
  Y  Y4  1  0.233129  0.235456  0.750369  1
  Y  Y5  1  0.233129  0.997673  0.249631  1
  Y  Y6  1  0.325462  0.662732  0.500000  1
  Y  Y7  1  0.666420  0.333210  0.000000  1
  Y  Y8  1  0.666344  0.333172  0.500000  1
  Er  Er9  1  0.323871  0.661935  0.000000  1
  In  In10  1  0.399079  0.001671  0.751334  1
  In  In11  1  0.399079  0.397408  0.248666  1
  In  In12  1  0.999172  0.598235  0.249480  1
  In  In13  1  0.999172  0.400937  0.750520  1
  Bi  Bi14  1  0.605917  0.609124  0.751336  1
  Bi  Bi15  1  0.605917  0.996793  0.248664  1
