# generated using pymatgen
data_Zr6Zn12Cu11Bi
_symmetry_space_group_name_H-M   'P 1'
_cell_length_a   8.69252247
_cell_length_b   8.67231774
_cell_length_c   8.67120600
_cell_angle_alpha   60.00424053
_cell_angle_beta   60.08108757
_cell_angle_gamma   60.09066861
_symmetry_Int_Tables_number   1
_chemical_formula_structural   Zr6Zn12Cu11Bi
_chemical_formula_sum   'Zr6 Zn12 Cu11 Bi1'
_cell_volume   462.83050175
_cell_formula_units_Z   1
loop_
 _symmetry_equiv_pos_site_id
 _symmetry_equiv_pos_as_xyz
  1  'x, y, z'
loop_
 _atom_site_type_symbol
 _atom_site_label
 _atom_site_symmetry_multiplicity
 _atom_site_fract_x
 _atom_site_fract_y
 _atom_site_fract_z
 _atom_site_occupancy
  Zr  Zr0  1  0.736682  0.262944  0.275137  1
  Zr  Zr1  1  0.258156  0.735918  0.735168  1
  Zr  Zr2  1  0.258156  0.735918  0.270757  1
  Zr  Zr3  1  0.736682  0.262944  0.725237  1
  Zr  Zr4  1  0.270105  0.268222  0.730836  1
  Zr  Zr5  1  0.743340  0.728957  0.263852  1
  Zn  Zn6  1  0.874528  0.376674  0.874398  1
  Zn  Zn7  1  0.619897  0.126795  0.126654  1
  Zn  Zn8  1  0.381940  0.871208  0.873425  1
  Zn  Zn9  1  0.332939  0.339246  0.338772  1
  Zn  Zn10  1  0.662757  0.663149  0.656463  1
  Zn  Zn11  1  0.332939  0.339246  0.989044  1
  Zn  Zn12  1  0.332559  0.989662  0.338890  1
  Zn  Zn13  1  0.662757  0.663149  0.017630  1
  Zn  Zn14  1  0.669159  0.004118  0.663361  1
  Zn  Zn15  1  0.000760  0.332879  0.333181  1
  Zn  Zn16  1  0.004939  0.669351  0.662855  1
  Zn  Zn17  1  0.002322  0.992567  0.002555  1
  Cu  Cu18  1  0.123299  0.123885  0.121293  1
  Cu  Cu19  1  0.874386  0.876827  0.876911  1
  Cu  Cu20  1  0.123299  0.123885  0.631523  1
  Cu  Cu21  1  0.127578  0.623593  0.124415  1
  Cu  Cu22  1  0.874386  0.876827  0.371875  1
  Cu  Cu23  1  0.498779  0.001810  0.999762  1
  Cu  Cu24  1  0.999121  0.500119  0.501437  1
  Cu  Cu25  1  0.999121  0.500119  0.999324  1
  Cu  Cu26  1  0.498779  0.001810  0.499651  1
  Cu  Cu27  1  0.999856  0.001638  0.499252  1
  Cu  Cu28  1  0.502673  0.499321  0.999002  1
  Bi  Bi29  1  0.498100  0.507222  0.497340  1
