# generated using pymatgen
data_Nb12Ga3C8
_symmetry_space_group_name_H-M   'P 1'
_cell_length_a   5.44263900
_cell_length_b   5.44263906
_cell_length_c   24.37683700
_cell_angle_alpha   90.00000000
_cell_angle_beta   90.00000000
_cell_angle_gamma   119.99999353
_symmetry_Int_Tables_number   1
_chemical_formula_structural   Nb12Ga3C8
_chemical_formula_sum   'Nb24 Ga6 C16'
_cell_volume   625.35564873
_cell_formula_units_Z   2
loop_
 _symmetry_equiv_pos_site_id
 _symmetry_equiv_pos_as_xyz
  1  'x, y, z'
loop_
 _atom_site_type_symbol
 _atom_site_label
 _atom_site_symmetry_multiplicity
 _atom_site_fract_x
 _atom_site_fract_y
 _atom_site_fract_z
 _atom_site_occupancy
  Nb  Nb0  1  0.348631  0.000000  0.555215  1
  Nb  Nb1  1  0.651369  0.000000  0.444785  1
  Nb  Nb2  1  0.000000  0.348631  0.555215  1
  Nb  Nb3  1  0.651369  0.000000  0.055215  1
  Nb  Nb4  1  0.000000  0.348631  0.944785  1
  Nb  Nb5  1  0.000000  0.651369  0.444785  1
  Nb  Nb6  1  0.348631  0.000000  0.944785  1
  Nb  Nb7  1  0.000000  0.651369  0.055215  1
  Nb  Nb8  1  0.651369  0.651369  0.555215  1
  Nb  Nb9  1  0.348631  0.348631  0.444785  1
  Nb  Nb10  1  0.348631  0.348631  0.055215  1
  Nb  Nb11  1  0.651369  0.651369  0.944785  1
  Nb  Nb12  1  0.000000  0.000000  0.656723  1
  Nb  Nb13  1  0.000000  0.000000  0.343277  1
  Nb  Nb14  1  0.000000  0.000000  0.156723  1
  Nb  Nb15  1  0.000000  0.000000  0.843277  1
  Nb  Nb16  1  0.333333  0.666667  0.659429  1
  Nb  Nb17  1  0.666667  0.333333  0.340571  1
  Nb  Nb18  1  0.666667  0.333333  0.159429  1
  Nb  Nb19  1  0.666667  0.333333  0.840571  1
  Nb  Nb20  1  0.333333  0.666667  0.840571  1
  Nb  Nb21  1  0.333333  0.666667  0.159429  1
  Nb  Nb22  1  0.333333  0.666667  0.340571  1
  Nb  Nb23  1  0.666667  0.333333  0.659429  1
  Ga  Ga24  1  0.327578  0.000000  0.750000  1
  Ga  Ga25  1  0.672422  0.000000  0.250000  1
  Ga  Ga26  1  0.000000  0.327578  0.750000  1
  Ga  Ga27  1  0.000000  0.672422  0.250000  1
  Ga  Ga28  1  0.672422  0.672422  0.750000  1
  Ga  Ga29  1  0.327578  0.327578  0.250000  1
  C  C30  1  0.664248  0.000000  0.608393  1
  C  C31  1  0.335752  0.000000  0.391607  1
  C  C32  1  0.000000  0.664248  0.608393  1
  C  C33  1  0.335752  0.000000  0.108393  1
  C  C34  1  0.000000  0.664248  0.891607  1
  C  C35  1  0.000000  0.335752  0.391607  1
  C  C36  1  0.664248  0.000000  0.891607  1
  C  C37  1  0.000000  0.335752  0.108393  1
  C  C38  1  0.335752  0.335752  0.608393  1
  C  C39  1  0.664248  0.664248  0.391607  1
  C  C40  1  0.664248  0.664248  0.108393  1
  C  C41  1  0.335752  0.335752  0.891607  1
  C  C42  1  0.333333  0.666667  0.500000  1
  C  C43  1  0.666667  0.333333  0.500000  1
  C  C44  1  0.666667  0.333333  0.000000  1
  C  C45  1  0.333333  0.666667  0.000000  1
