# generated using pymatgen
data_Li2LaZr2Al7
_symmetry_space_group_name_H-M   'P 1'
_cell_length_a   9.24597916
_cell_length_b   9.24597998
_cell_length_c   9.24597868
_cell_angle_alpha   33.95333285
_cell_angle_beta   33.95333647
_cell_angle_gamma   33.95332417
_symmetry_Int_Tables_number   1
_chemical_formula_structural   Li2LaZr2Al7
_chemical_formula_sum   'Li2 La1 Zr2 Al7'
_cell_volume   219.76550436
_cell_formula_units_Z   1
loop_
 _symmetry_equiv_pos_site_id
 _symmetry_equiv_pos_as_xyz
  1  'x, y, z'
loop_
 _atom_site_type_symbol
 _atom_site_label
 _atom_site_symmetry_multiplicity
 _atom_site_fract_x
 _atom_site_fract_y
 _atom_site_fract_z
 _atom_site_occupancy
  Li  Li0  1  0.664984  0.664984  0.664984  1
  Li  Li1  1  0.335016  0.335016  0.335016  1
  La  La2  1  0.000000  0.000000  0.000000  1
  Zr  Zr3  1  0.145227  0.145227  0.145227  1
  Zr  Zr4  1  0.854773  0.854773  0.854773  1
  Al  Al5  1  0.410973  0.410973  0.921467  1
  Al  Al6  1  0.921467  0.410973  0.410973  1
  Al  Al7  1  0.500000  0.500000  0.500000  1
  Al  Al8  1  0.589027  0.589027  0.078533  1
  Al  Al9  1  0.410973  0.921467  0.410973  1
  Al  Al10  1  0.078533  0.589027  0.589027  1
  Al  Al11  1  0.589027  0.078533  0.589027  1
