# generated using pymatgen
data_Ca4La3Pr(GaO4)4
_symmetry_space_group_name_H-M   'P 1'
_cell_length_a   11.85176848
_cell_length_b   5.39641622
_cell_length_c   6.89206300
_cell_angle_alpha   90.00005670
_cell_angle_beta   89.99936987
_cell_angle_gamma   89.96712177
_symmetry_Int_Tables_number   1
_chemical_formula_structural   Ca4La3Pr(GaO4)4
_chemical_formula_sum   'Ca4 La3 Pr1 Ga4 O16'
_cell_volume   440.79612263
_cell_formula_units_Z   1
loop_
 _symmetry_equiv_pos_site_id
 _symmetry_equiv_pos_as_xyz
  1  'x, y, z'
loop_
 _atom_site_type_symbol
 _atom_site_label
 _atom_site_symmetry_multiplicity
 _atom_site_fract_x
 _atom_site_fract_y
 _atom_site_fract_z
 _atom_site_occupancy
  Ca  Ca0  1  0.499612  0.500161  0.487040  1
  Ca  Ca1  1  0.499676  0.500239  0.987401  1
  Ca  Ca2  1  0.000374  0.999974  0.987510  1
  Ca  Ca3  1  0.000300  0.000058  0.486888  1
  La  La4  1  0.780377  0.487275  0.737104  1
  La  La5  1  0.280098  0.012891  0.737131  1
  La  La6  1  0.719906  0.987446  0.237105  1
  Pr  Pr7  1  0.220323  0.511998  0.237211  1
  Ga  Ga8  1  0.408816  0.068303  0.237047  1
  Ga  Ga9  1  0.590707  0.931727  0.737091  1
  Ga  Ga10  1  0.091043  0.567931  0.737066  1
  Ga  Ga11  1  0.909887  0.431870  0.237085  1
  O  O12  1  0.407595  0.728818  0.237179  1
  O  O13  1  0.591223  0.271394  0.737178  1
  O  O14  1  0.091442  0.228202  0.737156  1
  O  O15  1  0.908551  0.771525  0.237172  1
  O  O16  1  0.163202  0.730211  0.524781  1
  O  O17  1  0.837554  0.268151  0.025964  1
  O  O18  1  0.336364  0.233278  0.026667  1
  O  O19  1  0.662583  0.767962  0.525745  1
  O  O20  1  0.336309  0.233278  0.447558  1
  O  O21  1  0.662632  0.767973  0.948492  1
  O  O22  1  0.163246  0.730156  0.949484  1
  O  O23  1  0.837502  0.268158  0.448272  1
  O  O24  1  0.552032  0.225081  0.237176  1
  O  O25  1  0.447550  0.775105  0.737176  1
  O  O26  1  0.948040  0.725467  0.737158  1
  O  O27  1  0.053057  0.275368  0.237170  1
