# generated using pymatgen
data_Ho3ZnCd2HgAu2
_symmetry_space_group_name_H-M   'P 1'
_cell_length_a   7.87498800
_cell_length_b   7.86018997
_cell_length_c   3.77251100
_cell_angle_alpha   90.00000000
_cell_angle_beta   90.00000000
_cell_angle_gamma   120.06229732
_symmetry_Int_Tables_number   1
_chemical_formula_structural   Ho3ZnCd2HgAu2
_chemical_formula_sum   'Ho3 Zn1 Cd2 Hg1 Au2'
_cell_volume   202.10223625
_cell_formula_units_Z   1
loop_
 _symmetry_equiv_pos_site_id
 _symmetry_equiv_pos_as_xyz
  1  'x, y, z'
loop_
 _atom_site_type_symbol
 _atom_site_label
 _atom_site_symmetry_multiplicity
 _atom_site_fract_x
 _atom_site_fract_y
 _atom_site_fract_z
 _atom_site_occupancy
  Ho  Ho0  1  0.585620  0.000000  0.000000  1
  Ho  Ho1  1  0.002604  0.593568  0.000000  1
  Ho  Ho2  1  0.409036  0.406432  0.000000  1
  Zn  Zn3  1  0.998126  0.000000  0.000000  1
  Cd  Cd4  1  0.998585  0.256542  0.500000  1
  Cd  Cd5  1  0.742043  0.743458  0.500000  1
  Hg  Hg6  1  0.258423  0.000000  0.500000  1
  Au  Au7  1  0.334037  0.662512  0.500000  1
  Au  Au8  1  0.671527  0.337488  0.500000  1
