# generated using pymatgen
data_BaH7Ir
_symmetry_space_group_name_H-M   'P 1'
_cell_length_a   5.22926348
_cell_length_b   5.11498963
_cell_length_c   8.93984400
_cell_angle_alpha   90.00000000
_cell_angle_beta   90.00000000
_cell_angle_gamma   62.40566245
_symmetry_Int_Tables_number   1
_chemical_formula_structural   BaH7Ir
_chemical_formula_sum   'Ba2 H14 Ir2'
_cell_volume   211.91961587
_cell_formula_units_Z   2
loop_
 _symmetry_equiv_pos_site_id
 _symmetry_equiv_pos_as_xyz
  1  'x, y, z'
loop_
 _atom_site_type_symbol
 _atom_site_label
 _atom_site_symmetry_multiplicity
 _atom_site_fract_x
 _atom_site_fract_y
 _atom_site_fract_z
 _atom_site_occupancy
  Ba  Ba0  1  0.000000  0.000000  0.000000  1
  Ba  Ba1  1  0.000000  0.000000  0.500000  1
  H  H2  1  0.760619  0.875023  0.250000  1
  H  H3  1  0.239381  0.124977  0.750000  1
  H  H4  1  0.673063  0.683620  0.429533  1
  H  H5  1  0.326937  0.316380  0.929533  1
  H  H6  1  0.326937  0.316380  0.570467  1
  H  H7  1  0.673063  0.683620  0.070467  1
  H  H8  1  0.499727  0.455975  0.347021  1
  H  H9  1  0.500273  0.544025  0.847021  1
  H  H10  1  0.500273  0.544025  0.652979  1
  H  H11  1  0.499727  0.455975  0.152979  1
  H  H12  1  0.310782  0.934950  0.250000  1
  H  H13  1  0.689218  0.065050  0.750000  1
  H  H14  1  0.966011  0.352502  0.250000  1
  H  H15  1  0.033989  0.647498  0.750000  1
  Ir  Ir16  1  0.631854  0.634539  0.250000  1
  Ir  Ir17  1  0.368146  0.365461  0.750000  1
