# generated using pymatgen
data_Dy2Y3Cr3(Co4P3)4
_symmetry_space_group_name_H-M   'P 1'
_cell_length_a   12.01560800
_cell_length_b   12.01560857
_cell_length_c   3.67823700
_cell_angle_alpha   90.00000000
_cell_angle_beta   90.00000000
_cell_angle_gamma   119.99999294
_symmetry_Int_Tables_number   1
_chemical_formula_structural   Dy2Y3Cr3(Co4P3)4
_chemical_formula_sum   'Dy2 Y3 Cr3 Co16 P12'
_cell_volume   459.89839559
_cell_formula_units_Z   1
loop_
 _symmetry_equiv_pos_site_id
 _symmetry_equiv_pos_as_xyz
  1  'x, y, z'
loop_
 _atom_site_type_symbol
 _atom_site_label
 _atom_site_symmetry_multiplicity
 _atom_site_fract_x
 _atom_site_fract_y
 _atom_site_fract_z
 _atom_site_occupancy
  Dy  Dy0  1  0.666667  0.333333  0.000000  1
  Dy  Dy1  1  0.333333  0.666667  0.000000  1
  Y  Y2  1  0.187160  0.187160  0.500000  1
  Y  Y3  1  0.812840  0.000000  0.500000  1
  Y  Y4  1  0.000000  0.812840  0.500000  1
  Cr  Cr5  1  0.554504  0.554504  0.000000  1
  Cr  Cr6  1  0.445496  0.000000  0.000000  1
  Cr  Cr7  1  0.000000  0.445496  0.000000  1
  Co  Co8  1  0.823034  0.200561  0.000000  1
  Co  Co9  1  0.799439  0.622473  0.000000  1
  Co  Co10  1  0.377527  0.176966  0.000000  1
  Co  Co11  1  0.200561  0.823034  0.000000  1
  Co  Co12  1  0.622473  0.799439  0.000000  1
  Co  Co13  1  0.176966  0.377527  0.000000  1
  Co  Co14  1  0.643931  0.126107  0.500000  1
  Co  Co15  1  0.873893  0.517824  0.500000  1
  Co  Co16  1  0.482176  0.356069  0.500000  1
  Co  Co17  1  0.126107  0.643931  0.500000  1
  Co  Co18  1  0.517824  0.873893  0.500000  1
  Co  Co19  1  0.356069  0.482176  0.500000  1
  Co  Co20  1  0.716934  0.716934  0.500000  1
  Co  Co21  1  0.283066  0.000000  0.500000  1
  Co  Co22  1  0.000000  0.283066  0.500000  1
  Co  Co23  1  0.000000  0.000000  0.000000  1
  P  P24  1  0.367195  0.367195  0.000000  1
  P  P25  1  0.632805  0.000000  0.000000  1
  P  P26  1  0.000000  0.632805  0.000000  1
  P  P27  1  0.837271  0.317101  0.500000  1
  P  P28  1  0.682899  0.520170  0.500000  1
  P  P29  1  0.479830  0.162729  0.500000  1
  P  P30  1  0.317101  0.837271  0.500000  1
  P  P31  1  0.520170  0.682899  0.500000  1
  P  P32  1  0.162729  0.479830  0.500000  1
  P  P33  1  0.820403  0.820403  0.000000  1
  P  P34  1  0.179597  0.000000  0.000000  1
  P  P35  1  0.000000  0.179597  0.000000  1
