# generated using pymatgen
data_RbHf2CuSe5
_symmetry_space_group_name_H-M   'P 1'
_cell_length_a   8.08174568
_cell_length_b   8.08174713
_cell_length_c   16.22883600
_cell_angle_alpha   90.00000000
_cell_angle_beta   90.00000000
_cell_angle_gamma   152.40149766
_symmetry_Int_Tables_number   1
_chemical_formula_structural   RbHf2CuSe5
_chemical_formula_sum   'Rb2 Hf4 Cu2 Se10'
_cell_volume   491.06013281
_cell_formula_units_Z   2
loop_
 _symmetry_equiv_pos_site_id
 _symmetry_equiv_pos_as_xyz
  1  'x, y, z'
loop_
 _atom_site_type_symbol
 _atom_site_label
 _atom_site_symmetry_multiplicity
 _atom_site_fract_x
 _atom_site_fract_y
 _atom_site_fract_z
 _atom_site_occupancy
  Rb  Rb0  1  0.038452  0.961548  0.250000  1
  Rb  Rb1  1  0.961548  0.038452  0.750000  1
  Hf  Hf2  1  0.211500  0.788500  0.901656  1
  Hf  Hf3  1  0.788500  0.211500  0.401656  1
  Hf  Hf4  1  0.211500  0.788500  0.598344  1
  Hf  Hf5  1  0.788500  0.211500  0.098344  1
  Cu  Cu6  1  0.322101  0.677899  0.250000  1
  Cu  Cu7  1  0.677899  0.322101  0.750000  1
  Se  Se8  1  0.171732  0.828268  0.437701  1
  Se  Se9  1  0.828268  0.171732  0.937701  1
  Se  Se10  1  0.277538  0.722462  0.750000  1
  Se  Se11  1  0.404485  0.595515  0.376725  1
  Se  Se12  1  0.171732  0.828268  0.062299  1
  Se  Se13  1  0.595515  0.404485  0.876725  1
  Se  Se14  1  0.595515  0.404485  0.623275  1
  Se  Se15  1  0.404485  0.595515  0.123275  1
  Se  Se16  1  0.828268  0.171732  0.562299  1
  Se  Se17  1  0.722462  0.277538  0.250000  1
