# generated using pymatgen
data_Ho4Tm4Sc11Si16Hg
_symmetry_space_group_name_H-M   'P 1'
_cell_length_a   7.01297430
_cell_length_b   7.36365571
_cell_length_c   13.95205567
_cell_angle_alpha   90.01087461
_cell_angle_beta   90.03374910
_cell_angle_gamma   89.90764195
_symmetry_Int_Tables_number   1
_chemical_formula_structural   Ho4Tm4Sc11Si16Hg
_chemical_formula_sum   'Ho4 Tm4 Sc11 Si16 Hg1'
_cell_volume   720.49882292
_cell_formula_units_Z   1
loop_
 _symmetry_equiv_pos_site_id
 _symmetry_equiv_pos_as_xyz
  1  'x, y, z'
loop_
 _atom_site_type_symbol
 _atom_site_label
 _atom_site_symmetry_multiplicity
 _atom_site_fract_x
 _atom_site_fract_y
 _atom_site_fract_z
 _atom_site_occupancy
  Ho  Ho0  1  0.010089  0.175233  0.096380  1
  Ho  Ho1  1  0.990496  0.816356  0.902662  1
  Ho  Ho2  1  0.485674  0.673789  0.903047  1
  Ho  Ho3  1  0.990499  0.816320  0.597229  1
  Tm  Tm4  1  0.510671  0.323164  0.096780  1
  Tm  Tm5  1  0.010390  0.175558  0.403430  1
  Tm  Tm6  1  0.510626  0.323102  0.403358  1
  Tm  Tm7  1  0.485711  0.674035  0.597100  1
  Sc  Sc8  1  0.837876  0.496924  0.250086  1
  Sc  Sc9  1  0.339962  0.004323  0.250079  1
  Sc  Sc10  1  0.656870  0.996937  0.749919  1
  Sc  Sc11  1  0.325078  0.182836  0.626122  1
  Sc  Sc12  1  0.671241  0.824064  0.374858  1
  Sc  Sc13  1  0.169578  0.680384  0.373128  1
  Sc  Sc14  1  0.671245  0.824005  0.125294  1
  Sc  Sc15  1  0.838433  0.325398  0.626053  1
  Sc  Sc16  1  0.325034  0.182719  0.873772  1
  Sc  Sc17  1  0.838564  0.325386  0.873810  1
  Sc  Sc18  1  0.169619  0.680231  0.126960  1
  Si  Si19  1  0.026379  0.091564  0.749935  1
  Si  Si20  1  0.968640  0.890520  0.250138  1
  Si  Si21  1  0.467535  0.614631  0.250061  1
  Si  Si22  1  0.543149  0.381435  0.749869  1
  Si  Si23  1  0.290996  0.883721  0.749805  1
  Si  Si24  1  0.713307  0.131105  0.250245  1
  Si  Si25  1  0.213217  0.370964  0.250200  1
  Si  Si26  1  0.768874  0.633073  0.749722  1
  Si  Si27  1  0.164580  0.459327  0.528246  1
  Si  Si28  1  0.840714  0.535322  0.461824  1
  Si  Si29  1  0.343110  0.966895  0.462138  1
  Si  Si30  1  0.840621  0.535621  0.038101  1
  Si  Si31  1  0.658086  0.033244  0.540215  1
  Si  Si32  1  0.164135  0.459468  0.971770  1
  Si  Si33  1  0.658190  0.033612  0.959824  1
  Si  Si34  1  0.343569  0.966974  0.037883  1
  Hg  Hg35  1  0.157245  0.511760  0.749959  1
