# generated using pymatgen
data_Re2Hg3F12
_symmetry_space_group_name_H-M   'P 1'
_cell_length_a   9.05191700
_cell_length_b   6.20718267
_cell_length_c   12.04305369
_cell_angle_alpha   85.78001141
_cell_angle_beta   90.00000000
_cell_angle_gamma   90.00000000
_symmetry_Int_Tables_number   1
_chemical_formula_structural   Re2Hg3F12
_chemical_formula_sum   'Re4 Hg6 F24'
_cell_volume   674.82736055
_cell_formula_units_Z   2
loop_
 _symmetry_equiv_pos_site_id
 _symmetry_equiv_pos_as_xyz
  1  'x, y, z'
loop_
 _atom_site_type_symbol
 _atom_site_label
 _atom_site_symmetry_multiplicity
 _atom_site_fract_x
 _atom_site_fract_y
 _atom_site_fract_z
 _atom_site_occupancy
  Re  Re0  1  0.141128  0.705666  0.668920  1
  Re  Re1  1  0.641128  0.294334  0.831080  1
  Re  Re2  1  0.858872  0.294334  0.331080  1
  Re  Re3  1  0.358872  0.705666  0.168920  1
  Hg  Hg4  1  0.733020  0.767387  0.568205  1
  Hg  Hg5  1  0.233020  0.232613  0.931795  1
  Hg  Hg6  1  0.266980  0.232613  0.431795  1
  Hg  Hg7  1  0.766980  0.767387  0.068205  1
  Hg  Hg8  1  0.500000  0.000000  0.500000  1
  Hg  Hg9  1  0.000000  0.000000  0.000000  1
  F  F10  1  0.950987  0.583545  0.618315  1
  F  F11  1  0.450987  0.416455  0.881685  1
  F  F12  1  0.049013  0.416455  0.381685  1
  F  F13  1  0.549013  0.583545  0.118315  1
  F  F14  1  0.211299  0.421116  0.709347  1
  F  F15  1  0.711299  0.578884  0.790653  1
  F  F16  1  0.788701  0.578884  0.290653  1
  F  F17  1  0.288701  0.421116  0.209347  1
  F  F18  1  0.057520  0.711227  0.813744  1
  F  F19  1  0.557520  0.288773  0.686256  1
  F  F20  1  0.175338  0.832596  0.212549  1
  F  F21  1  0.675338  0.167404  0.287451  1
  F  F22  1  0.824662  0.167404  0.787451  1
  F  F23  1  0.324662  0.832596  0.712549  1
  F  F24  1  0.271135  0.685804  0.025913  1
  F  F25  1  0.771135  0.314196  0.474087  1
  F  F26  1  0.728865  0.314196  0.974087  1
  F  F27  1  0.228865  0.685804  0.525913  1
  F  F28  1  0.436897  0.982104  0.126633  1
  F  F29  1  0.936897  0.017896  0.373367  1
  F  F30  1  0.563103  0.017896  0.873367  1
  F  F31  1  0.063103  0.982104  0.626633  1
  F  F32  1  0.442480  0.711227  0.313744  1
  F  F33  1  0.942480  0.288773  0.186256  1
