# generated using pymatgen
data_MnNb6Ga4NiC2
_symmetry_space_group_name_H-M   'P 1'
_cell_length_a   8.26785898
_cell_length_b   8.27631272
_cell_length_c   8.26774797
_cell_angle_alpha   59.98793888
_cell_angle_beta   59.95242974
_cell_angle_gamma   59.99842751
_symmetry_Int_Tables_number   1
_chemical_formula_structural   MnNb6Ga4NiC2
_chemical_formula_sum   'Mn2 Nb12 Ga8 Ni2 C4'
_cell_volume   399.85366062
_cell_formula_units_Z   2
loop_
 _symmetry_equiv_pos_site_id
 _symmetry_equiv_pos_as_xyz
  1  'x, y, z'
loop_
 _atom_site_type_symbol
 _atom_site_label
 _atom_site_symmetry_multiplicity
 _atom_site_fract_x
 _atom_site_fract_y
 _atom_site_fract_z
 _atom_site_occupancy
  Mn  Mn0  1  0.625000  0.125000  0.625000  1
  Mn  Mn1  1  0.625000  0.625000  0.625000  1
  Nb  Nb2  1  0.808449  0.810184  0.196256  1
  Nb  Nb3  1  0.196232  0.185108  0.808448  1
  Nb  Nb4  1  0.805694  0.194325  0.805694  1
  Nb  Nb5  1  0.187362  0.812616  0.187365  1
  Nb  Nb6  1  0.196253  0.810185  0.808449  1
  Nb  Nb7  1  0.808451  0.185104  0.196232  1
  Nb  Nb8  1  0.441551  0.439816  0.053744  1
  Nb  Nb9  1  0.053768  0.064892  0.441552  1
  Nb  Nb10  1  0.444306  0.055675  0.444306  1
  Nb  Nb11  1  0.062638  0.437384  0.062635  1
  Nb  Nb12  1  0.053747  0.439815  0.441551  1
  Nb  Nb13  1  0.441549  0.064896  0.053768  1
  Ga  Ga14  1  0.750924  0.419494  0.410136  1
  Ga  Ga15  1  0.412977  0.755506  0.412973  1
  Ga  Ga16  1  0.410141  0.419497  0.750916  1
  Ga  Ga17  1  0.412950  0.418565  0.412945  1
  Ga  Ga18  1  0.499076  0.830506  0.839864  1
  Ga  Ga19  1  0.837023  0.494494  0.837027  1
  Ga  Ga20  1  0.839859  0.830503  0.499084  1
  Ga  Ga21  1  0.837050  0.831435  0.837055  1
  Ni  Ni22  1  0.125000  0.625000  0.625000  1
  Ni  Ni23  1  0.625000  0.625000  0.125000  1
  C  C24  1  0.625000  0.125000  0.125000  1
  C  C25  1  0.125000  0.625000  0.125000  1
  C  C26  1  0.125000  0.125000  0.625000  1
  C  C27  1  0.125000  0.125000  0.125000  1
