# generated using pymatgen
data_CePr(BeGe)2
_symmetry_space_group_name_H-M   'P 1'
_cell_length_a   3.99278600
_cell_length_b   3.99278727
_cell_length_c   8.56158200
_cell_angle_alpha   90.00000000
_cell_angle_beta   90.00000000
_cell_angle_gamma   120.00002038
_symmetry_Int_Tables_number   1
_chemical_formula_structural   CePr(BeGe)2
_chemical_formula_sum   'Ce1 Pr1 Be2 Ge2'
_cell_volume   118.20525104
_cell_formula_units_Z   1
loop_
 _symmetry_equiv_pos_site_id
 _symmetry_equiv_pos_as_xyz
  1  'x, y, z'
loop_
 _atom_site_type_symbol
 _atom_site_label
 _atom_site_symmetry_multiplicity
 _atom_site_fract_x
 _atom_site_fract_y
 _atom_site_fract_z
 _atom_site_occupancy
  Ce  Ce0  1  0.000000  0.000000  0.500001  1
  Pr  Pr1  1  0.000000  0.000000  0.000000  1
  Be  Be2  1  0.666666  0.333333  0.255987  1
  Be  Be3  1  0.333333  0.666666  0.744013  1
  Ge  Ge4  1  0.333333  0.666666  0.256371  1
  Ge  Ge5  1  0.666666  0.333333  0.743629  1
