# generated using pymatgen
data_Tb2Fe5Co3B8
_symmetry_space_group_name_H-M   'P 1'
_cell_length_a   6.96974689
_cell_length_b   6.96010203
_cell_length_c   3.80838612
_cell_angle_alpha   90.04906303
_cell_angle_beta   90.04755298
_cell_angle_gamma   90.14661187
_symmetry_Int_Tables_number   1
_chemical_formula_structural   Tb2Fe5Co3B8
_chemical_formula_sum   'Tb2 Fe5 Co3 B8'
_cell_volume   184.74464367
_cell_formula_units_Z   1
loop_
 _symmetry_equiv_pos_site_id
 _symmetry_equiv_pos_as_xyz
  1  'x, y, z'
loop_
 _atom_site_type_symbol
 _atom_site_label
 _atom_site_symmetry_multiplicity
 _atom_site_fract_x
 _atom_site_fract_y
 _atom_site_fract_z
 _atom_site_occupancy
  Tb  Tb0  1  0.000055  0.000739  0.002594  1
  Tb  Tb1  1  0.501347  0.498942  0.501725  1
  Fe  Fe2  1  0.385690  0.132567  0.893651  1
  Fe  Fe3  1  0.614819  0.866425  0.892601  1
  Fe  Fe4  1  0.366954  0.884704  0.393142  1
  Fe  Fe5  1  0.633865  0.114575  0.392694  1
  Fe  Fe6  1  0.115109  0.366968  0.608595  1
  Co  Co7  1  0.884897  0.637132  0.607970  1
  Co  Co8  1  0.136228  0.616661  0.108201  1
  Co  Co9  1  0.861938  0.386470  0.108158  1
  B  B10  1  0.795122  0.665216  0.102639  1
  B  B11  1  0.202914  0.333416  0.104835  1
  B  B12  1  0.838936  0.293016  0.603259  1
  B  B13  1  0.166855  0.699826  0.604043  1
  B  B14  1  0.698285  0.835085  0.393343  1
  B  B15  1  0.297865  0.166127  0.395790  1
  B  B16  1  0.665158  0.199370  0.893150  1
  B  B17  1  0.333959  0.802761  0.893610  1
