# generated using pymatgen
data_Ce5Nb3(P3Ru4)4
_symmetry_space_group_name_H-M   'P 1'
_cell_length_a   12.81102401
_cell_length_b   12.81018917
_cell_length_c   3.95418700
_cell_angle_alpha   89.99997597
_cell_angle_beta   89.99994419
_cell_angle_gamma   119.99885281
_symmetry_Int_Tables_number   1
_chemical_formula_structural   Ce5Nb3(P3Ru4)4
_chemical_formula_sum   'Ce5 Nb3 P12 Ru16'
_cell_volume   561.99473095
_cell_formula_units_Z   1
loop_
 _symmetry_equiv_pos_site_id
 _symmetry_equiv_pos_as_xyz
  1  'x, y, z'
loop_
 _atom_site_type_symbol
 _atom_site_label
 _atom_site_symmetry_multiplicity
 _atom_site_fract_x
 _atom_site_fract_y
 _atom_site_fract_z
 _atom_site_occupancy
  Ce  Ce0  1  0.185662  0.185665  0.500000  1
  Ce  Ce1  1  0.814397  0.999987  0.500000  1
  Ce  Ce2  1  0.999990  0.814379  0.500000  1
  Ce  Ce3  1  0.333337  0.666663  0.000002  1
  Ce  Ce4  1  0.666666  0.333341  0.999999  1
  Nb  Nb5  1  0.563324  0.563333  0.000000  1
  Nb  Nb6  1  0.436671  0.999991  0.000000  1
  Nb  Nb7  1  0.999997  0.436670  0.000000  1
  P  P8  1  0.816412  0.816419  0.000000  1
  P  P9  1  0.183573  0.999982  0.000000  1
  P  P10  1  0.999978  0.183571  0.000000  1
  P  P11  1  0.168494  0.477063  0.500000  1
  P  P12  1  0.522932  0.691417  0.500000  1
  P  P13  1  0.308570  0.831497  0.500000  1
  P  P14  1  0.691419  0.522947  0.500000  1
  P  P15  1  0.831516  0.308582  0.500000  1
  P  P16  1  0.477054  0.168485  0.500000  1
  P  P17  1  0.365427  0.365429  0.000000  1
  P  P18  1  0.634619  0.000000  0.000000  1
  P  P19  1  0.999993  0.634599  0.000000  1
  Ru  Ru20  1  0.721178  0.721191  0.500000  1
  Ru  Ru21  1  0.278826  0.999969  0.500000  1
  Ru  Ru22  1  0.999969  0.278824  0.500000  1
  Ru  Ru23  1  0.183158  0.375976  0.000001  1
  Ru  Ru24  1  0.624111  0.807262  0.999999  1
  Ru  Ru25  1  0.192754  0.816839  0.000000  1
  Ru  Ru26  1  0.807259  0.624117  0.000000  1
  Ru  Ru27  1  0.816852  0.192725  0.999999  1
  Ru  Ru28  1  0.375954  0.183151  0.999999  1
  Ru  Ru29  1  0.362182  0.488286  0.500000  1
  Ru  Ru30  1  0.511725  0.873912  0.500000  1
  Ru  Ru31  1  0.126082  0.637815  0.500000  1
  Ru  Ru32  1  0.873959  0.511778  0.500001  1
  Ru  Ru33  1  0.637815  0.126031  0.500000  1
  Ru  Ru34  1  0.488233  0.362183  0.499999  1
  Ru  Ru35  1  0.999913  0.999922  0.000000  1
