# generated using pymatgen
data_Y8Er9Tm3Pt16
_symmetry_space_group_name_H-M   'P 1'
_cell_length_a   7.46165300
_cell_length_b   7.53780700
_cell_length_c   14.66209200
_cell_angle_alpha   90.00000000
_cell_angle_beta   90.00000000
_cell_angle_gamma   89.99933537
_symmetry_Int_Tables_number   1
_chemical_formula_structural   Y8Er9Tm3Pt16
_chemical_formula_sum   'Y8 Er9 Tm3 Pt16'
_cell_volume   824.66203662
_cell_formula_units_Z   1
loop_
 _symmetry_equiv_pos_site_id
 _symmetry_equiv_pos_as_xyz
  1  'x, y, z'
loop_
 _atom_site_type_symbol
 _atom_site_label
 _atom_site_symmetry_multiplicity
 _atom_site_fract_x
 _atom_site_fract_y
 _atom_site_fract_z
 _atom_site_occupancy
  Y  Y0  1  0.998279  0.820106  0.406962  1
  Y  Y1  1  0.498248  0.679905  0.093042  1
  Y  Y2  1  0.501787  0.320176  0.592985  1
  Y  Y3  1  0.001670  0.179943  0.907024  1
  Y  Y4  1  0.001670  0.179943  0.592976  1
  Y  Y5  1  0.501787  0.320176  0.907015  1
  Y  Y6  1  0.498248  0.679905  0.406958  1
  Y  Y7  1  0.998279  0.820106  0.093038  1
  Er  Er8  1  0.318740  0.010984  0.750000  1
  Er  Er9  1  0.656313  0.832410  0.622422  1
  Er  Er10  1  0.156175  0.667441  0.877576  1
  Er  Er11  1  0.843795  0.332448  0.377533  1
  Er  Er12  1  0.343778  0.167535  0.122475  1
  Er  Er13  1  0.343778  0.167535  0.377525  1
  Er  Er14  1  0.843795  0.332448  0.122467  1
  Er  Er15  1  0.156175  0.667441  0.622424  1
  Er  Er16  1  0.656313  0.832410  0.877578  1
  Tm  Tm17  1  0.681299  0.989016  0.250000  1
  Tm  Tm18  1  0.181286  0.510982  0.250000  1
  Tm  Tm19  1  0.818702  0.488988  0.750000  1
  Pt  Pt20  1  0.816147  0.641810  0.250000  1
  Pt  Pt21  1  0.316183  0.858157  0.250000  1
  Pt  Pt22  1  0.684162  0.141949  0.750000  1
  Pt  Pt23  1  0.183717  0.358532  0.750000  1
  Pt  Pt24  1  0.546239  0.385665  0.250000  1
  Pt  Pt25  1  0.046240  0.114305  0.250000  1
  Pt  Pt26  1  0.953420  0.885571  0.750000  1
  Pt  Pt27  1  0.453826  0.614131  0.750000  1
  Pt  Pt28  1  0.817488  0.533257  0.542167  1
  Pt  Pt29  1  0.317497  0.966743  0.957915  1
  Pt  Pt30  1  0.682496  0.033237  0.457833  1
  Pt  Pt31  1  0.182494  0.466755  0.042171  1
  Pt  Pt32  1  0.182494  0.466755  0.457829  1
  Pt  Pt33  1  0.682496  0.033237  0.042167  1
  Pt  Pt34  1  0.317497  0.966743  0.542085  1
  Pt  Pt35  1  0.817488  0.533257  0.957833  1
