# generated using pymatgen
data_Dy5Mg2P12Ir9Rh8
_symmetry_space_group_name_H-M   'P 1'
_cell_length_a   12.69104500
_cell_length_b   12.81048663
_cell_length_c   3.95633900
_cell_angle_alpha   90.00000000
_cell_angle_beta   90.00000000
_cell_angle_gamma   119.61917545
_symmetry_Int_Tables_number   1
_chemical_formula_structural   Dy5Mg2P12Ir9Rh8
_chemical_formula_sum   'Dy5 Mg2 P12 Ir9 Rh8'
_cell_volume   559.16626412
_cell_formula_units_Z   1
loop_
 _symmetry_equiv_pos_site_id
 _symmetry_equiv_pos_as_xyz
  1  'x, y, z'
loop_
 _atom_site_type_symbol
 _atom_site_label
 _atom_site_symmetry_multiplicity
 _atom_site_fract_x
 _atom_site_fract_y
 _atom_site_fract_z
 _atom_site_occupancy
  Dy  Dy0  1  0.333641  0.666436  0.500000  1
  Dy  Dy1  1  0.667697  0.334485  0.500000  1
  Dy  Dy2  1  0.000507  0.810685  0.000000  1
  Dy  Dy3  1  0.189310  0.187646  0.000000  1
  Dy  Dy4  1  0.810448  0.999639  0.000000  1
  Mg  Mg5  1  0.999893  0.446329  0.500000  1
  Mg  Mg6  1  0.552591  0.555240  0.500000  1
  P  P7  1  0.002136  0.643264  0.500000  1
  P  P8  1  0.359595  0.356016  0.500000  1
  P  P9  1  0.638526  0.999673  0.500000  1
  P  P10  1  0.513835  0.686869  0.000000  1
  P  P11  1  0.310664  0.828321  0.000000  1
  P  P12  1  0.173002  0.483048  0.000000  1
  P  P13  1  0.482305  0.172083  0.000000  1
  P  P14  1  0.689501  0.517275  0.000000  1
  P  P15  1  0.827025  0.313726  0.000000  1
  P  P16  1  0.999456  0.177209  0.500000  1
  P  P17  1  0.822488  0.822463  0.500000  1
  P  P18  1  0.178109  0.998485  0.500000  1
  Ir  Ir19  1  0.639576  0.132552  0.000000  1
  Ir  Ir20  1  0.997069  0.278965  0.000000  1
  Ir  Ir21  1  0.718216  0.721872  0.000000  1
  Ir  Ir22  1  0.282530  0.999980  0.000000  1
  Ir  Ir23  1  0.177266  0.371363  0.500000  1
  Ir  Ir24  1  0.375847  0.175820  0.500000  1
  Ir  Ir25  1  0.803335  0.626528  0.500000  1
  Ir  Ir26  1  0.816789  0.194073  0.500000  1
  Ir  Ir27  1  0.999188  0.000086  0.500000  1
  Rh  Rh28  1  0.508455  0.868278  0.000000  1
  Rh  Rh29  1  0.130935  0.641545  0.000000  1
  Rh  Rh30  1  0.359368  0.489555  0.000000  1
  Rh  Rh31  1  0.488957  0.358583  0.000000  1
  Rh  Rh32  1  0.870583  0.511126  0.000000  1
  Rh  Rh33  1  0.459265  0.002061  0.500000  1
  Rh  Rh34  1  0.622628  0.805483  0.500000  1
  Rh  Rh35  1  0.199262  0.823234  0.500000  1
