# generated using pymatgen
data_Ta3Zn2B4Ru10W
_symmetry_space_group_name_H-M   'P 1'
_cell_length_a   9.30212786
_cell_length_b   9.30212786
_cell_length_c   2.99319100
_cell_angle_alpha   90.00000000
_cell_angle_beta   90.00000000
_cell_angle_gamma   90.04934933
_symmetry_Int_Tables_number   1
_chemical_formula_structural   Ta3Zn2B4Ru10W
_chemical_formula_sum   'Ta3 Zn2 B4 Ru10 W1'
_cell_volume   258.99947232
_cell_formula_units_Z   1
loop_
 _symmetry_equiv_pos_site_id
 _symmetry_equiv_pos_as_xyz
  1  'x, y, z'
loop_
 _atom_site_type_symbol
 _atom_site_label
 _atom_site_symmetry_multiplicity
 _atom_site_fract_x
 _atom_site_fract_y
 _atom_site_fract_z
 _atom_site_occupancy
  Ta  Ta0  1  0.176836  0.323164  0.000000  1
  Ta  Ta1  1  0.322769  0.823620  0.000000  1
  Ta  Ta2  1  0.676380  0.177231  0.000000  1
  Zn  Zn3  1  0.499113  0.499610  0.000000  1
  Zn  Zn4  1  0.000390  0.000887  0.000000  1
  B  B5  1  0.626228  0.873772  0.000000  1
  B  B6  1  0.375162  0.124838  0.000000  1
  B  B7  1  0.126394  0.626155  0.000000  1
  B  B8  1  0.873845  0.373606  0.000000  1
  Ru  Ru9  1  0.574359  0.714176  0.500000  1
  Ru  Ru10  1  0.429220  0.284117  0.500000  1
  Ru  Ru11  1  0.065004  0.783269  0.500000  1
  Ru  Ru12  1  0.929622  0.215974  0.500000  1
  Ru  Ru13  1  0.284026  0.570378  0.500000  1
  Ru  Ru14  1  0.716731  0.434996  0.500000  1
  Ru  Ru15  1  0.215883  0.070780  0.500000  1
  Ru  Ru16  1  0.785824  0.925641  0.500000  1
  Ru  Ru17  1  0.500736  0.999264  0.500000  1
  Ru  Ru18  1  0.998617  0.501383  0.500000  1
  W  W19  1  0.822861  0.677139  0.000000  1
