# generated using pymatgen
data_NdSm3GeI5
_symmetry_space_group_name_H-M   'P 1'
_cell_length_a   9.99098690
_cell_length_b   9.99098608
_cell_length_c   8.99298705
_cell_angle_alpha   77.83703893
_cell_angle_beta   77.83704581
_cell_angle_gamma   24.97949342
_symmetry_Int_Tables_number   1
_chemical_formula_structural   NdSm3GeI5
_chemical_formula_sum   'Nd1 Sm3 Ge1 I5'
_cell_volume   370.15190321
_cell_formula_units_Z   1
loop_
 _symmetry_equiv_pos_site_id
 _symmetry_equiv_pos_as_xyz
  1  'x, y, z'
loop_
 _atom_site_type_symbol
 _atom_site_label
 _atom_site_symmetry_multiplicity
 _atom_site_fract_x
 _atom_site_fract_y
 _atom_site_fract_z
 _atom_site_occupancy
  Nd  Nd0  1  0.499272  0.499272  0.782755  1
  Sm  Sm1  1  0.853289  0.853289  0.075430  1
  Sm  Sm2  1  0.146252  0.146252  0.927090  1
  Sm  Sm3  1  0.500519  0.500519  0.212253  1
  Ge  Ge4  1  0.999714  0.999714  0.000701  1
  I  I5  1  0.671077  0.671077  0.171696  1
  I  I6  1  0.326781  0.326781  0.833066  1
  I  I7  1  0.667562  0.667562  0.666934  1
  I  I8  1  0.334585  0.334585  0.335410  1
  I  I9  1  0.000949  0.000949  0.494665  1
