# generated using pymatgen
data_Ho2Ga4CoNi
_symmetry_space_group_name_H-M   'P 1'
_cell_length_a   5.41550434
_cell_length_b   5.41550431
_cell_length_c   6.73260400
_cell_angle_alpha   90.00000000
_cell_angle_beta   90.00000000
_cell_angle_gamma   135.63034957
_symmetry_Int_Tables_number   1
_chemical_formula_structural   Ho2Ga4CoNi
_chemical_formula_sum   'Ho2 Ga4 Co1 Ni1'
_cell_volume   138.07497224
_cell_formula_units_Z   1
loop_
 _symmetry_equiv_pos_site_id
 _symmetry_equiv_pos_as_xyz
  1  'x, y, z'
loop_
 _atom_site_type_symbol
 _atom_site_label
 _atom_site_symmetry_multiplicity
 _atom_site_fract_x
 _atom_site_fract_y
 _atom_site_fract_z
 _atom_site_occupancy
  Ho  Ho0  1  0.568473  0.431527  0.250000  1
  Ho  Ho1  1  0.429588  0.570412  0.750000  1
  Ga  Ga2  1  0.853291  0.146709  0.445918  1
  Ga  Ga3  1  0.146968  0.853032  0.553575  1
  Ga  Ga4  1  0.853291  0.146709  0.054082  1
  Ga  Ga5  1  0.146968  0.853032  0.946425  1
  Co  Co6  1  0.290996  0.709004  0.250000  1
  Ni  Ni7  1  0.710424  0.289576  0.750000  1
