# generated using pymatgen
data_Os2ICl15
_symmetry_space_group_name_H-M   'P 1'
_cell_length_a   13.66541563
_cell_length_b   13.66541589
_cell_length_c   6.45265297
_cell_angle_alpha   88.49214259
_cell_angle_beta   88.49214012
_cell_angle_gamma   86.93869121
_symmetry_Int_Tables_number   1
_chemical_formula_structural   Os2ICl15
_chemical_formula_sum   'Os4 I2 Cl30'
_cell_volume   1202.48079577
_cell_formula_units_Z   2
loop_
 _symmetry_equiv_pos_site_id
 _symmetry_equiv_pos_as_xyz
  1  'x, y, z'
loop_
 _atom_site_type_symbol
 _atom_site_label
 _atom_site_symmetry_multiplicity
 _atom_site_fract_x
 _atom_site_fract_y
 _atom_site_fract_z
 _atom_site_occupancy
  Os  Os0  1  0.766051  0.567966  0.524989  1
  Os  Os1  1  0.432034  0.233949  0.475011  1
  Os  Os2  1  0.233949  0.432034  0.475011  1
  Os  Os3  1  0.567966  0.766051  0.524989  1
  I  I4  1  0.108847  0.891153  0.000000  1
  I  I5  1  0.891153  0.108847  0.000000  1
  Cl  Cl6  1  0.667026  0.478895  0.742097  1
  Cl  Cl7  1  0.521105  0.332974  0.257903  1
  Cl  Cl8  1  0.332974  0.521105  0.257903  1
  Cl  Cl9  1  0.478895  0.667026  0.742097  1
  Cl  Cl10  1  0.795040  0.439291  0.317400  1
  Cl  Cl11  1  0.560709  0.204960  0.682600  1
  Cl  Cl12  1  0.945274  0.945274  0.232614  1
  Cl  Cl13  1  0.054726  0.054726  0.767386  1
  Cl  Cl14  1  0.752346  0.141747  0.226248  1
  Cl  Cl15  1  0.858253  0.247654  0.773752  1
  Cl  Cl16  1  0.247654  0.858253  0.773752  1
  Cl  Cl17  1  0.141747  0.752346  0.226248  1
  Cl  Cl18  1  0.792505  0.007205  0.785361  1
  Cl  Cl19  1  0.992795  0.207495  0.214639  1
  Cl  Cl20  1  0.207495  0.992795  0.214639  1
  Cl  Cl21  1  0.007205  0.792505  0.785361  1
  Cl  Cl22  1  0.714028  0.714028  0.721867  1
  Cl  Cl23  1  0.285972  0.285972  0.278133  1
  Cl  Cl24  1  0.539227  0.894201  0.733383  1
  Cl  Cl25  1  0.105799  0.460773  0.266617  1
  Cl  Cl26  1  0.460773  0.105799  0.266617  1
  Cl  Cl27  1  0.894201  0.539227  0.733383  1
  Cl  Cl28  1  0.666625  0.854582  0.307998  1
  Cl  Cl29  1  0.145418  0.333375  0.692002  1
  Cl  Cl30  1  0.333375  0.145418  0.692002  1
  Cl  Cl31  1  0.854582  0.666625  0.307998  1
  Cl  Cl32  1  0.619652  0.619652  0.328134  1
  Cl  Cl33  1  0.380348  0.380348  0.671866  1
  Cl  Cl34  1  0.439291  0.795040  0.317400  1
  Cl  Cl35  1  0.204960  0.560709  0.682600  1
