# generated using pymatgen
data_Dy3YAl18(CoPt2)2
_symmetry_space_group_name_H-M   'P 1'
_cell_length_a   7.53210401
_cell_length_b   7.53200119
_cell_length_c   9.38464900
_cell_angle_alpha   89.99945744
_cell_angle_beta   89.99835278
_cell_angle_gamma   119.39578792
_symmetry_Int_Tables_number   1
_chemical_formula_structural   Dy3YAl18(CoPt2)2
_chemical_formula_sum   'Dy3 Y1 Al18 Co2 Pt4'
_cell_volume   463.86057506
_cell_formula_units_Z   1
loop_
 _symmetry_equiv_pos_site_id
 _symmetry_equiv_pos_as_xyz
  1  'x, y, z'
loop_
 _atom_site_type_symbol
 _atom_site_label
 _atom_site_symmetry_multiplicity
 _atom_site_fract_x
 _atom_site_fract_y
 _atom_site_fract_z
 _atom_site_occupancy
  Dy  Dy0  1  0.994067  0.673185  0.250230  1
  Dy  Dy1  1  0.006076  0.326922  0.750250  1
  Dy  Dy2  1  0.673110  0.993929  0.249746  1
  Y  Y3  1  0.326873  0.005946  0.749783  1
  Al  Al4  1  0.136522  0.136566  0.250030  1
  Al  Al5  1  0.863240  0.863407  0.749968  1
  Al  Al6  1  0.340477  0.333528  0.552146  1
  Al  Al7  1  0.659401  0.666538  0.052308  1
  Al  Al8  1  0.333456  0.340666  0.947826  1
  Al  Al9  1  0.666560  0.659500  0.447716  1
  Al  Al10  1  0.340349  0.553878  0.242665  1
  Al  Al11  1  0.659835  0.446238  0.742665  1
  Al  Al12  1  0.554006  0.340345  0.257341  1
  Al  Al13  1  0.446161  0.659512  0.757329  1
  Al  Al14  1  0.008050  0.344503  0.074633  1
  Al  Al15  1  0.991927  0.655448  0.574477  1
  Al  Al16  1  0.344468  0.007980  0.425252  1
  Al  Al17  1  0.655582  0.991960  0.925513  1
  Al  Al18  1  0.010955  0.664442  0.925215  1
  Al  Al19  1  0.988896  0.335446  0.425061  1
  Al  Al20  1  0.664645  0.011101  0.574793  1
  Al  Al21  1  0.335465  0.988942  0.075053  1
  Co  Co22  1  0.329679  0.670283  0.999996  1
  Co  Co23  1  0.670361  0.329703  0.500014  1
  Pt  Pt24  1  0.000161  0.999748  0.000013  1
  Pt  Pt25  1  0.999673  0.000239  0.499990  1
  Pt  Pt26  1  0.671954  0.328127  0.000003  1
  Pt  Pt27  1  0.328050  0.671917  0.499985  1
