# generated using pymatgen
data_Pm6AsSe6
_symmetry_space_group_name_H-M   'P 1'
_cell_length_a   7.24701009
_cell_length_b   7.25973235
_cell_length_c   10.26550229
_cell_angle_alpha   62.05395138
_cell_angle_beta   61.90661196
_cell_angle_gamma   99.41039122
_symmetry_Int_Tables_number   1
_chemical_formula_structural   Pm6AsSe6
_chemical_formula_sum   'Pm6 As1 Se6'
_cell_volume   366.18973743
_cell_formula_units_Z   1
loop_
 _symmetry_equiv_pos_site_id
 _symmetry_equiv_pos_as_xyz
  1  'x, y, z'
loop_
 _atom_site_type_symbol
 _atom_site_label
 _atom_site_symmetry_multiplicity
 _atom_site_fract_x
 _atom_site_fract_y
 _atom_site_fract_z
 _atom_site_occupancy
  Pm  Pm0  1  0.446891  0.208369  0.067028  1
  Pm  Pm1  1  0.005119  0.050044  0.922679  1
  Pm  Pm2  1  0.863504  0.348211  0.206047  1
  Pm  Pm3  1  0.579498  0.900257  0.787016  1
  Pm  Pm4  1  0.727357  0.632450  0.495982  1
  Pm  Pm5  1  0.298920  0.486308  0.351852  1
  As  As6  1  0.724735  0.628285  0.994395  1
  Se  Se7  1  0.012208  0.057379  0.425747  1
  Se  Se8  1  0.582285  0.913477  0.284674  1
  Se  Se9  1  0.293213  0.481187  0.851010  1
  Se  Se10  1  0.153621  0.773878  0.138213  1
  Se  Se11  1  0.863133  0.338020  0.710836  1
  Se  Se12  1  0.444005  0.203470  0.565512  1
