# generated using pymatgen
data_Lu10(AlSb)3
_symmetry_space_group_name_H-M   'P 1'
_cell_length_a   6.31712400
_cell_length_b   8.66126430
_cell_length_c   8.66133609
_cell_angle_alpha   60.00069037
_cell_angle_beta   90.00119797
_cell_angle_gamma   90.00097263
_symmetry_Int_Tables_number   1
_chemical_formula_structural   Lu10(AlSb)3
_chemical_formula_sum   'Lu10 Al3 Sb3'
_cell_volume   410.41123152
_cell_formula_units_Z   1
loop_
 _symmetry_equiv_pos_site_id
 _symmetry_equiv_pos_as_xyz
  1  'x, y, z'
loop_
 _atom_site_type_symbol
 _atom_site_label
 _atom_site_symmetry_multiplicity
 _atom_site_fract_x
 _atom_site_fract_y
 _atom_site_fract_z
 _atom_site_occupancy
  Lu  Lu0  1  0.508497  0.333354  0.333317  1
  Lu  Lu1  1  0.508475  0.666685  0.666638  1
  Lu  Lu2  1  0.991519  0.666676  0.666674  1
  Lu  Lu3  1  0.991536  0.333337  0.333332  1
  Lu  Lu4  1  0.750000  0.238184  0.761823  1
  Lu  Lu5  1  0.750016  0.761801  0.000016  1
  Lu  Lu6  1  0.750013  0.999981  0.238200  1
  Lu  Lu7  1  0.249994  0.762806  0.237165  1
  Lu  Lu8  1  0.249955  0.237141  0.999972  1
  Lu  Lu9  1  0.249952  0.000002  0.762874  1
  Al  Al10  1  0.750009  0.605671  0.394332  1
  Al  Al11  1  0.750009  0.394335  0.999989  1
  Al  Al12  1  0.750010  0.000013  0.605666  1
  Sb  Sb13  1  0.250010  0.397499  0.602504  1
  Sb  Sb14  1  0.250004  0.602504  0.999992  1
  Sb  Sb15  1  0.250004  0.000012  0.397503  1
