# generated using pymatgen
data_Al11Cr2CuRh
_symmetry_space_group_name_H-M   'P 1'
_cell_length_a   5.09702473
_cell_length_b   5.09035927
_cell_length_c   8.98127155
_cell_angle_alpha   74.62249469
_cell_angle_beta   87.26072592
_cell_angle_gamma   79.32653470
_symmetry_Int_Tables_number   1
_chemical_formula_structural   Al11Cr2CuRh
_chemical_formula_sum   'Al11 Cr2 Cu1 Rh1'
_cell_volume   220.79533518
_cell_formula_units_Z   1
loop_
 _symmetry_equiv_pos_site_id
 _symmetry_equiv_pos_as_xyz
  1  'x, y, z'
loop_
 _atom_site_type_symbol
 _atom_site_label
 _atom_site_symmetry_multiplicity
 _atom_site_fract_x
 _atom_site_fract_y
 _atom_site_fract_z
 _atom_site_occupancy
  Al  Al0  1  0.139532  0.302104  0.383540  1
  Al  Al1  1  0.841289  0.707872  0.618535  1
  Al  Al2  1  0.841791  0.464917  0.118334  1
  Al  Al3  1  0.158755  0.530841  0.872954  1
  Al  Al4  1  0.987526  0.990037  0.013339  1
  Al  Al5  1  0.453015  0.111813  0.115783  1
  Al  Al6  1  0.526372  0.890328  0.876900  1
  Al  Al7  1  0.456938  0.325647  0.629422  1
  Al  Al8  1  0.580101  0.671570  0.362763  1
  Al  Al9  1  0.060552  0.839810  0.327717  1
  Al  Al10  1  0.975074  0.149519  0.705665  1
  Cr  Cr11  1  0.328678  0.609707  0.135414  1
  Cr  Cr12  1  0.672681  0.384675  0.864747  1
  Cu  Cu13  1  0.651002  0.165572  0.375591  1
  Rh  Rh14  1  0.326695  0.855590  0.599298  1
