# generated using pymatgen
data_DyHo2Tm3FeSb2
_symmetry_space_group_name_H-M   'P 1'
_cell_length_a   8.12941800
_cell_length_b   8.12866969
_cell_length_c   4.12869100
_cell_angle_alpha   90.00000000
_cell_angle_beta   90.00000000
_cell_angle_gamma   120.00303715
_symmetry_Int_Tables_number   1
_chemical_formula_structural   DyHo2Tm3FeSb2
_chemical_formula_sum   'Dy1 Ho2 Tm3 Fe1 Sb2'
_cell_volume   236.27003812
_cell_formula_units_Z   1
loop_
 _symmetry_equiv_pos_site_id
 _symmetry_equiv_pos_as_xyz
  1  'x, y, z'
loop_
 _atom_site_type_symbol
 _atom_site_label
 _atom_site_symmetry_multiplicity
 _atom_site_fract_x
 _atom_site_fract_y
 _atom_site_fract_z
 _atom_site_occupancy
  Dy  Dy0  1  0.605313  0.000000  0.500000  1
  Ho  Ho1  1  0.999989  0.605387  0.500000  1
  Ho  Ho2  1  0.394602  0.394613  0.500000  1
  Tm  Tm3  1  0.233502  0.000000  0.000000  1
  Tm  Tm4  1  0.766525  0.766437  0.000000  1
  Tm  Tm5  1  0.000089  0.233563  0.000000  1
  Fe  Fe6  1  0.000095  0.000000  0.500000  1
  Sb  Sb7  1  0.333215  0.666546  0.000000  1
  Sb  Sb8  1  0.666670  0.333454  0.000000  1
