# generated using pymatgen
data_Er2Sc2CrFeB12
_symmetry_space_group_name_H-M   'P 1'
_cell_length_a   3.43000100
_cell_length_b   8.93581256
_cell_length_c   11.30485951
_cell_angle_alpha   89.87495250
_cell_angle_beta   90.00000000
_cell_angle_gamma   90.00000000
_symmetry_Int_Tables_number   1
_chemical_formula_structural   Er2Sc2CrFeB12
_chemical_formula_sum   'Er4 Sc4 Cr2 Fe2 B24'
_cell_volume   346.49137822
_cell_formula_units_Z   2
loop_
 _symmetry_equiv_pos_site_id
 _symmetry_equiv_pos_as_xyz
  1  'x, y, z'
loop_
 _atom_site_type_symbol
 _atom_site_label
 _atom_site_symmetry_multiplicity
 _atom_site_fract_x
 _atom_site_fract_y
 _atom_site_fract_z
 _atom_site_occupancy
  Er  Er0  1  0.000000  0.822159  0.085312  1
  Er  Er1  1  0.000000  0.177841  0.914688  1
  Er  Er2  1  0.000000  0.321658  0.414111  1
  Er  Er3  1  0.000000  0.678342  0.585889  1
  Sc  Sc4  1  0.000000  0.443266  0.129441  1
  Sc  Sc5  1  0.000000  0.556734  0.870559  1
  Sc  Sc6  1  0.000000  0.943898  0.370294  1
  Sc  Sc7  1  0.000000  0.056102  0.629706  1
  Cr  Cr8  1  0.000000  0.641060  0.317480  1
  Cr  Cr9  1  0.000000  0.358940  0.682520  1
  Fe  Fe10  1  0.000000  0.140573  0.181221  1
  Fe  Fe11  1  0.000000  0.859427  0.818779  1
  B  B12  1  0.500000  0.055525  0.068345  1
  B  B13  1  0.500000  0.944475  0.931655  1
  B  B14  1  0.500000  0.554005  0.432322  1
  B  B15  1  0.500000  0.445995  0.567678  1
  B  B16  1  0.500000  0.250935  0.082852  1
  B  B17  1  0.500000  0.749065  0.917148  1
  B  B18  1  0.500000  0.752370  0.418085  1
  B  B19  1  0.500000  0.247630  0.581915  1
  B  B20  1  0.500000  0.291980  0.234302  1
  B  B21  1  0.500000  0.708020  0.765698  1
  B  B22  1  0.500000  0.795126  0.264312  1
  B  B23  1  0.500000  0.204874  0.735688  1
  B  B24  1  0.500000  0.129433  0.314994  1
  B  B25  1  0.500000  0.870567  0.685006  1
  B  B26  1  0.500000  0.629901  0.183073  1
  B  B27  1  0.500000  0.370099  0.816927  1
  B  B28  1  0.500000  0.481124  0.286056  1
  B  B29  1  0.500000  0.518876  0.713944  1
  B  B30  1  0.500000  0.984274  0.212693  1
  B  B31  1  0.500000  0.015726  0.787307  1
  B  B32  1  0.500000  0.097966  0.472909  1
  B  B33  1  0.500000  0.902034  0.527091  1
  B  B34  1  0.500000  0.598463  0.026209  1
  B  B35  1  0.500000  0.401537  0.973791  1
