# generated using pymatgen
data_CsRbBaNb2Se11
_symmetry_space_group_name_H-M   'P 1'
_cell_length_a   14.46176413
_cell_length_b   8.04762539
_cell_length_c   17.34066711
_cell_angle_alpha   84.07250422
_cell_angle_beta   90.06492362
_cell_angle_gamma   90.20610887
_symmetry_Int_Tables_number   1
_chemical_formula_structural   CsRbBaNb2Se11
_chemical_formula_sum   'Cs4 Rb4 Ba4 Nb8 Se44'
_cell_volume   2007.35252949
_cell_formula_units_Z   4
loop_
 _symmetry_equiv_pos_site_id
 _symmetry_equiv_pos_as_xyz
  1  'x, y, z'
loop_
 _atom_site_type_symbol
 _atom_site_label
 _atom_site_symmetry_multiplicity
 _atom_site_fract_x
 _atom_site_fract_y
 _atom_site_fract_z
 _atom_site_occupancy
  Cs  Cs0  1  0.541495  0.271268  0.915004  1
  Cs  Cs1  1  0.458364  0.728910  0.085362  1
  Cs  Cs2  1  0.958442  0.271538  0.414638  1
  Cs  Cs3  1  0.884264  0.297718  0.732735  1
  Rb  Rb4  1  0.040058  0.741310  0.584146  1
  Rb  Rb5  1  0.382647  0.709219  0.766464  1
  Rb  Rb6  1  0.617197  0.290371  0.233471  1
  Rb  Rb7  1  0.117048  0.709154  0.266950  1
  Ba  Ba8  1  0.878780  0.247105  0.034242  1
  Ba  Ba9  1  0.621238  0.246525  0.533791  1
  Ba  Ba10  1  0.378435  0.753075  0.466183  1
  Ba  Ba11  1  0.121612  0.752423  0.966311  1
  Nb  Nb12  1  0.326130  0.142936  0.196623  1
  Nb  Nb13  1  0.174530  0.140772  0.695932  1
  Nb  Nb14  1  0.715286  0.722523  0.604667  1
  Nb  Nb15  1  0.672974  0.857798  0.803627  1
  Nb  Nb16  1  0.216271  0.277451  0.894851  1
  Nb  Nb17  1  0.784266  0.721805  0.105620  1
  Nb  Nb18  1  0.827008  0.856550  0.304289  1
  Nb  Nb19  1  0.284074  0.277678  0.395031  1
  Se  Se20  1  0.166185  0.146296  0.302605  1
  Se  Se21  1  0.124347  0.162013  0.023867  1
  Se  Se22  1  0.282734  0.961442  0.610686  1
  Se  Se23  1  0.875640  0.836578  0.976477  1
  Se  Se24  1  0.196590  0.495630  0.445011  1
  Se  Se25  1  0.823756  0.559701  0.249679  1
  Se  Se26  1  0.445617  0.205375  0.105214  1
  Se  Se27  1  0.546375  0.601508  0.604529  1
  Se  Se28  1  0.780815  0.035902  0.890580  1
  Se  Se29  1  0.217884  0.962692  0.111056  1
  Se  Se30  1  0.294356  0.376331  0.656697  1
  Se  Se31  1  0.576203  0.921001  0.674078  1
  Se  Se32  1  0.810491  0.990161  0.566840  1
  Se  Se33  1  0.453093  0.398287  0.395541  1
  Se  Se34  1  0.047827  0.396585  0.896093  1
  Se  Se35  1  0.706301  0.623036  0.343530  1
  Se  Se36  1  0.623593  0.838390  0.475531  1
  Se  Se37  1  0.638590  0.158136  0.734318  1
  Se  Se38  1  0.667120  0.852920  0.197964  1
  Se  Se39  1  0.057470  0.202383  0.602560  1
  Se  Se40  1  0.833939  0.851489  0.697286  1
  Se  Se41  1  0.206267  0.376487  0.156799  1
  Se  Se42  1  0.303695  0.496643  0.944387  1
  Se  Se43  1  0.139042  0.839026  0.764190  1
  Se  Se44  1  0.860419  0.157579  0.234794  1
  Se  Se45  1  0.423058  0.079272  0.325910  1
  Se  Se46  1  0.945747  0.794818  0.396925  1
  Se  Se47  1  0.359924  0.842239  0.265722  1
  Se  Se48  1  0.333832  0.146661  0.802427  1
  Se  Se49  1  0.953220  0.602258  0.105212  1
  Se  Se50  1  0.323530  0.440088  0.251146  1
  Se  Se51  1  0.176450  0.438287  0.750388  1
  Se  Se52  1  0.923744  0.921126  0.175003  1
  Se  Se53  1  0.553441  0.794772  0.894889  1
  Se  Se54  1  0.792180  0.624606  0.844015  1
  Se  Se55  1  0.675294  0.560898  0.749103  1
  Se  Se56  1  0.190181  0.008664  0.433071  1
  Se  Se57  1  0.718278  0.036482  0.388861  1
  Se  Se58  1  0.690725  0.989980  0.067157  1
  Se  Se59  1  0.802042  0.507724  0.552200  1
  Se  Se60  1  0.077286  0.075278  0.824849  1
  Se  Se61  1  0.309868  0.009442  0.933123  1
  Se  Se62  1  0.696723  0.503165  0.055706  1
  Se  Se63  1  0.376008  0.162518  0.524045  1
