# generated using pymatgen
data_Sc4VRe6Mo
_symmetry_space_group_name_H-M   'P 1'
_cell_length_a   5.29057302
_cell_length_b   5.28484425
_cell_length_c   8.62286200
_cell_angle_alpha   90.00000000
_cell_angle_beta   90.00000000
_cell_angle_gamma   119.96418301
_symmetry_Int_Tables_number   1
_chemical_formula_structural   Sc4VRe6Mo
_chemical_formula_sum   'Sc4 V1 Re6 Mo1'
_cell_volume   208.86881553
_cell_formula_units_Z   1
loop_
 _symmetry_equiv_pos_site_id
 _symmetry_equiv_pos_as_xyz
  1  'x, y, z'
loop_
 _atom_site_type_symbol
 _atom_site_label
 _atom_site_symmetry_multiplicity
 _atom_site_fract_x
 _atom_site_fract_y
 _atom_site_fract_z
 _atom_site_occupancy
  Sc  Sc0  1  0.330986  0.665494  0.439251  1
  Sc  Sc1  1  0.669041  0.334520  0.939268  1
  Sc  Sc2  1  0.669041  0.334520  0.560732  1
  Sc  Sc3  1  0.330986  0.665494  0.060749  1
  V  V4  1  0.662415  0.831208  0.750000  1
  Re  Re5  1  0.826221  0.169507  0.250000  1
  Re  Re6  1  0.174856  0.346888  0.750000  1
  Re  Re7  1  0.174856  0.827968  0.750000  1
  Re  Re8  1  0.826221  0.656714  0.250000  1
  Re  Re9  1  0.999037  0.999519  0.505110  1
  Re  Re10  1  0.999037  0.999519  0.994890  1
  Mo  Mo11  1  0.337304  0.168652  0.250000  1
