# generated using pymatgen
data_Tm2Al3Fe14C3
_symmetry_space_group_name_H-M   'P 1'
_cell_length_a   6.48188575
_cell_length_b   6.48188540
_cell_length_c   6.48188589
_cell_angle_alpha   83.22104845
_cell_angle_beta   83.22104595
_cell_angle_gamma   83.22104609
_symmetry_Int_Tables_number   1
_chemical_formula_structural   Tm2Al3Fe14C3
_chemical_formula_sum   'Tm2 Al3 Fe14 C3'
_cell_volume   267.04004435
_cell_formula_units_Z   1
loop_
 _symmetry_equiv_pos_site_id
 _symmetry_equiv_pos_as_xyz
  1  'x, y, z'
loop_
 _atom_site_type_symbol
 _atom_site_label
 _atom_site_symmetry_multiplicity
 _atom_site_fract_x
 _atom_site_fract_y
 _atom_site_fract_z
 _atom_site_occupancy
  Tm  Tm0  1  0.657489  0.657489  0.657489  1
  Tm  Tm1  1  0.342511  0.342511  0.342511  1
  Al  Al2  1  0.000000  0.000000  0.500000  1
  Al  Al3  1  0.500000  0.000000  0.000000  1
  Al  Al4  1  0.000000  0.500000  0.000000  1
  Fe  Fe5  1  0.714611  0.285389  0.000000  1
  Fe  Fe6  1  0.000000  0.714611  0.285389  1
  Fe  Fe7  1  0.285389  0.000000  0.714611  1
  Fe  Fe8  1  0.000000  0.285389  0.714611  1
  Fe  Fe9  1  0.714611  0.000000  0.285389  1
  Fe  Fe10  1  0.285389  0.714611  0.000000  1
  Fe  Fe11  1  0.345761  0.345761  0.850987  1
  Fe  Fe12  1  0.850987  0.345761  0.345761  1
  Fe  Fe13  1  0.345761  0.850987  0.345761  1
  Fe  Fe14  1  0.654239  0.654239  0.149013  1
  Fe  Fe15  1  0.149013  0.654239  0.654239  1
  Fe  Fe16  1  0.654239  0.149013  0.654239  1
  Fe  Fe17  1  0.906848  0.906848  0.906848  1
  Fe  Fe18  1  0.093152  0.093152  0.093152  1
  C  C19  1  0.500000  0.500000  0.000000  1
  C  C20  1  0.000000  0.500000  0.500000  1
  C  C21  1  0.500000  0.000000  0.500000  1
