# generated using pymatgen
data_SmHo5(Ni2Rh7)2
_symmetry_space_group_name_H-M   'P 1'
_cell_length_a   5.28309000
_cell_length_b   5.28309074
_cell_length_c   16.79388700
_cell_angle_alpha   90.00000000
_cell_angle_beta   90.00000000
_cell_angle_gamma   119.99999539
_symmetry_Int_Tables_number   1
_chemical_formula_structural   SmHo5(Ni2Rh7)2
_chemical_formula_sum   'Sm1 Ho5 Ni4 Rh14'
_cell_volume   405.93636393
_cell_formula_units_Z   1
loop_
 _symmetry_equiv_pos_site_id
 _symmetry_equiv_pos_as_xyz
  1  'x, y, z'
loop_
 _atom_site_type_symbol
 _atom_site_label
 _atom_site_symmetry_multiplicity
 _atom_site_fract_x
 _atom_site_fract_y
 _atom_site_fract_z
 _atom_site_occupancy
  Sm  Sm0  1  0.666667  0.333333  0.250000  1
  Ho  Ho1  1  0.333333  0.666667  0.958954  1
  Ho  Ho2  1  0.666667  0.333333  0.040852  1
  Ho  Ho3  1  0.666667  0.333333  0.459148  1
  Ho  Ho4  1  0.333333  0.666667  0.541046  1
  Ho  Ho5  1  0.333333  0.666667  0.750000  1
  Ni  Ni6  1  0.333333  0.666667  0.250000  1
  Ni  Ni7  1  0.666667  0.333333  0.750000  1
  Ni  Ni8  1  0.000000  0.000000  0.250000  1
  Ni  Ni9  1  0.000000  0.000000  0.750000  1
  Rh  Rh10  1  0.167867  0.832133  0.370650  1
  Rh  Rh11  1  0.167867  0.335733  0.370650  1
  Rh  Rh12  1  0.664267  0.832133  0.370650  1
  Rh  Rh13  1  0.832197  0.167803  0.629245  1
  Rh  Rh14  1  0.832197  0.664394  0.629245  1
  Rh  Rh15  1  0.335606  0.167803  0.629245  1
  Rh  Rh16  1  0.832197  0.167803  0.870755  1
  Rh  Rh17  1  0.832197  0.664394  0.870755  1
  Rh  Rh18  1  0.335606  0.167803  0.870755  1
  Rh  Rh19  1  0.167867  0.832133  0.129350  1
  Rh  Rh20  1  0.167867  0.335733  0.129350  1
  Rh  Rh21  1  0.664267  0.832133  0.129350  1
  Rh  Rh22  1  0.000000  0.000000  0.499651  1
  Rh  Rh23  1  0.000000  0.000000  0.000349  1
