# generated using pymatgen
data_Ho2Ga10Ru3
_symmetry_space_group_name_H-M   'P 1'
_cell_length_a   8.90363600
_cell_length_b   8.90363600
_cell_length_c   6.44145700
_cell_angle_alpha   90.00000000
_cell_angle_beta   90.00000000
_cell_angle_gamma   90.00000000
_symmetry_Int_Tables_number   1
_chemical_formula_structural   Ho2Ga10Ru3
_chemical_formula_sum   'Ho4 Ga20 Ru6'
_cell_volume   510.64479038
_cell_formula_units_Z   2
loop_
 _symmetry_equiv_pos_site_id
 _symmetry_equiv_pos_as_xyz
  1  'x, y, z'
loop_
 _atom_site_type_symbol
 _atom_site_label
 _atom_site_symmetry_multiplicity
 _atom_site_fract_x
 _atom_site_fract_y
 _atom_site_fract_z
 _atom_site_occupancy
  Ho  Ho0  1  0.183345  0.683345  0.000000  1
  Ho  Ho1  1  0.816655  0.316655  0.000000  1
  Ho  Ho2  1  0.683345  0.816655  0.000000  1
  Ho  Ho3  1  0.316655  0.183345  0.000000  1
  Ga  Ga4  1  0.061020  0.206351  0.706519  1
  Ga  Ga5  1  0.938980  0.793649  0.706519  1
  Ga  Ga6  1  0.561020  0.293649  0.706519  1
  Ga  Ga7  1  0.438980  0.706351  0.706519  1
  Ga  Ga8  1  0.793649  0.061020  0.706519  1
  Ga  Ga9  1  0.206351  0.938980  0.706519  1
  Ga  Ga10  1  0.706351  0.561020  0.706519  1
  Ga  Ga11  1  0.293649  0.438980  0.706519  1
  Ga  Ga12  1  0.938980  0.793649  0.293481  1
  Ga  Ga13  1  0.061020  0.206351  0.293481  1
  Ga  Ga14  1  0.438980  0.706351  0.293481  1
  Ga  Ga15  1  0.561020  0.293649  0.293481  1
  Ga  Ga16  1  0.206351  0.938980  0.293481  1
  Ga  Ga17  1  0.793649  0.061020  0.293481  1
  Ga  Ga18  1  0.293649  0.438980  0.293481  1
  Ga  Ga19  1  0.706351  0.561020  0.293481  1
  Ga  Ga20  1  0.000000  0.500000  0.712969  1
  Ga  Ga21  1  0.500000  0.000000  0.712969  1
  Ga  Ga22  1  0.000000  0.500000  0.287031  1
  Ga  Ga23  1  0.500000  0.000000  0.287031  1
  Ru  Ru24  1  0.178254  0.678254  0.500000  1
  Ru  Ru25  1  0.821746  0.321746  0.500000  1
  Ru  Ru26  1  0.678254  0.821746  0.500000  1
  Ru  Ru27  1  0.321746  0.178254  0.500000  1
  Ru  Ru28  1  0.000000  0.000000  0.000000  1
  Ru  Ru29  1  0.500000  0.500000  0.000000  1
