# generated using pymatgen
data_La8Pr9Tm3Si16
_symmetry_space_group_name_H-M   'P 1'
_cell_length_a   7.90047848
_cell_length_b   7.90047848
_cell_length_c   15.32379701
_cell_angle_alpha   90.02974058
_cell_angle_beta   89.97025942
_cell_angle_gamma   89.97385253
_symmetry_Int_Tables_number   1
_chemical_formula_structural   La8Pr9Tm3Si16
_chemical_formula_sum   'La8 Pr9 Tm3 Si16'
_cell_volume   956.47366458
_cell_formula_units_Z   1
loop_
 _symmetry_equiv_pos_site_id
 _symmetry_equiv_pos_as_xyz
  1  'x, y, z'
loop_
 _atom_site_type_symbol
 _atom_site_label
 _atom_site_symmetry_multiplicity
 _atom_site_fract_x
 _atom_site_fract_y
 _atom_site_fract_z
 _atom_site_occupancy
  La  La0  1  0.376195  0.011644  0.447280  1
  La  La1  1  0.486263  0.876822  0.698503  1
  La  La2  1  0.512825  0.123984  0.196688  1
  La  La3  1  0.876822  0.486263  0.301497  1
  La  La4  1  0.123984  0.512825  0.803312  1
  La  La5  1  0.623358  0.987248  0.947189  1
  La  La6  1  0.011644  0.376195  0.552720  1
  La  La7  1  0.987248  0.623358  0.052811  1
  Pr  Pr8  1  0.691780  0.691780  0.500000  1
  Pr  Pr9  1  0.127069  0.979372  0.878493  1
  Pr  Pr10  1  0.520253  0.627027  0.127141  1
  Pr  Pr11  1  0.479077  0.373909  0.628961  1
  Pr  Pr12  1  0.627027  0.520253  0.872859  1
  Pr  Pr13  1  0.373909  0.479077  0.371039  1
  Pr  Pr14  1  0.872768  0.020410  0.377064  1
  Pr  Pr15  1  0.979372  0.127069  0.121507  1
  Pr  Pr16  1  0.020410  0.872768  0.622936  1
  Tm  Tm17  1  0.312372  0.312372  0.000000  1
  Tm  Tm18  1  0.189233  0.813104  0.249568  1
  Tm  Tm19  1  0.813104  0.189233  0.750432  1
  Si  Si20  1  0.189975  0.170268  0.706464  1
  Si  Si21  1  0.328952  0.690437  0.956624  1
  Si  Si22  1  0.668428  0.305095  0.455446  1
  Si  Si23  1  0.690437  0.328952  0.043376  1
  Si  Si24  1  0.305095  0.668428  0.544554  1
  Si  Si25  1  0.809635  0.829773  0.204814  1
  Si  Si26  1  0.170268  0.189975  0.293536  1
  Si  Si27  1  0.829773  0.809635  0.795186  1
  Si  Si28  1  0.286584  0.922203  0.063788  1
  Si  Si29  1  0.574466  0.788824  0.309440  1
  Si  Si30  1  0.421461  0.212957  0.814239  1
  Si  Si31  1  0.788824  0.574466  0.690560  1
  Si  Si32  1  0.212957  0.421461  0.185761  1
  Si  Si33  1  0.714209  0.082019  0.565121  1
  Si  Si34  1  0.922203  0.286584  0.936212  1
  Si  Si35  1  0.082019  0.714209  0.434879  1
