# generated using pymatgen
data_LiPr3Ag3Sn4
_symmetry_space_group_name_H-M   'P 1'
_cell_length_a   8.94771049
_cell_length_b   8.94258712
_cell_length_c   8.94258764
_cell_angle_alpha   149.33405383
_cell_angle_beta   131.16970755
_cell_angle_gamma   58.76649255
_symmetry_Int_Tables_number   1
_chemical_formula_structural   LiPr3Ag3Sn4
_chemical_formula_sum   'Li1 Pr3 Ag3 Sn4'
_cell_volume   272.59320576
_cell_formula_units_Z   1
loop_
 _symmetry_equiv_pos_site_id
 _symmetry_equiv_pos_as_xyz
  1  'x, y, z'
loop_
 _atom_site_type_symbol
 _atom_site_label
 _atom_site_symmetry_multiplicity
 _atom_site_fract_x
 _atom_site_fract_y
 _atom_site_fract_z
 _atom_site_occupancy
  Li  Li0  1  0.483899  0.670801  0.813100  1
  Pr  Pr1  1  0.498345  0.997428  0.500917  1
  Pr  Pr2  1  0.875406  0.871210  0.004196  1
  Pr  Pr3  1  0.129694  0.130780  0.998914  1
  Ag  Ag4  1  0.853696  0.670169  0.183527  1
  Ag  Ag5  1  0.135500  0.331955  0.803545  1
  Ag  Ag6  1  0.524899  0.327816  0.197082  1
  Sn  Sn7  1  0.282505  0.783246  0.499259  1
  Sn  Sn8  1  0.708691  0.212692  0.495999  1
  Sn  Sn9  1  0.807640  0.500341  0.307299  1
  Sn  Sn10  1  0.199724  0.503562  0.696162  1
