# generated using pymatgen
data_Hf6Be14AlCu8
_symmetry_space_group_name_H-M   'P 1'
_cell_length_a   7.88846604
_cell_length_b   7.88846640
_cell_length_c   7.88846600
_cell_angle_alpha   60.00000167
_cell_angle_beta   60.00000017
_cell_angle_gamma   60.00000161
_symmetry_Int_Tables_number   1
_chemical_formula_structural   Hf6Be14AlCu8
_chemical_formula_sum   'Hf6 Be14 Al1 Cu8'
_cell_volume   347.10647227
_cell_formula_units_Z   1
loop_
 _symmetry_equiv_pos_site_id
 _symmetry_equiv_pos_as_xyz
  1  'x, y, z'
loop_
 _atom_site_type_symbol
 _atom_site_label
 _atom_site_symmetry_multiplicity
 _atom_site_fract_x
 _atom_site_fract_y
 _atom_site_fract_z
 _atom_site_occupancy
  Hf  Hf0  1  0.702643  0.297357  0.297357  1
  Hf  Hf1  1  0.297357  0.702643  0.702643  1
  Hf  Hf2  1  0.297357  0.702643  0.297357  1
  Hf  Hf3  1  0.702643  0.297357  0.702643  1
  Hf  Hf4  1  0.297357  0.297357  0.702643  1
  Hf  Hf5  1  0.702643  0.702643  0.297357  1
  Be  Be6  1  0.325023  0.325023  0.325023  1
  Be  Be7  1  0.674977  0.674977  0.674977  1
  Be  Be8  1  0.325023  0.325023  0.024931  1
  Be  Be9  1  0.325023  0.024931  0.325023  1
  Be  Be10  1  0.674977  0.674977  0.975069  1
  Be  Be11  1  0.674977  0.975069  0.674977  1
  Be  Be12  1  0.024931  0.325023  0.325023  1
  Be  Be13  1  0.975069  0.674977  0.674977  1
  Be  Be14  1  0.500000  0.000000  0.000000  1
  Be  Be15  1  0.000000  0.500000  0.500000  1
  Be  Be16  1  0.000000  0.500000  0.000000  1
  Be  Be17  1  0.500000  0.000000  0.500000  1
  Be  Be18  1  0.000000  0.000000  0.500000  1
  Be  Be19  1  0.500000  0.500000  0.000000  1
  Al  Al20  1  0.000000  0.000000  0.000000  1
  Cu  Cu21  1  0.127169  0.127169  0.127169  1
  Cu  Cu22  1  0.872831  0.872831  0.872831  1
  Cu  Cu23  1  0.127169  0.127169  0.618494  1
  Cu  Cu24  1  0.127169  0.618494  0.127169  1
  Cu  Cu25  1  0.872831  0.872831  0.381506  1
  Cu  Cu26  1  0.872831  0.381506  0.872831  1
  Cu  Cu27  1  0.618494  0.127169  0.127169  1
  Cu  Cu28  1  0.381506  0.872831  0.872831  1
