# generated using pymatgen
data_EuAlGaAs2O7
_symmetry_space_group_name_H-M   'P 1'
_cell_length_a   8.63787429
_cell_length_b   8.63787500
_cell_length_c   8.63787441
_cell_angle_alpha   35.57500891
_cell_angle_beta   35.57499970
_cell_angle_gamma   35.57499808
_symmetry_Int_Tables_number   1
_chemical_formula_structural   EuAlGaAs2O7
_chemical_formula_sum   'Eu1 Al1 Ga1 As2 O7'
_cell_volume   194.95924669
_cell_formula_units_Z   1
loop_
 _symmetry_equiv_pos_site_id
 _symmetry_equiv_pos_as_xyz
  1  'x, y, z'
loop_
 _atom_site_type_symbol
 _atom_site_label
 _atom_site_symmetry_multiplicity
 _atom_site_fract_x
 _atom_site_fract_y
 _atom_site_fract_z
 _atom_site_occupancy
  Eu  Eu0  1  0.501107  0.501107  0.501107  1
  Al  Al1  1  0.926854  0.926854  0.926854  1
  Ga  Ga2  1  0.071023  0.071023  0.071023  1
  As  As3  1  0.270501  0.270501  0.270501  1
  As  As4  1  0.730186  0.730186  0.730186  1
  O  O5  1  0.997418  0.997418  0.997418  1
  O  O6  1  0.454278  0.806953  0.044099  1
  O  O7  1  0.555360  0.966704  0.175520  1
  O  O8  1  0.806952  0.044099  0.454278  1
  O  O9  1  0.966704  0.175520  0.555360  1
  O  O10  1  0.044099  0.454278  0.806952  1
  O  O11  1  0.175519  0.555360  0.966704  1
