# generated using pymatgen
data_LaNd7CdHgPd2
_symmetry_space_group_name_H-M   'P 1'
_cell_length_a   10.03835634
_cell_length_b   10.03835609
_cell_length_c   10.05209500
_cell_angle_alpha   59.95471868
_cell_angle_beta   59.95471949
_cell_angle_gamma   59.98866427
_symmetry_Int_Tables_number   1
_chemical_formula_structural   LaNd7CdHgPd2
_chemical_formula_sum   'La2 Nd14 Cd2 Hg2 Pd4'
_cell_volume   715.70169196
_cell_formula_units_Z   2
loop_
 _symmetry_equiv_pos_site_id
 _symmetry_equiv_pos_as_xyz
  1  'x, y, z'
loop_
 _atom_site_type_symbol
 _atom_site_label
 _atom_site_symmetry_multiplicity
 _atom_site_fract_x
 _atom_site_fract_y
 _atom_site_fract_z
 _atom_site_occupancy
  La  La0  1  0.351151  0.351151  0.351758  1
  La  La1  1  0.351151  0.351151  0.945941  1
  Nd  Nd2  1  0.354158  0.938060  0.353891  1
  Nd  Nd3  1  0.938060  0.354158  0.353891  1
  Nd  Nd4  1  0.809770  0.191165  0.191929  1
  Nd  Nd5  1  0.191165  0.809770  0.807137  1
  Nd  Nd6  1  0.191165  0.809770  0.191929  1
  Nd  Nd7  1  0.809770  0.191165  0.807137  1
  Nd  Nd8  1  0.190513  0.190513  0.809487  1
  Nd  Nd9  1  0.807062  0.807062  0.192938  1
  Nd  Nd10  1  0.936224  0.563848  0.565985  1
  Nd  Nd11  1  0.563848  0.936224  0.933944  1
  Nd  Nd12  1  0.563848  0.936224  0.565985  1
  Nd  Nd13  1  0.936224  0.563848  0.933944  1
  Nd  Nd14  1  0.564365  0.564365  0.935635  1
  Nd  Nd15  1  0.934536  0.934536  0.565464  1
  Cd  Cd16  1  0.580261  0.258442  0.580649  1
  Cd  Cd17  1  0.258442  0.580261  0.580649  1
  Hg  Hg18  1  0.583986  0.583986  0.585498  1
  Hg  Hg19  1  0.583986  0.583986  0.246532  1
  Pd  Pd20  1  0.143637  0.143637  0.145319  1
  Pd  Pd21  1  0.143637  0.143637  0.567406  1
  Pd  Pd22  1  0.142883  0.570161  0.143478  1
  Pd  Pd23  1  0.570161  0.142883  0.143478  1
