# generated using pymatgen
data_Zr10Zn2(GaTe)3
_symmetry_space_group_name_H-M   'P 1'
_cell_length_a   8.54163700
_cell_length_b   8.54163843
_cell_length_c   5.79563400
_cell_angle_alpha   90.00000000
_cell_angle_beta   90.00000000
_cell_angle_gamma   119.99999832
_symmetry_Int_Tables_number   1
_chemical_formula_structural   Zr10Zn2(GaTe)3
_chemical_formula_sum   'Zr10 Zn2 Ga3 Te3'
_cell_volume   366.19624397
_cell_formula_units_Z   1
loop_
 _symmetry_equiv_pos_site_id
 _symmetry_equiv_pos_as_xyz
  1  'x, y, z'
loop_
 _atom_site_type_symbol
 _atom_site_label
 _atom_site_symmetry_multiplicity
 _atom_site_fract_x
 _atom_site_fract_y
 _atom_site_fract_z
 _atom_site_occupancy
  Zr  Zr0  1  0.733959  0.733959  0.250000  1
  Zr  Zr1  1  0.266041  0.000000  0.250000  1
  Zr  Zr2  1  0.000000  0.266041  0.250000  1
  Zr  Zr3  1  0.279873  0.279873  0.750000  1
  Zr  Zr4  1  0.720127  0.000000  0.750000  1
  Zr  Zr5  1  0.000000  0.720127  0.750000  1
  Zr  Zr6  1  0.666667  0.333333  0.508677  1
  Zr  Zr7  1  0.333333  0.666667  0.508677  1
  Zr  Zr8  1  0.333333  0.666667  0.991323  1
  Zr  Zr9  1  0.666667  0.333333  0.991323  1
  Zn  Zn10  1  0.000000  0.000000  0.518106  1
  Zn  Zn11  1  0.000000  0.000000  0.981894  1
  Ga  Ga12  1  0.623487  0.623487  0.750000  1
  Ga  Ga13  1  0.376513  0.000000  0.750000  1
  Ga  Ga14  1  0.000000  0.376513  0.750000  1
  Te  Te15  1  0.390065  0.390065  0.250000  1
  Te  Te16  1  0.609935  0.000000  0.250000  1
  Te  Te17  1  0.000000  0.609935  0.250000  1
