# generated using pymatgen
data_Tb2Al9PtRh2
_symmetry_space_group_name_H-M   'P 1'
_cell_length_a   7.58528001
_cell_length_b   7.58528015
_cell_length_c   9.48179327
_cell_angle_alpha   89.98623671
_cell_angle_beta   89.98623406
_cell_angle_gamma   119.53210952
_symmetry_Int_Tables_number   1
_chemical_formula_structural   Tb2Al9PtRh2
_chemical_formula_sum   'Tb4 Al18 Pt2 Rh4'
_cell_volume   474.67095745
_cell_formula_units_Z   2
loop_
 _symmetry_equiv_pos_site_id
 _symmetry_equiv_pos_as_xyz
  1  'x, y, z'
loop_
 _atom_site_type_symbol
 _atom_site_label
 _atom_site_symmetry_multiplicity
 _atom_site_fract_x
 _atom_site_fract_y
 _atom_site_fract_z
 _atom_site_occupancy
  Tb  Tb0  1  0.995003  0.669944  0.249862  1
  Tb  Tb1  1  0.004997  0.330056  0.750138  1
  Tb  Tb2  1  0.669944  0.995003  0.249862  1
  Tb  Tb3  1  0.330056  0.004997  0.750138  1
  Al  Al4  1  0.127020  0.127020  0.251018  1
  Al  Al5  1  0.872980  0.872980  0.748982  1
  Al  Al6  1  0.000910  0.331314  0.077555  1
  Al  Al7  1  0.999090  0.668686  0.922445  1
  Al  Al8  1  0.000157  0.665126  0.574377  1
  Al  Al9  1  0.334874  0.999843  0.425623  1
  Al  Al10  1  0.999843  0.334874  0.425623  1
  Al  Al11  1  0.665126  0.000157  0.574377  1
  Al  Al12  1  0.668686  0.999090  0.922445  1
  Al  Al13  1  0.331314  0.000910  0.077555  1
  Al  Al14  1  0.331961  0.331961  0.549935  1
  Al  Al15  1  0.668039  0.668039  0.450065  1
  Al  Al16  1  0.669310  0.669310  0.054593  1
  Al  Al17  1  0.330690  0.330690  0.945407  1
  Al  Al18  1  0.340593  0.547403  0.253739  1
  Al  Al19  1  0.659407  0.452597  0.746261  1
  Al  Al20  1  0.547403  0.340593  0.253739  1
  Al  Al21  1  0.452597  0.659407  0.746261  1
  Pt  Pt22  1  0.672355  0.327645  0.000000  1
  Pt  Pt23  1  0.327645  0.672355  0.000000  1
  Rh  Rh24  1  0.327661  0.672339  0.500000  1
  Rh  Rh25  1  0.672339  0.327661  0.500000  1
  Rh  Rh26  1  0.000000  0.000000  0.000000  1
  Rh  Rh27  1  0.000000  0.000000  0.500000  1
