# generated using pymatgen
data_Ho5Tm3Sc12Si15Sn
_symmetry_space_group_name_H-M   'P 1'
_cell_length_a   7.10506749
_cell_length_b   7.39063744
_cell_length_c   14.02428027
_cell_angle_alpha   90.00389927
_cell_angle_beta   89.57790991
_cell_angle_gamma   90.05351297
_symmetry_Int_Tables_number   1
_chemical_formula_structural   Ho5Tm3Sc12Si15Sn
_chemical_formula_sum   'Ho5 Tm3 Sc12 Si15 Sn1'
_cell_volume   736.40836444
_cell_formula_units_Z   1
loop_
 _symmetry_equiv_pos_site_id
 _symmetry_equiv_pos_as_xyz
  1  'x, y, z'
loop_
 _atom_site_type_symbol
 _atom_site_label
 _atom_site_symmetry_multiplicity
 _atom_site_fract_x
 _atom_site_fract_y
 _atom_site_fract_z
 _atom_site_occupancy
  Ho  Ho0  1  0.011269  0.175827  0.096714  1
  Ho  Ho1  1  0.988427  0.824779  0.903897  1
  Ho  Ho2  1  0.489176  0.675623  0.904533  1
  Ho  Ho3  1  0.989028  0.830008  0.597504  1
  Ho  Ho4  1  0.510751  0.324302  0.096993  1
  Tm  Tm5  1  0.005595  0.170235  0.398932  1
  Tm  Tm6  1  0.512687  0.319588  0.399561  1
  Tm  Tm7  1  0.501640  0.685051  0.599706  1
  Sc  Sc8  1  0.162699  0.502136  0.754595  1
  Sc  Sc9  1  0.836759  0.497423  0.249859  1
  Sc  Sc10  1  0.336984  0.003081  0.250171  1
  Sc  Sc11  1  0.664279  0.997519  0.751213  1
  Sc  Sc12  1  0.343937  0.162848  0.630651  1
  Sc  Sc13  1  0.663828  0.824751  0.373208  1
  Sc  Sc14  1  0.163173  0.683449  0.369650  1
  Sc  Sc15  1  0.667781  0.822997  0.124942  1
  Sc  Sc16  1  0.823415  0.323828  0.625970  1
  Sc  Sc17  1  0.331104  0.175832  0.874985  1
  Sc  Sc18  1  0.831098  0.323593  0.875231  1
  Sc  Sc19  1  0.168729  0.676535  0.125637  1
  Si  Si20  1  0.035286  0.119147  0.750693  1
  Si  Si21  1  0.962956  0.885741  0.247474  1
  Si  Si22  1  0.465225  0.614545  0.249270  1
  Si  Si23  1  0.533187  0.386059  0.751649  1
  Si  Si24  1  0.287714  0.869095  0.751703  1
  Si  Si25  1  0.712010  0.127666  0.248662  1
  Si  Si26  1  0.211519  0.371827  0.250339  1
  Si  Si27  1  0.789246  0.628382  0.750695  1
  Si  Si28  1  0.828716  0.537223  0.458222  1
  Si  Si29  1  0.337334  0.965032  0.460026  1
  Si  Si30  1  0.842022  0.535068  0.039554  1
  Si  Si31  1  0.662191  0.037244  0.537579  1
  Si  Si32  1  0.156993  0.464645  0.961532  1
  Si  Si33  1  0.657359  0.035469  0.961015  1
  Si  Si34  1  0.341648  0.965120  0.039853  1
  Sn  Sn35  1  0.174240  0.458336  0.537781  1
