# generated using pymatgen
data_Eu3MgCd2Pd3
_symmetry_space_group_name_H-M   'P 1'
_cell_length_a   7.71059636
_cell_length_b   7.71059630
_cell_length_c   4.26965700
_cell_angle_alpha   90.00000000
_cell_angle_beta   90.00000000
_cell_angle_gamma   120.85298998
_symmetry_Int_Tables_number   1
_chemical_formula_structural   Eu3MgCd2Pd3
_chemical_formula_sum   'Eu3 Mg1 Cd2 Pd3'
_cell_volume   217.92252501
_cell_formula_units_Z   1
loop_
 _symmetry_equiv_pos_site_id
 _symmetry_equiv_pos_as_xyz
  1  'x, y, z'
loop_
 _atom_site_type_symbol
 _atom_site_label
 _atom_site_symmetry_multiplicity
 _atom_site_fract_x
 _atom_site_fract_y
 _atom_site_fract_z
 _atom_site_occupancy
  Eu  Eu0  1  0.411128  0.995934  0.500000  1
  Eu  Eu1  1  0.995934  0.411128  0.500000  1
  Eu  Eu2  1  0.594973  0.594973  0.500000  1
  Mg  Mg3  1  0.242258  0.242258  0.000000  1
  Cd  Cd4  1  0.753849  0.002087  0.000000  1
  Cd  Cd5  1  0.002087  0.753849  0.000000  1
  Pd  Pd6  1  0.331004  0.656792  0.000000  1
  Pd  Pd7  1  0.656792  0.331004  0.000000  1
  Pd  Pd8  1  0.011975  0.011975  0.500000  1
