# generated using pymatgen
data_Eu2In2IrPd
_symmetry_space_group_name_H-M   'P 1'
_cell_length_a   4.46488700
_cell_length_b   7.44995300
_cell_length_c   8.57286300
_cell_angle_alpha   90.00000000
_cell_angle_beta   90.00000000
_cell_angle_gamma   90.00000000
_symmetry_Int_Tables_number   1
_chemical_formula_structural   Eu2In2IrPd
_chemical_formula_sum   'Eu4 In4 Ir2 Pd2'
_cell_volume   285.16084197
_cell_formula_units_Z   2
loop_
 _symmetry_equiv_pos_site_id
 _symmetry_equiv_pos_as_xyz
  1  'x, y, z'
loop_
 _atom_site_type_symbol
 _atom_site_label
 _atom_site_symmetry_multiplicity
 _atom_site_fract_x
 _atom_site_fract_y
 _atom_site_fract_z
 _atom_site_occupancy
  Eu  Eu0  1  0.250000  0.522476  0.177030  1
  Eu  Eu1  1  0.750000  0.457423  0.820611  1
  Eu  Eu2  1  0.250000  0.042577  0.320611  1
  Eu  Eu3  1  0.750000  0.977524  0.677030  1
  In  In4  1  0.250000  0.149037  0.936876  1
  In  In5  1  0.750000  0.350963  0.436876  1
  In  In6  1  0.250000  0.643673  0.563856  1
  In  In7  1  0.750000  0.856327  0.063856  1
  Ir  Ir8  1  0.750000  0.232060  0.125671  1
  Ir  Ir9  1  0.250000  0.267940  0.625671  1
  Pd  Pd10  1  0.750000  0.730253  0.375957  1
  Pd  Pd11  1  0.250000  0.769747  0.875957  1
