# generated using pymatgen
data_Ac3Nd(Br3N)2
_symmetry_space_group_name_H-M   'P 1'
_cell_length_a   8.87583671
_cell_length_b   8.89395711
_cell_length_c   8.89395705
_cell_angle_alpha   137.03817483
_cell_angle_beta   130.31828565
_cell_angle_gamma   67.77197315
_symmetry_Int_Tables_number   1
_chemical_formula_structural   Ac3Nd(Br3N)2
_chemical_formula_sum   'Ac3 Nd1 Br6 N2'
_cell_volume   358.65336256
_cell_formula_units_Z   1
loop_
 _symmetry_equiv_pos_site_id
 _symmetry_equiv_pos_as_xyz
  1  'x, y, z'
loop_
 _atom_site_type_symbol
 _atom_site_label
 _atom_site_symmetry_multiplicity
 _atom_site_fract_x
 _atom_site_fract_y
 _atom_site_fract_z
 _atom_site_occupancy
  Ac  Ac0  1  0.074613  0.906658  0.167956  1
  Ac  Ac1  1  0.918756  0.090493  0.828264  1
  Ac  Ac2  1  0.268870  0.591977  0.676892  1
  Nd  Nd3  1  0.760551  0.417404  0.343146  1
  Br  Br4  1  0.384447  0.204792  0.179656  1
  Br  Br5  1  0.614430  0.802085  0.812344  1
  Br  Br6  1  0.499732  0.246480  0.757132  1
  Br  Br7  1  0.499732  0.742600  0.253251  1
  Br  Br8  1  0.008873  0.696226  0.312647  1
  Br  Br9  1  0.970879  0.301634  0.669244  1
  N  N10  1  0.999559  0.746064  0.745974  1
  N  N11  1  0.999559  0.253585  0.253494  1
