# generated using pymatgen
data_Ca2Cu3Pd3O8
_symmetry_space_group_name_H-M   'P 1'
_cell_length_a   5.70965459
_cell_length_b   5.70965459
_cell_length_c   5.70965459
_cell_angle_alpha   90.20131574
_cell_angle_beta   89.79868426
_cell_angle_gamma   90.20131574
_symmetry_Int_Tables_number   1
_chemical_formula_structural   Ca2Cu3Pd3O8
_chemical_formula_sum   'Ca2 Cu3 Pd3 O8'
_cell_volume   186.13218897
_cell_formula_units_Z   1
loop_
 _symmetry_equiv_pos_site_id
 _symmetry_equiv_pos_as_xyz
  1  'x, y, z'
loop_
 _atom_site_type_symbol
 _atom_site_label
 _atom_site_symmetry_multiplicity
 _atom_site_fract_x
 _atom_site_fract_y
 _atom_site_fract_z
 _atom_site_occupancy
  Ca  Ca0  1  0.502015  0.497985  0.502015  1
  Ca  Ca1  1  0.997985  0.002015  0.997985  1
  Cu  Cu2  1  0.995540  0.495540  0.750000  1
  Cu  Cu3  1  0.504460  0.250000  0.995540  1
  Cu  Cu4  1  0.750000  0.004460  0.504460  1
  Pd  Pd5  1  0.997125  0.497125  0.250000  1
  Pd  Pd6  1  0.502875  0.750000  0.997125  1
  Pd  Pd7  1  0.250000  0.002875  0.502875  1
  O  O8  1  0.750000  0.250000  0.750000  1
  O  O9  1  0.250000  0.750000  0.250000  1
  O  O10  1  0.750000  0.756277  0.256277  1
  O  O11  1  0.250000  0.256916  0.756916  1
  O  O12  1  0.243723  0.743723  0.750000  1
  O  O13  1  0.743084  0.243084  0.250000  1
  O  O14  1  0.256277  0.250000  0.243723  1
  O  O15  1  0.756916  0.750000  0.743084  1
