# generated using pymatgen
data_Tb7AsSe7
_symmetry_space_group_name_H-M   'P 1'
_cell_length_a   8.10049000
_cell_length_b   8.10048971
_cell_length_c   8.10049000
_cell_angle_alpha   120.00000118
_cell_angle_beta   90.00000000
_cell_angle_gamma   120.00000118
_symmetry_Int_Tables_number   1
_chemical_formula_structural   Tb7AsSe7
_chemical_formula_sum   'Tb7 As1 Se7'
_cell_volume   375.85371024
_cell_formula_units_Z   1
loop_
 _symmetry_equiv_pos_site_id
 _symmetry_equiv_pos_as_xyz
  1  'x, y, z'
loop_
 _atom_site_type_symbol
 _atom_site_label
 _atom_site_symmetry_multiplicity
 _atom_site_fract_x
 _atom_site_fract_y
 _atom_site_fract_z
 _atom_site_occupancy
  Tb  Tb0  1  0.246632  0.000000  0.246632  1
  Tb  Tb1  1  0.246632  0.493263  0.246632  1
  Tb  Tb2  1  0.753368  0.000000  0.246633  1
  Tb  Tb3  1  0.250001  0.500001  0.750002  1
  Tb  Tb4  1  0.246633  0.000000  0.753368  1
  Tb  Tb5  1  0.753368  0.000000  0.753368  1
  Tb  Tb6  1  0.753368  0.506736  0.753368  1
  As  As7  1  0.000000  0.000000  0.000000  1
  Se  Se8  1  0.500000  0.000000  0.500000  1
  Se  Se9  1  0.996381  0.992764  0.496383  1
  Se  Se10  1  0.996381  0.500001  0.496383  1
  Se  Se11  1  0.503620  0.500001  0.496383  1
  Se  Se12  1  0.996383  0.500001  0.003619  1
  Se  Se13  1  0.503618  0.500001  0.003619  1
  Se  Se14  1  0.503618  0.007235  0.003619  1
