# generated using pymatgen
data_La2Y3Pb4
_symmetry_space_group_name_H-M   'P 1'
_cell_length_a   8.38296300
_cell_length_b   8.43562700
_cell_length_c   16.05048100
_cell_angle_alpha   90.00000000
_cell_angle_beta   90.00000000
_cell_angle_gamma   90.00000000
_symmetry_Int_Tables_number   1
_chemical_formula_structural   La2Y3Pb4
_chemical_formula_sum   'La8 Y12 Pb16'
_cell_volume   1135.01857600
_cell_formula_units_Z   4
loop_
 _symmetry_equiv_pos_site_id
 _symmetry_equiv_pos_as_xyz
  1  'x, y, z'
loop_
 _atom_site_type_symbol
 _atom_site_label
 _atom_site_symmetry_multiplicity
 _atom_site_fract_x
 _atom_site_fract_y
 _atom_site_fract_z
 _atom_site_occupancy
  La  La0  1  0.029211  0.178366  0.098913  1
  La  La1  1  0.529211  0.321634  0.401087  1
  La  La2  1  0.470789  0.678366  0.901087  1
  La  La3  1  0.970789  0.821634  0.598913  1
  La  La4  1  0.970789  0.821634  0.901087  1
  La  La5  1  0.470789  0.678366  0.598913  1
  La  La6  1  0.529211  0.321634  0.098913  1
  La  La7  1  0.029211  0.178366  0.401087  1
  Y  Y8  1  0.872756  0.658559  0.120716  1
  Y  Y9  1  0.372756  0.841441  0.379284  1
  Y  Y10  1  0.627244  0.158559  0.879284  1
  Y  Y11  1  0.127244  0.341441  0.620716  1
  Y  Y12  1  0.127244  0.341441  0.879284  1
  Y  Y13  1  0.627244  0.158559  0.620716  1
  Y  Y14  1  0.372756  0.841441  0.120716  1
  Y  Y15  1  0.872756  0.658559  0.379284  1
  Y  Y16  1  0.706399  0.994386  0.250000  1
  Y  Y17  1  0.206399  0.505614  0.250000  1
  Y  Y18  1  0.793601  0.494386  0.750000  1
  Y  Y19  1  0.293601  0.005614  0.750000  1
  Pb  Pb20  1  0.069458  0.869120  0.250000  1
  Pb  Pb21  1  0.569458  0.630880  0.250000  1
  Pb  Pb22  1  0.430542  0.369120  0.750000  1
  Pb  Pb23  1  0.930542  0.130880  0.750000  1
  Pb  Pb24  1  0.839760  0.354730  0.250000  1
  Pb  Pb25  1  0.339760  0.145270  0.250000  1
  Pb  Pb26  1  0.660240  0.854730  0.750000  1
  Pb  Pb27  1  0.160240  0.645270  0.750000  1
  Pb  Pb28  1  0.788514  0.462666  0.955749  1
  Pb  Pb29  1  0.288514  0.037334  0.544251  1
  Pb  Pb30  1  0.711486  0.962666  0.044251  1
  Pb  Pb31  1  0.211486  0.537334  0.455749  1
  Pb  Pb32  1  0.211486  0.537334  0.044251  1
  Pb  Pb33  1  0.711486  0.962666  0.455749  1
  Pb  Pb34  1  0.288514  0.037334  0.955749  1
  Pb  Pb35  1  0.788514  0.462666  0.544251  1
