# generated using pymatgen
data_CaErRe2Si2C
_symmetry_space_group_name_H-M   'P 1'
_cell_length_a   5.81703991
_cell_length_b   5.81704034
_cell_length_c   7.04763656
_cell_angle_alpha   124.84921813
_cell_angle_beta   124.84922410
_cell_angle_gamma   39.69194183
_symmetry_Int_Tables_number   1
_chemical_formula_structural   CaErRe2Si2C
_chemical_formula_sum   'Ca1 Er1 Re2 Si2 C1'
_cell_volume   120.97979009
_cell_formula_units_Z   1
loop_
 _symmetry_equiv_pos_site_id
 _symmetry_equiv_pos_as_xyz
  1  'x, y, z'
loop_
 _atom_site_type_symbol
 _atom_site_label
 _atom_site_symmetry_multiplicity
 _atom_site_fract_x
 _atom_site_fract_y
 _atom_site_fract_z
 _atom_site_occupancy
  Ca  Ca0  1  0.424107  0.424107  0.696988  1
  Er  Er1  1  0.573153  0.573153  0.296145  1
  Re  Re2  1  0.206740  0.206740  0.087097  1
  Re  Re3  1  0.794943  0.794943  0.914414  1
  Si  Si4  1  0.860446  0.860446  0.318699  1
  Si  Si5  1  0.138305  0.138305  0.678653  1
  C  C6  1  0.002305  0.002305  0.008004  1
