# generated using pymatgen
data_MgSc5(TaOs2)6
_symmetry_space_group_name_H-M   'P 1'
_cell_length_a   4.50391303
_cell_length_b   6.36679905
_cell_length_c   13.54362700
_cell_angle_alpha   89.99986935
_cell_angle_beta   90.00048283
_cell_angle_gamma   89.98619897
_symmetry_Int_Tables_number   1
_chemical_formula_structural   MgSc5(TaOs2)6
_chemical_formula_sum   'Mg1 Sc5 Ta6 Os12'
_cell_volume   388.37038937
_cell_formula_units_Z   1
loop_
 _symmetry_equiv_pos_site_id
 _symmetry_equiv_pos_as_xyz
  1  'x, y, z'
loop_
 _atom_site_type_symbol
 _atom_site_label
 _atom_site_symmetry_multiplicity
 _atom_site_fract_x
 _atom_site_fract_y
 _atom_site_fract_z
 _atom_site_occupancy
  Mg  Mg0  1  0.500242  0.500001  0.833333  1
  Sc  Sc1  1  0.999985  0.000001  0.999020  1
  Sc  Sc2  1  0.499812  0.499998  0.165507  1
  Sc  Sc3  1  0.999802  0.000000  0.333337  1
  Sc  Sc4  1  0.499989  0.500003  0.501148  1
  Sc  Sc5  1  0.000229  0.999999  0.667657  1
  Ta  Ta6  1  0.999976  0.500002  0.995396  1
  Ta  Ta7  1  0.499854  0.999999  0.165813  1
  Ta  Ta8  1  0.999844  0.500001  0.333330  1
  Ta  Ta9  1  0.499998  0.000001  0.500858  1
  Ta  Ta10  1  0.000138  0.499999  0.671269  1
  Ta  Ta11  1  0.500162  0.000000  0.833334  1
  Os  Os12  1  0.499892  0.249844  0.000258  1
  Os  Os13  1  0.500090  0.750156  0.000259  1
  Os  Os14  1  0.999858  0.250132  0.166656  1
  Os  Os15  1  0.999775  0.749868  0.166656  1
  Os  Os16  1  0.499770  0.250862  0.333333  1
  Os  Os17  1  0.499877  0.749136  0.333332  1
  Os  Os18  1  0.000035  0.250136  0.500011  1
  Os  Os19  1  0.999956  0.749865  0.500010  1
  Os  Os20  1  0.500075  0.249848  0.666406  1
  Os  Os21  1  0.500270  0.750151  0.666407  1
  Os  Os22  1  0.000210  0.249411  0.833335  1
  Os  Os23  1  0.000162  0.750591  0.833334  1
