# generated using pymatgen
data_Er6ScFeO12
_symmetry_space_group_name_H-M   'P 1'
_cell_length_a   6.51337909
_cell_length_b   6.51337854
_cell_length_c   6.51337813
_cell_angle_alpha   92.56716893
_cell_angle_beta   92.56718223
_cell_angle_gamma   92.56717062
_symmetry_Int_Tables_number   1
_chemical_formula_structural   Er6ScFeO12
_chemical_formula_sum   'Er6 Sc1 Fe1 O12'
_cell_volume   275.46652379
_cell_formula_units_Z   1
loop_
 _symmetry_equiv_pos_site_id
 _symmetry_equiv_pos_as_xyz
  1  'x, y, z'
loop_
 _atom_site_type_symbol
 _atom_site_label
 _atom_site_symmetry_multiplicity
 _atom_site_fract_x
 _atom_site_fract_y
 _atom_site_fract_z
 _atom_site_occupancy
  Er  Er0  1  0.743712  0.927547  0.436883  1
  Er  Er1  1  0.927547  0.436883  0.743712  1
  Er  Er2  1  0.436883  0.743712  0.927547  1
  Er  Er3  1  0.256288  0.072453  0.563117  1
  Er  Er4  1  0.072453  0.563117  0.256288  1
  Er  Er5  1  0.563117  0.256288  0.072453  1
  Sc  Sc6  1  0.000000  0.000000  0.000000  1
  Fe  Fe7  1  0.500000  0.500000  0.500000  1
  O  O8  1  0.589758  0.461367  0.802321  1
  O  O9  1  0.461367  0.802321  0.589758  1
  O  O10  1  0.802321  0.589758  0.461367  1
  O  O11  1  0.410242  0.538633  0.197679  1
  O  O12  1  0.538633  0.197679  0.410242  1
  O  O13  1  0.197679  0.410242  0.538633  1
  O  O14  1  0.068765  0.913774  0.309190  1
  O  O15  1  0.913774  0.309190  0.068765  1
  O  O16  1  0.690810  0.931235  0.086226  1
  O  O17  1  0.086226  0.690810  0.931235  1
  O  O18  1  0.931235  0.086226  0.690810  1
  O  O19  1  0.309190  0.068765  0.913774  1
