# generated using pymatgen
data_Sr3HgPd8
_symmetry_space_group_name_H-M   'P 1'
_cell_length_a   9.59785680
_cell_length_b   9.59785590
_cell_length_c   9.59785621
_cell_angle_alpha   33.65532678
_cell_angle_beta   33.65532257
_cell_angle_gamma   33.65532360
_symmetry_Int_Tables_number   1
_chemical_formula_structural   Sr3HgPd8
_chemical_formula_sum   'Sr3 Hg1 Pd8'
_cell_volume   241.91446037
_cell_formula_units_Z   1
loop_
 _symmetry_equiv_pos_site_id
 _symmetry_equiv_pos_as_xyz
  1  'x, y, z'
loop_
 _atom_site_type_symbol
 _atom_site_label
 _atom_site_symmetry_multiplicity
 _atom_site_fract_x
 _atom_site_fract_y
 _atom_site_fract_z
 _atom_site_occupancy
  Sr  Sr0  1  0.561088  0.561088  0.561088  1
  Sr  Sr1  1  0.432559  0.432559  0.432559  1
  Sr  Sr2  1  0.943532  0.943532  0.943532  1
  Hg  Hg3  1  0.064624  0.064624  0.064624  1
  Pd  Pd4  1  0.749546  0.749546  0.749546  1
  Pd  Pd5  1  0.250055  0.250055  0.250055  1
  Pd  Pd6  1  0.999836  0.500682  0.500682  1
  Pd  Pd7  1  0.497330  0.000032  0.000032  1
  Pd  Pd8  1  0.500682  0.999836  0.500682  1
  Pd  Pd9  1  0.000032  0.497330  0.000032  1
  Pd  Pd10  1  0.500682  0.500682  0.999836  1
  Pd  Pd11  1  0.000032  0.000032  0.497330  1
