# generated using pymatgen
data_Er12Fe3AgSn
_symmetry_space_group_name_H-M   'P 1'
_cell_length_a   8.24805724
_cell_length_b   8.24805658
_cell_length_c   8.24805700
_cell_angle_alpha   110.27331714
_cell_angle_beta   106.87769583
_cell_angle_gamma   111.29510268
_symmetry_Int_Tables_number   1
_chemical_formula_structural   Er12Fe3AgSn
_chemical_formula_sum   'Er12 Fe3 Ag1 Sn1'
_cell_volume   431.25352713
_cell_formula_units_Z   1
loop_
 _symmetry_equiv_pos_site_id
 _symmetry_equiv_pos_as_xyz
  1  'x, y, z'
loop_
 _atom_site_type_symbol
 _atom_site_label
 _atom_site_symmetry_multiplicity
 _atom_site_fract_x
 _atom_site_fract_y
 _atom_site_fract_z
 _atom_site_occupancy
  Er  Er0  1  0.192847  0.443137  0.250290  1
  Er  Er1  1  0.807153  0.556863  0.749710  1
  Er  Er2  1  0.192855  0.942568  0.749712  1
  Er  Er3  1  0.961537  0.189670  0.771856  1
  Er  Er4  1  0.807145  0.057432  0.250288  1
  Er  Er5  1  0.038463  0.810330  0.228144  1
  Er  Er6  1  0.417813  0.189670  0.228134  1
  Er  Er7  1  0.582187  0.810330  0.771866  1
  Er  Er8  1  0.308700  0.308856  0.617554  1
  Er  Er9  1  0.691300  0.691144  0.382446  1
  Er  Er10  1  0.691301  0.308856  0.000157  1
  Er  Er11  1  0.308699  0.691144  0.999843  1
  Fe  Fe12  1  0.383451  0.383453  0.000002  1
  Fe  Fe13  1  0.616549  0.616547  0.999998  1
  Fe  Fe14  1  0.000000  0.000000  0.000000  1
  Ag  Ag15  1  0.000000  0.500000  0.500000  1
  Sn  Sn16  1  0.500000  0.000000  0.500000  1
