# generated using pymatgen
data_Ho2Mg(Al3Pd2)3
_symmetry_space_group_name_H-M   'P 1'
_cell_length_a   9.28932500
_cell_length_b   9.28932574
_cell_length_c   4.23884900
_cell_angle_alpha   90.00000000
_cell_angle_beta   90.00000000
_cell_angle_gamma   120.00000093
_symmetry_Int_Tables_number   1
_chemical_formula_structural   Ho2Mg(Al3Pd2)3
_chemical_formula_sum   'Ho2 Mg1 Al9 Pd6'
_cell_volume   316.77209975
_cell_formula_units_Z   1
loop_
 _symmetry_equiv_pos_site_id
 _symmetry_equiv_pos_as_xyz
  1  'x, y, z'
loop_
 _atom_site_type_symbol
 _atom_site_label
 _atom_site_symmetry_multiplicity
 _atom_site_fract_x
 _atom_site_fract_y
 _atom_site_fract_z
 _atom_site_occupancy
  Ho  Ho0  1  0.333333  0.666667  0.500000  1
  Ho  Ho1  1  0.666667  0.333333  0.500000  1
  Mg  Mg2  1  0.000000  0.000000  0.000000  1
  Al  Al3  1  0.500000  0.000000  0.000000  1
  Al  Al4  1  0.000000  0.500000  0.000000  1
  Al  Al5  1  0.500000  0.500000  0.000000  1
  Al  Al6  1  0.304272  0.000000  0.500000  1
  Al  Al7  1  0.695728  0.000000  0.500000  1
  Al  Al8  1  0.000000  0.304272  0.500000  1
  Al  Al9  1  0.000000  0.695728  0.500000  1
  Al  Al10  1  0.695728  0.695728  0.500000  1
  Al  Al11  1  0.304272  0.304272  0.500000  1
  Pd  Pd12  1  0.180743  0.361486  0.000000  1
  Pd  Pd13  1  0.819257  0.638514  0.000000  1
  Pd  Pd14  1  0.638514  0.819257  0.000000  1
  Pd  Pd15  1  0.361486  0.180743  0.000000  1
  Pd  Pd16  1  0.180743  0.819257  0.000000  1
  Pd  Pd17  1  0.819257  0.180743  0.000000  1
