# generated using pymatgen
data_Ta4VGa2P
_symmetry_space_group_name_H-M   'P 1'
_cell_length_a   6.50203600
_cell_length_b   7.55975593
_cell_length_c   6.49096900
_cell_angle_alpha   115.42382247
_cell_angle_beta   90.00000000
_cell_angle_gamma   115.47026289
_symmetry_Int_Tables_number   1
_chemical_formula_structural   Ta4VGa2P
_chemical_formula_sum   'Ta8 V2 Ga4 P2'
_cell_volume   253.39455219
_cell_formula_units_Z   2
loop_
 _symmetry_equiv_pos_site_id
 _symmetry_equiv_pos_as_xyz
  1  'x, y, z'
loop_
 _atom_site_type_symbol
 _atom_site_label
 _atom_site_symmetry_multiplicity
 _atom_site_fract_x
 _atom_site_fract_y
 _atom_site_fract_z
 _atom_site_occupancy
  Ta  Ta0  1  0.523348  0.707856  0.692662  1
  Ta  Ta1  1  0.192611  0.691690  0.007814  1
  Ta  Ta2  1  0.684507  0.707856  0.192662  1
  Ta  Ta3  1  0.999078  0.691690  0.507814  1
  Ta  Ta4  1  0.500922  0.308310  0.316125  1
  Ta  Ta5  1  0.815493  0.292144  0.984807  1
  Ta  Ta6  1  0.307389  0.308310  0.816125  1
  Ta  Ta7  1  0.976652  0.292144  0.484807  1
  V  V8  1  0.986733  0.000000  0.996581  1
  V  V9  1  0.513267  0.000000  0.496581  1
  Ga  Ga10  1  0.750000  0.500000  0.758948  1
  Ga  Ga11  1  0.250000  0.500000  0.258948  1
  Ga  Ga12  1  0.145149  0.000000  0.358287  1
  Ga  Ga13  1  0.354851  0.000000  0.858287  1
  P  P14  1  0.869544  0.000000  0.634777  1
  P  P15  1  0.630456  0.000000  0.134777  1
