# generated using pymatgen
data_Tb12TcOs2Pt
_symmetry_space_group_name_H-M   'P 1'
_cell_length_a   6.40215806
_cell_length_b   7.39033083
_cell_length_c   9.21745000
_cell_angle_alpha   90.00000000
_cell_angle_beta   90.00000000
_cell_angle_gamma   90.18559618
_symmetry_Int_Tables_number   1
_chemical_formula_structural   Tb12TcOs2Pt
_chemical_formula_sum   'Tb12 Tc1 Os2 Pt1'
_cell_volume   436.11275063
_cell_formula_units_Z   1
loop_
 _symmetry_equiv_pos_site_id
 _symmetry_equiv_pos_as_xyz
  1  'x, y, z'
loop_
 _atom_site_type_symbol
 _atom_site_label
 _atom_site_symmetry_multiplicity
 _atom_site_fract_x
 _atom_site_fract_y
 _atom_site_fract_z
 _atom_site_occupancy
  Tb  Tb0  1  0.628333  0.042702  0.250000  1
  Tb  Tb1  1  0.367702  0.959402  0.750000  1
  Tb  Tb2  1  0.130435  0.462696  0.750000  1
  Tb  Tb3  1  0.867382  0.534553  0.250000  1
  Tb  Tb4  1  0.169756  0.181792  0.060114  1
  Tb  Tb5  1  0.826362  0.823311  0.932438  1
  Tb  Tb6  1  0.669064  0.322307  0.935886  1
  Tb  Tb7  1  0.826362  0.823311  0.567562  1
  Tb  Tb8  1  0.335697  0.672844  0.060897  1
  Tb  Tb9  1  0.169756  0.181792  0.439886  1
  Tb  Tb10  1  0.335697  0.672844  0.439103  1
  Tb  Tb11  1  0.669064  0.322307  0.564114  1
  Tc  Tc12  1  0.962871  0.113338  0.750000  1
  Os  Os13  1  0.455415  0.385775  0.250000  1
  Os  Os14  1  0.538567  0.615151  0.750000  1
  Pt  Pt15  1  0.047539  0.885871  0.250000  1
