# generated using pymatgen
data_Tm6Al24GaOs7
_symmetry_space_group_name_H-M   'P 1'
_cell_length_a   8.82044605
_cell_length_b   8.82044687
_cell_length_c   9.49744244
_cell_angle_alpha   90.04999536
_cell_angle_beta   89.95000409
_cell_angle_gamma   119.86621744
_symmetry_Int_Tables_number   1
_chemical_formula_structural   Tm6Al24GaOs7
_chemical_formula_sum   'Tm6 Al24 Ga1 Os7'
_cell_volume   640.76990320
_cell_formula_units_Z   1
loop_
 _symmetry_equiv_pos_site_id
 _symmetry_equiv_pos_as_xyz
  1  'x, y, z'
loop_
 _atom_site_type_symbol
 _atom_site_label
 _atom_site_symmetry_multiplicity
 _atom_site_fract_x
 _atom_site_fract_y
 _atom_site_fract_z
 _atom_site_occupancy
  Tm  Tm0  1  0.804457  0.195543  0.744218  1
  Tm  Tm1  1  0.195543  0.804457  0.255782  1
  Tm  Tm2  1  0.387173  0.192597  0.753568  1
  Tm  Tm3  1  0.612827  0.807403  0.246432  1
  Tm  Tm4  1  0.807403  0.612827  0.753568  1
  Tm  Tm5  1  0.192597  0.387173  0.246432  1
  Al  Al6  1  0.672394  0.327606  0.976504  1
  Al  Al7  1  0.327606  0.672394  0.023496  1
  Al  Al8  1  0.333965  0.666035  0.480470  1
  Al  Al9  1  0.666035  0.333965  0.519530  1
  Al  Al10  1  0.837208  0.162792  0.422416  1
  Al  Al11  1  0.162792  0.837208  0.577584  1
  Al  Al12  1  0.325330  0.162373  0.426909  1
  Al  Al13  1  0.162944  0.837056  0.921712  1
  Al  Al14  1  0.674670  0.837627  0.573091  1
  Al  Al15  1  0.837056  0.162944  0.078288  1
  Al  Al16  1  0.837627  0.674670  0.426909  1
  Al  Al17  1  0.678675  0.852161  0.917349  1
  Al  Al18  1  0.162373  0.325330  0.573091  1
  Al  Al19  1  0.321325  0.147839  0.082651  1
  Al  Al20  1  0.147839  0.321325  0.917349  1
  Al  Al21  1  0.852161  0.678675  0.082651  1
  Al  Al22  1  0.434644  0.565356  0.742609  1
  Al  Al23  1  0.565356  0.434644  0.257391  1
  Al  Al24  1  0.120539  0.561756  0.750492  1
  Al  Al25  1  0.879461  0.438244  0.249508  1
  Al  Al26  1  0.438244  0.879461  0.750492  1
  Al  Al27  1  0.561756  0.120539  0.249508  1
  Al  Al28  1  0.001077  0.998923  0.749310  1
  Al  Al29  1  0.998923  0.001077  0.250690  1
  Ga  Ga30  1  0.500000  0.500000  0.000000  1
  Os  Os31  1  0.000000  0.500000  0.000000  1
  Os  Os32  1  0.500000  0.500000  0.500000  1
  Os  Os33  1  0.500000  0.000000  0.000000  1
  Os  Os34  1  0.000000  0.500000  0.500000  1
  Os  Os35  1  0.500000  0.000000  0.500000  1
  Os  Os36  1  0.000000  0.000000  0.000000  1
  Os  Os37  1  0.000000  0.000000  0.500000  1
