# generated using pymatgen
data_HoEr5TaO12
_symmetry_space_group_name_H-M   'P 1'
_cell_length_a   6.44509578
_cell_length_b   6.44434934
_cell_length_c   6.44620704
_cell_angle_alpha   98.82190224
_cell_angle_beta   98.80763711
_cell_angle_gamma   98.81648496
_symmetry_Int_Tables_number   1
_chemical_formula_structural   HoEr5TaO12
_chemical_formula_sum   'Ho1 Er5 Ta1 O12'
_cell_volume   257.13386697
_cell_formula_units_Z   1
loop_
 _symmetry_equiv_pos_site_id
 _symmetry_equiv_pos_as_xyz
  1  'x, y, z'
loop_
 _atom_site_type_symbol
 _atom_site_label
 _atom_site_symmetry_multiplicity
 _atom_site_fract_x
 _atom_site_fract_y
 _atom_site_fract_z
 _atom_site_occupancy
  Ho  Ho0  1  0.860749  0.695653  0.388871  1
  Er  Er1  1  0.139037  0.304278  0.611150  1
  Er  Er2  1  0.388957  0.860980  0.696422  1
  Er  Er3  1  0.695670  0.388668  0.860426  1
  Er  Er4  1  0.304268  0.610805  0.138930  1
  Er  Er5  1  0.611043  0.139920  0.304351  1
  Ta  Ta6  1  0.000183  0.000278  0.000176  1
  O  O7  1  0.074203  0.305217  0.957891  1
  O  O8  1  0.042997  0.926552  0.695485  1
  O  O9  1  0.413824  0.564846  0.821420  1
  O  O10  1  0.179378  0.585845  0.435567  1
  O  O11  1  0.694909  0.042119  0.925753  1
  O  O12  1  0.435218  0.178157  0.586143  1
  O  O13  1  0.563539  0.822247  0.413889  1
  O  O14  1  0.305077  0.957726  0.074298  1
  O  O15  1  0.821820  0.412760  0.565120  1
  O  O16  1  0.585395  0.434605  0.177777  1
  O  O17  1  0.957819  0.074487  0.305034  1
  O  O18  1  0.925914  0.694858  0.041299  1
