# generated using pymatgen
data_Li4Gd3TmGe8
_symmetry_space_group_name_H-M   'P 1'
_cell_length_a   3.95977900
_cell_length_b   7.95584079
_cell_length_c   10.59578300
_cell_angle_alpha   90.04801391
_cell_angle_beta   90.00000000
_cell_angle_gamma   90.00000000
_symmetry_Int_Tables_number   1
_chemical_formula_structural   Li4Gd3TmGe8
_chemical_formula_sum   'Li4 Gd3 Tm1 Ge8'
_cell_volume   333.80276887
_cell_formula_units_Z   1
loop_
 _symmetry_equiv_pos_site_id
 _symmetry_equiv_pos_as_xyz
  1  'x, y, z'
loop_
 _atom_site_type_symbol
 _atom_site_label
 _atom_site_symmetry_multiplicity
 _atom_site_fract_x
 _atom_site_fract_y
 _atom_site_fract_z
 _atom_site_occupancy
  Li  Li0  1  0.250000  0.984549  0.393621  1
  Li  Li1  1  0.250000  0.485312  0.107547  1
  Li  Li2  1  0.750000  0.015533  0.606292  1
  Li  Li3  1  0.750000  0.514553  0.892639  1
  Gd  Gd4  1  0.250000  0.135463  0.863240  1
  Gd  Gd5  1  0.250000  0.635377  0.637112  1
  Gd  Gd6  1  0.750000  0.863589  0.137173  1
  Tm  Tm7  1  0.750000  0.368015  0.363475  1
  Ge  Ge8  1  0.250000  0.232174  0.559131  1
  Ge  Ge9  1  0.250000  0.731189  0.937424  1
  Ge  Ge10  1  0.750000  0.765655  0.437518  1
  Ge  Ge11  1  0.750000  0.270667  0.064911  1
  Ge  Ge12  1  0.250000  0.647628  0.314601  1
  Ge  Ge13  1  0.250000  0.152302  0.188012  1
  Ge  Ge14  1  0.750000  0.349732  0.683378  1
  Ge  Ge15  1  0.750000  0.848265  0.813927  1
