# generated using pymatgen
data_Th2P7(Ru5Rh)2
_symmetry_space_group_name_H-M   'P 1'
_cell_length_a   9.57776138
_cell_length_b   9.59700757
_cell_length_c   3.91809000
_cell_angle_alpha   90.00000000
_cell_angle_beta   90.00000000
_cell_angle_gamma   120.03035417
_symmetry_Int_Tables_number   1
_chemical_formula_structural   Th2P7(Ru5Rh)2
_chemical_formula_sum   'Th2 P7 Ru10 Rh2'
_cell_volume   311.79702804
_cell_formula_units_Z   1
loop_
 _symmetry_equiv_pos_site_id
 _symmetry_equiv_pos_as_xyz
  1  'x, y, z'
loop_
 _atom_site_type_symbol
 _atom_site_label
 _atom_site_symmetry_multiplicity
 _atom_site_fract_x
 _atom_site_fract_y
 _atom_site_fract_z
 _atom_site_occupancy
  Th  Th0  1  0.667285  0.333484  0.500000  1
  Th  Th1  1  0.331124  0.665825  0.000000  1
  P  P2  1  0.604461  0.710099  0.500000  1
  P  P3  1  0.999028  0.001139  0.000000  1
  P  P4  1  0.285491  0.889764  0.500000  1
  P  P5  1  0.104548  0.398295  0.500000  1
  P  P6  1  0.891118  0.592564  0.000000  1
  P  P7  1  0.406967  0.291631  0.000000  1
  P  P8  1  0.706440  0.112686  0.000000  1
  Ru  Ru9  1  0.898646  0.131883  0.500000  1
  Ru  Ru10  1  0.239747  0.104782  0.500000  1
  Ru  Ru11  1  0.868043  0.768751  0.500000  1
  Ru  Ru12  1  0.729434  0.883545  0.000000  1
  Ru  Ru13  1  0.115042  0.849389  0.000000  1
  Ru  Ru14  1  0.154537  0.269621  0.000000  1
  Ru  Ru15  1  0.438571  0.063494  0.000000  1
  Ru  Ru16  1  0.934092  0.370712  0.000000  1
  Ru  Ru17  1  0.628118  0.561436  0.000000  1
  Ru  Ru18  1  0.058053  0.618000  0.500000  1
  Rh  Rh19  1  0.555279  0.938442  0.500000  1
  Rh  Rh20  1  0.383976  0.444456  0.500000  1
