# generated using pymatgen
data_Li4Ta3NbH16
_symmetry_space_group_name_H-M   'P 1'
_cell_length_a   6.00625936
_cell_length_b   6.54832911
_cell_length_c   6.54832789
_cell_angle_alpha   54.59490179
_cell_angle_beta   62.70254541
_cell_angle_gamma   62.70255096
_symmetry_Int_Tables_number   1
_chemical_formula_structural   Li4Ta3NbH16
_chemical_formula_sum   'Li4 Ta3 Nb1 H16'
_cell_volume   179.80858343
_cell_formula_units_Z   1
loop_
 _symmetry_equiv_pos_site_id
 _symmetry_equiv_pos_as_xyz
  1  'x, y, z'
loop_
 _atom_site_type_symbol
 _atom_site_label
 _atom_site_symmetry_multiplicity
 _atom_site_fract_x
 _atom_site_fract_y
 _atom_site_fract_z
 _atom_site_occupancy
  Li  Li0  1  0.000000  0.000000  0.500000  1
  Li  Li1  1  0.500000  0.000000  0.500000  1
  Li  Li2  1  0.500000  0.500000  0.000000  1
  Li  Li3  1  0.000000  0.500000  0.000000  1
  Ta  Ta4  1  0.000000  0.500000  0.500000  1
  Ta  Ta5  1  0.500000  0.000000  0.000000  1
  Ta  Ta6  1  0.500000  0.500000  0.500000  1
  Nb  Nb7  1  0.000000  0.000000  0.000000  1
  H  H8  1  0.875602  0.871987  0.376811  1
  H  H9  1  0.875602  0.376811  0.871987  1
  H  H10  1  0.376811  0.875602  0.875602  1
  H  H11  1  0.871987  0.875602  0.875602  1
  H  H12  1  0.124398  0.128013  0.623189  1
  H  H13  1  0.124398  0.623189  0.128013  1
  H  H14  1  0.623189  0.124398  0.124398  1
  H  H15  1  0.128013  0.124398  0.124398  1
  H  H16  1  0.623275  0.626313  0.127138  1
  H  H17  1  0.623275  0.127138  0.626313  1
  H  H18  1  0.127138  0.623275  0.623275  1
  H  H19  1  0.626313  0.623275  0.623275  1
  H  H20  1  0.376725  0.373687  0.872862  1
  H  H21  1  0.376725  0.872862  0.373687  1
  H  H22  1  0.872862  0.376725  0.376725  1
  H  H23  1  0.373687  0.376725  0.376725  1
