# generated using pymatgen
data_Er8Ta11Si16Ag
_symmetry_space_group_name_H-M   'P 1'
_cell_length_a   7.02701652
_cell_length_b   7.02701708
_cell_length_c   12.93678929
_cell_angle_alpha   90.23245308
_cell_angle_beta   89.76755032
_cell_angle_gamma   89.76283297
_symmetry_Int_Tables_number   1
_chemical_formula_structural   Er8Ta11Si16Ag
_chemical_formula_sum   'Er8 Ta11 Si16 Ag1'
_cell_volume   638.78923586
_cell_formula_units_Z   1
loop_
 _symmetry_equiv_pos_site_id
 _symmetry_equiv_pos_as_xyz
  1  'x, y, z'
loop_
 _atom_site_type_symbol
 _atom_site_label
 _atom_site_symmetry_multiplicity
 _atom_site_fract_x
 _atom_site_fract_y
 _atom_site_fract_z
 _atom_site_occupancy
  Er  Er0  1  0.342057  0.001751  0.467574  1
  Er  Er1  1  0.496858  0.841453  0.717242  1
  Er  Er2  1  0.502937  0.157786  0.216498  1
  Er  Er3  1  0.841453  0.496858  0.282758  1
  Er  Er4  1  0.157786  0.502937  0.783502  1
  Er  Er5  1  0.655631  0.001338  0.967962  1
  Er  Er6  1  0.001751  0.342057  0.532426  1
  Er  Er7  1  0.001338  0.655631  0.032038  1
  Ta  Ta8  1  0.171067  0.826812  0.250070  1
  Ta  Ta9  1  0.826812  0.171067  0.749930  1
  Ta  Ta10  1  0.671559  0.671559  0.500000  1
  Ta  Ta11  1  0.149682  0.007319  0.875826  1
  Ta  Ta12  1  0.498416  0.652386  0.122821  1
  Ta  Ta13  1  0.504481  0.349198  0.623293  1
  Ta  Ta14  1  0.652386  0.498416  0.877179  1
  Ta  Ta15  1  0.349198  0.504481  0.376707  1
  Ta  Ta16  1  0.847952  0.992486  0.373244  1
  Ta  Ta17  1  0.007319  0.149682  0.124174  1
  Ta  Ta18  1  0.992486  0.847952  0.626756  1
  Si  Si19  1  0.202083  0.136824  0.682495  1
  Si  Si20  1  0.370202  0.718397  0.928003  1
  Si  Si21  1  0.635552  0.294367  0.430984  1
  Si  Si22  1  0.718397  0.370202  0.071997  1
  Si  Si23  1  0.294367  0.635552  0.569016  1
  Si  Si24  1  0.796799  0.864457  0.180737  1
  Si  Si25  1  0.136824  0.202083  0.317505  1
  Si  Si26  1  0.864457  0.796799  0.819263  1
  Si  Si27  1  0.290116  0.941112  0.065063  1
  Si  Si28  1  0.544804  0.794280  0.312938  1
  Si  Si29  1  0.455483  0.205276  0.810389  1
  Si  Si30  1  0.794280  0.544804  0.687062  1
  Si  Si31  1  0.205276  0.455483  0.189611  1
  Si  Si32  1  0.704728  0.045696  0.563505  1
  Si  Si33  1  0.941112  0.290116  0.934937  1
  Si  Si34  1  0.045696  0.704728  0.436495  1
  Ag  Ag35  1  0.328654  0.328654  0.000000  1
