# generated using pymatgen
data_DyLu7Hg4
_symmetry_space_group_name_H-M   'P 1'
_cell_length_a   5.03837500
_cell_length_b   6.83061998
_cell_length_c   9.09923738
_cell_angle_alpha   90.09130631
_cell_angle_beta   90.00000000
_cell_angle_gamma   90.00000000
_symmetry_Int_Tables_number   1
_chemical_formula_structural   DyLu7Hg4
_chemical_formula_sum   'Dy1 Lu7 Hg4'
_cell_volume   313.15190356
_cell_formula_units_Z   1
loop_
 _symmetry_equiv_pos_site_id
 _symmetry_equiv_pos_as_xyz
  1  'x, y, z'
loop_
 _atom_site_type_symbol
 _atom_site_label
 _atom_site_symmetry_multiplicity
 _atom_site_fract_x
 _atom_site_fract_y
 _atom_site_fract_z
 _atom_site_occupancy
  Dy  Dy0  1  0.750000  0.329395  0.925270  1
  Lu  Lu1  1  0.250000  0.015831  0.803308  1
  Lu  Lu2  1  0.250000  0.518427  0.692847  1
  Lu  Lu3  1  0.750000  0.980539  0.198901  1
  Lu  Lu4  1  0.750000  0.482763  0.304701  1
  Lu  Lu5  1  0.250000  0.167096  0.427436  1
  Lu  Lu6  1  0.250000  0.669675  0.073421  1
  Lu  Lu7  1  0.750000  0.831175  0.574733  1
  Hg  Hg8  1  0.250000  0.732737  0.396824  1
  Hg  Hg9  1  0.250000  0.230639  0.106742  1
  Hg  Hg10  1  0.750000  0.266936  0.597137  1
  Hg  Hg11  1  0.750000  0.774788  0.898682  1
