# generated using pymatgen
data_La(NdTl2)5
_symmetry_space_group_name_H-M   'P 1'
_cell_length_a   6.71441148
_cell_length_b   6.71441030
_cell_length_c   10.74221329
_cell_angle_alpha   90.32316273
_cell_angle_beta   90.32316465
_cell_angle_gamma   102.93854732
_symmetry_Int_Tables_number   1
_chemical_formula_structural   La(NdTl2)5
_chemical_formula_sum   'La1 Nd5 Tl10'
_cell_volume   471.97935957
_cell_formula_units_Z   1
loop_
 _symmetry_equiv_pos_site_id
 _symmetry_equiv_pos_as_xyz
  1  'x, y, z'
loop_
 _atom_site_type_symbol
 _atom_site_label
 _atom_site_symmetry_multiplicity
 _atom_site_fract_x
 _atom_site_fract_y
 _atom_site_fract_z
 _atom_site_occupancy
  La  La0  1  0.203134  0.796866  0.500000  1
  Nd  Nd1  1  0.629114  0.628251  0.250640  1
  Nd  Nd2  1  0.371749  0.370886  0.749360  1
  Nd  Nd3  1  0.205198  0.794802  0.000000  1
  Nd  Nd4  1  0.796749  0.203251  0.500000  1
  Nd  Nd5  1  0.794200  0.205800  0.000000  1
  Tl  Tl6  1  0.007623  0.009467  0.247107  1
  Tl  Tl7  1  0.990533  0.992377  0.752893  1
  Tl  Tl8  1  0.306018  0.305223  0.043009  1
  Tl  Tl9  1  0.694777  0.693982  0.956991  1
  Tl  Tl10  1  0.307874  0.308098  0.455345  1
  Tl  Tl11  1  0.691902  0.692126  0.544655  1
  Tl  Tl12  1  0.509069  0.071152  0.249332  1
  Tl  Tl13  1  0.928848  0.490931  0.750668  1
  Tl  Tl14  1  0.493282  0.930068  0.751812  1
  Tl  Tl15  1  0.069932  0.506718  0.248188  1
