# generated using pymatgen
data_YSb12(OsRu)2
_symmetry_space_group_name_H-M   'P 1'
_cell_length_a   8.12779093
_cell_length_b   8.14202707
_cell_length_c   8.14211749
_cell_angle_alpha   109.53492488
_cell_angle_beta   109.47033899
_cell_angle_gamma   109.47412202
_symmetry_Int_Tables_number   1
_chemical_formula_structural   YSb12(OsRu)2
_chemical_formula_sum   'Y1 Sb12 Os2 Ru2'
_cell_volume   414.44570518
_cell_formula_units_Z   1
loop_
 _symmetry_equiv_pos_site_id
 _symmetry_equiv_pos_as_xyz
  1  'x, y, z'
loop_
 _atom_site_type_symbol
 _atom_site_label
 _atom_site_symmetry_multiplicity
 _atom_site_fract_x
 _atom_site_fract_y
 _atom_site_fract_z
 _atom_site_occupancy
  Y  Y0  1  0.000000  0.000000  0.000000  1
  Sb  Sb1  1  0.337322  0.181047  0.842666  1
  Sb  Sb2  1  0.662678  0.818953  0.157334  1
  Sb  Sb3  1  0.662646  0.505320  0.843717  1
  Sb  Sb4  1  0.337354  0.494680  0.156283  1
  Sb  Sb5  1  0.180474  0.842845  0.337553  1
  Sb  Sb6  1  0.819526  0.157155  0.662447  1
  Sb  Sb7  1  0.505147  0.843426  0.661715  1
  Sb  Sb8  1  0.494853  0.156574  0.338285  1
  Sb  Sb9  1  0.844124  0.338603  0.181144  1
  Sb  Sb10  1  0.155876  0.661397  0.818856  1
  Sb  Sb11  1  0.844143  0.663005  0.505541  1
  Sb  Sb12  1  0.155857  0.336995  0.494459  1
  Os  Os13  1  0.500000  0.000000  0.000000  1
  Os  Os14  1  0.500000  0.500000  0.500000  1
  Ru  Ru15  1  0.000000  0.000000  0.500000  1
  Ru  Ru16  1  0.000000  0.500000  0.000000  1
