# generated using pymatgen
data_Ho2Er3Nb3(Co4P3)4
_symmetry_space_group_name_H-M   'P 1'
_cell_length_a   12.18638600
_cell_length_b   12.18638612
_cell_length_c   3.69259100
_cell_angle_alpha   90.00000000
_cell_angle_beta   90.00000000
_cell_angle_gamma   119.99999966
_symmetry_Int_Tables_number   1
_chemical_formula_structural   Ho2Er3Nb3(Co4P3)4
_chemical_formula_sum   'Ho2 Er3 Nb3 Co16 P12'
_cell_volume   474.91042680
_cell_formula_units_Z   1
loop_
 _symmetry_equiv_pos_site_id
 _symmetry_equiv_pos_as_xyz
  1  'x, y, z'
loop_
 _atom_site_type_symbol
 _atom_site_label
 _atom_site_symmetry_multiplicity
 _atom_site_fract_x
 _atom_site_fract_y
 _atom_site_fract_z
 _atom_site_occupancy
  Ho  Ho0  1  0.333333  0.666667  0.000000  1
  Ho  Ho1  1  0.666667  0.333333  0.000000  1
  Er  Er2  1  0.816681  0.000000  0.500000  1
  Er  Er3  1  0.000000  0.816681  0.500000  1
  Er  Er4  1  0.183319  0.183319  0.500000  1
  Nb  Nb5  1  0.445006  0.000000  0.000000  1
  Nb  Nb6  1  0.000000  0.445006  0.000000  1
  Nb  Nb7  1  0.554994  0.554994  0.000000  1
  Co  Co8  1  0.278825  0.000000  0.500000  1
  Co  Co9  1  0.000000  0.278825  0.500000  1
  Co  Co10  1  0.721175  0.721175  0.500000  1
  Co  Co11  1  0.626827  0.803644  0.000000  1
  Co  Co12  1  0.196356  0.823183  0.000000  1
  Co  Co13  1  0.176817  0.373173  0.000000  1
  Co  Co14  1  0.373173  0.176817  0.000000  1
  Co  Co15  1  0.803644  0.626827  0.000000  1
  Co  Co16  1  0.823183  0.196356  0.000000  1
  Co  Co17  1  0.519784  0.873018  0.500000  1
  Co  Co18  1  0.126982  0.646766  0.500000  1
  Co  Co19  1  0.353234  0.480216  0.500000  1
  Co  Co20  1  0.480216  0.353234  0.500000  1
  Co  Co21  1  0.873018  0.519784  0.500000  1
  Co  Co22  1  0.646766  0.126982  0.500000  1
  Co  Co23  1  0.000000  0.000000  0.000000  1
  P  P24  1  0.177824  0.000000  0.000000  1
  P  P25  1  0.000000  0.177824  0.000000  1
  P  P26  1  0.822176  0.822176  0.000000  1
  P  P27  1  0.520194  0.688273  0.500000  1
  P  P28  1  0.311727  0.831920  0.500000  1
  P  P29  1  0.168080  0.479806  0.500000  1
  P  P30  1  0.479806  0.168080  0.500000  1
  P  P31  1  0.688273  0.520194  0.500000  1
  P  P32  1  0.831920  0.311727  0.500000  1
  P  P33  1  0.644873  0.000000  0.000000  1
  P  P34  1  0.000000  0.644873  0.000000  1
  P  P35  1  0.355127  0.355127  0.000000  1
