# generated using pymatgen
data_Er8NbW3C8
_symmetry_space_group_name_H-M   'P 1'
_cell_length_a   5.75159173
_cell_length_b   5.75159216
_cell_length_c   9.78156600
_cell_angle_alpha   90.00000000
_cell_angle_beta   90.00000000
_cell_angle_gamma   90.55028231
_symmetry_Int_Tables_number   1
_chemical_formula_structural   Er8NbW3C8
_chemical_formula_sum   'Er8 Nb1 W3 C8'
_cell_volume   323.56720164
_cell_formula_units_Z   1
loop_
 _symmetry_equiv_pos_site_id
 _symmetry_equiv_pos_as_xyz
  1  'x, y, z'
loop_
 _atom_site_type_symbol
 _atom_site_label
 _atom_site_symmetry_multiplicity
 _atom_site_fract_x
 _atom_site_fract_y
 _atom_site_fract_z
 _atom_site_occupancy
  Er  Er0  1  0.199260  0.199260  0.343146  1
  Er  Er1  1  0.798772  0.798772  0.656284  1
  Er  Er2  1  0.298028  0.702694  0.840750  1
  Er  Er3  1  0.798772  0.798772  0.343716  1
  Er  Er4  1  0.199260  0.199260  0.656854  1
  Er  Er5  1  0.702694  0.298028  0.159250  1
  Er  Er6  1  0.702694  0.298028  0.840750  1
  Er  Er7  1  0.298028  0.702694  0.159250  1
  Nb  Nb8  1  0.184063  0.184063  0.000000  1
  W  W9  1  0.825672  0.825672  0.000000  1
  W  W10  1  0.321653  0.676889  0.500000  1
  W  W11  1  0.676889  0.321653  0.500000  1
  C  C12  1  0.997493  0.997493  0.157745  1
  C  C13  1  0.499910  0.499910  0.343985  1
  C  C14  1  0.499910  0.499910  0.656015  1
  C  C15  1  0.507740  0.991502  0.000000  1
  C  C16  1  0.991502  0.507740  0.000000  1
  C  C17  1  0.997493  0.997493  0.842255  1
  C  C18  1  0.500289  0.999879  0.500000  1
  C  C19  1  0.999879  0.500289  0.500000  1
