# generated using pymatgen
data_Pr4ZnBr6
_symmetry_space_group_name_H-M   'P 1'
_cell_length_a   4.22637100
_cell_length_b   14.02656900
_cell_length_c   14.76848400
_cell_angle_alpha   90.00000000
_cell_angle_beta   90.00000000
_cell_angle_gamma   90.00000000
_symmetry_Int_Tables_number   1
_chemical_formula_structural   Pr4ZnBr6
_chemical_formula_sum   'Pr8 Zn2 Br12'
_cell_volume   875.49765461
_cell_formula_units_Z   2
loop_
 _symmetry_equiv_pos_site_id
 _symmetry_equiv_pos_as_xyz
  1  'x, y, z'
loop_
 _atom_site_type_symbol
 _atom_site_label
 _atom_site_symmetry_multiplicity
 _atom_site_fract_x
 _atom_site_fract_y
 _atom_site_fract_z
 _atom_site_occupancy
  Pr  Pr0  1  0.500000  0.119901  0.339029  1
  Pr  Pr1  1  0.500000  0.880099  0.660971  1
  Pr  Pr2  1  0.500000  0.619901  0.160971  1
  Pr  Pr3  1  0.500000  0.380099  0.839029  1
  Pr  Pr4  1  0.000000  0.123228  0.582138  1
  Pr  Pr5  1  0.000000  0.876772  0.417862  1
  Pr  Pr6  1  0.000000  0.623228  0.917862  1
  Pr  Pr7  1  0.000000  0.376772  0.082138  1
  Zn  Zn8  1  0.500000  0.000000  0.500000  1
  Zn  Zn9  1  0.500000  0.500000  0.000000  1
  Br  Br10  1  0.500000  0.243744  0.162440  1
  Br  Br11  1  0.500000  0.756256  0.837560  1
  Br  Br12  1  0.500000  0.743744  0.337560  1
  Br  Br13  1  0.500000  0.256256  0.662440  1
  Br  Br14  1  0.000000  0.253256  0.411407  1
  Br  Br15  1  0.000000  0.746744  0.588593  1
  Br  Br16  1  0.000000  0.753256  0.088593  1
  Br  Br17  1  0.000000  0.246744  0.911407  1
  Br  Br18  1  0.000000  0.001724  0.245340  1
  Br  Br19  1  0.000000  0.998276  0.754660  1
  Br  Br20  1  0.000000  0.501724  0.254660  1
  Br  Br21  1  0.000000  0.498276  0.745340  1
