# generated using pymatgen
data_Sr3TcCl2O5
_symmetry_space_group_name_H-M   'P 1'
_cell_length_a   7.24657963
_cell_length_b   7.24657938
_cell_length_c   11.15224500
_cell_angle_alpha   90.00000000
_cell_angle_beta   90.00000000
_cell_angle_gamma   133.95237848
_symmetry_Int_Tables_number   1
_chemical_formula_structural   Sr3TcCl2O5
_chemical_formula_sum   'Sr6 Tc2 Cl4 O10'
_cell_volume   421.60990441
_cell_formula_units_Z   2
loop_
 _symmetry_equiv_pos_site_id
 _symmetry_equiv_pos_as_xyz
  1  'x, y, z'
loop_
 _atom_site_type_symbol
 _atom_site_label
 _atom_site_symmetry_multiplicity
 _atom_site_fract_x
 _atom_site_fract_y
 _atom_site_fract_z
 _atom_site_occupancy
  Sr  Sr0  1  0.902710  0.097290  0.750000  1
  Sr  Sr1  1  0.658720  0.341280  0.542450  1
  Sr  Sr2  1  0.341280  0.658720  0.457550  1
  Sr  Sr3  1  0.658720  0.341280  0.957550  1
  Sr  Sr4  1  0.341280  0.658720  0.042450  1
  Sr  Sr5  1  0.097290  0.902710  0.250000  1
  Tc  Tc6  1  0.759109  0.240891  0.250000  1
  Tc  Tc7  1  0.240891  0.759109  0.750000  1
  Cl  Cl8  1  0.493603  0.506397  0.250000  1
  Cl  Cl9  1  0.506397  0.493603  0.750000  1
  Cl  Cl10  1  0.000000  0.000000  0.500000  1
  Cl  Cl11  1  0.000000  0.000000  0.000000  1
  O  O12  1  0.112382  0.887618  0.750000  1
  O  O13  1  0.054695  0.487041  0.633533  1
  O  O14  1  0.487041  0.054695  0.366467  1
  O  O15  1  0.512959  0.945305  0.633533  1
  O  O16  1  0.945305  0.512959  0.366467  1
  O  O17  1  0.887618  0.112382  0.250000  1
  O  O18  1  0.054695  0.487041  0.866467  1
  O  O19  1  0.512959  0.945305  0.866467  1
  O  O20  1  0.945305  0.512959  0.133533  1
  O  O21  1  0.487041  0.054695  0.133533  1
