# generated using pymatgen
data_Nd16Dy3HoPb16
_symmetry_space_group_name_H-M   'P 1'
_cell_length_a   8.40445010
_cell_length_b   16.12143200
_cell_length_c   8.48576700
_cell_angle_alpha   90.00000000
_cell_angle_beta   90.00766033
_cell_angle_gamma   90.00000000
_symmetry_Int_Tables_number   1
_chemical_formula_structural   Nd16Dy3HoPb16
_chemical_formula_sum   'Nd16 Dy3 Ho1 Pb16'
_cell_volume   1149.75158723
_cell_formula_units_Z   1
loop_
 _symmetry_equiv_pos_site_id
 _symmetry_equiv_pos_as_xyz
  1  'x, y, z'
loop_
 _atom_site_type_symbol
 _atom_site_label
 _atom_site_symmetry_multiplicity
 _atom_site_fract_x
 _atom_site_fract_y
 _atom_site_fract_z
 _atom_site_occupancy
  Nd  Nd0  1  0.622582  0.619758  0.159029  1
  Nd  Nd1  1  0.122578  0.880180  0.340967  1
  Nd  Nd2  1  0.377565  0.119878  0.841095  1
  Nd  Nd3  1  0.877332  0.380126  0.659066  1
  Nd  Nd4  1  0.377565  0.380122  0.841095  1
  Nd  Nd5  1  0.877332  0.119874  0.659066  1
  Nd  Nd6  1  0.622582  0.880242  0.159029  1
  Nd  Nd7  1  0.122578  0.619820  0.340967  1
  Nd  Nd8  1  0.466774  0.600396  0.677146  1
  Nd  Nd9  1  0.966784  0.899652  0.822842  1
  Nd  Nd10  1  0.533288  0.100413  0.322745  1
  Nd  Nd11  1  0.033200  0.399570  0.177099  1
  Nd  Nd12  1  0.533288  0.399587  0.322745  1
  Nd  Nd13  1  0.033200  0.100430  0.177099  1
  Nd  Nd14  1  0.466774  0.899604  0.677146  1
  Nd  Nd15  1  0.966784  0.600348  0.822842  1
  Dy  Dy16  1  0.790699  0.750000  0.496502  1
  Dy  Dy17  1  0.290729  0.750000  0.003474  1
  Dy  Dy18  1  0.209272  0.250000  0.503435  1
  Ho  Ho19  1  0.709393  0.250000  0.996358  1
  Pb  Pb20  1  0.718901  0.455515  0.967798  1
  Pb  Pb21  1  0.218904  0.044331  0.532325  1
  Pb  Pb22  1  0.281082  0.955719  0.032318  1
  Pb  Pb23  1  0.781090  0.544280  0.467705  1
  Pb  Pb24  1  0.281082  0.544281  0.032318  1
  Pb  Pb25  1  0.781090  0.955720  0.467705  1
  Pb  Pb26  1  0.718901  0.044485  0.967798  1
  Pb  Pb27  1  0.218904  0.455669  0.532325  1
  Pb  Pb28  1  0.427551  0.750000  0.374817  1
  Pb  Pb29  1  0.927558  0.750000  0.125154  1
  Pb  Pb30  1  0.572493  0.250000  0.625374  1
  Pb  Pb31  1  0.072141  0.250000  0.874936  1
  Pb  Pb32  1  0.655800  0.750000  0.847910  1
  Pb  Pb33  1  0.155762  0.750000  0.652188  1
  Pb  Pb34  1  0.344362  0.250000  0.152123  1
  Pb  Pb35  1  0.844081  0.250000  0.347459  1
