# generated using pymatgen
data_DyLu4Co19(Si2P)4
_symmetry_space_group_name_H-M   'P 1'
_cell_length_a   12.06989801
_cell_length_b   12.06568788
_cell_length_c   3.66898200
_cell_angle_alpha   90.00000000
_cell_angle_beta   90.00000000
_cell_angle_gamma   120.02639995
_symmetry_Int_Tables_number   1
_chemical_formula_structural   DyLu4Co19(Si2P)4
_chemical_formula_sum   'Dy1 Lu4 Co19 Si8 P4'
_cell_volume   462.61137372
_cell_formula_units_Z   1
loop_
 _symmetry_equiv_pos_site_id
 _symmetry_equiv_pos_as_xyz
  1  'x, y, z'
loop_
 _atom_site_type_symbol
 _atom_site_label
 _atom_site_symmetry_multiplicity
 _atom_site_fract_x
 _atom_site_fract_y
 _atom_site_fract_z
 _atom_site_occupancy
  Dy  Dy0  1  0.331782  0.664872  0.000000  1
  Lu  Lu1  1  0.666302  0.333189  0.000000  1
  Lu  Lu2  1  0.182783  0.181831  0.500000  1
  Lu  Lu3  1  0.817301  0.000470  0.500000  1
  Lu  Lu4  1  0.000158  0.816266  0.500000  1
  Co  Co5  1  0.555715  0.556398  0.000000  1
  Co  Co6  1  0.443303  0.000477  0.000000  1
  Co  Co7  1  0.997467  0.443087  0.000000  1
  Co  Co8  1  0.825409  0.197279  0.000000  1
  Co  Co9  1  0.803330  0.627354  0.000000  1
  Co  Co10  1  0.371565  0.175554  0.000000  1
  Co  Co11  1  0.195904  0.823498  0.000000  1
  Co  Co12  1  0.629166  0.803978  0.000000  1
  Co  Co13  1  0.174417  0.375613  0.000000  1
  Co  Co14  1  0.646200  0.125111  0.500000  1
  Co  Co15  1  0.875063  0.521173  0.500000  1
  Co  Co16  1  0.477833  0.354160  0.500000  1
  Co  Co17  1  0.124163  0.639696  0.500000  1
  Co  Co18  1  0.522343  0.876597  0.500000  1
  Co  Co19  1  0.352107  0.477503  0.500000  1
  Co  Co20  1  0.723978  0.723059  0.500000  1
  Co  Co21  1  0.276688  0.999987  0.500000  1
  Co  Co22  1  0.003450  0.281841  0.500000  1
  Co  Co23  1  0.000116  0.000877  0.000000  1
  Si  Si24  1  0.367045  0.367497  0.000000  1
  Si  Si25  1  0.632507  0.000421  0.000000  1
  Si  Si26  1  0.000276  0.632330  0.000000  1
  Si  Si27  1  0.839734  0.319050  0.500000  1
  Si  Si28  1  0.680223  0.520699  0.500000  1
  Si  Si29  1  0.478812  0.160011  0.500000  1
  Si  Si30  1  0.318845  0.840836  0.500000  1
  Si  Si31  1  0.522540  0.681075  0.500000  1
  P  P32  1  0.163084  0.478292  0.500000  1
  P  P33  1  0.820986  0.820444  0.000000  1
  P  P34  1  0.179064  0.999253  0.000000  1
  P  P35  1  0.000343  0.180223  0.000000  1
