# generated using pymatgen
data_NaLi2Nd3(WN4)2
_symmetry_space_group_name_H-M   'P 1'
_cell_length_a   5.82516900
_cell_length_b   6.00575162
_cell_length_c   6.75024864
_cell_angle_alpha   72.55154607
_cell_angle_beta   90.00000000
_cell_angle_gamma   90.00000000
_symmetry_Int_Tables_number   1
_chemical_formula_structural   NaLi2Nd3(WN4)2
_chemical_formula_sum   'Na1 Li2 Nd3 W2 N8'
_cell_volume   225.28805508
_cell_formula_units_Z   1
loop_
 _symmetry_equiv_pos_site_id
 _symmetry_equiv_pos_as_xyz
  1  'x, y, z'
loop_
 _atom_site_type_symbol
 _atom_site_label
 _atom_site_symmetry_multiplicity
 _atom_site_fract_x
 _atom_site_fract_y
 _atom_site_fract_z
 _atom_site_occupancy
  Na  Na0  1  0.250000  0.280158  0.051416  1
  Li  Li1  1  0.750000  0.289326  0.309253  1
  Li  Li2  1  0.250000  0.699110  0.699542  1
  Nd  Nd3  1  0.750000  0.713051  0.950640  1
  Nd  Nd4  1  0.750000  0.767514  0.436600  1
  Nd  Nd5  1  0.250000  0.230775  0.566430  1
  W  W6  1  0.250000  0.749128  0.189771  1
  W  W7  1  0.750000  0.259993  0.807121  1
  N  N8  1  0.507150  0.473457  0.743304  1
  N  N9  1  0.997795  0.542743  0.254991  1
  N  N10  1  0.502205  0.542743  0.254991  1
  N  N11  1  0.992850  0.473457  0.743304  1
  N  N12  1  0.750000  0.070142  0.625984  1
  N  N13  1  0.250000  0.930539  0.377539  1
  N  N14  1  0.750000  0.070562  0.085941  1
  N  N15  1  0.250000  0.907301  0.903171  1
