# generated using pymatgen
data_Y2Si5SnPRh12
_symmetry_space_group_name_H-M   'P 1'
_cell_length_a   9.89223868
_cell_length_b   9.86618784
_cell_length_c   3.85307676
_cell_angle_alpha   90.10816037
_cell_angle_beta   90.01723307
_cell_angle_gamma   120.02094829
_symmetry_Int_Tables_number   1
_chemical_formula_structural   Y2Si5SnPRh12
_chemical_formula_sum   'Y2 Si5 Sn1 P1 Rh12'
_cell_volume   325.60369372
_cell_formula_units_Z   1
loop_
 _symmetry_equiv_pos_site_id
 _symmetry_equiv_pos_as_xyz
  1  'x, y, z'
loop_
 _atom_site_type_symbol
 _atom_site_label
 _atom_site_symmetry_multiplicity
 _atom_site_fract_x
 _atom_site_fract_y
 _atom_site_fract_z
 _atom_site_occupancy
  Y  Y0  1  0.333336  0.667135  0.741123  1
  Y  Y1  1  0.664917  0.332389  0.239845  1
  Si  Si2  1  0.398432  0.289646  0.737907  1
  Si  Si3  1  0.708591  0.108884  0.739524  1
  Si  Si4  1  0.888514  0.598778  0.739200  1
  Si  Si5  1  0.598259  0.705732  0.242154  1
  Si  Si6  1  0.295544  0.892376  0.240155  1
  Sn  Sn7  1  0.002582  0.000704  0.706391  1
  P  P8  1  0.111202  0.404126  0.239767  1
  Rh  Rh9  1  0.447174  0.070829  0.739636  1
  Rh  Rh10  1  0.925384  0.376057  0.739478  1
  Rh  Rh11  1  0.621032  0.551688  0.740156  1
  Rh  Rh12  1  0.557062  0.943407  0.240610  1
  Rh  Rh13  1  0.058534  0.607765  0.239685  1
  Rh  Rh14  1  0.384734  0.445160  0.239644  1
  Rh  Rh15  1  0.157809  0.298382  0.739716  1
  Rh  Rh16  1  0.708045  0.865284  0.742508  1
  Rh  Rh17  1  0.135302  0.838273  0.739954  1
  Rh  Rh18  1  0.859810  0.738953  0.238506  1
  Rh  Rh19  1  0.256793  0.117189  0.235910  1
  Rh  Rh20  1  0.886943  0.147244  0.238132  1
