# generated using pymatgen
data_TmLu2GaSn3Rh2
_symmetry_space_group_name_H-M   'P 1'
_cell_length_a   7.39976395
_cell_length_b   7.40698238
_cell_length_c   4.01479000
_cell_angle_alpha   90.00000000
_cell_angle_beta   90.00000000
_cell_angle_gamma   120.02578543
_symmetry_Int_Tables_number   1
_chemical_formula_structural   TmLu2GaSn3Rh2
_chemical_formula_sum   'Tm1 Lu2 Ga1 Sn3 Rh2'
_cell_volume   190.51963507
_cell_formula_units_Z   1
loop_
 _symmetry_equiv_pos_site_id
 _symmetry_equiv_pos_as_xyz
  1  'x, y, z'
loop_
 _atom_site_type_symbol
 _atom_site_label
 _atom_site_symmetry_multiplicity
 _atom_site_fract_x
 _atom_site_fract_y
 _atom_site_fract_z
 _atom_site_occupancy
  Tm  Tm0  1  0.395949  0.410426  0.500000  1
  Lu  Lu1  1  0.589637  0.985041  0.500000  1
  Lu  Lu2  1  0.015152  0.604719  0.500000  1
  Ga  Ga3  1  0.666899  0.333238  0.000000  1
  Sn  Sn4  1  0.741781  0.744936  0.000000  1
  Sn  Sn5  1  0.255242  0.996674  0.000000  1
  Sn  Sn6  1  0.002904  0.258325  0.000000  1
  Rh  Rh7  1  0.333019  0.667161  0.000000  1
  Rh  Rh8  1  0.999417  0.999480  0.500000  1
