# generated using pymatgen
data_La2Zn19NiPd2
_symmetry_space_group_name_H-M   'P 1'
_cell_length_a   8.34382391
_cell_length_b   8.29823484
_cell_length_c   8.29823520
_cell_angle_alpha   99.83350750
_cell_angle_beta   99.50725238
_cell_angle_gamma   131.26258712
_symmetry_Int_Tables_number   1
_chemical_formula_structural   La2Zn19NiPd2
_chemical_formula_sum   'La2 Zn19 Ni1 Pd2'
_cell_volume   394.48042841
_cell_formula_units_Z   1
loop_
 _symmetry_equiv_pos_site_id
 _symmetry_equiv_pos_as_xyz
  1  'x, y, z'
loop_
 _atom_site_type_symbol
 _atom_site_label
 _atom_site_symmetry_multiplicity
 _atom_site_fract_x
 _atom_site_fract_y
 _atom_site_fract_z
 _atom_site_occupancy
  La  La0  1  0.254249  0.751723  0.502528  1
  La  La1  1  0.995751  0.998277  0.997472  1
  Zn  Zn2  1  0.896434  0.568824  0.087326  1
  Zn  Zn3  1  0.433461  0.507350  0.323542  1
  Zn  Zn4  1  0.488174  0.570192  0.672437  1
  Zn  Zn5  1  0.433461  0.109918  0.926111  1
  Zn  Zn6  1  0.761826  0.179808  0.827563  1
  Zn  Zn7  1  0.488174  0.815737  0.917982  1
  Zn  Zn8  1  0.510367  0.501765  0.008602  1
  Zn  Zn9  1  0.761826  0.934263  0.582018  1
  Zn  Zn10  1  0.739633  0.248235  0.491398  1
  Zn  Zn11  1  0.066692  0.654605  0.830217  1
  Zn  Zn12  1  0.125000  0.375000  0.750000  1
  Zn  Zn13  1  0.353566  0.181176  0.412674  1
  Zn  Zn14  1  0.816539  0.640082  0.573889  1
  Zn  Zn15  1  0.896434  0.809108  0.327610  1
  Zn  Zn16  1  0.183308  0.095395  0.669783  1
  Zn  Zn17  1  0.066692  0.236475  0.412087  1
  Zn  Zn18  1  0.353566  0.940892  0.172390  1
  Zn  Zn19  1  0.816539  0.242650  0.176458  1
  Zn  Zn20  1  0.183308  0.513525  0.087913  1
  Ni  Ni21  1  0.625000  0.375000  0.250000  1
  Pd  Pd22  1  0.625000  0.875000  0.250000  1
  Pd  Pd23  1  0.625000  0.375000  0.750000  1
