# generated using pymatgen
data_Tb6GdTm13Pb16
_symmetry_space_group_name_H-M   'P 1'
_cell_length_a   8.16212598
_cell_length_b   15.51775871
_cell_length_c   8.22614300
_cell_angle_alpha   90.01157896
_cell_angle_beta   89.92507858
_cell_angle_gamma   90.15448507
_symmetry_Int_Tables_number   1
_chemical_formula_structural   Tb6GdTm13Pb16
_chemical_formula_sum   'Tb6 Gd1 Tm13 Pb16'
_cell_volume   1041.90131130
_cell_formula_units_Z   1
loop_
 _symmetry_equiv_pos_site_id
 _symmetry_equiv_pos_as_xyz
  1  'x, y, z'
loop_
 _atom_site_type_symbol
 _atom_site_label
 _atom_site_symmetry_multiplicity
 _atom_site_fract_x
 _atom_site_fract_y
 _atom_site_fract_z
 _atom_site_occupancy
  Tb  Tb0  1  0.964199  0.900364  0.822919  1
  Tb  Tb1  1  0.535994  0.099173  0.323345  1
  Tb  Tb2  1  0.036977  0.400608  0.176363  1
  Tb  Tb3  1  0.536751  0.400827  0.323740  1
  Tb  Tb4  1  0.035990  0.099167  0.176821  1
  Tb  Tb5  1  0.464312  0.900829  0.676625  1
  Gd  Gd6  1  0.963135  0.599188  0.823111  1
  Tm  Tm7  1  0.623429  0.621520  0.158154  1
  Tm  Tm8  1  0.124226  0.878229  0.342154  1
  Tm  Tm9  1  0.376011  0.121619  0.841938  1
  Tm  Tm10  1  0.877038  0.378751  0.658474  1
  Tm  Tm11  1  0.377218  0.379015  0.841625  1
  Tm  Tm12  1  0.875837  0.121507  0.658128  1
  Tm  Tm13  1  0.624018  0.877911  0.157707  1
  Tm  Tm14  1  0.123580  0.621512  0.342043  1
  Tm  Tm15  1  0.461532  0.600139  0.675597  1
  Tm  Tm16  1  0.791484  0.749561  0.495125  1
  Tm  Tm17  1  0.292053  0.749668  0.005127  1
  Tm  Tm18  1  0.208321  0.250277  0.505166  1
  Tm  Tm19  1  0.708226  0.250222  0.994654  1
  Pb  Pb20  1  0.716980  0.456895  0.965845  1
  Pb  Pb21  1  0.216392  0.042922  0.535301  1
  Pb  Pb22  1  0.283797  0.956914  0.035048  1
  Pb  Pb23  1  0.781154  0.543400  0.467256  1
  Pb  Pb24  1  0.283550  0.543290  0.033521  1
  Pb  Pb25  1  0.783793  0.956983  0.464475  1
  Pb  Pb26  1  0.716376  0.042802  0.964980  1
  Pb  Pb27  1  0.217741  0.457871  0.535491  1
  Pb  Pb28  1  0.429086  0.749950  0.373418  1
  Pb  Pb29  1  0.929277  0.749926  0.127140  1
  Pb  Pb30  1  0.571077  0.250154  0.626945  1
  Pb  Pb31  1  0.071076  0.250027  0.872721  1
  Pb  Pb32  1  0.651241  0.749022  0.845240  1
  Pb  Pb33  1  0.152855  0.749762  0.653624  1
  Pb  Pb34  1  0.347672  0.250038  0.153525  1
  Pb  Pb35  1  0.847599  0.249963  0.346655  1
