# generated using pymatgen
data_Dy12Cu3Si8Os
_symmetry_space_group_name_H-M   'P 1'
_cell_length_a   4.17263600
_cell_length_b   11.27879708
_cell_length_c   11.36809547
_cell_angle_alpha   89.84107962
_cell_angle_beta   90.00000000
_cell_angle_gamma   90.00000000
_symmetry_Int_Tables_number   1
_chemical_formula_structural   Dy12Cu3Si8Os
_chemical_formula_sum   'Dy12 Cu3 Si8 Os1'
_cell_volume   535.00682880
_cell_formula_units_Z   1
loop_
 _symmetry_equiv_pos_site_id
 _symmetry_equiv_pos_as_xyz
  1  'x, y, z'
loop_
 _atom_site_type_symbol
 _atom_site_label
 _atom_site_symmetry_multiplicity
 _atom_site_fract_x
 _atom_site_fract_y
 _atom_site_fract_z
 _atom_site_occupancy
  Dy  Dy0  1  0.250000  0.059055  0.877056  1
  Dy  Dy1  1  0.250000  0.437177  0.377915  1
  Dy  Dy2  1  0.750000  0.936126  0.120792  1
  Dy  Dy3  1  0.750000  0.561907  0.619876  1
  Dy  Dy4  1  0.250000  0.122175  0.555973  1
  Dy  Dy5  1  0.250000  0.383445  0.059707  1
  Dy  Dy6  1  0.750000  0.878961  0.440975  1
  Dy  Dy7  1  0.750000  0.622778  0.939637  1
  Dy  Dy8  1  0.250000  0.801453  0.711859  1
  Dy  Dy9  1  0.250000  0.696464  0.209025  1
  Dy  Dy10  1  0.750000  0.195499  0.290662  1
  Dy  Dy11  1  0.750000  0.303762  0.791030  1
  Cu  Cu12  1  0.250000  0.363272  0.630949  1
  Cu  Cu13  1  0.250000  0.137412  0.130921  1
  Cu  Cu14  1  0.750000  0.635809  0.368306  1
  Si  Si15  1  0.250000  0.812989  0.978308  1
  Si  Si16  1  0.250000  0.684124  0.474610  1
  Si  Si17  1  0.750000  0.188953  0.026720  1
  Si  Si18  1  0.750000  0.314862  0.524309  1
  Si  Si19  1  0.250000  0.493620  0.804871  1
  Si  Si20  1  0.250000  0.004481  0.305192  1
  Si  Si21  1  0.750000  0.503517  0.197247  1
  Si  Si22  1  0.750000  0.996123  0.692488  1
  Os  Os23  1  0.750000  0.866035  0.871574  1
