# generated using pymatgen
data_Dy9Ho3Co4SnRh
_symmetry_space_group_name_H-M   'P 1'
_cell_length_a   8.28448136
_cell_length_b   8.28622426
_cell_length_c   8.28448158
_cell_angle_alpha   110.94459651
_cell_angle_beta   110.51521582
_cell_angle_gamma   106.97427814
_symmetry_Int_Tables_number   1
_chemical_formula_structural   Dy9Ho3Co4SnRh
_chemical_formula_sum   'Dy9 Ho3 Co4 Sn1 Rh1'
_cell_volume   437.20918174
_cell_formula_units_Z   1
loop_
 _symmetry_equiv_pos_site_id
 _symmetry_equiv_pos_as_xyz
  1  'x, y, z'
loop_
 _atom_site_type_symbol
 _atom_site_label
 _atom_site_symmetry_multiplicity
 _atom_site_fract_x
 _atom_site_fract_y
 _atom_site_fract_z
 _atom_site_occupancy
  Dy  Dy0  1  0.406980  0.210831  0.195439  1
  Dy  Dy1  1  0.593489  0.789062  0.804979  1
  Dy  Dy2  1  0.015393  0.210831  0.803852  1
  Dy  Dy3  1  0.984082  0.789062  0.195573  1
  Dy  Dy4  1  0.186372  0.292025  0.479009  1
  Dy  Dy5  1  0.814062  0.707778  0.521329  1
  Dy  Dy6  1  0.186450  0.707778  0.893715  1
  Dy  Dy7  1  0.813015  0.292025  0.105654  1
  Dy  Dy8  1  0.313305  0.619165  0.305859  1
  Ho  Ho9  1  0.686271  0.379942  0.693671  1
  Ho  Ho10  1  0.313871  0.007901  0.694031  1
  Ho  Ho11  1  0.686531  0.992718  0.306187  1
  Co  Co12  1  0.379545  0.000681  0.379695  1
  Co  Co13  1  0.620986  0.000681  0.621136  1
  Co  Co14  1  0.111766  0.612090  0.500324  1
  Co  Co15  1  0.887577  0.387265  0.499688  1
  Sn  Sn16  1  0.500242  0.499984  0.999742  1
  Rh  Rh17  1  0.000065  0.000182  0.000116  1
