# generated using pymatgen
data_Cs8CdHg3H16
_symmetry_space_group_name_H-M   'P 1'
_cell_length_a   6.58157700
_cell_length_b   8.84019155
_cell_length_c   11.67137859
_cell_angle_alpha   90.09454870
_cell_angle_beta   90.00000000
_cell_angle_gamma   90.00000000
_symmetry_Int_Tables_number   1
_chemical_formula_structural   Cs8CdHg3H16
_chemical_formula_sum   'Cs8 Cd1 Hg3 H16'
_cell_volume   679.06790904
_cell_formula_units_Z   1
loop_
 _symmetry_equiv_pos_site_id
 _symmetry_equiv_pos_as_xyz
  1  'x, y, z'
loop_
 _atom_site_type_symbol
 _atom_site_label
 _atom_site_symmetry_multiplicity
 _atom_site_fract_x
 _atom_site_fract_y
 _atom_site_fract_z
 _atom_site_occupancy
  Cs  Cs0  1  0.250000  0.162157  0.914948  1
  Cs  Cs1  1  0.250000  0.659563  0.584982  1
  Cs  Cs2  1  0.750000  0.837900  0.085280  1
  Cs  Cs3  1  0.750000  0.337713  0.414324  1
  Cs  Cs4  1  0.250000  0.491654  0.188646  1
  Cs  Cs5  1  0.250000  0.990867  0.311144  1
  Cs  Cs6  1  0.750000  0.509602  0.811458  1
  Cs  Cs7  1  0.750000  0.009550  0.688134  1
  Cd  Cd8  1  0.750000  0.764528  0.412984  1
  Hg  Hg9  1  0.250000  0.734945  0.912389  1
  Hg  Hg10  1  0.250000  0.233998  0.587481  1
  Hg  Hg11  1  0.750000  0.265084  0.087402  1
  H  H12  1  0.250000  0.531302  0.911868  1
  H  H13  1  0.250000  0.030172  0.587295  1
  H  H14  1  0.750000  0.468771  0.088093  1
  H  H15  1  0.750000  0.972407  0.412517  1
  H  H16  1  0.250000  0.814877  0.059005  1
  H  H17  1  0.250000  0.313849  0.441060  1
  H  H18  1  0.750000  0.185403  0.940735  1
  H  H19  1  0.750000  0.685492  0.561735  1
  H  H20  1  0.022930  0.810212  0.842225  1
  H  H21  1  0.476910  0.309393  0.657912  1
  H  H22  1  0.523126  0.189717  0.157763  1
  H  H23  1  0.980887  0.690762  0.341361  1
  H  H24  1  0.976874  0.189717  0.157763  1
  H  H25  1  0.519113  0.690762  0.341361  1
  H  H26  1  0.477070  0.810212  0.842225  1
  H  H27  1  0.023090  0.309393  0.657912  1
