# generated using pymatgen
data_Er9LuIn6
_symmetry_space_group_name_H-M   'P 1'
_cell_length_a   6.00531038
_cell_length_b   9.08430009
_cell_length_c   9.08429984
_cell_angle_alpha   83.72781722
_cell_angle_beta   70.69890365
_cell_angle_gamma   70.69891101
_symmetry_Int_Tables_number   1
_chemical_formula_structural   Er9LuIn6
_chemical_formula_sum   'Er9 Lu1 In6'
_cell_volume   441.44175724
_cell_formula_units_Z   1
loop_
 _symmetry_equiv_pos_site_id
 _symmetry_equiv_pos_as_xyz
  1  'x, y, z'
loop_
 _atom_site_type_symbol
 _atom_site_label
 _atom_site_symmetry_multiplicity
 _atom_site_fract_x
 _atom_site_fract_y
 _atom_site_fract_z
 _atom_site_occupancy
  Er  Er0  1  0.719410  0.861840  0.699355  1
  Er  Er1  1  0.280605  0.138160  0.300645  1
  Er  Er2  1  0.780590  0.300645  0.138160  1
  Er  Er3  1  0.219395  0.699355  0.861840  1
  Er  Er4  1  0.581235  0.699355  0.138160  1
  Er  Er5  1  0.418750  0.300645  0.861840  1
  Er  Er6  1  0.081250  0.138160  0.699355  1
  Er  Er7  1  0.918765  0.861840  0.300645  1
  Er  Er8  1  0.750000  0.500000  0.500000  1
  Lu  Lu9  1  0.250000  0.500000  0.500000  1
  In  In10  1  0.162351  0.500000  0.175213  1
  In  In11  1  0.837564  0.500000  0.824787  1
  In  In12  1  0.337649  0.824787  0.500000  1
  In  In13  1  0.662436  0.175213  0.500000  1
  In  In14  1  0.250000  0.000000  0.000000  1
  In  In15  1  0.750000  0.000000  0.000000  1
