# generated using pymatgen
data_Tb10Y9ErPb16
_symmetry_space_group_name_H-M   'P 1'
_cell_length_a   8.23918500
_cell_length_b   8.32187245
_cell_length_c   15.72201907
_cell_angle_alpha   90.01079497
_cell_angle_beta   90.00032048
_cell_angle_gamma   90.01618102
_symmetry_Int_Tables_number   1
_chemical_formula_structural   Tb10Y9ErPb16
_chemical_formula_sum   'Tb10 Y9 Er1 Pb16'
_cell_volume   1077.98719884
_cell_formula_units_Z   1
loop_
 _symmetry_equiv_pos_site_id
 _symmetry_equiv_pos_as_xyz
  1  'x, y, z'
loop_
 _atom_site_type_symbol
 _atom_site_label
 _atom_site_symmetry_multiplicity
 _atom_site_fract_x
 _atom_site_fract_y
 _atom_site_fract_z
 _atom_site_occupancy
  Tb  Tb0  1  0.377471  0.840603  0.620264  1
  Tb  Tb1  1  0.877508  0.659427  0.879618  1
  Tb  Tb2  1  0.534611  0.323339  0.899905  1
  Tb  Tb3  1  0.034606  0.176648  0.600008  1
  Tb  Tb4  1  0.465227  0.676897  0.399770  1
  Tb  Tb5  1  0.965552  0.823541  0.100231  1
  Tb  Tb6  1  0.465177  0.676813  0.100189  1
  Tb  Tb7  1  0.965498  0.823616  0.399822  1
  Tb  Tb8  1  0.534677  0.323450  0.600140  1
  Tb  Tb9  1  0.034678  0.176530  0.899944  1
  Y  Y10  1  0.377173  0.840812  0.879589  1
  Y  Y11  1  0.877201  0.659210  0.620532  1
  Y  Y12  1  0.622399  0.158886  0.379311  1
  Y  Y13  1  0.122915  0.340729  0.120665  1
  Y  Y14  1  0.622344  0.159001  0.120771  1
  Y  Y15  1  0.122874  0.340612  0.379260  1
  Y  Y16  1  0.209078  0.503719  0.750043  1
  Y  Y17  1  0.709068  0.996303  0.749946  1
  Y  Y18  1  0.790920  0.496303  0.250040  1
  Er  Er19  1  0.290846  0.004064  0.249936  1
  Pb  Pb20  1  0.280992  0.032758  0.043093  1
  Pb  Pb21  1  0.780935  0.467008  0.457330  1
  Pb  Pb22  1  0.719295  0.967054  0.542535  1
  Pb  Pb23  1  0.219243  0.532851  0.957449  1
  Pb  Pb24  1  0.718885  0.967137  0.957417  1
  Pb  Pb25  1  0.218836  0.532784  0.542598  1
  Pb  Pb26  1  0.280965  0.032910  0.456777  1
  Pb  Pb27  1  0.780893  0.466859  0.042801  1
  Pb  Pb28  1  0.572927  0.625804  0.749959  1
  Pb  Pb29  1  0.072959  0.874263  0.750047  1
  Pb  Pb30  1  0.426894  0.373479  0.249997  1
  Pb  Pb31  1  0.927982  0.125421  0.250008  1
  Pb  Pb32  1  0.345912  0.151888  0.750004  1
  Pb  Pb33  1  0.845991  0.347952  0.749999  1
  Pb  Pb34  1  0.653284  0.848162  0.249997  1
  Pb  Pb35  1  0.154182  0.653168  0.250006  1
