# generated using pymatgen
data_Pr3Zn8InAg2
_symmetry_space_group_name_H-M   'P 1'
_cell_length_a   4.54413889
_cell_length_b   8.55008237
_cell_length_c   8.55008377
_cell_angle_alpha   64.45151156
_cell_angle_beta   74.58927331
_cell_angle_gamma   74.58927929
_symmetry_Int_Tables_number   1
_chemical_formula_structural   Pr3Zn8InAg2
_chemical_formula_sum   'Pr3 Zn8 In1 Ag2'
_cell_volume   284.54148417
_cell_formula_units_Z   1
loop_
 _symmetry_equiv_pos_site_id
 _symmetry_equiv_pos_as_xyz
  1  'x, y, z'
loop_
 _atom_site_type_symbol
 _atom_site_label
 _atom_site_symmetry_multiplicity
 _atom_site_fract_x
 _atom_site_fract_y
 _atom_site_fract_z
 _atom_site_occupancy
  Pr  Pr0  1  0.000000  0.000000  0.000000  1
  Pr  Pr1  1  0.302174  0.697826  0.697826  1
  Pr  Pr2  1  0.697826  0.302174  0.302174  1
  Zn  Zn3  1  0.335688  0.300893  0.027733  1
  Zn  Zn4  1  0.664312  0.699107  0.972267  1
  Zn  Zn5  1  0.335688  0.027733  0.300893  1
  Zn  Zn6  1  0.664312  0.972267  0.699107  1
  Zn  Zn7  1  0.145311  0.585014  0.124364  1
  Zn  Zn8  1  0.854689  0.414986  0.875636  1
  Zn  Zn9  1  0.145311  0.124364  0.585014  1
  Zn  Zn10  1  0.854689  0.875636  0.414986  1
  In  In11  1  0.000000  0.500000  0.500000  1
  Ag  Ag12  1  0.500000  0.294937  0.705063  1
  Ag  Ag13  1  0.500000  0.705063  0.294937  1
