# generated using pymatgen
data_Nd2Lu2ReB12Os
_symmetry_space_group_name_H-M   'P 1'
_cell_length_a   3.68527800
_cell_length_b   9.18621806
_cell_length_c   11.64324617
_cell_angle_alpha   90.10986447
_cell_angle_beta   90.00000000
_cell_angle_gamma   90.00000000
_symmetry_Int_Tables_number   1
_chemical_formula_structural   Nd2Lu2ReB12Os
_chemical_formula_sum   'Nd4 Lu4 Re2 B24 Os2'
_cell_volume   394.16702218
_cell_formula_units_Z   2
loop_
 _symmetry_equiv_pos_site_id
 _symmetry_equiv_pos_as_xyz
  1  'x, y, z'
loop_
 _atom_site_type_symbol
 _atom_site_label
 _atom_site_symmetry_multiplicity
 _atom_site_fract_x
 _atom_site_fract_y
 _atom_site_fract_z
 _atom_site_occupancy
  Nd  Nd0  1  0.000000  0.320840  0.413151  1
  Nd  Nd1  1  0.000000  0.679160  0.586849  1
  Nd  Nd2  1  0.000000  0.823393  0.084999  1
  Nd  Nd3  1  0.000000  0.176607  0.915001  1
  Lu  Lu4  1  0.000000  0.944026  0.370603  1
  Lu  Lu5  1  0.000000  0.055974  0.629397  1
  Lu  Lu6  1  0.000000  0.442710  0.128920  1
  Lu  Lu7  1  0.000000  0.557290  0.871080  1
  Re  Re8  1  0.000000  0.140014  0.181620  1
  Re  Re9  1  0.000000  0.859986  0.818380  1
  B  B10  1  0.500000  0.555929  0.430323  1
  B  B11  1  0.500000  0.444071  0.569677  1
  B  B12  1  0.500000  0.055121  0.069508  1
  B  B13  1  0.500000  0.944879  0.930492  1
  B  B14  1  0.500000  0.751002  0.416400  1
  B  B15  1  0.500000  0.248998  0.583600  1
  B  B16  1  0.500000  0.251088  0.083477  1
  B  B17  1  0.500000  0.748912  0.916523  1
  B  B18  1  0.500000  0.791228  0.266558  1
  B  B19  1  0.500000  0.208772  0.733442  1
  B  B20  1  0.500000  0.292067  0.233819  1
  B  B21  1  0.500000  0.707933  0.766181  1
  B  B22  1  0.500000  0.629102  0.185932  1
  B  B23  1  0.500000  0.370898  0.814068  1
  B  B24  1  0.500000  0.129518  0.314854  1
  B  B25  1  0.500000  0.870482  0.685146  1
  B  B26  1  0.500000  0.983669  0.214448  1
  B  B27  1  0.500000  0.016331  0.785552  1
  B  B28  1  0.500000  0.484074  0.286249  1
  B  B29  1  0.500000  0.515926  0.713751  1
  B  B30  1  0.500000  0.597487  0.026851  1
  B  B31  1  0.500000  0.402513  0.973149  1
  B  B32  1  0.500000  0.098148  0.473393  1
  B  B33  1  0.500000  0.901852  0.526607  1
  Os  Os34  1  0.000000  0.639386  0.319161  1
  Os  Os35  1  0.000000  0.360614  0.680839  1
