# generated using pymatgen
data_Ce3Th(B10Ir)2
_symmetry_space_group_name_H-M   'P 1'
_cell_length_a   4.19544100
_cell_length_b   5.71288859
_cell_length_c   11.42527144
_cell_angle_alpha   89.99723568
_cell_angle_beta   90.00000000
_cell_angle_gamma   90.00000000
_symmetry_Int_Tables_number   1
_chemical_formula_structural   Ce3Th(B10Ir)2
_chemical_formula_sum   'Ce3 Th1 B20 Ir2'
_cell_volume   273.84189984
_cell_formula_units_Z   1
loop_
 _symmetry_equiv_pos_site_id
 _symmetry_equiv_pos_as_xyz
  1  'x, y, z'
loop_
 _atom_site_type_symbol
 _atom_site_label
 _atom_site_symmetry_multiplicity
 _atom_site_fract_x
 _atom_site_fract_y
 _atom_site_fract_z
 _atom_site_occupancy
  Ce  Ce0  1  0.500000  0.295233  0.864791  1
  Ce  Ce1  1  0.500000  0.704878  0.133343  1
  Ce  Ce2  1  0.500000  0.796619  0.637381  1
  Th  Th3  1  0.500000  0.205533  0.365448  1
  B  B4  1  0.000000  0.116542  0.543820  1
  B  B5  1  0.000000  0.880885  0.457405  1
  B  B6  1  0.000000  0.617620  0.956730  1
  B  B7  1  0.000000  0.382081  0.042915  1
  B  B8  1  0.000000  0.137977  0.697827  1
  B  B9  1  0.000000  0.862636  0.302500  1
  B  B10  1  0.302245  0.217147  0.118658  1
  B  B11  1  0.302217  0.782575  0.881228  1
  B  B12  1  0.697838  0.716980  0.380428  1
  B  B13  1  0.697794  0.282194  0.619163  1
  B  B14  1  0.697783  0.782575  0.881228  1
  B  B15  1  0.697755  0.217147  0.118658  1
  B  B16  1  0.302206  0.282194  0.619163  1
  B  B17  1  0.302162  0.716980  0.380428  1
  B  B18  1  0.000000  0.053664  0.193013  1
  B  B19  1  0.000000  0.946900  0.807202  1
  B  B20  1  0.000000  0.554254  0.306167  1
  B  B21  1  0.000000  0.447189  0.693010  1
  B  B22  1  0.000000  0.362977  0.196851  1
  B  B23  1  0.000000  0.638082  0.802497  1
  Ir  Ir24  1  0.000000  0.499702  0.499965  1
  Ir  Ir25  1  0.000000  0.999438  0.000183  1
