# generated using pymatgen
data_Er4Tc3B8Ru
_symmetry_space_group_name_H-M   'P 1'
_cell_length_a   5.26851900
_cell_length_b   5.91414747
_cell_length_c   6.40599467
_cell_angle_alpha   90.12333529
_cell_angle_beta   90.00000000
_cell_angle_gamma   90.00000000
_symmetry_Int_Tables_number   1
_chemical_formula_structural   Er4Tc3B8Ru
_chemical_formula_sum   'Er4 Tc3 B8 Ru1'
_cell_volume   199.60263324
_cell_formula_units_Z   1
loop_
 _symmetry_equiv_pos_site_id
 _symmetry_equiv_pos_as_xyz
  1  'x, y, z'
loop_
 _atom_site_type_symbol
 _atom_site_label
 _atom_site_symmetry_multiplicity
 _atom_site_fract_x
 _atom_site_fract_y
 _atom_site_fract_z
 _atom_site_occupancy
  Er  Er0  1  0.250000  0.514087  0.838649  1
  Er  Er1  1  0.250000  0.013251  0.662241  1
  Er  Er2  1  0.750000  0.486446  0.162175  1
  Er  Er3  1  0.750000  0.985400  0.336898  1
  Tc  Tc4  1  0.250000  0.682287  0.315296  1
  Tc  Tc5  1  0.250000  0.180175  0.184315  1
  Tc  Tc6  1  0.750000  0.319527  0.685512  1
  B  B7  1  0.079556  0.869358  0.036423  1
  B  B8  1  0.421668  0.369377  0.464035  1
  B  B9  1  0.580279  0.131563  0.964190  1
  B  B10  1  0.919921  0.630921  0.535258  1
  B  B11  1  0.919721  0.131563  0.964190  1
  B  B12  1  0.580079  0.630921  0.535258  1
  B  B13  1  0.420444  0.869358  0.036423  1
  B  B14  1  0.078332  0.369377  0.464035  1
  Ru  Ru15  1  0.750000  0.816388  0.815102  1
