# generated using pymatgen
data_CsZnBiTe3
_symmetry_space_group_name_H-M   'P 1'
_cell_length_a   8.88040684
_cell_length_b   8.88040608
_cell_length_c   11.91891900
_cell_angle_alpha   90.00000000
_cell_angle_beta   90.00000000
_cell_angle_gamma   150.16395425
_symmetry_Int_Tables_number   1
_chemical_formula_structural   CsZnBiTe3
_chemical_formula_sum   'Cs2 Zn2 Bi2 Te6'
_cell_volume   467.64136096
_cell_formula_units_Z   2
loop_
 _symmetry_equiv_pos_site_id
 _symmetry_equiv_pos_as_xyz
  1  'x, y, z'
loop_
 _atom_site_type_symbol
 _atom_site_label
 _atom_site_symmetry_multiplicity
 _atom_site_fract_x
 _atom_site_fract_y
 _atom_site_fract_z
 _atom_site_occupancy
  Cs  Cs0  1  0.255416  0.744584  0.250000  1
  Cs  Cs1  1  0.744584  0.255416  0.750000  1
  Zn  Zn2  1  0.539712  0.460288  0.250000  1
  Zn  Zn3  1  0.460288  0.539712  0.750000  1
  Bi  Bi4  1  0.000000  0.000000  0.500000  1
  Bi  Bi5  1  0.000000  0.000000  0.000000  1
  Te  Te6  1  0.620949  0.379051  0.441621  1
  Te  Te7  1  0.379051  0.620949  0.558379  1
  Te  Te8  1  0.620949  0.379051  0.058379  1
  Te  Te9  1  0.379051  0.620949  0.941621  1
  Te  Te10  1  0.942258  0.057742  0.250000  1
  Te  Te11  1  0.057742  0.942258  0.750000  1
