# generated using pymatgen
data_Zr5UCo16Si6Ge
_symmetry_space_group_name_H-M   'P 1'
_cell_length_a   8.08390684
_cell_length_b   8.09584572
_cell_length_c   8.09073718
_cell_angle_alpha   59.94624271
_cell_angle_beta   59.90543569
_cell_angle_gamma   59.99478651
_symmetry_Int_Tables_number   1
_chemical_formula_structural   Zr5UCo16Si6Ge
_chemical_formula_sum   'Zr5 U1 Co16 Si6 Ge1'
_cell_volume   373.98286553
_cell_formula_units_Z   1
loop_
 _symmetry_equiv_pos_site_id
 _symmetry_equiv_pos_as_xyz
  1  'x, y, z'
loop_
 _atom_site_type_symbol
 _atom_site_label
 _atom_site_symmetry_multiplicity
 _atom_site_fract_x
 _atom_site_fract_y
 _atom_site_fract_z
 _atom_site_occupancy
  Zr  Zr0  1  0.291057  0.294035  0.708981  1
  Zr  Zr1  1  0.296302  0.705688  0.703715  1
  Zr  Zr2  1  0.703753  0.710779  0.296227  1
  Zr  Zr3  1  0.290561  0.709631  0.295958  1
  Zr  Zr4  1  0.704012  0.296188  0.709422  1
  U  U5  1  0.713209  0.283539  0.286840  1
  Co  Co6  1  0.120491  0.121107  0.638850  1
  Co  Co7  1  0.669735  0.000338  0.659017  1
  Co  Co8  1  0.361087  0.880483  0.879534  1
  Co  Co9  1  0.000751  0.327134  0.334297  1
  Co  Co10  1  0.984105  0.672816  0.664906  1
  Co  Co11  1  0.335043  0.321848  0.015997  1
  Co  Co12  1  0.665710  0.662241  0.999190  1
  Co  Co13  1  0.640404  0.119984  0.121619  1
  Co  Co14  1  0.674255  0.670790  0.669512  1
  Co  Co15  1  0.878484  0.881992  0.359514  1
  Co  Co16  1  0.119842  0.116834  0.122500  1
  Co  Co17  1  0.877547  0.359110  0.880239  1
  Co  Co18  1  0.876550  0.885377  0.878014  1
  Co  Co19  1  0.340910  0.329008  0.330208  1
  Co  Co20  1  0.121979  0.639911  0.123481  1
  Co  Co21  1  0.330480  0.014556  0.325744  1
  Si  Si22  1  0.006423  0.994159  0.509290  1
  Si  Si23  1  0.002441  0.997957  0.997637  1
  Si  Si24  1  0.490632  0.509776  0.993676  1
  Si  Si25  1  0.490237  0.993703  0.509677  1
  Si  Si26  1  0.503705  0.996193  0.996057  1
  Si  Si27  1  0.004056  0.495900  0.496131  1
  Ge  Ge28  1  0.006241  0.508921  0.993766  1
