# generated using pymatgen
data_NdSm3(Ni12P5)2
_symmetry_space_group_name_H-M   'P 1'
_cell_length_a   3.66983100
_cell_length_b   10.79351353
_cell_length_c   13.15380701
_cell_angle_alpha   71.66533845
_cell_angle_beta   90.00000000
_cell_angle_gamma   90.00000000
_symmetry_Int_Tables_number   1
_chemical_formula_structural   NdSm3(Ni12P5)2
_chemical_formula_sum   'Nd1 Sm3 Ni24 P10'
_cell_volume   494.57740883
_cell_formula_units_Z   1
loop_
 _symmetry_equiv_pos_site_id
 _symmetry_equiv_pos_as_xyz
  1  'x, y, z'
loop_
 _atom_site_type_symbol
 _atom_site_label
 _atom_site_symmetry_multiplicity
 _atom_site_fract_x
 _atom_site_fract_y
 _atom_site_fract_z
 _atom_site_occupancy
  Nd  Nd0  1  0.750000  0.754025  0.812626  1
  Sm  Sm1  1  0.250000  0.280540  0.682531  1
  Sm  Sm2  1  0.750000  0.719625  0.317336  1
  Sm  Sm3  1  0.250000  0.245572  0.187445  1
  Ni  Ni4  1  0.250000  0.839253  0.137912  1
  Ni  Ni5  1  0.750000  0.160870  0.862830  1
  Ni  Ni6  1  0.250000  0.287082  0.438656  1
  Ni  Ni7  1  0.750000  0.712982  0.560788  1
  Ni  Ni8  1  0.250000  0.070492  0.015606  1
  Ni  Ni9  1  0.750000  0.929406  0.985016  1
  Ni  Ni10  1  0.250000  0.064604  0.446599  1
  Ni  Ni11  1  0.750000  0.935649  0.553082  1
  Ni  Ni12  1  0.250000  0.597200  0.695485  1
  Ni  Ni13  1  0.750000  0.401880  0.303903  1
  Ni  Ni14  1  0.250000  0.582696  0.007773  1
  Ni  Ni15  1  0.750000  0.416237  0.992983  1
  Ni  Ni16  1  0.250000  0.579047  0.509432  1
  Ni  Ni17  1  0.750000  0.421075  0.490129  1
  Ni  Ni18  1  0.250000  0.298390  0.918215  1
  Ni  Ni19  1  0.750000  0.701039  0.082496  1
  Ni  Ni20  1  0.250000  0.994380  0.659879  1
  Ni  Ni21  1  0.750000  0.006532  0.339698  1
  Ni  Ni22  1  0.250000  0.839476  0.437088  1
  Ni  Ni23  1  0.750000  0.160785  0.562284  1
  Ni  Ni24  1  0.250000  0.989998  0.849034  1
  Ni  Ni25  1  0.750000  0.011167  0.151185  1
  Ni  Ni26  1  0.250000  0.563282  0.204028  1
  Ni  Ni27  1  0.750000  0.436193  0.796122  1
  P  P28  1  0.250000  0.509045  0.870684  1
  P  P29  1  0.750000  0.490023  0.129388  1
  P  P30  1  0.250000  0.799709  0.984335  1
  P  P31  1  0.750000  0.200373  0.016742  1
  P  P32  1  0.250000  0.495406  0.378081  1
  P  P33  1  0.750000  0.504540  0.621774  1
  P  P34  1  0.250000  0.812921  0.610555  1
  P  P35  1  0.750000  0.187313  0.388498  1
  P  P36  1  0.250000  0.948581  0.259485  1
  P  P37  1  0.750000  0.052613  0.740295  1
