# generated using pymatgen
data_KBa2Fe3(CoAs2)3
_symmetry_space_group_name_H-M   'P 1'
_cell_length_a   5.50087119
_cell_length_b   7.07154225
_cell_length_c   8.69424021
_cell_angle_alpha   111.65620115
_cell_angle_beta   108.44242461
_cell_angle_gamma   89.99999954
_symmetry_Int_Tables_number   1
_chemical_formula_structural   KBa2Fe3(CoAs2)3
_chemical_formula_sum   'K1 Ba2 Fe3 Co3 As6'
_cell_volume   295.56177697
_cell_formula_units_Z   1
loop_
 _symmetry_equiv_pos_site_id
 _symmetry_equiv_pos_as_xyz
  1  'x, y, z'
loop_
 _atom_site_type_symbol
 _atom_site_label
 _atom_site_symmetry_multiplicity
 _atom_site_fract_x
 _atom_site_fract_y
 _atom_site_fract_z
 _atom_site_occupancy
  K  K0  1  0.999975  0.000000  0.000000  1
  Ba  Ba1  1  0.662055  0.999635  0.324237  1
  Ba  Ba2  1  0.337816  0.000365  0.675763  1
  Fe  Fe3  1  0.583305  0.499212  0.665912  1
  Fe  Fe4  1  0.249473  0.500000  0.000000  1
  Fe  Fe5  1  0.917395  0.500788  0.334088  1
  Co  Co6  1  0.416804  0.501139  0.334249  1
  Co  Co7  1  0.082553  0.498861  0.665751  1
  Co  Co8  1  0.750424  0.500000  0.000000  1
  As  As9  1  0.217703  0.305644  0.435202  1
  As  As10  1  0.884089  0.305756  0.768161  1
  As  As11  1  0.551521  0.307905  0.103062  1
  As  As12  1  0.782499  0.694356  0.564798  1
  As  As13  1  0.448461  0.692095  0.896938  1
  As  As14  1  0.115927  0.694244  0.231839  1
