# generated using pymatgen
data_Ho(Hf5Bi6)3
_symmetry_space_group_name_H-M   'P 1'
_cell_length_a   10.85070000
_cell_length_b   10.85070000
_cell_length_c   7.64534800
_cell_angle_alpha   90.00000000
_cell_angle_beta   90.00000000
_cell_angle_gamma   90.00000000
_symmetry_Int_Tables_number   1
_chemical_formula_structural   Ho(Hf5Bi6)3
_chemical_formula_sum   'Ho1 Hf15 Bi18'
_cell_volume   900.14561651
_cell_formula_units_Z   1
loop_
 _symmetry_equiv_pos_site_id
 _symmetry_equiv_pos_as_xyz
  1  'x, y, z'
loop_
 _atom_site_type_symbol
 _atom_site_label
 _atom_site_symmetry_multiplicity
 _atom_site_fract_x
 _atom_site_fract_y
 _atom_site_fract_z
 _atom_site_occupancy
  Ho  Ho0  1  0.750000  0.750000  0.079418  1
  Hf  Hf1  1  0.000800  0.000800  0.000598  1
  Hf  Hf2  1  0.499200  0.000800  0.000598  1
  Hf  Hf3  1  0.000800  0.499200  0.000598  1
  Hf  Hf4  1  0.499200  0.499200  0.000598  1
  Hf  Hf5  1  0.750000  0.104257  0.152128  1
  Hf  Hf6  1  0.750000  0.395742  0.152128  1
  Hf  Hf7  1  0.104257  0.750000  0.152128  1
  Hf  Hf8  1  0.395742  0.750000  0.152128  1
  Hf  Hf9  1  0.250000  0.250000  0.433484  1
  Hf  Hf10  1  0.750000  0.750000  0.566528  1
  Hf  Hf11  1  0.604913  0.249999  0.846351  1
  Hf  Hf12  1  0.895088  0.250000  0.846351  1
  Hf  Hf13  1  0.249999  0.604913  0.846351  1
  Hf  Hf14  1  0.250000  0.895088  0.846351  1
  Hf  Hf15  1  0.250000  0.250000  0.921018  1
  Bi  Bi16  1  0.250000  0.016475  0.197240  1
  Bi  Bi17  1  0.016475  0.250000  0.197240  1
  Bi  Bi18  1  0.483524  0.249999  0.197240  1
  Bi  Bi19  1  0.249999  0.483524  0.197240  1
  Bi  Bi20  1  0.580506  0.580506  0.355551  1
  Bi  Bi21  1  0.919494  0.580506  0.355551  1
  Bi  Bi22  1  0.919494  0.919494  0.355551  1
  Bi  Bi23  1  0.580506  0.919494  0.355551  1
  Bi  Bi24  1  0.750000  0.250000  0.497714  1
  Bi  Bi25  1  0.250000  0.750000  0.497714  1
  Bi  Bi26  1  0.416101  0.083899  0.649164  1
  Bi  Bi27  1  0.083899  0.083899  0.649164  1
  Bi  Bi28  1  0.083899  0.416101  0.649164  1
  Bi  Bi29  1  0.416101  0.416101  0.649164  1
  Bi  Bi30  1  0.750000  0.512756  0.800001  1
  Bi  Bi31  1  0.512756  0.750000  0.800001  1
  Bi  Bi32  1  0.987244  0.750000  0.800001  1
  Bi  Bi33  1  0.750000  0.987244  0.800001  1
