# generated using pymatgen
data_Ho3Er5(LuRu2)2
_symmetry_space_group_name_H-M   'P 1'
_cell_length_a   6.28134020
_cell_length_b   7.23075475
_cell_length_c   8.40360615
_cell_angle_alpha   96.81690672
_cell_angle_beta   111.95215669
_cell_angle_gamma   89.98603657
_symmetry_Int_Tables_number   1
_chemical_formula_structural   Ho3Er5(LuRu2)2
_chemical_formula_sum   'Ho3 Er5 Lu2 Ru4'
_cell_volume   351.10219327
_cell_formula_units_Z   1
loop_
 _symmetry_equiv_pos_site_id
 _symmetry_equiv_pos_as_xyz
  1  'x, y, z'
loop_
 _atom_site_type_symbol
 _atom_site_label
 _atom_site_symmetry_multiplicity
 _atom_site_fract_x
 _atom_site_fract_y
 _atom_site_fract_z
 _atom_site_occupancy
  Ho  Ho0  1  0.523027  0.083150  0.814142  1
  Ho  Ho1  1  0.476706  0.916821  0.185707  1
  Ho  Ho2  1  0.708873  0.416988  0.185734  1
  Er  Er3  1  0.291229  0.583130  0.814238  1
  Er  Er4  1  0.296937  0.313573  0.433501  1
  Er  Er5  1  0.703307  0.686530  0.566789  1
  Er  Er6  1  0.863571  0.186553  0.566662  1
  Er  Er7  1  0.136555  0.813421  0.433509  1
  Lu  Lu8  1  0.078313  0.250152  0.999990  1
  Lu  Lu9  1  0.921779  0.749873  0.999838  1
  Ru  Ru10  1  0.320156  0.575084  0.218935  1
  Ru  Ru11  1  0.679385  0.424992  0.780919  1
  Ru  Ru12  1  0.101289  0.924656  0.780916  1
  Ru  Ru13  1  0.898874  0.075079  0.219122  1
