# generated using pymatgen
data_TbDyCoNiRu2
_symmetry_space_group_name_H-M   'P 1'
_cell_length_a   5.21713859
_cell_length_b   5.28812944
_cell_length_c   5.28812910
_cell_angle_alpha   58.12833145
_cell_angle_beta   59.09344278
_cell_angle_gamma   59.09343469
_symmetry_Int_Tables_number   1
_chemical_formula_structural   TbDyCoNiRu2
_chemical_formula_sum   'Tb1 Dy1 Co1 Ni1 Ru2'
_cell_volume   100.24870267
_cell_formula_units_Z   1
loop_
 _symmetry_equiv_pos_site_id
 _symmetry_equiv_pos_as_xyz
  1  'x, y, z'
loop_
 _atom_site_type_symbol
 _atom_site_label
 _atom_site_symmetry_multiplicity
 _atom_site_fract_x
 _atom_site_fract_y
 _atom_site_fract_z
 _atom_site_occupancy
  Tb  Tb0  1  0.875069  0.878056  0.878056  1
  Dy  Dy1  1  0.124927  0.121927  0.121927  1
  Co  Co2  1  0.000019  0.500004  0.500004  1
  Ni  Ni3  1  0.499984  0.499995  0.499995  1
  Ru  Ru4  1  0.500001  0.000014  0.500004  1
  Ru  Ru5  1  0.500001  0.500004  0.000014  1
