# generated using pymatgen
data_Y2Ho5Er3Cd7InPd4
_symmetry_space_group_name_H-M   'P 1'
_cell_length_a   3.63360300
_cell_length_b   7.98183743
_cell_length_c   18.33235402
_cell_angle_alpha   89.76518097
_cell_angle_beta   90.00000000
_cell_angle_gamma   90.00000000
_symmetry_Int_Tables_number   1
_chemical_formula_structural   Y2Ho5Er3Cd7InPd4
_chemical_formula_sum   'Y2 Ho5 Er3 Cd7 In1 Pd4'
_cell_volume   531.68565318
_cell_formula_units_Z   1
loop_
 _symmetry_equiv_pos_site_id
 _symmetry_equiv_pos_as_xyz
  1  'x, y, z'
loop_
 _atom_site_type_symbol
 _atom_site_label
 _atom_site_symmetry_multiplicity
 _atom_site_fract_x
 _atom_site_fract_y
 _atom_site_fract_z
 _atom_site_occupancy
  Y  Y0  1  0.000000  0.497643  0.500310  1
  Y  Y1  1  0.000000  0.001921  0.999510  1
  Ho  Ho2  1  0.000000  0.740130  0.281121  1
  Ho  Ho3  1  0.000000  0.260034  0.718506  1
  Ho  Ho4  1  0.000000  0.757193  0.780907  1
  Ho  Ho5  1  0.000000  0.242109  0.219272  1
  Ho  Ho6  1  0.000000  0.614152  0.083867  1
  Er  Er7  1  0.000000  0.387374  0.915833  1
  Er  Er8  1  0.000000  0.886192  0.584076  1
  Er  Er9  1  0.000000  0.113094  0.415731  1
  Cd  Cd10  1  0.500000  0.712856  0.932481  1
  Cd  Cd11  1  0.500000  0.288309  0.067799  1
  Cd  Cd12  1  0.500000  0.786034  0.432504  1
  Cd  Cd13  1  0.500000  0.211137  0.568225  1
  Cd  Cd14  1  0.500000  0.576128  0.648173  1
  Cd  Cd15  1  0.500000  0.425134  0.351646  1
  Cd  Cd16  1  0.500000  0.926003  0.148163  1
  In  In17  1  0.500000  0.075217  0.850769  1
  Pd  Pd18  1  0.500000  0.526433  0.195497  1
  Pd  Pd19  1  0.500000  0.472876  0.804917  1
  Pd  Pd20  1  0.500000  0.973274  0.696120  1
  Pd  Pd21  1  0.500000  0.026758  0.304574  1
