# generated using pymatgen
data_Li4CaAc3Ge8
_symmetry_space_group_name_H-M   'P 1'
_cell_length_a   4.11868400
_cell_length_b   8.12227400
_cell_length_c   11.07345300
_cell_angle_alpha   89.99825483
_cell_angle_beta   90.00000000
_cell_angle_gamma   90.00000000
_symmetry_Int_Tables_number   1
_chemical_formula_structural   Li4CaAc3Ge8
_chemical_formula_sum   'Li4 Ca1 Ac3 Ge8'
_cell_volume   370.44110875
_cell_formula_units_Z   1
loop_
 _symmetry_equiv_pos_site_id
 _symmetry_equiv_pos_as_xyz
  1  'x, y, z'
loop_
 _atom_site_type_symbol
 _atom_site_label
 _atom_site_symmetry_multiplicity
 _atom_site_fract_x
 _atom_site_fract_y
 _atom_site_fract_z
 _atom_site_occupancy
  Li  Li0  1  0.250000  0.993075  0.391095  1
  Li  Li1  1  0.250000  0.490803  0.112963  1
  Li  Li2  1  0.750000  0.008785  0.607823  1
  Li  Li3  1  0.750000  0.508044  0.890477  1
  Ca  Ca4  1  0.750000  0.368769  0.366274  1
  Ac  Ac5  1  0.750000  0.864608  0.136049  1
  Ac  Ac6  1  0.250000  0.632674  0.632063  1
  Ac  Ac7  1  0.250000  0.136393  0.864495  1
  Ge  Ge8  1  0.250000  0.225332  0.560922  1
  Ge  Ge9  1  0.250000  0.167405  0.183055  1
  Ge  Ge10  1  0.750000  0.332497  0.678809  1
  Ge  Ge11  1  0.250000  0.658488  0.321645  1
  Ge  Ge12  1  0.750000  0.778774  0.431780  1
  Ge  Ge13  1  0.250000  0.718076  0.932337  1
  Ge  Ge14  1  0.750000  0.282026  0.070742  1
  Ge  Ge15  1  0.750000  0.834249  0.819472  1
