# generated using pymatgen
data_TbEr19Si15As
_symmetry_space_group_name_H-M   'P 1'
_cell_length_a   7.43964764
_cell_length_b   7.60231768
_cell_length_c   14.49228503
_cell_angle_alpha   90.11049570
_cell_angle_beta   93.62723661
_cell_angle_gamma   90.04206085
_symmetry_Int_Tables_number   1
_chemical_formula_structural   TbEr19Si15As
_chemical_formula_sum   'Tb1 Er19 Si15 As1'
_cell_volume   818.01904468
_cell_formula_units_Z   1
loop_
 _symmetry_equiv_pos_site_id
 _symmetry_equiv_pos_as_xyz
  1  'x, y, z'
loop_
 _atom_site_type_symbol
 _atom_site_label
 _atom_site_symmetry_multiplicity
 _atom_site_fract_x
 _atom_site_fract_y
 _atom_site_fract_z
 _atom_site_occupancy
  Tb  Tb0  1  0.003970  0.816296  0.599072  1
  Er  Er1  1  0.501228  0.677317  0.598796  1
  Er  Er2  1  0.321254  0.823895  0.122534  1
  Er  Er3  1  0.821435  0.675878  0.122731  1
  Er  Er4  1  0.835627  0.506254  0.745972  1
  Er  Er5  1  0.470878  0.314831  0.101833  1
  Er  Er6  1  0.028988  0.815366  0.898448  1
  Er  Er7  1  0.494907  0.320573  0.401741  1
  Er  Er8  1  0.663058  0.005779  0.251800  1
  Er  Er9  1  0.529682  0.686083  0.898744  1
  Er  Er10  1  0.677819  0.176713  0.878049  1
  Er  Er11  1  0.151493  0.333081  0.621677  1
  Er  Er12  1  0.178912  0.324193  0.878043  1
  Er  Er13  1  0.849046  0.664907  0.377957  1
  Er  Er14  1  0.347224  0.832554  0.380188  1
  Er  Er15  1  0.336570  0.994371  0.745151  1
  Er  Er16  1  0.650298  0.167387  0.619613  1
  Er  Er17  1  0.164643  0.493681  0.253740  1
  Er  Er18  1  0.971546  0.184709  0.101367  1
  Er  Er19  1  0.001979  0.181899  0.401039  1
  Si  Si20  1  0.220593  0.629807  0.752390  1
  Si  Si21  1  0.297026  0.036962  0.541961  1
  Si  Si22  1  0.036995  0.891478  0.248913  1
  Si  Si23  1  0.718616  0.870931  0.751317  1
  Si  Si24  1  0.282451  0.130324  0.249205  1
  Si  Si25  1  0.802371  0.463591  0.541093  1
  Si  Si26  1  0.463103  0.391840  0.752521  1
  Si  Si27  1  0.195716  0.535363  0.457883  1
  Si  Si28  1  0.143489  0.527753  0.043234  1
  Si  Si29  1  0.961409  0.108988  0.752103  1
  Si  Si30  1  0.782110  0.368028  0.248589  1
  Si  Si31  1  0.355246  0.028432  0.957822  1
  Si  Si32  1  0.855960  0.472877  0.957097  1
  Si  Si33  1  0.644391  0.972431  0.042775  1
  Si  Si34  1  0.536726  0.609229  0.248423  1
  As  As35  1  0.703240  0.966198  0.456183  1
