# generated using pymatgen
data_TbY3Al8
_symmetry_space_group_name_H-M   'P 1'
_cell_length_a   9.65976928
_cell_length_b   9.65976914
_cell_length_c   9.65977007
_cell_angle_alpha   33.54387466
_cell_angle_beta   33.54387637
_cell_angle_gamma   33.54387933
_symmetry_Int_Tables_number   1
_chemical_formula_structural   TbY3Al8
_chemical_formula_sum   'Tb1 Y3 Al8'
_cell_volume   245.14144201
_cell_formula_units_Z   1
loop_
 _symmetry_equiv_pos_site_id
 _symmetry_equiv_pos_as_xyz
  1  'x, y, z'
loop_
 _atom_site_type_symbol
 _atom_site_label
 _atom_site_symmetry_multiplicity
 _atom_site_fract_x
 _atom_site_fract_y
 _atom_site_fract_z
 _atom_site_occupancy
  Tb  Tb0  1  0.812498  0.812498  0.812498  1
  Y  Y1  1  0.312605  0.312605  0.312605  1
  Y  Y2  1  0.687541  0.687541  0.687541  1
  Y  Y3  1  0.187343  0.187343  0.187343  1
  Al  Al4  1  0.500040  0.500040  0.500040  1
  Al  Al5  1  0.000025  0.000025  0.000025  1
  Al  Al6  1  0.249835  0.249835  0.750162  1
  Al  Al7  1  0.749964  0.749964  0.250187  1
  Al  Al8  1  0.249835  0.750162  0.249835  1
  Al  Al9  1  0.749964  0.250187  0.749964  1
  Al  Al10  1  0.750162  0.249835  0.249835  1
  Al  Al11  1  0.250187  0.749964  0.749964  1
