# generated using pymatgen
data_Dy11ErTe6
_symmetry_space_group_name_H-M   'P 1'
_cell_length_a   4.06873400
_cell_length_b   11.53743124
_cell_length_c   22.20080731
_cell_angle_alpha   90.07134848
_cell_angle_beta   90.00000000
_cell_angle_gamma   90.00000000
_symmetry_Int_Tables_number   1
_chemical_formula_structural   Dy11ErTe6
_chemical_formula_sum   'Dy22 Er2 Te12'
_cell_volume   1042.16588911
_cell_formula_units_Z   2
loop_
 _symmetry_equiv_pos_site_id
 _symmetry_equiv_pos_as_xyz
  1  'x, y, z'
loop_
 _atom_site_type_symbol
 _atom_site_label
 _atom_site_symmetry_multiplicity
 _atom_site_fract_x
 _atom_site_fract_y
 _atom_site_fract_z
 _atom_site_occupancy
  Dy  Dy0  1  0.750000  0.651636  0.108489  1
  Dy  Dy1  1  0.250000  0.348364  0.891511  1
  Dy  Dy2  1  0.250000  0.455724  0.339962  1
  Dy  Dy3  1  0.750000  0.544276  0.660038  1
  Dy  Dy4  1  0.750000  0.955828  0.160028  1
  Dy  Dy5  1  0.250000  0.044172  0.839972  1
  Dy  Dy6  1  0.250000  0.734588  0.233361  1
  Dy  Dy7  1  0.750000  0.265412  0.766639  1
  Dy  Dy8  1  0.750000  0.234539  0.266879  1
  Dy  Dy9  1  0.250000  0.765461  0.733121  1
  Dy  Dy10  1  0.250000  0.115842  0.034319  1
  Dy  Dy11  1  0.750000  0.884158  0.965681  1
  Dy  Dy12  1  0.750000  0.615888  0.465762  1
  Dy  Dy13  1  0.250000  0.384112  0.534238  1
  Dy  Dy14  1  0.250000  0.414741  0.146729  1
  Dy  Dy15  1  0.750000  0.585259  0.853271  1
  Dy  Dy16  1  0.750000  0.915116  0.353415  1
  Dy  Dy17  1  0.250000  0.084884  0.646585  1
  Dy  Dy18  1  0.250000  0.612905  0.983019  1
  Dy  Dy19  1  0.750000  0.387095  0.016981  1
  Dy  Dy20  1  0.750000  0.112775  0.516854  1
  Dy  Dy21  1  0.250000  0.887225  0.483146  1
  Er  Er22  1  0.250000  0.151372  0.391513  1
  Er  Er23  1  0.750000  0.848628  0.608487  1
  Te  Te24  1  0.250000  0.850558  0.068860  1
  Te  Te25  1  0.750000  0.149442  0.931140  1
  Te  Te26  1  0.750000  0.350158  0.430945  1
  Te  Te27  1  0.250000  0.649842  0.569055  1
  Te  Te28  1  0.250000  0.711914  0.372734  1
  Te  Te29  1  0.750000  0.288086  0.627266  1
  Te  Te30  1  0.750000  0.211859  0.127310  1
  Te  Te31  1  0.250000  0.788141  0.872690  1
  Te  Te32  1  0.250000  0.020788  0.260979  1
  Te  Te33  1  0.750000  0.979212  0.739021  1
  Te  Te34  1  0.750000  0.520606  0.239115  1
  Te  Te35  1  0.250000  0.479394  0.760885  1
