# generated using pymatgen
data_Y4Al18Pd5W
_symmetry_space_group_name_H-M   'P 1'
_cell_length_a   7.62750284
_cell_length_b   7.62750297
_cell_length_c   9.54918637
_cell_angle_alpha   89.63308295
_cell_angle_beta   89.63307734
_cell_angle_gamma   118.91324448
_symmetry_Int_Tables_number   1
_chemical_formula_structural   Y4Al18Pd5W
_chemical_formula_sum   'Y4 Al18 Pd5 W1'
_cell_volume   486.27256451
_cell_formula_units_Z   1
loop_
 _symmetry_equiv_pos_site_id
 _symmetry_equiv_pos_as_xyz
  1  'x, y, z'
loop_
 _atom_site_type_symbol
 _atom_site_label
 _atom_site_symmetry_multiplicity
 _atom_site_fract_x
 _atom_site_fract_y
 _atom_site_fract_z
 _atom_site_occupancy
  Y  Y0  1  0.995073  0.678135  0.246999  1
  Y  Y1  1  0.004927  0.321865  0.753001  1
  Y  Y2  1  0.678135  0.995073  0.246999  1
  Y  Y3  1  0.321865  0.004927  0.753001  1
  Al  Al4  1  0.134580  0.134580  0.249046  1
  Al  Al5  1  0.865420  0.865420  0.750954  1
  Al  Al6  1  0.003086  0.335192  0.075369  1
  Al  Al7  1  0.996914  0.664808  0.924631  1
  Al  Al8  1  0.998231  0.661168  0.577652  1
  Al  Al9  1  0.338832  0.001769  0.422348  1
  Al  Al10  1  0.001769  0.338832  0.422348  1
  Al  Al11  1  0.661168  0.998231  0.577652  1
  Al  Al12  1  0.664808  0.996914  0.924631  1
  Al  Al13  1  0.335192  0.003086  0.075369  1
  Al  Al14  1  0.333747  0.333747  0.555153  1
  Al  Al15  1  0.666253  0.666253  0.444847  1
  Al  Al16  1  0.666619  0.666619  0.052575  1
  Al  Al17  1  0.333381  0.333381  0.947425  1
  Al  Al18  1  0.341579  0.549752  0.250218  1
  Al  Al19  1  0.658421  0.450248  0.749782  1
  Al  Al20  1  0.549752  0.341579  0.250218  1
  Al  Al21  1  0.450248  0.658421  0.749782  1
  Pd  Pd22  1  0.672104  0.327896  0.000000  1
  Pd  Pd23  1  0.327896  0.672104  0.000000  1
  Pd  Pd24  1  0.328048  0.671952  0.500000  1
  Pd  Pd25  1  0.671952  0.328048  0.500000  1
  Pd  Pd26  1  0.000000  0.000000  0.500000  1
  W  W27  1  0.000000  0.000000  0.000000  1
