# generated using pymatgen
data_Yb4ZnGa6Cu
_symmetry_space_group_name_H-M   'P 1'
_cell_length_a   7.04001900
_cell_length_b   8.79807303
_cell_length_c   8.79809000
_cell_angle_alpha   120.00004878
_cell_angle_beta   90.00021160
_cell_angle_gamma   89.99997235
_symmetry_Int_Tables_number   1
_chemical_formula_structural   Yb4ZnGa6Cu
_chemical_formula_sum   'Yb8 Zn2 Ga12 Cu2'
_cell_volume   471.93285399
_cell_formula_units_Z   2
loop_
 _symmetry_equiv_pos_site_id
 _symmetry_equiv_pos_as_xyz
  1  'x, y, z'
loop_
 _atom_site_type_symbol
 _atom_site_label
 _atom_site_symmetry_multiplicity
 _atom_site_fract_x
 _atom_site_fract_y
 _atom_site_fract_z
 _atom_site_occupancy
  Yb  Yb0  1  0.753938  0.000000  0.000000  1
  Yb  Yb1  1  0.246062  0.000000  0.000000  1
  Yb  Yb2  1  0.754165  0.480278  0.519721  1
  Yb  Yb3  1  0.245835  0.519722  0.480279  1
  Yb  Yb4  1  0.754166  0.039443  0.519721  1
  Yb  Yb5  1  0.245834  0.960557  0.480279  1
  Yb  Yb6  1  0.754166  0.480279  0.960557  1
  Yb  Yb7  1  0.245834  0.519721  0.039443  1
  Zn  Zn8  1  0.452211  0.333332  0.666667  1
  Zn  Zn9  1  0.547789  0.666668  0.333333  1
  Ga  Ga10  1  0.949825  0.829858  0.170143  1
  Ga  Ga11  1  0.050175  0.170142  0.829857  1
  Ga  Ga12  1  0.949825  0.340285  0.170143  1
  Ga  Ga13  1  0.446789  0.167021  0.832979  1
  Ga  Ga14  1  0.050175  0.659715  0.829857  1
  Ga  Ga15  1  0.553211  0.832979  0.167021  1
  Ga  Ga16  1  0.949825  0.829858  0.659716  1
  Ga  Ga17  1  0.446789  0.665958  0.832978  1
  Ga  Ga18  1  0.050175  0.170142  0.340284  1
  Ga  Ga19  1  0.553211  0.334042  0.167022  1
  Ga  Ga20  1  0.446787  0.167022  0.334045  1
  Ga  Ga21  1  0.553213  0.832978  0.665955  1
  Cu  Cu22  1  0.959626  0.666668  0.333334  1
  Cu  Cu23  1  0.040374  0.333332  0.666666  1
