# generated using pymatgen
data_Pr3ThZn4(IrRh)2
_symmetry_space_group_name_H-M   'P 1'
_cell_length_a   4.03487900
_cell_length_b   7.37865300
_cell_length_c   16.69637800
_cell_angle_alpha   90.00000000
_cell_angle_beta   90.00000000
_cell_angle_gamma   90.00000000
_symmetry_Int_Tables_number   1
_chemical_formula_structural   Pr3ThZn4(IrRh)2
_chemical_formula_sum   'Pr6 Th2 Zn8 Ir4 Rh4'
_cell_volume   497.08409895
_cell_formula_units_Z   2
loop_
 _symmetry_equiv_pos_site_id
 _symmetry_equiv_pos_as_xyz
  1  'x, y, z'
loop_
 _atom_site_type_symbol
 _atom_site_label
 _atom_site_symmetry_multiplicity
 _atom_site_fract_x
 _atom_site_fract_y
 _atom_site_fract_z
 _atom_site_occupancy
  Pr  Pr0  1  0.750000  0.828992  0.058818  1
  Pr  Pr1  1  0.250000  0.049863  0.716232  1
  Pr  Pr2  1  0.250000  0.170649  0.939494  1
  Pr  Pr3  1  0.250000  0.549863  0.783768  1
  Pr  Pr4  1  0.750000  0.328992  0.441182  1
  Pr  Pr5  1  0.250000  0.670649  0.560506  1
  Th  Th6  1  0.750000  0.445400  0.216464  1
  Th  Th7  1  0.750000  0.945400  0.283536  1
  Zn  Zn8  1  0.250000  0.001876  0.441295  1
  Zn  Zn9  1  0.750000  0.504830  0.939477  1
  Zn  Zn10  1  0.750000  0.004830  0.560523  1
  Zn  Zn11  1  0.250000  0.618328  0.351354  1
  Zn  Zn12  1  0.750000  0.379777  0.650342  1
  Zn  Zn13  1  0.750000  0.879777  0.849658  1
  Zn  Zn14  1  0.250000  0.501876  0.058705  1
  Zn  Zn15  1  0.250000  0.118328  0.148646  1
  Ir  Ir16  1  0.250000  0.246526  0.566206  1
  Ir  Ir17  1  0.250000  0.233917  0.306001  1
  Ir  Ir18  1  0.250000  0.746526  0.933794  1
  Ir  Ir19  1  0.250000  0.733917  0.193999  1
  Rh  Rh20  1  0.750000  0.265809  0.068777  1
  Rh  Rh21  1  0.750000  0.254034  0.814692  1
  Rh  Rh22  1  0.750000  0.754034  0.685308  1
  Rh  Rh23  1  0.750000  0.765809  0.431223  1
