# generated using pymatgen
data_TbPr19(Ga5Sb)2
_symmetry_space_group_name_H-M   'P 1'
_cell_length_a   8.03920300
_cell_length_b   8.03920300
_cell_length_c   14.47778700
_cell_angle_alpha   90.00000000
_cell_angle_beta   90.00000000
_cell_angle_gamma   90.00000000
_symmetry_Int_Tables_number   1
_chemical_formula_structural   TbPr19(Ga5Sb)2
_chemical_formula_sum   'Tb1 Pr19 Ga10 Sb2'
_cell_volume   935.68178149
_cell_formula_units_Z   1
loop_
 _symmetry_equiv_pos_site_id
 _symmetry_equiv_pos_as_xyz
  1  'x, y, z'
loop_
 _atom_site_type_symbol
 _atom_site_label
 _atom_site_symmetry_multiplicity
 _atom_site_fract_x
 _atom_site_fract_y
 _atom_site_fract_z
 _atom_site_occupancy
  Tb  Tb0  1  0.000000  0.500000  0.760345  1
  Pr  Pr1  1  0.823647  0.836393  0.608524  1
  Pr  Pr2  1  0.173218  0.838547  0.100690  1
  Pr  Pr3  1  0.165581  0.822868  0.393271  1
  Pr  Pr4  1  0.834419  0.177132  0.393271  1
  Pr  Pr5  1  0.677132  0.665581  0.393271  1
  Pr  Pr6  1  0.663607  0.323647  0.608524  1
  Pr  Pr7  1  0.336393  0.676353  0.608524  1
  Pr  Pr8  1  0.000000  0.500000  0.204426  1
  Pr  Pr9  1  0.661453  0.673218  0.100690  1
  Pr  Pr10  1  0.675460  0.338886  0.898679  1
  Pr  Pr11  1  0.838886  0.824540  0.898679  1
  Pr  Pr12  1  0.322868  0.334419  0.393271  1
  Pr  Pr13  1  0.176353  0.163607  0.608524  1
  Pr  Pr14  1  0.826782  0.161453  0.100690  1
  Pr  Pr15  1  0.324540  0.661114  0.898679  1
  Pr  Pr16  1  0.338547  0.326782  0.100690  1
  Pr  Pr17  1  0.500000  0.000000  0.231038  1
  Pr  Pr18  1  0.161114  0.175460  0.898679  1
  Pr  Pr19  1  0.500000  0.000000  0.792811  1
  Ga  Ga20  1  0.622646  0.379758  0.253422  1
  Ga  Ga21  1  0.120585  0.873728  0.748328  1
  Ga  Ga22  1  0.373728  0.379415  0.748328  1
  Ga  Ga23  1  0.377354  0.620242  0.253422  1
  Ga  Ga24  1  0.879758  0.877354  0.253422  1
  Ga  Ga25  1  0.626272  0.620585  0.748328  1
  Ga  Ga26  1  0.879415  0.126272  0.748328  1
  Ga  Ga27  1  0.500000  0.000000  0.006437  1
  Ga  Ga28  1  0.120242  0.122646  0.253422  1
  Ga  Ga29  1  0.000000  0.500000  0.988777  1
  Sb  Sb30  1  0.000000  0.500000  0.515944  1
  Sb  Sb31  1  0.500000  0.000000  0.488566  1
