# generated using pymatgen
data_Li4Er3TmSn4
_symmetry_space_group_name_H-M   'P 1'
_cell_length_a   9.33260900
_cell_length_b   9.33295512
_cell_length_c   7.21010100
_cell_angle_alpha   89.99845568
_cell_angle_beta   90.00308261
_cell_angle_gamma   119.99876261
_symmetry_Int_Tables_number   1
_chemical_formula_structural   Li4Er3TmSn4
_chemical_formula_sum   'Li8 Er6 Tm2 Sn8'
_cell_volume   543.87568455
_cell_formula_units_Z   2
loop_
 _symmetry_equiv_pos_site_id
 _symmetry_equiv_pos_as_xyz
  1  'x, y, z'
loop_
 _atom_site_type_symbol
 _atom_site_label
 _atom_site_symmetry_multiplicity
 _atom_site_fract_x
 _atom_site_fract_y
 _atom_site_fract_z
 _atom_site_occupancy
  Li  Li0  1  0.833190  0.666425  0.712145  1
  Li  Li1  1  0.833262  0.166803  0.712179  1
  Li  Li2  1  0.333264  0.666607  0.821327  1
  Li  Li3  1  0.666658  0.333393  0.321327  1
  Li  Li4  1  0.666459  0.833197  0.212179  1
  Li  Li5  1  0.166764  0.333575  0.212145  1
  Li  Li6  1  0.166724  0.833165  0.212136  1
  Li  Li7  1  0.333559  0.166835  0.712136  1
  Er  Er8  1  0.000005  0.000000  0.999996  1
  Er  Er9  1  0.000005  0.000000  0.499996  1
  Er  Er10  1  0.511483  0.488557  0.006021  1
  Er  Er11  1  0.022925  0.511443  0.506021  1
  Er  Er12  1  0.488542  0.977088  0.505983  1
  Er  Er13  1  0.511455  0.022912  0.005983  1
  Tm  Tm14  1  0.977096  0.488566  0.006043  1
  Tm  Tm15  1  0.488530  0.511434  0.506043  1
  Sn  Sn16  1  0.166599  0.833155  0.770800  1
  Sn  Sn17  1  0.666729  0.333466  0.741208  1
  Sn  Sn18  1  0.333262  0.666534  0.241208  1
  Sn  Sn19  1  0.833433  0.166786  0.270543  1
  Sn  Sn20  1  0.166715  0.333463  0.770620  1
  Sn  Sn21  1  0.333445  0.166845  0.270800  1
  Sn  Sn22  1  0.833252  0.666537  0.270620  1
  Sn  Sn23  1  0.666646  0.833214  0.770543  1
