# generated using pymatgen
data_Tm4Ga5SbIr7
_symmetry_space_group_name_H-M   'P 1'
_cell_length_a   7.31165473
_cell_length_b   7.31165446
_cell_length_c   7.31165506
_cell_angle_alpha   109.63209593
_cell_angle_beta   109.39084591
_cell_angle_gamma   109.39084621
_symmetry_Int_Tables_number   1
_chemical_formula_structural   Tm4Ga5SbIr7
_chemical_formula_sum   'Tm4 Ga5 Sb1 Ir7'
_cell_volume   300.90024136
_cell_formula_units_Z   1
loop_
 _symmetry_equiv_pos_site_id
 _symmetry_equiv_pos_as_xyz
  1  'x, y, z'
loop_
 _atom_site_type_symbol
 _atom_site_label
 _atom_site_symmetry_multiplicity
 _atom_site_fract_x
 _atom_site_fract_y
 _atom_site_fract_z
 _atom_site_occupancy
  Tm  Tm0  1  0.000000  0.007874  0.483095  1
  Tm  Tm1  1  0.000000  0.483095  0.007874  1
  Tm  Tm2  1  0.524780  0.007874  0.007874  1
  Tm  Tm3  1  0.475220  0.483095  0.483095  1
  Ga  Ga4  1  0.684711  0.679572  0.994861  1
  Ga  Ga5  1  0.315289  0.994861  0.310150  1
  Ga  Ga6  1  0.000000  0.325720  0.325720  1
  Ga  Ga7  1  0.315289  0.310150  0.994861  1
  Ga  Ga8  1  0.684711  0.994861  0.679572  1
  Sb  Sb9  1  0.000000  0.696365  0.696365  1
  Ir  Ir10  1  0.745789  0.246978  0.501189  1
  Ir  Ir11  1  0.745789  0.501189  0.246978  1
  Ir  Ir12  1  0.500000  0.247366  0.747366  1
  Ir  Ir13  1  0.254211  0.501189  0.755400  1
  Ir  Ir14  1  0.254211  0.755400  0.501189  1
  Ir  Ir15  1  0.500000  0.747366  0.247366  1
  Ir  Ir16  1  0.000000  0.017045  0.017045  1
