# generated using pymatgen
data_Ba3Ac(PIr)4
_symmetry_space_group_name_H-M   'P 1'
_cell_length_a   6.52305575
_cell_length_b   6.52305575
_cell_length_c   6.52305575
_cell_angle_alpha   89.57894563
_cell_angle_beta   89.57894563
_cell_angle_gamma   89.57894563
_symmetry_Int_Tables_number   1
_chemical_formula_structural   Ba3Ac(PIr)4
_chemical_formula_sum   'Ba3 Ac1 P4 Ir4'
_cell_volume   277.53531944
_cell_formula_units_Z   1
loop_
 _symmetry_equiv_pos_site_id
 _symmetry_equiv_pos_as_xyz
  1  'x, y, z'
loop_
 _atom_site_type_symbol
 _atom_site_label
 _atom_site_symmetry_multiplicity
 _atom_site_fract_x
 _atom_site_fract_y
 _atom_site_fract_z
 _atom_site_occupancy
  Ba  Ba0  1  0.379171  0.873191  0.623299  1
  Ba  Ba1  1  0.873191  0.623299  0.379171  1
  Ba  Ba2  1  0.623299  0.379171  0.873191  1
  Ac  Ac3  1  0.123352  0.123352  0.123352  1
  P  P4  1  0.659775  0.157102  0.341685  1
  P  P5  1  0.157102  0.341685  0.659775  1
  P  P6  1  0.341685  0.659775  0.157102  1
  P  P7  1  0.848066  0.848066  0.848066  1
  Ir  Ir8  1  0.095310  0.589884  0.910093  1
  Ir  Ir9  1  0.589884  0.910093  0.095310  1
  Ir  Ir10  1  0.910093  0.095310  0.589884  1
  Ir  Ir11  1  0.399072  0.399072  0.399072  1
