# generated using pymatgen
data_Ho10Tl2CuPPb4
_symmetry_space_group_name_H-M   'P 1'
_cell_length_a   9.07839990
_cell_length_b   9.12527640
_cell_length_c   6.73422743
_cell_angle_alpha   90.28463741
_cell_angle_beta   89.42777856
_cell_angle_gamma   119.83021455
_symmetry_Int_Tables_number   1
_chemical_formula_structural   Ho10Tl2CuPPb4
_chemical_formula_sum   'Ho10 Tl2 Cu1 P1 Pb4'
_cell_volume   483.94117183
_cell_formula_units_Z   1
loop_
 _symmetry_equiv_pos_site_id
 _symmetry_equiv_pos_as_xyz
  1  'x, y, z'
loop_
 _atom_site_type_symbol
 _atom_site_label
 _atom_site_symmetry_multiplicity
 _atom_site_fract_x
 _atom_site_fract_y
 _atom_site_fract_z
 _atom_site_occupancy
  Ho  Ho0  1  0.247350  0.000000  0.736078  1
  Ho  Ho1  1  0.752650  0.000000  0.263922  1
  Ho  Ho2  1  0.998063  0.245353  0.738412  1
  Ho  Ho3  1  0.001937  0.754647  0.261588  1
  Ho  Ho4  1  0.752710  0.754647  0.738412  1
  Ho  Ho5  1  0.247290  0.245353  0.261588  1
  Ho  Ho6  1  0.334062  0.668125  0.500000  1
  Ho  Ho7  1  0.665938  0.331875  0.500000  1
  Ho  Ho8  1  0.664457  0.328912  0.000000  1
  Ho  Ho9  1  0.335543  0.671088  0.000000  1
  Tl  Tl10  1  0.600844  0.000000  0.750550  1
  Tl  Tl11  1  0.399156  0.000000  0.249450  1
  Cu  Cu12  1  0.000000  0.000000  0.000000  1
  P  P13  1  0.000000  0.000000  0.500000  1
  Pb  Pb14  1  0.998883  0.604476  0.749352  1
  Pb  Pb15  1  0.001117  0.395524  0.250648  1
  Pb  Pb16  1  0.394408  0.395524  0.749352  1
  Pb  Pb17  1  0.605592  0.604476  0.250648  1
