# generated using pymatgen
data_ErTm11(TcOs)2
_symmetry_space_group_name_H-M   'P 1'
_cell_length_a   6.21001603
_cell_length_b   7.36075104
_cell_length_c   8.94656500
_cell_angle_alpha   90.00000000
_cell_angle_beta   90.00000000
_cell_angle_gamma   90.01133314
_symmetry_Int_Tables_number   1
_chemical_formula_structural   ErTm11(TcOs)2
_chemical_formula_sum   'Er1 Tm11 Tc2 Os2'
_cell_volume   408.95089510
_cell_formula_units_Z   1
loop_
 _symmetry_equiv_pos_site_id
 _symmetry_equiv_pos_as_xyz
  1  'x, y, z'
loop_
 _atom_site_type_symbol
 _atom_site_label
 _atom_site_symmetry_multiplicity
 _atom_site_fract_x
 _atom_site_fract_y
 _atom_site_fract_z
 _atom_site_occupancy
  Er  Er0  1  0.624228  0.039115  0.250000  1
  Tm  Tm1  1  0.337223  0.674732  0.061998  1
  Tm  Tm2  1  0.162518  0.174789  0.438064  1
  Tm  Tm3  1  0.664488  0.325037  0.562754  1
  Tm  Tm4  1  0.835574  0.824815  0.937220  1
  Tm  Tm5  1  0.664488  0.325037  0.937246  1
  Tm  Tm6  1  0.835574  0.824815  0.562780  1
  Tm  Tm7  1  0.337223  0.674732  0.438002  1
  Tm  Tm8  1  0.162518  0.174789  0.061936  1
  Tm  Tm9  1  0.875878  0.539075  0.250000  1
  Tm  Tm10  1  0.129631  0.459676  0.750000  1
  Tm  Tm11  1  0.370416  0.959693  0.750000  1
  Tc  Tc12  1  0.039305  0.883480  0.250000  1
  Tc  Tc13  1  0.460964  0.383789  0.250000  1
  Os  Os14  1  0.959797  0.118235  0.750000  1
  Os  Os15  1  0.540177  0.618193  0.750000  1
