# generated using pymatgen
data_PaI19
_symmetry_space_group_name_H-M   'P 1'
_cell_length_a   8.99696083
_cell_length_b   9.47670453
_cell_length_c   17.49495858
_cell_angle_alpha   76.15536226
_cell_angle_beta   114.01184525
_cell_angle_gamma   89.04546145
_symmetry_Int_Tables_number   1
_chemical_formula_structural   PaI19
_chemical_formula_sum   'Pa1 I19'
_cell_volume   1311.99680144
_cell_formula_units_Z   1
loop_
 _symmetry_equiv_pos_site_id
 _symmetry_equiv_pos_as_xyz
  1  'x, y, z'
loop_
 _atom_site_type_symbol
 _atom_site_label
 _atom_site_symmetry_multiplicity
 _atom_site_fract_x
 _atom_site_fract_y
 _atom_site_fract_z
 _atom_site_occupancy
  Pa  Pa0  1  0.811869  0.909727  0.365947  1
  I  I1  1  0.108582  0.166163  0.889064  1
  I  I2  1  0.238739  0.154484  0.653199  1
  I  I3  1  0.950039  0.799212  0.120115  1
  I  I4  1  0.823923  0.894316  0.819813  1
  I  I5  1  0.871144  0.883676  0.545113  1
  I  I6  1  0.222115  0.975845  0.200408  1
  I  I7  1  0.975107  0.172700  0.364346  1
  I  I8  1  0.317568  0.381919  0.961386  1
  I  I9  1  0.531542  0.337609  0.729507  1
  I  I10  1  0.536621  0.598357  0.017917  1
  I  I11  1  0.615439  0.669339  0.363809  1
  I  I12  1  0.795700  0.483080  0.803180  1
  I  I13  1  0.531617  0.909692  0.684065  1
  I  I14  1  0.085295  0.600253  0.063995  1
  I  I15  1  0.483903  0.127947  0.294842  1
  I  I16  1  0.964160  0.352116  0.597042  1
  I  I17  1  0.321832  0.891681  0.947928  1
  I  I18  1  0.098003  0.713538  0.406354  1
  I  I19  1  0.716801  0.978348  0.171967  1
