# generated using pymatgen
data_CaLu2Zn11
_symmetry_space_group_name_H-M   'P 1'
_cell_length_a   8.13210963
_cell_length_b   8.13211122
_cell_length_c   8.13211060
_cell_angle_alpha   148.50186801
_cell_angle_beta   114.82398089
_cell_angle_gamma   74.18755324
_symmetry_Int_Tables_number   1
_chemical_formula_structural   CaLu2Zn11
_chemical_formula_sum   'Ca1 Lu2 Zn11'
_cell_volume   250.83793821
_cell_formula_units_Z   1
loop_
 _symmetry_equiv_pos_site_id
 _symmetry_equiv_pos_as_xyz
  1  'x, y, z'
loop_
 _atom_site_type_symbol
 _atom_site_label
 _atom_site_symmetry_multiplicity
 _atom_site_fract_x
 _atom_site_fract_y
 _atom_site_fract_z
 _atom_site_occupancy
  Ca  Ca0  1  0.000000  0.000000  0.000000  1
  Lu  Lu1  1  0.298161  0.298161  0.000000  1
  Lu  Lu2  1  0.701839  0.701839  0.000000  1
  Zn  Zn3  1  0.500000  0.000000  0.500000  1
  Zn  Zn4  1  0.680268  0.500000  0.180268  1
  Zn  Zn5  1  0.319732  0.500000  0.819732  1
  Zn  Zn6  1  0.692173  0.335978  0.356196  1
  Zn  Zn7  1  0.307827  0.664022  0.643804  1
  Zn  Zn8  1  0.979782  0.335978  0.643804  1
  Zn  Zn9  1  0.020218  0.664022  0.356196  1
  Zn  Zn10  1  0.423892  0.138205  0.285687  1
  Zn  Zn11  1  0.576108  0.861795  0.714313  1
  Zn  Zn12  1  0.852519  0.138205  0.714313  1
  Zn  Zn13  1  0.147481  0.861795  0.285687  1
