# generated using pymatgen
data_Nb4Ga3TcB
_symmetry_space_group_name_H-M   'P 1'
_cell_length_a   7.76035600
_cell_length_b   7.76035512
_cell_length_c   5.26105200
_cell_angle_alpha   90.00000000
_cell_angle_beta   90.00000000
_cell_angle_gamma   119.99999522
_symmetry_Int_Tables_number   1
_chemical_formula_structural   Nb4Ga3TcB
_chemical_formula_sum   'Nb8 Ga6 Tc2 B2'
_cell_volume   274.38886735
_cell_formula_units_Z   2
loop_
 _symmetry_equiv_pos_site_id
 _symmetry_equiv_pos_as_xyz
  1  'x, y, z'
loop_
 _atom_site_type_symbol
 _atom_site_label
 _atom_site_symmetry_multiplicity
 _atom_site_fract_x
 _atom_site_fract_y
 _atom_site_fract_z
 _atom_site_occupancy
  Nb  Nb0  1  0.243129  0.000000  0.259029  1
  Nb  Nb1  1  0.756871  0.000000  0.740971  1
  Nb  Nb2  1  0.000000  0.243129  0.259029  1
  Nb  Nb3  1  0.000000  0.756871  0.740971  1
  Nb  Nb4  1  0.756871  0.756871  0.259029  1
  Nb  Nb5  1  0.243129  0.243129  0.740971  1
  Nb  Nb6  1  0.666667  0.333333  0.500000  1
  Nb  Nb7  1  0.333333  0.666667  0.500000  1
  Ga  Ga8  1  0.597083  0.000000  0.234414  1
  Ga  Ga9  1  0.402917  0.000000  0.765586  1
  Ga  Ga10  1  0.000000  0.597083  0.234414  1
  Ga  Ga11  1  0.000000  0.402917  0.765586  1
  Ga  Ga12  1  0.402917  0.402917  0.234414  1
  Ga  Ga13  1  0.597083  0.597083  0.765586  1
  Tc  Tc14  1  0.333333  0.666667  0.000000  1
  Tc  Tc15  1  0.666667  0.333333  0.000000  1
  B  B16  1  0.000000  0.000000  0.000000  1
  B  B17  1  0.000000  0.000000  0.500000  1
