# generated using pymatgen
data_CeTm2(ThIr6)3
_symmetry_space_group_name_H-M   'P 1'
_cell_length_a   5.34566500
_cell_length_b   5.34566329
_cell_length_c   17.61631200
_cell_angle_alpha   90.00000000
_cell_angle_beta   90.00000000
_cell_angle_gamma   120.00000442
_symmetry_Int_Tables_number   1
_chemical_formula_structural   CeTm2(ThIr6)3
_chemical_formula_sum   'Ce1 Tm2 Th3 Ir18'
_cell_volume   435.96230965
_cell_formula_units_Z   1
loop_
 _symmetry_equiv_pos_site_id
 _symmetry_equiv_pos_as_xyz
  1  'x, y, z'
loop_
 _atom_site_type_symbol
 _atom_site_label
 _atom_site_symmetry_multiplicity
 _atom_site_fract_x
 _atom_site_fract_y
 _atom_site_fract_z
 _atom_site_occupancy
  Ce  Ce0  1  0.333333  0.666667  0.543275  1
  Tm  Tm1  1  0.333333  0.666667  0.961445  1
  Tm  Tm2  1  0.666667  0.333333  0.037714  1
  Th  Th3  1  0.666667  0.333333  0.459822  1
  Th  Th4  1  0.333333  0.666667  0.753940  1
  Th  Th5  1  0.666667  0.333333  0.245710  1
  Ir  Ir6  1  0.167378  0.832622  0.372377  1
  Ir  Ir7  1  0.167378  0.334756  0.372377  1
  Ir  Ir8  1  0.665244  0.832622  0.372377  1
  Ir  Ir9  1  0.832797  0.167203  0.627359  1
  Ir  Ir10  1  0.832797  0.665591  0.627359  1
  Ir  Ir11  1  0.334409  0.167203  0.627359  1
  Ir  Ir12  1  0.832494  0.167506  0.876053  1
  Ir  Ir13  1  0.832494  0.664986  0.876053  1
  Ir  Ir14  1  0.335014  0.167506  0.876053  1
  Ir  Ir15  1  0.167534  0.832466  0.123687  1
  Ir  Ir16  1  0.167534  0.335069  0.123687  1
  Ir  Ir17  1  0.664931  0.832466  0.123687  1
  Ir  Ir18  1  0.333333  0.666667  0.248885  1
  Ir  Ir19  1  0.666667  0.333333  0.750985  1
  Ir  Ir20  1  0.000000  0.000000  0.248049  1
  Ir  Ir21  1  0.000000  0.000000  0.751755  1
  Ir  Ir22  1  0.000000  0.000000  0.500204  1
  Ir  Ir23  1  0.000000  0.000000  0.999783  1
