# generated using pymatgen
data_YHo5ErCoI12
_symmetry_space_group_name_H-M   'P 1'
_cell_length_a   9.71626719
_cell_length_b   9.71704453
_cell_length_c   9.71330849
_cell_angle_alpha   106.77762274
_cell_angle_beta   106.77099703
_cell_angle_gamma   106.80140566
_symmetry_Int_Tables_number   1
_chemical_formula_structural   YHo5ErCoI12
_chemical_formula_sum   'Y1 Ho5 Er1 Co1 I12'
_cell_volume   768.21086654
_cell_formula_units_Z   1
loop_
 _symmetry_equiv_pos_site_id
 _symmetry_equiv_pos_as_xyz
  1  'x, y, z'
loop_
 _atom_site_type_symbol
 _atom_site_label
 _atom_site_symmetry_multiplicity
 _atom_site_fract_x
 _atom_site_fract_y
 _atom_site_fract_z
 _atom_site_occupancy
  Y  Y0  1  0.499944  0.499954  0.499865  1
  Ho  Ho1  1  0.286123  0.091320  0.020855  1
  Ho  Ho2  1  0.021055  0.286117  0.091025  1
  Ho  Ho3  1  0.091303  0.021097  0.286295  1
  Ho  Ho4  1  0.713766  0.908602  0.978777  1
  Ho  Ho5  1  0.978795  0.713788  0.908376  1
  Er  Er6  1  0.909411  0.979468  0.715894  1
  Co  Co7  1  0.999915  0.999876  0.999717  1
  I  I8  1  0.461989  0.159183  0.385062  1
  I  I9  1  0.385092  0.462070  0.159136  1
  I  I10  1  0.159142  0.385043  0.461986  1
  I  I11  1  0.538740  0.841001  0.614851  1
  I  I12  1  0.614900  0.537889  0.840707  1
  I  I13  1  0.840740  0.615524  0.537931  1
  I  I14  1  0.323587  0.775982  0.929498  1
  I  I15  1  0.929373  0.322801  0.775521  1
  I  I16  1  0.776240  0.929708  0.324015  1
  I  I17  1  0.676365  0.223951  0.070418  1
  I  I18  1  0.070490  0.676465  0.223881  1
  I  I19  1  0.223029  0.070158  0.676193  1
