# generated using pymatgen
data_NaSr9Si10O
_symmetry_space_group_name_H-M   'P 1'
_cell_length_a   11.26325874
_cell_length_b   11.26325831
_cell_length_c   11.26325800
_cell_angle_alpha   155.47638664
_cell_angle_beta   110.52529185
_cell_angle_gamma   74.90554535
_symmetry_Int_Tables_number   1
_chemical_formula_structural   NaSr9Si10O
_chemical_formula_sum   'Na1 Sr9 Si10 O1'
_cell_volume   549.08435982
_cell_formula_units_Z   1
loop_
 _symmetry_equiv_pos_site_id
 _symmetry_equiv_pos_as_xyz
  1  'x, y, z'
loop_
 _atom_site_type_symbol
 _atom_site_label
 _atom_site_symmetry_multiplicity
 _atom_site_fract_x
 _atom_site_fract_y
 _atom_site_fract_z
 _atom_site_occupancy
  Na  Na0  1  0.000000  0.500000  0.500000  1
  Sr  Sr1  1  0.855978  0.855978  0.000000  1
  Sr  Sr2  1  0.190296  0.000000  0.190296  1
  Sr  Sr3  1  0.473991  0.810112  0.663877  1
  Sr  Sr4  1  0.853765  0.189888  0.663877  1
  Sr  Sr5  1  0.809704  0.000000  0.809704  1
  Sr  Sr6  1  0.144022  0.144022  0.000000  1
  Sr  Sr7  1  0.526009  0.189888  0.336123  1
  Sr  Sr8  1  0.500000  0.000000  0.500000  1
  Sr  Sr9  1  0.146235  0.810112  0.336123  1
  Si  Si10  1  0.410740  0.567007  0.843733  1
  Si  Si11  1  0.276726  0.432993  0.843733  1
  Si  Si12  1  0.589260  0.432993  0.156267  1
  Si  Si13  1  0.723274  0.567007  0.156267  1
  Si  Si14  1  0.683893  0.368189  0.315703  1
  Si  Si15  1  0.638786  0.638786  0.000000  1
  Si  Si16  1  0.316107  0.631811  0.684297  1
  Si  Si17  1  0.361214  0.361214  0.000000  1
  Si  Si18  1  0.052486  0.368189  0.684297  1
  Si  Si19  1  0.947514  0.631811  0.315703  1
  O  O20  1  0.000000  0.000000  0.000000  1
