# generated using pymatgen
data_Li6Pr8Ag2Sn5Bi3
_symmetry_space_group_name_H-M   'P 1'
_cell_length_a   9.66603078
_cell_length_b   9.66214746
_cell_length_c   7.71827955
_cell_angle_alpha   89.99999705
_cell_angle_beta   89.96252385
_cell_angle_gamma   119.98671647
_symmetry_Int_Tables_number   1
_chemical_formula_structural   Li6Pr8Ag2Sn5Bi3
_chemical_formula_sum   'Li6 Pr8 Ag2 Sn5 Bi3'
_cell_volume   624.35409345
_cell_formula_units_Z   1
loop_
 _symmetry_equiv_pos_site_id
 _symmetry_equiv_pos_as_xyz
  1  'x, y, z'
loop_
 _atom_site_type_symbol
 _atom_site_label
 _atom_site_symmetry_multiplicity
 _atom_site_fract_x
 _atom_site_fract_y
 _atom_site_fract_z
 _atom_site_occupancy
  Li  Li0  1  0.332357  0.166177  0.720575  1
  Li  Li1  1  0.168957  0.831631  0.212683  1
  Li  Li2  1  0.168957  0.337327  0.212683  1
  Li  Li3  1  0.662827  0.831414  0.213003  1
  Li  Li4  1  0.666041  0.333020  0.330535  1
  Li  Li5  1  0.331507  0.665754  0.824820  1
  Pr  Pr6  1  0.487905  0.514086  0.509032  1
  Pr  Pr7  1  0.487905  0.973817  0.509032  1
  Pr  Pr8  1  0.024810  0.512404  0.512653  1
  Pr  Pr9  1  0.511313  0.492090  0.002063  1
  Pr  Pr10  1  0.511313  0.019222  0.002063  1
  Pr  Pr11  1  0.979374  0.489687  0.997584  1
  Pr  Pr12  1  0.999952  0.999976  0.507511  1
  Pr  Pr13  1  0.996274  0.998137  0.989169  1
  Ag  Ag14  1  0.834567  0.167728  0.723326  1
  Ag  Ag15  1  0.834567  0.666837  0.723326  1
  Sn  Sn16  1  0.173830  0.836690  0.768017  1
  Sn  Sn17  1  0.173830  0.337141  0.768017  1
  Sn  Sn18  1  0.658614  0.829307  0.769321  1
  Sn  Sn19  1  0.658984  0.329491  0.735787  1
  Sn  Sn20  1  0.332971  0.666486  0.236319  1
  Bi  Bi21  1  0.835313  0.167531  0.263116  1
  Bi  Bi22  1  0.835313  0.667783  0.263116  1
  Bi  Bi23  1  0.332521  0.166261  0.264255  1
