# generated using pymatgen
data_YbEr(MnB4)2
_symmetry_space_group_name_H-M   'P 1'
_cell_length_a   3.37131700
_cell_length_b   5.89432915
_cell_length_c   11.39498429
_cell_angle_alpha   89.97416346
_cell_angle_beta   90.00000000
_cell_angle_gamma   90.00000000
_symmetry_Int_Tables_number   1
_chemical_formula_structural   YbEr(MnB4)2
_chemical_formula_sum   'Yb2 Er2 Mn4 B16'
_cell_volume   226.43714008
_cell_formula_units_Z   2
loop_
 _symmetry_equiv_pos_site_id
 _symmetry_equiv_pos_as_xyz
  1  'x, y, z'
loop_
 _atom_site_type_symbol
 _atom_site_label
 _atom_site_symmetry_multiplicity
 _atom_site_fract_x
 _atom_site_fract_y
 _atom_site_fract_z
 _atom_site_occupancy
  Yb  Yb0  1  0.000000  0.625690  0.349788  1
  Yb  Yb1  1  0.000000  0.374310  0.650212  1
  Er  Er2  1  0.000000  0.126794  0.151262  1
  Er  Er3  1  0.000000  0.873206  0.848738  1
  Mn  Mn4  1  0.000000  0.626658  0.082516  1
  Mn  Mn5  1  0.000000  0.373342  0.917484  1
  Mn  Mn6  1  0.000000  0.122797  0.419868  1
  Mn  Mn7  1  0.000000  0.877203  0.580132  1
  B  B8  1  0.500000  0.780592  0.183883  1
  B  B9  1  0.500000  0.219408  0.816117  1
  B  B10  1  0.500000  0.280758  0.317119  1
  B  B11  1  0.500000  0.719242  0.682881  1
  B  B12  1  0.500000  0.862145  0.032154  1
  B  B13  1  0.500000  0.137855  0.967846  1
  B  B14  1  0.500000  0.362100  0.467161  1
  B  B15  1  0.500000  0.637900  0.532839  1
  B  B16  1  0.500000  0.886512  0.453384  1
  B  B17  1  0.500000  0.113488  0.546616  1
  B  B18  1  0.500000  0.387836  0.046835  1
  B  B19  1  0.500000  0.612164  0.953165  1
  B  B20  1  0.500000  0.976803  0.309241  1
  B  B21  1  0.500000  0.023197  0.690759  1
  B  B22  1  0.500000  0.475231  0.191494  1
  B  B23  1  0.500000  0.524769  0.808506  1
