# generated using pymatgen
data_Dy3Y5CdNiAgRh
_symmetry_space_group_name_H-M   'P 1'
_cell_length_a   9.51945963
_cell_length_b   9.53290261
_cell_length_c   9.52386000
_cell_angle_alpha   59.93804223
_cell_angle_beta   60.07813371
_cell_angle_gamma   60.03691651
_symmetry_Int_Tables_number   1
_chemical_formula_structural   Dy3Y5CdNiAgRh
_chemical_formula_sum   'Dy6 Y10 Cd2 Ni2 Ag2 Rh2'
_cell_volume   611.37586774
_cell_formula_units_Z   2
loop_
 _symmetry_equiv_pos_site_id
 _symmetry_equiv_pos_as_xyz
  1  'x, y, z'
loop_
 _atom_site_type_symbol
 _atom_site_label
 _atom_site_symmetry_multiplicity
 _atom_site_fract_x
 _atom_site_fract_y
 _atom_site_fract_z
 _atom_site_occupancy
  Dy  Dy0  1  0.599628  0.600219  0.595884  1
  Dy  Dy1  1  0.600219  0.599628  0.204269  1
  Dy  Dy2  1  0.606212  0.197939  0.597522  1
  Dy  Dy3  1  0.197939  0.606212  0.598328  1
  Dy  Dy4  1  0.058300  0.439062  0.439479  1
  Dy  Dy5  1  0.439062  0.058300  0.063158  1
  Y  Y6  1  0.438808  0.058121  0.439714  1
  Y  Y7  1  0.058121  0.438808  0.063357  1
  Y  Y8  1  0.439452  0.439452  0.060548  1
  Y  Y9  1  0.060891  0.060891  0.439109  1
  Y  Y10  1  0.183477  0.813251  0.815858  1
  Y  Y11  1  0.813251  0.183477  0.187413  1
  Y  Y12  1  0.812765  0.184080  0.815346  1
  Y  Y13  1  0.184080  0.812765  0.187808  1
  Y  Y14  1  0.813670  0.813670  0.186330  1
  Y  Y15  1  0.186284  0.186284  0.813716  1
  Cd  Cd16  1  0.831176  0.509580  0.830003  1
  Cd  Cd17  1  0.509580  0.831176  0.829240  1
  Ni  Ni18  1  0.393573  0.821359  0.391205  1
  Ni  Ni19  1  0.821359  0.393573  0.393863  1
  Ag  Ag20  1  0.832875  0.832824  0.831433  1
  Ag  Ag21  1  0.832824  0.832875  0.502866  1
  Rh  Rh22  1  0.391752  0.394701  0.393937  1
  Rh  Rh23  1  0.394701  0.391752  0.819611  1
