# generated using pymatgen
data_Li3NdTmNi9As7
_symmetry_space_group_name_H-M   'P 1'
_cell_length_a   3.91334100
_cell_length_b   9.52018557
_cell_length_c   9.52018400
_cell_angle_alpha   119.99999456
_cell_angle_beta   90.00000000
_cell_angle_gamma   90.00000000
_symmetry_Int_Tables_number   1
_chemical_formula_structural   Li3NdTmNi9As7
_chemical_formula_sum   'Li3 Nd1 Tm1 Ni9 As7'
_cell_volume   307.16314412
_cell_formula_units_Z   1
loop_
 _symmetry_equiv_pos_site_id
 _symmetry_equiv_pos_as_xyz
  1  'x, y, z'
loop_
 _atom_site_type_symbol
 _atom_site_label
 _atom_site_symmetry_multiplicity
 _atom_site_fract_x
 _atom_site_fract_y
 _atom_site_fract_z
 _atom_site_occupancy
  Li  Li0  1  0.500000  0.789770  0.890177  1
  Li  Li1  1  0.500000  0.100408  0.210230  1
  Li  Li2  1  0.500000  0.109823  0.899592  1
  Nd  Nd3  1  0.000000  0.666667  0.333333  1
  Tm  Tm4  1  0.500000  0.333333  0.666667  1
  Ni  Ni5  1  0.000000  0.569449  0.941596  1
  Ni  Ni6  1  0.000000  0.372146  0.430551  1
  Ni  Ni7  1  0.000000  0.058404  0.627854  1
  Ni  Ni8  1  0.000000  0.875056  0.160070  1
  Ni  Ni9  1  0.000000  0.285015  0.124944  1
  Ni  Ni10  1  0.000000  0.839930  0.714985  1
  Ni  Ni11  1  0.500000  0.957922  0.392917  1
  Ni  Ni12  1  0.500000  0.434996  0.042078  1
  Ni  Ni13  1  0.500000  0.607083  0.565004  1
  As  As14  1  0.500000  0.712956  0.115960  1
  As  As15  1  0.500000  0.403005  0.287044  1
  As  As16  1  0.500000  0.884040  0.596995  1
  As  As17  1  0.000000  0.000000  0.000000  1
  As  As18  1  0.000000  0.586802  0.700445  1
  As  As19  1  0.000000  0.113642  0.413198  1
  As  As20  1  0.000000  0.299555  0.886358  1
