# generated using pymatgen
data_Tb13Dy3InHg3Ir4
_symmetry_space_group_name_H-M   'P 1'
_cell_length_a   9.64965690
_cell_length_b   9.64768531
_cell_length_c   9.63207318
_cell_angle_alpha   60.00081491
_cell_angle_beta   59.99278374
_cell_angle_gamma   60.04432041
_symmetry_Int_Tables_number   1
_chemical_formula_structural   Tb13Dy3InHg3Ir4
_chemical_formula_sum   'Tb13 Dy3 In1 Hg3 Ir4'
_cell_volume   634.25515088
_cell_formula_units_Z   1
loop_
 _symmetry_equiv_pos_site_id
 _symmetry_equiv_pos_as_xyz
  1  'x, y, z'
loop_
 _atom_site_type_symbol
 _atom_site_label
 _atom_site_symmetry_multiplicity
 _atom_site_fract_x
 _atom_site_fract_y
 _atom_site_fract_z
 _atom_site_occupancy
  Tb  Tb0  1  0.311265  0.690828  0.310181  1
  Tb  Tb1  1  0.938281  0.559487  0.559695  1
  Tb  Tb2  1  0.311961  0.312412  0.687386  1
  Tb  Tb3  1  0.099476  0.100099  0.099458  1
  Tb  Tb4  1  0.558643  0.558566  0.938148  1
  Tb  Tb5  1  0.101150  0.101098  0.698317  1
  Tb  Tb6  1  0.691034  0.310900  0.686497  1
  Tb  Tb7  1  0.689697  0.689184  0.309080  1
  Tb  Tb8  1  0.690662  0.311765  0.310109  1
  Tb  Tb9  1  0.310335  0.691135  0.686964  1
  Tb  Tb10  1  0.559609  0.937824  0.559794  1
  Tb  Tb11  1  0.699261  0.101042  0.100649  1
  Tb  Tb12  1  0.558304  0.942095  0.939831  1
  Dy  Dy13  1  0.100707  0.699789  0.100225  1
  Dy  Dy14  1  0.940351  0.939741  0.559446  1
  Dy  Dy15  1  0.942516  0.558177  0.939836  1
  In  In16  1  0.330152  0.330672  0.007079  1
  Hg  Hg17  1  0.334133  0.334333  0.334574  1
  Hg  Hg18  1  0.994036  0.335405  0.335021  1
  Hg  Hg19  1  0.335118  0.993999  0.335257  1
  Ir  Ir20  1  0.892826  0.891304  0.892242  1
  Ir  Ir21  1  0.893314  0.892543  0.324199  1
  Ir  Ir22  1  0.324717  0.891995  0.893202  1
  Ir  Ir23  1  0.892453  0.325605  0.892810  1
