# generated using pymatgen
data_SrPrTaFeO6
_symmetry_space_group_name_H-M   'P 1'
_cell_length_a   5.69065495
_cell_length_b   7.95378267
_cell_length_c   11.75254043
_cell_angle_alpha   90.01077517
_cell_angle_beta   90.02163716
_cell_angle_gamma   89.43546379
_symmetry_Int_Tables_number   1
_chemical_formula_structural   SrPrTaFeO6
_chemical_formula_sum   'Sr4 Pr4 Ta4 Fe4 O24'
_cell_volume   531.92035266
_cell_formula_units_Z   4
loop_
 _symmetry_equiv_pos_site_id
 _symmetry_equiv_pos_as_xyz
  1  'x, y, z'
loop_
 _atom_site_type_symbol
 _atom_site_label
 _atom_site_symmetry_multiplicity
 _atom_site_fract_x
 _atom_site_fract_y
 _atom_site_fract_z
 _atom_site_occupancy
  Sr  Sr0  1  0.990216  0.250231  0.021027  1
  Sr  Sr1  1  0.990910  0.250355  0.520977  1
  Sr  Sr2  1  0.490314  0.750304  0.228902  1
  Sr  Sr3  1  0.490231  0.750226  0.728932  1
  Pr  Pr4  1  0.515626  0.253604  0.280773  1
  Pr  Pr5  1  0.515756  0.253435  0.780852  1
  Pr  Pr6  1  0.014635  0.753563  0.469319  1
  Pr  Pr7  1  0.015782  0.753418  0.969287  1
  Ta  Ta8  1  0.999849  0.500131  0.247105  1
  Ta  Ta9  1  0.000082  0.500210  0.746964  1
  Ta  Ta10  1  0.499785  0.000106  0.502908  1
  Ta  Ta11  1  0.499936  0.000136  0.002961  1
  Fe  Fe12  1  0.000934  0.002051  0.747787  1
  Fe  Fe13  1  0.500950  0.502087  0.002201  1
  Fe  Fe14  1  0.000867  0.001897  0.247789  1
  Fe  Fe15  1  0.501192  0.501440  0.502425  1
  O  O16  1  0.602647  0.755799  0.011797  1
  O  O17  1  0.601360  0.755655  0.511604  1
  O  O18  1  0.102058  0.255627  0.238364  1
  O  O19  1  0.102282  0.255667  0.738163  1
  O  O20  1  0.210801  0.950455  0.093247  1
  O  O21  1  0.210712  0.950666  0.593194  1
  O  O22  1  0.710705  0.450790  0.156781  1
  O  O23  1  0.710449  0.450167  0.656585  1
  O  O24  1  0.181119  0.548770  0.104542  1
  O  O25  1  0.180387  0.549596  0.604780  1
  O  O26  1  0.680807  0.049202  0.145447  1
  O  O27  1  0.680933  0.048983  0.645352  1
  O  O28  1  0.925469  0.744735  0.263884  1
  O  O29  1  0.925049  0.744663  0.763946  1
  O  O30  1  0.425898  0.244911  0.486210  1
  O  O31  1  0.424969  0.244529  0.985994  1
  O  O32  1  0.275984  0.539655  0.350292  1
  O  O33  1  0.275573  0.539085  0.850033  1
  O  O34  1  0.775586  0.039353  0.399869  1
  O  O35  1  0.775537  0.039193  0.899893  1
  O  O36  1  0.298663  0.954806  0.364780  1
  O  O37  1  0.298481  0.954888  0.864636  1
  O  O38  1  0.799043  0.454530  0.385025  1
  O  O39  1  0.798413  0.455074  0.885374  1
