# generated using pymatgen
data_Tb8Lu12Si15Ge
_symmetry_space_group_name_H-M   'P 1'
_cell_length_a   7.31197440
_cell_length_b   7.60375004
_cell_length_c   14.39946704
_cell_angle_alpha   90.03628748
_cell_angle_beta   89.74118497
_cell_angle_gamma   90.05058074
_symmetry_Int_Tables_number   1
_chemical_formula_structural   Tb8Lu12Si15Ge
_chemical_formula_sum   'Tb8 Lu12 Si15 Ge1'
_cell_volume   800.57905925
_cell_formula_units_Z   1
loop_
 _symmetry_equiv_pos_site_id
 _symmetry_equiv_pos_as_xyz
  1  'x, y, z'
loop_
 _atom_site_type_symbol
 _atom_site_label
 _atom_site_symmetry_multiplicity
 _atom_site_fract_x
 _atom_site_fract_y
 _atom_site_fract_z
 _atom_site_occupancy
  Tb  Tb0  1  0.014053  0.176622  0.097341  1
  Tb  Tb1  1  0.986091  0.823582  0.902528  1
  Tb  Tb2  1  0.486487  0.676722  0.902453  1
  Tb  Tb3  1  0.985975  0.824073  0.597680  1
  Tb  Tb4  1  0.513764  0.323389  0.097502  1
  Tb  Tb5  1  0.012385  0.175983  0.402079  1
  Tb  Tb6  1  0.514003  0.322385  0.401807  1
  Tb  Tb7  1  0.489428  0.678045  0.597980  1
  Lu  Lu8  1  0.162527  0.507717  0.751036  1
  Lu  Lu9  1  0.837284  0.492125  0.250262  1
  Lu  Lu10  1  0.337597  0.007776  0.250060  1
  Lu  Lu11  1  0.662553  0.992227  0.749957  1
  Lu  Lu12  1  0.332167  0.174955  0.624592  1
  Lu  Lu13  1  0.668791  0.823212  0.376072  1
  Lu  Lu14  1  0.168018  0.677918  0.376302  1
  Lu  Lu15  1  0.669966  0.822132  0.123421  1
  Lu  Lu16  1  0.829793  0.323268  0.623465  1
  Lu  Lu17  1  0.329885  0.177300  0.876322  1
  Lu  Lu18  1  0.829652  0.322390  0.876320  1
  Lu  Lu19  1  0.169956  0.677756  0.123562  1
  Si  Si20  1  0.034595  0.111914  0.750094  1
  Si  Si21  1  0.965059  0.888922  0.249600  1
  Si  Si22  1  0.464502  0.611603  0.249649  1
  Si  Si23  1  0.534738  0.388819  0.750372  1
  Si  Si24  1  0.282651  0.871163  0.750381  1
  Si  Si25  1  0.717589  0.128011  0.249544  1
  Si  Si26  1  0.217192  0.371990  0.249843  1
  Si  Si27  1  0.783238  0.628463  0.750133  1
  Si  Si28  1  0.834331  0.534490  0.460042  1
  Si  Si29  1  0.340011  0.966701  0.460882  1
  Si  Si30  1  0.841959  0.532924  0.039072  1
  Si  Si31  1  0.660013  0.033645  0.539128  1
  Si  Si32  1  0.158004  0.466911  0.960979  1
  Si  Si33  1  0.657955  0.033143  0.960903  1
  Si  Si34  1  0.341877  0.966974  0.039125  1
  Ge  Ge35  1  0.165905  0.464752  0.539511  1
