# generated using pymatgen
data_ReTc4MoPd2
_symmetry_space_group_name_H-M   'P 1'
_cell_length_a   5.58419090
_cell_length_b   5.58419229
_cell_length_c   4.40707300
_cell_angle_alpha   90.00000000
_cell_angle_beta   90.00000000
_cell_angle_gamma   119.71947088
_symmetry_Int_Tables_number   1
_chemical_formula_structural   ReTc4MoPd2
_chemical_formula_sum   'Re1 Tc4 Mo1 Pd2'
_cell_volume   119.34994732
_cell_formula_units_Z   1
loop_
 _symmetry_equiv_pos_site_id
 _symmetry_equiv_pos_as_xyz
  1  'x, y, z'
loop_
 _atom_site_type_symbol
 _atom_site_label
 _atom_site_symmetry_multiplicity
 _atom_site_fract_x
 _atom_site_fract_y
 _atom_site_fract_z
 _atom_site_occupancy
  Re  Re0  1  0.842752  0.157248  0.750000  1
  Tc  Tc1  1  0.314117  0.159086  0.750000  1
  Tc  Tc2  1  0.840914  0.685883  0.750000  1
  Tc  Tc3  1  0.685733  0.842632  0.250000  1
  Tc  Tc4  1  0.157368  0.314267  0.250000  1
  Mo  Mo5  1  0.158075  0.841925  0.250000  1
  Pd  Pd6  1  0.666393  0.333607  0.250000  1
  Pd  Pd7  1  0.334649  0.665351  0.750000  1
