# generated using pymatgen
data_Sr13Pr7Si15As
_symmetry_space_group_name_H-M   'P 1'
_cell_length_a   8.18920156
_cell_length_b   8.21332657
_cell_length_c   15.54687418
_cell_angle_alpha   90.16410531
_cell_angle_beta   89.94981925
_cell_angle_gamma   90.01322487
_symmetry_Int_Tables_number   1
_chemical_formula_structural   Sr13Pr7Si15As
_chemical_formula_sum   'Sr13 Pr7 Si15 As1'
_cell_volume   1045.68716219
_cell_formula_units_Z   1
loop_
 _symmetry_equiv_pos_site_id
 _symmetry_equiv_pos_as_xyz
  1  'x, y, z'
loop_
 _atom_site_type_symbol
 _atom_site_label
 _atom_site_symmetry_multiplicity
 _atom_site_fract_x
 _atom_site_fract_y
 _atom_site_fract_z
 _atom_site_occupancy
  Sr  Sr0  1  0.307971  0.307841  0.000439  1
  Sr  Sr1  1  0.188945  0.809081  0.250193  1
  Sr  Sr2  1  0.812493  0.187752  0.751780  1
  Sr  Sr3  1  0.687697  0.690293  0.498393  1
  Sr  Sr4  1  0.372746  0.011801  0.450929  1
  Sr  Sr5  1  0.489146  0.873216  0.702773  1
  Sr  Sr6  1  0.512335  0.127106  0.202528  1
  Sr  Sr7  1  0.869654  0.485883  0.295813  1
  Sr  Sr8  1  0.127943  0.514184  0.798177  1
  Sr  Sr9  1  0.629021  0.984462  0.954215  1
  Sr  Sr10  1  0.011364  0.374645  0.545537  1
  Sr  Sr11  1  0.987964  0.628335  0.048239  1
  Sr  Sr12  1  0.132057  0.983044  0.875683  1
  Pr  Pr13  1  0.512152  0.626479  0.125984  1
  Pr  Pr14  1  0.491624  0.373669  0.624098  1
  Pr  Pr15  1  0.629199  0.514068  0.874608  1
  Pr  Pr16  1  0.370502  0.487991  0.375104  1
  Pr  Pr17  1  0.872504  0.011944  0.374876  1
  Pr  Pr18  1  0.986903  0.129012  0.125101  1
  Pr  Pr19  1  0.008133  0.869356  0.623855  1
  Si  Si20  1  0.352198  0.703568  0.951074  1
  Si  Si21  1  0.652931  0.290239  0.446903  1
  Si  Si22  1  0.706516  0.348169  0.054336  1
  Si  Si23  1  0.291065  0.655634  0.554155  1
  Si  Si24  1  0.791567  0.847151  0.198013  1
  Si  Si25  1  0.152553  0.208304  0.303683  1
  Si  Si26  1  0.838383  0.791067  0.798135  1
  Si  Si27  1  0.279610  0.909979  0.058652  1
  Si  Si28  1  0.587113  0.775502  0.305586  1
  Si  Si29  1  0.421191  0.227176  0.803220  1
  Si  Si30  1  0.774743  0.583903  0.692340  1
  Si  Si31  1  0.223002  0.412231  0.196548  1
  Si  Si32  1  0.725497  0.087613  0.555112  1
  Si  Si33  1  0.910458  0.284274  0.946050  1
  Si  Si34  1  0.085726  0.724287  0.446076  1
  As  As35  1  0.207091  0.160736  0.691794  1
