# generated using pymatgen
data_P3WO9
_symmetry_space_group_name_H-M   'P 1'
_cell_length_a   6.75241300
_cell_length_b   6.75241258
_cell_length_c   10.10380900
_cell_angle_alpha   90.00000000
_cell_angle_beta   90.00000000
_cell_angle_gamma   119.99999715
_symmetry_Int_Tables_number   1
_chemical_formula_structural   P3WO9
_chemical_formula_sum   'P6 W2 O18'
_cell_volume   398.96402778
_cell_formula_units_Z   2
loop_
 _symmetry_equiv_pos_site_id
 _symmetry_equiv_pos_as_xyz
  1  'x, y, z'
loop_
 _atom_site_type_symbol
 _atom_site_label
 _atom_site_symmetry_multiplicity
 _atom_site_fract_x
 _atom_site_fract_y
 _atom_site_fract_z
 _atom_site_occupancy
  P  P0  1  0.557169  0.944181  0.250000  1
  P  P1  1  0.055819  0.442831  0.750000  1
  P  P2  1  0.557169  0.612988  0.750000  1
  P  P3  1  0.387012  0.442831  0.250000  1
  P  P4  1  0.387012  0.944181  0.750000  1
  P  P5  1  0.055819  0.612988  0.250000  1
  W  W6  1  0.666667  0.333333  0.000000  1
  W  W7  1  0.666667  0.333333  0.500000  1
  O  O8  1  0.286202  0.855093  0.250000  1
  O  O9  1  0.932065  0.591837  0.377005  1
  O  O10  1  0.932065  0.340228  0.877005  1
  O  O11  1  0.659772  0.067935  0.122995  1
  O  O12  1  0.408163  0.340228  0.122995  1
  O  O13  1  0.568891  0.713798  0.250000  1
  O  O14  1  0.932065  0.591837  0.122995  1
  O  O15  1  0.659772  0.591837  0.622995  1
  O  O16  1  0.408163  0.340228  0.377005  1
  O  O17  1  0.932065  0.340228  0.622995  1
  O  O18  1  0.408163  0.067935  0.877005  1
  O  O19  1  0.144907  0.713798  0.750000  1
  O  O20  1  0.408163  0.067935  0.622995  1
  O  O21  1  0.659772  0.067935  0.377005  1
  O  O22  1  0.286202  0.431109  0.750000  1
  O  O23  1  0.144907  0.431109  0.250000  1
  O  O24  1  0.568891  0.855093  0.750000  1
  O  O25  1  0.659772  0.591837  0.877005  1
