# generated using pymatgen
data_TbY11Ga20
_symmetry_space_group_name_H-M   'P 1'
_cell_length_a   6.10604804
_cell_length_b   9.66914801
_cell_length_c   11.59828907
_cell_angle_alpha   90.00471101
_cell_angle_beta   90.01164552
_cell_angle_gamma   89.99658934
_symmetry_Int_Tables_number   1
_chemical_formula_structural   TbY11Ga20
_chemical_formula_sum   'Tb1 Y11 Ga20'
_cell_volume   684.76624221
_cell_formula_units_Z   1
loop_
 _symmetry_equiv_pos_site_id
 _symmetry_equiv_pos_as_xyz
  1  'x, y, z'
loop_
 _atom_site_type_symbol
 _atom_site_label
 _atom_site_symmetry_multiplicity
 _atom_site_fract_x
 _atom_site_fract_y
 _atom_site_fract_z
 _atom_site_occupancy
  Tb  Tb0  1  0.609406  0.509295  0.851198  1
  Y  Y1  1  0.849370  0.750063  0.075799  1
  Y  Y2  1  0.650725  0.749964  0.575699  1
  Y  Y3  1  0.150533  0.250044  0.924277  1
  Y  Y4  1  0.349340  0.250021  0.424183  1
  Y  Y5  1  0.890428  0.509354  0.351115  1
  Y  Y6  1  0.609667  0.990695  0.851176  1
  Y  Y7  1  0.109567  0.009393  0.648840  1
  Y  Y8  1  0.390410  0.490632  0.148991  1
  Y  Y9  1  0.109626  0.490586  0.648762  1
  Y  Y10  1  0.390328  0.009380  0.148890  1
  Y  Y11  1  0.890508  0.990562  0.351130  1
  Ga  Ga12  1  0.875167  0.054719  0.090420  1
  Ga  Ga13  1  0.624813  0.445221  0.590374  1
  Ga  Ga14  1  0.124499  0.554725  0.909598  1
  Ga  Ga15  1  0.375257  0.945265  0.409633  1
  Ga  Ga16  1  0.124825  0.945343  0.909598  1
  Ga  Ga17  1  0.375251  0.554774  0.409632  1
  Ga  Ga18  1  0.875228  0.445305  0.090263  1
  Ga  Ga19  1  0.624754  0.054723  0.590416  1
  Ga  Ga20  1  0.173090  0.749968  0.252871  1
  Ga  Ga21  1  0.327101  0.749985  0.752875  1
  Ga  Ga22  1  0.826984  0.250027  0.747062  1
  Ga  Ga23  1  0.673054  0.249900  0.247182  1
  Ga  Ga24  1  0.373006  0.750009  0.003725  1
  Ga  Ga25  1  0.127109  0.749958  0.503878  1
  Ga  Ga26  1  0.627052  0.249957  0.996279  1
  Ga  Ga27  1  0.872892  0.250007  0.496055  1
  Ga  Ga28  1  0.600750  0.749992  0.299825  1
  Ga  Ga29  1  0.899187  0.750036  0.799853  1
  Ga  Ga30  1  0.399352  0.250092  0.700237  1
  Ga  Ga31  1  0.100724  0.250005  0.200165  1
