# generated using pymatgen
data_Th4TaW3C8
_symmetry_space_group_name_H-M   'P 1'
_cell_length_a   3.49019800
_cell_length_b   5.92325449
_cell_length_c   11.17320331
_cell_angle_alpha   89.96244130
_cell_angle_beta   90.00000000
_cell_angle_gamma   90.00000000
_symmetry_Int_Tables_number   1
_chemical_formula_structural   Th4TaW3C8
_chemical_formula_sum   'Th4 Ta1 W3 C8'
_cell_volume   230.98728053
_cell_formula_units_Z   1
loop_
 _symmetry_equiv_pos_site_id
 _symmetry_equiv_pos_as_xyz
  1  'x, y, z'
loop_
 _atom_site_type_symbol
 _atom_site_label
 _atom_site_symmetry_multiplicity
 _atom_site_fract_x
 _atom_site_fract_y
 _atom_site_fract_z
 _atom_site_occupancy
  Th  Th0  1  0.250000  0.084712  0.859303  1
  Th  Th1  1  0.250000  0.582796  0.638302  1
  Th  Th2  1  0.750000  0.916353  0.140126  1
  Th  Th3  1  0.750000  0.416317  0.362098  1
  Ta  Ta4  1  0.250000  0.415308  0.107504  1
  W  W5  1  0.250000  0.915419  0.395439  1
  W  W6  1  0.750000  0.586024  0.889895  1
  W  W7  1  0.750000  0.084459  0.606876  1
  C  C8  1  0.250000  0.163279  0.250913  1
  C  C9  1  0.250000  0.669063  0.256122  1
  C  C10  1  0.750000  0.833706  0.751509  1
  C  C11  1  0.750000  0.334468  0.746451  1
  C  C12  1  0.250000  0.715846  0.980351  1
  C  C13  1  0.250000  0.213827  0.519164  1
  C  C14  1  0.750000  0.283112  0.013032  1
  C  C15  1  0.750000  0.785313  0.482910  1
