# generated using pymatgen
data_ErLu2Th3Si4
_symmetry_space_group_name_H-M   'P 1'
_cell_length_a   7.52909967
_cell_length_b   7.52909967
_cell_length_c   4.26260900
_cell_angle_alpha   90.00000000
_cell_angle_beta   90.00000000
_cell_angle_gamma   90.34775825
_symmetry_Int_Tables_number   1
_chemical_formula_structural   ErLu2Th3Si4
_chemical_formula_sum   'Er1 Lu2 Th3 Si4'
_cell_volume   241.63152274
_cell_formula_units_Z   1
loop_
 _symmetry_equiv_pos_site_id
 _symmetry_equiv_pos_as_xyz
  1  'x, y, z'
loop_
 _atom_site_type_symbol
 _atom_site_label
 _atom_site_symmetry_multiplicity
 _atom_site_fract_x
 _atom_site_fract_y
 _atom_site_fract_z
 _atom_site_occupancy
  Er  Er0  1  0.675381  0.175381  0.500000  1
  Lu  Lu1  1  0.501426  0.500422  0.000000  1
  Lu  Lu2  1  0.000422  0.001426  0.000000  1
  Th  Th3  1  0.324289  0.824289  0.500000  1
  Th  Th4  1  0.177475  0.320289  0.500000  1
  Th  Th5  1  0.820289  0.677475  0.500000  1
  Si  Si6  1  0.118261  0.618261  0.000000  1
  Si  Si7  1  0.876397  0.376397  0.000000  1
  Si  Si8  1  0.620496  0.885565  0.000000  1
  Si  Si9  1  0.385565  0.120496  0.000000  1
