# generated using pymatgen
data_Li4B4Ir3Rh
_symmetry_space_group_name_H-M   'P 1'
_cell_length_a   6.99062856
_cell_length_b   6.09255326
_cell_length_c   5.54249317
_cell_angle_alpha   73.68720814
_cell_angle_beta   56.76669176
_cell_angle_gamma   49.68826101
_symmetry_Int_Tables_number   1
_chemical_formula_structural   Li4B4Ir3Rh
_chemical_formula_sum   'Li4 B4 Ir3 Rh1'
_cell_volume   149.55528345
_cell_formula_units_Z   1
loop_
 _symmetry_equiv_pos_site_id
 _symmetry_equiv_pos_as_xyz
  1  'x, y, z'
loop_
 _atom_site_type_symbol
 _atom_site_label
 _atom_site_symmetry_multiplicity
 _atom_site_fract_x
 _atom_site_fract_y
 _atom_site_fract_z
 _atom_site_occupancy
  Li  Li0  1  0.124962  0.624096  0.623572  1
  Li  Li1  1  0.626005  0.624584  0.624734  1
  Li  Li2  1  0.624584  0.626005  0.124677  1
  Li  Li3  1  0.624096  0.124962  0.627370  1
  B  B4  1  0.430523  0.067045  0.424924  1
  B  B5  1  0.173703  0.826489  0.175682  1
  B  B6  1  0.067045  0.430523  0.077507  1
  B  B7  1  0.826489  0.173703  0.824126  1
  Ir  Ir8  1  0.867695  0.867695  0.132305  1
  Ir  Ir9  1  0.134183  0.134183  0.865817  1
  Ir  Ir10  1  0.117503  0.117503  0.382497  1
  Rh  Rh11  1  0.383212  0.383212  0.116788  1
