# generated using pymatgen
data_Zr3AlGa2Pt3
_symmetry_space_group_name_H-M   'P 1'
_cell_length_a   7.17611318
_cell_length_b   7.20931344
_cell_length_c   7.21715489
_cell_angle_alpha   89.99999629
_cell_angle_beta   89.79670316
_cell_angle_gamma   120.15315786
_symmetry_Int_Tables_number   1
_chemical_formula_structural   Zr3AlGa2Pt3
_chemical_formula_sum   'Zr6 Al2 Ga4 Pt6'
_cell_volume   322.85228325
_cell_formula_units_Z   2
loop_
 _symmetry_equiv_pos_site_id
 _symmetry_equiv_pos_as_xyz
  1  'x, y, z'
loop_
 _atom_site_type_symbol
 _atom_site_label
 _atom_site_symmetry_multiplicity
 _atom_site_fract_x
 _atom_site_fract_y
 _atom_site_fract_z
 _atom_site_occupancy
  Zr  Zr0  1  0.387151  0.409860  0.749440  1
  Zr  Zr1  1  0.022365  0.610000  0.748675  1
  Zr  Zr2  1  0.590198  0.977936  0.749484  1
  Zr  Zr3  1  0.612849  0.022710  0.250560  1
  Zr  Zr4  1  0.977635  0.587635  0.251325  1
  Zr  Zr5  1  0.409802  0.387738  0.250516  1
  Al  Al6  1  0.254903  0.997723  0.999903  1
  Al  Al7  1  0.745097  0.742820  0.000097  1
  Ga  Ga8  1  0.000000  0.263295  0.000000  1
  Ga  Ga9  1  0.730000  0.729729  0.500064  1
  Ga  Ga10  1  0.270000  0.999728  0.499936  1
  Ga  Ga11  1  0.000000  0.268087  0.500000  1
  Pt  Pt12  1  0.661298  0.334114  0.969710  1
  Pt  Pt13  1  0.999880  0.997566  0.745778  1
  Pt  Pt14  1  0.666910  0.333733  0.532424  1
  Pt  Pt15  1  0.333090  0.666824  0.467576  1
  Pt  Pt16  1  0.338702  0.672817  0.030290  1
  Pt  Pt17  1  0.000120  0.997686  0.254222  1
