# generated using pymatgen
data_Rb2LiAsS4
_symmetry_space_group_name_H-M   'P 1'
_cell_length_a   13.66001034
_cell_length_b   12.23272762
_cell_length_c   7.40197627
_cell_angle_alpha   84.34867008
_cell_angle_beta   63.01953966
_cell_angle_gamma   32.63179570
_symmetry_Int_Tables_number   1
_chemical_formula_structural   Rb2LiAsS4
_chemical_formula_sum   'Rb4 Li2 As2 S8'
_cell_volume   479.83012377
_cell_formula_units_Z   2
loop_
 _symmetry_equiv_pos_site_id
 _symmetry_equiv_pos_as_xyz
  1  'x, y, z'
loop_
 _atom_site_type_symbol
 _atom_site_label
 _atom_site_symmetry_multiplicity
 _atom_site_fract_x
 _atom_site_fract_y
 _atom_site_fract_z
 _atom_site_occupancy
  Rb  Rb0  1  0.678441  0.678441  0.321559  1
  Rb  Rb1  1  0.928441  0.928441  0.571559  1
  Rb  Rb2  1  0.571559  0.571559  0.928441  1
  Rb  Rb3  1  0.321559  0.321559  0.678441  1
  Li  Li4  1  0.000000  0.000000  0.000000  1
  Li  Li5  1  0.250000  0.250000  0.250000  1
  As  As6  1  0.500000  0.500000  0.500000  1
  As  As7  1  0.750000  0.750000  0.750000  1
  S  S8  1  0.924397  0.680566  0.388530  1
  S  S9  1  0.325603  0.569434  0.861470  1
  S  S10  1  0.680566  0.924397  0.006506  1
  S  S11  1  0.861470  0.243494  0.325603  1
  S  S12  1  0.569434  0.325603  0.243494  1
  S  S13  1  0.243494  0.861470  0.569434  1
  S  S14  1  0.388530  0.006506  0.924397  1
  S  S15  1  0.006506  0.388530  0.680566  1
