# generated using pymatgen
data_Tb8Dy12Si15Ir
_symmetry_space_group_name_H-M   'P 1'
_cell_length_a   7.37354914
_cell_length_b   7.76374627
_cell_length_c   14.62856900
_cell_angle_alpha   90.00000000
_cell_angle_beta   90.00000000
_cell_angle_gamma   90.00119731
_symmetry_Int_Tables_number   1
_chemical_formula_structural   Tb8Dy12Si15Ir
_chemical_formula_sum   'Tb8 Dy12 Si15 Ir1'
_cell_volume   837.43239537
_cell_formula_units_Z   1
loop_
 _symmetry_equiv_pos_site_id
 _symmetry_equiv_pos_as_xyz
  1  'x, y, z'
loop_
 _atom_site_type_symbol
 _atom_site_label
 _atom_site_symmetry_multiplicity
 _atom_site_fract_x
 _atom_site_fract_y
 _atom_site_fract_z
 _atom_site_occupancy
  Tb  Tb0  1  0.020706  0.184937  0.096679  1
  Tb  Tb1  1  0.982702  0.823279  0.905133  1
  Tb  Tb2  1  0.480692  0.681226  0.905323  1
  Tb  Tb3  1  0.982702  0.823279  0.594867  1
  Tb  Tb4  1  0.519672  0.318775  0.095915  1
  Tb  Tb5  1  0.020706  0.184937  0.403321  1
  Tb  Tb6  1  0.519672  0.318775  0.404085  1
  Tb  Tb7  1  0.480692  0.681226  0.594677  1
  Dy  Dy8  1  0.152766  0.516139  0.750000  1
  Dy  Dy9  1  0.842404  0.485280  0.250000  1
  Dy  Dy10  1  0.343011  0.016872  0.250000  1
  Dy  Dy11  1  0.665172  0.985543  0.750000  1
  Dy  Dy12  1  0.315186  0.175313  0.626397  1
  Dy  Dy13  1  0.677786  0.822113  0.376368  1
  Dy  Dy14  1  0.176174  0.681529  0.376598  1
  Dy  Dy15  1  0.677786  0.822113  0.123632  1
  Dy  Dy16  1  0.831988  0.315341  0.625793  1
  Dy  Dy17  1  0.315186  0.175313  0.873603  1
  Dy  Dy18  1  0.831988  0.315341  0.874207  1
  Dy  Dy19  1  0.176174  0.681529  0.123402  1
  Si  Si20  1  0.970500  0.896892  0.250000  1
  Si  Si21  1  0.471576  0.607096  0.250000  1
  Si  Si22  1  0.526957  0.397740  0.750000  1
  Si  Si23  1  0.276784  0.866295  0.750000  1
  Si  Si24  1  0.724832  0.127346  0.250000  1
  Si  Si25  1  0.226276  0.374728  0.250000  1
  Si  Si26  1  0.765323  0.621939  0.750000  1
  Si  Si27  1  0.153768  0.471989  0.538024  1
  Si  Si28  1  0.849219  0.530490  0.462062  1
  Si  Si29  1  0.348614  0.971249  0.461488  1
  Si  Si30  1  0.849219  0.530490  0.037938  1
  Si  Si31  1  0.648683  0.030368  0.538510  1
  Si  Si32  1  0.153768  0.471989  0.961976  1
  Si  Si33  1  0.648683  0.030368  0.961490  1
  Si  Si34  1  0.348614  0.971249  0.038512  1
  Ir  Ir35  1  0.024014  0.090911  0.750000  1
