# generated using pymatgen
data_Nb2RuI12
_symmetry_space_group_name_H-M   'P 1'
_cell_length_a   9.86803331
_cell_length_b   9.86803244
_cell_length_c   7.62247009
_cell_angle_alpha   70.46701208
_cell_angle_beta   70.46702387
_cell_angle_gamma   82.42266198
_symmetry_Int_Tables_number   1
_chemical_formula_structural   Nb2RuI12
_chemical_formula_sum   'Nb2 Ru1 I12'
_cell_volume   659.11597067
_cell_formula_units_Z   1
loop_
 _symmetry_equiv_pos_site_id
 _symmetry_equiv_pos_as_xyz
  1  'x, y, z'
loop_
 _atom_site_type_symbol
 _atom_site_label
 _atom_site_symmetry_multiplicity
 _atom_site_fract_x
 _atom_site_fract_y
 _atom_site_fract_z
 _atom_site_occupancy
  Nb  Nb0  1  0.254693  0.254693  0.753293  1
  Nb  Nb1  1  0.745307  0.745307  0.246707  1
  Ru  Ru2  1  0.000000  0.000000  0.000000  1
  I  I3  1  0.965609  0.259083  0.745021  1
  I  I4  1  0.259083  0.965609  0.745021  1
  I  I5  1  0.034391  0.740917  0.254979  1
  I  I6  1  0.740917  0.034391  0.254979  1
  I  I7  1  0.215286  0.521052  0.791414  1
  I  I8  1  0.521052  0.215286  0.791414  1
  I  I9  1  0.784714  0.478948  0.208586  1
  I  I10  1  0.478948  0.784714  0.208586  1
  I  I11  1  0.128319  0.128319  0.164943  1
  I  I12  1  0.871681  0.871681  0.835057  1
  I  I13  1  0.647933  0.647933  0.643999  1
  I  I14  1  0.352067  0.352067  0.356001  1
