# generated using pymatgen
data_DyTm(AgPb)2
_symmetry_space_group_name_H-M   'P 1'
_cell_length_a   4.81740300
_cell_length_b   4.81740429
_cell_length_c   7.45183500
_cell_angle_alpha   90.00000000
_cell_angle_beta   90.00000000
_cell_angle_gamma   120.00001175
_symmetry_Int_Tables_number   1
_chemical_formula_structural   DyTm(AgPb)2
_chemical_formula_sum   'Dy1 Tm1 Ag2 Pb2'
_cell_volume   149.76829442
_cell_formula_units_Z   1
loop_
 _symmetry_equiv_pos_site_id
 _symmetry_equiv_pos_as_xyz
  1  'x, y, z'
loop_
 _atom_site_type_symbol
 _atom_site_label
 _atom_site_symmetry_multiplicity
 _atom_site_fract_x
 _atom_site_fract_y
 _atom_site_fract_z
 _atom_site_occupancy
  Dy  Dy0  1  0.000000  0.000000  0.503471  1
  Tm  Tm1  1  0.000000  0.000000  0.002813  1
  Ag  Ag2  1  0.333333  0.666667  0.822569  1
  Ag  Ag3  1  0.666667  0.333333  0.320950  1
  Pb  Pb4  1  0.333333  0.666667  0.225762  1
  Pb  Pb5  1  0.666667  0.333333  0.727436  1
