# generated using pymatgen
data_Ce4As3NO3
_symmetry_space_group_name_H-M   'P 1'
_cell_length_a   6.73547256
_cell_length_b   6.73548850
_cell_length_c   8.06247003
_cell_angle_alpha   90.00968798
_cell_angle_beta   89.99031225
_cell_angle_gamma   145.50259959
_symmetry_Int_Tables_number   1
_chemical_formula_structural   Ce4As3NO3
_chemical_formula_sum   'Ce4 As3 N1 O3'
_cell_volume   207.15939394
_cell_formula_units_Z   1
loop_
 _symmetry_equiv_pos_site_id
 _symmetry_equiv_pos_as_xyz
  1  'x, y, z'
loop_
 _atom_site_type_symbol
 _atom_site_label
 _atom_site_symmetry_multiplicity
 _atom_site_fract_x
 _atom_site_fract_y
 _atom_site_fract_z
 _atom_site_occupancy
  Ce  Ce0  1  0.313632  0.686360  0.236020  1
  Ce  Ce1  1  0.992666  0.007351  0.500007  1
  Ce  Ce2  1  0.000981  0.999024  0.000007  1
  Ce  Ce3  1  0.313607  0.686390  0.764020  1
  As  As4  1  0.637735  0.362268  0.674981  1
  As  As5  1  0.637752  0.362244  0.324966  1
  As  As6  1  0.686149  0.313854  0.000013  1
  N  N7  1  0.412641  0.587354  0.000013  1
  O  O8  1  0.906620  0.093383  0.750235  1
  O  O9  1  0.906643  0.093351  0.249759  1
  O  O10  1  0.389465  0.610531  0.499979  1
