# generated using pymatgen
data_Th8Be4Si11Ge
_symmetry_space_group_name_H-M   'P 1'
_cell_length_a   7.96655800
_cell_length_b   7.96655754
_cell_length_c   8.57735900
_cell_angle_alpha   90.00087743
_cell_angle_beta   89.99912257
_cell_angle_gamma   119.95630415
_symmetry_Int_Tables_number   1
_chemical_formula_structural   Th8Be4Si11Ge
_chemical_formula_sum   'Th8 Be4 Si11 Ge1'
_cell_volume   471.64658495
_cell_formula_units_Z   1
loop_
 _symmetry_equiv_pos_site_id
 _symmetry_equiv_pos_as_xyz
  1  'x, y, z'
loop_
 _atom_site_type_symbol
 _atom_site_label
 _atom_site_symmetry_multiplicity
 _atom_site_fract_x
 _atom_site_fract_y
 _atom_site_fract_z
 _atom_site_occupancy
  Th  Th0  1  0.000643  0.999355  0.748911  1
  Th  Th1  1  0.000611  0.999389  0.251065  1
  Th  Th2  1  0.499565  0.500437  0.749265  1
  Th  Th3  1  0.498319  0.998395  0.748527  1
  Th  Th4  1  0.001606  0.501684  0.748527  1
  Th  Th5  1  0.500232  0.499765  0.250749  1
  Th  Th6  1  0.000337  0.501041  0.251471  1
  Th  Th7  1  0.498956  0.999660  0.251471  1
  Be  Be8  1  0.663723  0.336276  0.998449  1
  Be  Be9  1  0.666675  0.333325  0.501543  1
  Be  Be10  1  0.333497  0.666503  0.498499  1
  Be  Be11  1  0.332539  0.667461  0.001593  1
  Si  Si12  1  0.827771  0.654144  0.999808  1
  Si  Si13  1  0.345856  0.172229  0.999807  1
  Si  Si14  1  0.827001  0.172999  0.500190  1
  Si  Si15  1  0.826667  0.653380  0.500188  1
  Si  Si16  1  0.346620  0.173333  0.500187  1
  Si  Si17  1  0.173053  0.826948  0.499808  1
  Si  Si18  1  0.653665  0.826626  0.499811  1
  Si  Si19  1  0.173374  0.346335  0.499812  1
  Si  Si20  1  0.173173  0.826827  0.000187  1
  Si  Si21  1  0.649999  0.820130  0.000175  1
  Si  Si22  1  0.179872  0.350002  0.000175  1
  Ge  Ge23  1  0.826245  0.173755  0.999781  1
