# generated using pymatgen
data_Y3TmOs5Ru3
_symmetry_space_group_name_H-M   'P 1'
_cell_length_a   5.33777033
_cell_length_b   5.18568845
_cell_length_c   8.99538330
_cell_angle_alpha   89.99418530
_cell_angle_beta   90.02785196
_cell_angle_gamma   119.43300965
_symmetry_Int_Tables_number   1
_chemical_formula_structural   Y3TmOs5Ru3
_chemical_formula_sum   'Y3 Tm1 Os5 Ru3'
_cell_volume   216.85507591
_cell_formula_units_Z   1
loop_
 _symmetry_equiv_pos_site_id
 _symmetry_equiv_pos_as_xyz
  1  'x, y, z'
loop_
 _atom_site_type_symbol
 _atom_site_label
 _atom_site_symmetry_multiplicity
 _atom_site_fract_x
 _atom_site_fract_y
 _atom_site_fract_z
 _atom_site_occupancy
  Y  Y0  1  0.668573  0.334790  0.566945  1
  Y  Y1  1  0.329314  0.664529  0.433259  1
  Y  Y2  1  0.329519  0.664570  0.065954  1
  Tm  Tm3  1  0.669503  0.335223  0.932969  1
  Os  Os4  1  0.171347  0.338644  0.751243  1
  Os  Os5  1  0.173669  0.831617  0.751193  1
  Os  Os6  1  0.657726  0.828794  0.751430  1
  Os  Os7  1  0.834918  0.664233  0.249135  1
  Os  Os8  1  0.833138  0.170441  0.249159  1
  Ru  Ru9  1  0.991554  0.996398  0.499508  1
  Ru  Ru10  1  0.990299  0.995610  0.000031  1
  Ru  Ru11  1  0.350441  0.175148  0.249175  1
