# generated using pymatgen
data_Pr5Nd11Cd4Os3Pt
_symmetry_space_group_name_H-M   'P 1'
_cell_length_a   9.98617927
_cell_length_b   10.04524378
_cell_length_c   10.04524291
_cell_angle_alpha   60.03013770
_cell_angle_beta   59.72505995
_cell_angle_gamma   59.72505793
_symmetry_Int_Tables_number   1
_chemical_formula_structural   Pr5Nd11Cd4Os3Pt
_chemical_formula_sum   'Pr5 Nd11 Cd4 Os3 Pt1'
_cell_volume   709.71813699
_cell_formula_units_Z   1
loop_
 _symmetry_equiv_pos_site_id
 _symmetry_equiv_pos_as_xyz
  1  'x, y, z'
loop_
 _atom_site_type_symbol
 _atom_site_label
 _atom_site_symmetry_multiplicity
 _atom_site_fract_x
 _atom_site_fract_y
 _atom_site_fract_z
 _atom_site_occupancy
  Pr  Pr0  1  0.554672  0.941104  0.941104  1
  Pr  Pr1  1  0.556994  0.937969  0.565178  1
  Pr  Pr2  1  0.937607  0.560609  0.938838  1
  Pr  Pr3  1  0.556994  0.565178  0.937969  1
  Pr  Pr4  1  0.937607  0.938838  0.560609  1
  Nd  Nd5  1  0.346308  0.349594  0.349594  1
  Nd  Nd6  1  0.343348  0.351295  0.957548  1
  Nd  Nd7  1  0.343348  0.957548  0.351295  1
  Nd  Nd8  1  0.963168  0.345428  0.345428  1
  Nd  Nd9  1  0.814563  0.190490  0.190490  1
  Nd  Nd10  1  0.188104  0.811003  0.811003  1
  Nd  Nd11  1  0.189492  0.810714  0.189242  1
  Nd  Nd12  1  0.814343  0.190903  0.803908  1
  Nd  Nd13  1  0.189492  0.189242  0.810714  1
  Nd  Nd14  1  0.814343  0.803908  0.190903  1
  Nd  Nd15  1  0.941498  0.557462  0.557462  1
  Cd  Cd16  1  0.579695  0.578926  0.578926  1
  Cd  Cd17  1  0.578972  0.579179  0.261815  1
  Cd  Cd18  1  0.578972  0.261815  0.579179  1
  Cd  Cd19  1  0.260555  0.579260  0.579260  1
  Os  Os20  1  0.145156  0.137655  0.137655  1
  Os  Os21  1  0.143080  0.140632  0.580875  1
  Os  Os22  1  0.143080  0.580875  0.140632  1
  Pt  Pt23  1  0.578608  0.140371  0.140371  1
