# generated using pymatgen
data_Er2Ga9NiIrRh
_symmetry_space_group_name_H-M   'P 1'
_cell_length_a   7.53459308
_cell_length_b   7.53459369
_cell_length_c   9.42135940
_cell_angle_alpha   89.98332947
_cell_angle_beta   89.98332914
_cell_angle_gamma   120.17856933
_symmetry_Int_Tables_number   1
_chemical_formula_structural   Er2Ga9NiIrRh
_chemical_formula_sum   'Er4 Ga18 Ni2 Ir2 Rh2'
_cell_volume   462.35918707
_cell_formula_units_Z   2
loop_
 _symmetry_equiv_pos_site_id
 _symmetry_equiv_pos_as_xyz
  1  'x, y, z'
loop_
 _atom_site_type_symbol
 _atom_site_label
 _atom_site_symmetry_multiplicity
 _atom_site_fract_x
 _atom_site_fract_y
 _atom_site_fract_z
 _atom_site_occupancy
  Er  Er0  1  0.995828  0.660191  0.249319  1
  Er  Er1  1  0.004172  0.339809  0.750681  1
  Er  Er2  1  0.660191  0.995828  0.249319  1
  Er  Er3  1  0.339809  0.004172  0.750681  1
  Ga  Ga4  1  0.109517  0.109517  0.250131  1
  Ga  Ga5  1  0.890483  0.890483  0.749869  1
  Ga  Ga6  1  0.998947  0.326948  0.078640  1
  Ga  Ga7  1  0.001053  0.673052  0.921360  1
  Ga  Ga8  1  0.002180  0.672560  0.577782  1
  Ga  Ga9  1  0.327440  0.997820  0.422218  1
  Ga  Ga10  1  0.997820  0.327440  0.422218  1
  Ga  Ga11  1  0.672560  0.002180  0.577782  1
  Ga  Ga12  1  0.673052  0.001053  0.921360  1
  Ga  Ga13  1  0.326948  0.998947  0.078640  1
  Ga  Ga14  1  0.327057  0.327057  0.566532  1
  Ga  Ga15  1  0.672943  0.672943  0.433468  1
  Ga  Ga16  1  0.672913  0.672913  0.066860  1
  Ga  Ga17  1  0.327087  0.327087  0.933140  1
  Ga  Ga18  1  0.335785  0.540226  0.250997  1
  Ga  Ga19  1  0.664215  0.459774  0.749003  1
  Ga  Ga20  1  0.540226  0.335785  0.250997  1
  Ga  Ga21  1  0.459774  0.664215  0.749003  1
  Ni  Ni22  1  0.000000  0.000000  0.000000  1
  Ni  Ni23  1  0.000000  0.000000  0.500000  1
  Ir  Ir24  1  0.671754  0.328246  0.000000  1
  Ir  Ir25  1  0.328246  0.671754  0.000000  1
  Rh  Rh26  1  0.329051  0.670949  0.500000  1
  Rh  Rh27  1  0.670949  0.329051  0.500000  1
