# generated using pymatgen
data_Hf18ReNi2MoW6
_symmetry_space_group_name_H-M   'P 1'
_cell_length_a   8.49669100
_cell_length_b   8.68692399
_cell_length_c   8.68064591
_cell_angle_alpha   120.06758462
_cell_angle_beta   90.00000000
_cell_angle_gamma   90.00000000
_symmetry_Int_Tables_number   1
_chemical_formula_structural   Hf18ReNi2MoW6
_chemical_formula_sum   'Hf18 Re1 Ni2 Mo1 W6'
_cell_volume   554.50102015
_cell_formula_units_Z   1
loop_
 _symmetry_equiv_pos_site_id
 _symmetry_equiv_pos_as_xyz
  1  'x, y, z'
loop_
 _atom_site_type_symbol
 _atom_site_label
 _atom_site_symmetry_multiplicity
 _atom_site_fract_x
 _atom_site_fract_y
 _atom_site_fract_z
 _atom_site_occupancy
  Hf  Hf0  1  0.557738  0.800170  0.600743  1
  Hf  Hf1  1  0.558296  0.800332  0.199297  1
  Hf  Hf2  1  0.558609  0.398983  0.199461  1
  Hf  Hf3  1  0.443100  0.199216  0.399077  1
  Hf  Hf4  1  0.442731  0.199600  0.799743  1
  Hf  Hf5  1  0.442292  0.600761  0.800373  1
  Hf  Hf6  1  0.056900  0.199216  0.399077  1
  Hf  Hf7  1  0.057269  0.199600  0.799743  1
  Hf  Hf8  1  0.057708  0.600761  0.800373  1
  Hf  Hf9  1  0.942262  0.800170  0.600743  1
  Hf  Hf10  1  0.941704  0.800332  0.199297  1
  Hf  Hf11  1  0.941391  0.398983  0.199461  1
  Hf  Hf12  1  0.750000  0.457733  0.915281  1
  Hf  Hf13  1  0.750000  0.456849  0.541920  1
  Hf  Hf14  1  0.750000  0.084925  0.541787  1
  Hf  Hf15  1  0.250000  0.543141  0.085044  1
  Hf  Hf16  1  0.250000  0.542794  0.457911  1
  Hf  Hf17  1  0.250000  0.915257  0.457445  1
  Re  Re18  1  0.750000  0.112262  0.224396  1
  Ni  Ni19  1  0.750000  0.666448  0.332987  1
  Ni  Ni20  1  0.250000  0.332830  0.666167  1
  Mo  Mo21  1  0.250000  0.223981  0.112541  1
  W  W22  1  0.750000  0.112524  0.888635  1
  W  W23  1  0.750000  0.776381  0.888695  1
  W  W24  1  0.250000  0.887336  0.775506  1
  W  W25  1  0.250000  0.888024  0.112292  1
  W  W26  1  0.500297  0.000695  0.001002  1
  W  W27  1  0.999703  0.000695  0.001002  1
