# generated using pymatgen
data_Ce10ZnSn3Sb4
_symmetry_space_group_name_H-M   'P 1'
_cell_length_a   9.59534300
_cell_length_b   9.59534343
_cell_length_c   6.55976100
_cell_angle_alpha   90.00000000
_cell_angle_beta   90.00000000
_cell_angle_gamma   120.00000198
_symmetry_Int_Tables_number   1
_chemical_formula_structural   Ce10ZnSn3Sb4
_chemical_formula_sum   'Ce10 Zn1 Sn3 Sb4'
_cell_volume   523.04573669
_cell_formula_units_Z   1
loop_
 _symmetry_equiv_pos_site_id
 _symmetry_equiv_pos_as_xyz
  1  'x, y, z'
loop_
 _atom_site_type_symbol
 _atom_site_label
 _atom_site_symmetry_multiplicity
 _atom_site_fract_x
 _atom_site_fract_y
 _atom_site_fract_z
 _atom_site_occupancy
  Ce  Ce0  1  0.000000  0.726809  0.754121  1
  Ce  Ce1  1  0.273191  0.273191  0.754121  1
  Ce  Ce2  1  0.333333  0.666667  0.499252  1
  Ce  Ce3  1  0.666667  0.333333  0.499252  1
  Ce  Ce4  1  0.723643  0.723643  0.245400  1
  Ce  Ce5  1  0.726809  0.000000  0.754121  1
  Ce  Ce6  1  0.000000  0.276357  0.245400  1
  Ce  Ce7  1  0.276357  0.000000  0.245400  1
  Ce  Ce8  1  0.333333  0.666667  0.000487  1
  Ce  Ce9  1  0.666667  0.333333  0.000487  1
  Zn  Zn10  1  0.000000  0.000000  0.007485  1
  Sn  Sn11  1  0.623076  0.000000  0.250560  1
  Sn  Sn12  1  0.376924  0.376924  0.250560  1
  Sn  Sn13  1  0.000000  0.623076  0.250560  1
  Sb  Sb14  1  0.620239  0.620239  0.749230  1
  Sb  Sb15  1  0.000000  0.379761  0.749230  1
  Sb  Sb16  1  0.379761  0.000000  0.749230  1
  Sb  Sb17  1  0.000000  0.000000  0.495099  1
