# generated using pymatgen
data_Er4S3N2
_symmetry_space_group_name_H-M   'P 1'
_cell_length_a   6.68115032
_cell_length_b   3.79168276
_cell_length_c   10.25002675
_cell_angle_alpha   90.00000156
_cell_angle_beta   50.68947119
_cell_angle_gamma   73.51528022
_symmetry_Int_Tables_number   1
_chemical_formula_structural   Er4S3N2
_chemical_formula_sum   'Er4 S3 N2'
_cell_volume   186.90769526
_cell_formula_units_Z   1
loop_
 _symmetry_equiv_pos_site_id
 _symmetry_equiv_pos_as_xyz
  1  'x, y, z'
loop_
 _atom_site_type_symbol
 _atom_site_label
 _atom_site_symmetry_multiplicity
 _atom_site_fract_x
 _atom_site_fract_y
 _atom_site_fract_z
 _atom_site_occupancy
  Er  Er0  1  0.224741  0.887630  0.648479  1
  Er  Er1  1  0.775259  0.112370  0.351521  1
  Er  Er2  1  0.581563  0.709219  0.145694  1
  Er  Er3  1  0.418437  0.290781  0.854306  1
  S  S4  1  0.000000  0.000000  0.000000  1
  S  S5  1  0.779742  0.610129  0.784186  1
  S  S6  1  0.220258  0.389871  0.215814  1
  N  N7  1  0.562802  0.718600  0.361822  1
  N  N8  1  0.437198  0.281400  0.638178  1
