# generated using pymatgen
data_Ho16Cd4TcNi3
_symmetry_space_group_name_H-M   'P 1'
_cell_length_a   9.56592811
_cell_length_b   9.56592856
_cell_length_c   9.56592824
_cell_angle_alpha   59.41889054
_cell_angle_beta   59.41888896
_cell_angle_gamma   59.41888935
_symmetry_Int_Tables_number   1
_chemical_formula_structural   Ho16Cd4TcNi3
_chemical_formula_sum   'Ho16 Cd4 Tc1 Ni3'
_cell_volume   610.78112434
_cell_formula_units_Z   1
loop_
 _symmetry_equiv_pos_site_id
 _symmetry_equiv_pos_as_xyz
  1  'x, y, z'
loop_
 _atom_site_type_symbol
 _atom_site_label
 _atom_site_symmetry_multiplicity
 _atom_site_fract_x
 _atom_site_fract_y
 _atom_site_fract_z
 _atom_site_occupancy
  Ho  Ho0  1  0.346810  0.346810  0.346810  1
  Ho  Ho1  1  0.351999  0.351999  0.953540  1
  Ho  Ho2  1  0.351999  0.953540  0.351999  1
  Ho  Ho3  1  0.953540  0.351999  0.351999  1
  Ho  Ho4  1  0.810561  0.187647  0.187647  1
  Ho  Ho5  1  0.187338  0.811165  0.811165  1
  Ho  Ho6  1  0.187647  0.810561  0.187647  1
  Ho  Ho7  1  0.811165  0.187338  0.811165  1
  Ho  Ho8  1  0.187647  0.187647  0.810561  1
  Ho  Ho9  1  0.811165  0.811165  0.187338  1
  Ho  Ho10  1  0.936085  0.565611  0.565611  1
  Ho  Ho11  1  0.555118  0.939469  0.939469  1
  Ho  Ho12  1  0.565611  0.936085  0.565611  1
  Ho  Ho13  1  0.939469  0.555118  0.939469  1
  Ho  Ho14  1  0.565611  0.565611  0.936085  1
  Ho  Ho15  1  0.939469  0.939469  0.555118  1
  Cd  Cd16  1  0.579801  0.579801  0.579801  1
  Cd  Cd17  1  0.579738  0.579738  0.255738  1
  Cd  Cd18  1  0.579738  0.255738  0.579738  1
  Cd  Cd19  1  0.255738  0.579738  0.579738  1
  Tc  Tc20  1  0.143724  0.143724  0.143724  1
  Ni  Ni21  1  0.142372  0.142372  0.575281  1
  Ni  Ni22  1  0.142372  0.575281  0.142372  1
  Ni  Ni23  1  0.575281  0.142372  0.142372  1
