# generated using pymatgen
data_Dy4AlIn3
_symmetry_space_group_name_H-M   'P 1'
_cell_length_a   3.69436900
_cell_length_b   3.69436900
_cell_length_c   15.14322500
_cell_angle_alpha   90.00000000
_cell_angle_beta   90.00000000
_cell_angle_gamma   90.00000000
_symmetry_Int_Tables_number   1
_chemical_formula_structural   Dy4AlIn3
_chemical_formula_sum   'Dy4 Al1 In3'
_cell_volume   206.68022131
_cell_formula_units_Z   1
loop_
 _symmetry_equiv_pos_site_id
 _symmetry_equiv_pos_as_xyz
  1  'x, y, z'
loop_
 _atom_site_type_symbol
 _atom_site_label
 _atom_site_symmetry_multiplicity
 _atom_site_fract_x
 _atom_site_fract_y
 _atom_site_fract_z
 _atom_site_occupancy
  Dy  Dy0  1  0.500000  0.500000  0.116271  1
  Dy  Dy1  1  0.500000  0.500000  0.370314  1
  Dy  Dy2  1  0.500000  0.500000  0.629686  1
  Dy  Dy3  1  0.500000  0.500000  0.883729  1
  Al  Al4  1  0.000000  0.000000  0.000000  1
  In  In5  1  0.000000  0.000000  0.243154  1
  In  In6  1  0.000000  0.000000  0.500000  1
  In  In7  1  0.000000  0.000000  0.756846  1
