# generated using pymatgen
data_Pr2Ga4GeIrRh2
_symmetry_space_group_name_H-M   'P 1'
_cell_length_a   8.64278959
_cell_length_b   8.71470903
_cell_length_c   8.71470846
_cell_angle_alpha   140.90369447
_cell_angle_beta   108.25669040
_cell_angle_gamma   84.98028321
_symmetry_Int_Tables_number   1
_chemical_formula_structural   Pr2Ga4GeIrRh2
_chemical_formula_sum   'Pr4 Ga8 Ge2 Ir2 Rh4'
_cell_volume   379.59273321
_cell_formula_units_Z   2
loop_
 _symmetry_equiv_pos_site_id
 _symmetry_equiv_pos_as_xyz
  1  'x, y, z'
loop_
 _atom_site_type_symbol
 _atom_site_label
 _atom_site_symmetry_multiplicity
 _atom_site_fract_x
 _atom_site_fract_y
 _atom_site_fract_z
 _atom_site_occupancy
  Pr  Pr0  1  0.863313  0.633717  0.229595  1
  Pr  Pr1  1  0.136687  0.366283  0.770405  1
  Pr  Pr2  1  0.592871  0.863506  0.729366  1
  Pr  Pr3  1  0.407129  0.136494  0.270634  1
  Ga  Ga4  1  0.500000  0.753445  0.253445  1
  Ga  Ga5  1  0.500000  0.246555  0.746555  1
  Ga  Ga6  1  0.210893  0.961056  0.749068  1
  Ga  Ga7  1  0.789107  0.538174  0.750163  1
  Ga  Ga8  1  0.789107  0.038944  0.250932  1
  Ga  Ga9  1  0.210893  0.461826  0.249837  1
  Ga  Ga10  1  0.074893  0.908204  0.166690  1
  Ga  Ga11  1  0.925107  0.091796  0.833310  1
  Ge  Ge12  1  0.260698  0.593752  0.666946  1
  Ge  Ge13  1  0.739302  0.406248  0.333054  1
  Ir  Ir14  1  0.254955  0.853827  0.401128  1
  Ir  Ir15  1  0.745045  0.146173  0.598872  1
  Rh  Rh16  1  0.546673  0.644431  0.902241  1
  Rh  Rh17  1  0.453327  0.355569  0.097759  1
  Rh  Rh18  1  0.000000  0.747821  0.747821  1
  Rh  Rh19  1  0.000000  0.252179  0.252179  1
