# generated using pymatgen
data_Li12AgGe4
_symmetry_space_group_name_H-M   'P 1'
_cell_length_a   4.45592000
_cell_length_b   8.02707800
_cell_length_c   15.21308700
_cell_angle_alpha   90.00000000
_cell_angle_beta   90.00000000
_cell_angle_gamma   90.00000000
_symmetry_Int_Tables_number   1
_chemical_formula_structural   Li12AgGe4
_chemical_formula_sum   'Li24 Ag2 Ge8'
_cell_volume   544.14196055
_cell_formula_units_Z   2
loop_
 _symmetry_equiv_pos_site_id
 _symmetry_equiv_pos_as_xyz
  1  'x, y, z'
loop_
 _atom_site_type_symbol
 _atom_site_label
 _atom_site_symmetry_multiplicity
 _atom_site_fract_x
 _atom_site_fract_y
 _atom_site_fract_z
 _atom_site_occupancy
  Li  Li0  1  0.000000  0.765857  0.150544  1
  Li  Li1  1  0.000000  0.347076  0.521597  1
  Li  Li2  1  0.000000  0.152924  0.021597  1
  Li  Li3  1  0.500000  0.764006  0.411350  1
  Li  Li4  1  0.000000  0.234143  0.849456  1
  Li  Li5  1  0.000000  0.405049  0.691146  1
  Li  Li6  1  0.000000  0.905049  0.808854  1
  Li  Li7  1  0.500000  0.591615  0.748217  1
  Li  Li8  1  0.500000  0.901297  0.597975  1
  Li  Li9  1  0.000000  0.734143  0.650544  1
  Li  Li10  1  0.500000  0.235994  0.588650  1
  Li  Li11  1  0.500000  0.264006  0.088650  1
  Li  Li12  1  0.500000  0.098703  0.402025  1
  Li  Li13  1  0.500000  0.735994  0.911350  1
  Li  Li14  1  0.500000  0.091615  0.751783  1
  Li  Li15  1  0.000000  0.265857  0.349456  1
  Li  Li16  1  0.500000  0.408385  0.251783  1
  Li  Li17  1  0.000000  0.094951  0.191146  1
  Li  Li18  1  0.500000  0.401297  0.902025  1
  Li  Li19  1  0.000000  0.652924  0.478403  1
  Li  Li20  1  0.000000  0.847076  0.978403  1
  Li  Li21  1  0.500000  0.908385  0.248217  1
  Li  Li22  1  0.500000  0.598703  0.097975  1
  Li  Li23  1  0.000000  0.594951  0.308854  1
  Ag  Ag24  1  0.000000  0.000000  0.500000  1
  Ag  Ag25  1  0.000000  0.500000  0.000000  1
  Ge  Ge26  1  0.500000  0.930539  0.075049  1
  Ge  Ge27  1  0.000000  0.582573  0.837215  1
  Ge  Ge28  1  0.000000  0.417427  0.162785  1
  Ge  Ge29  1  0.500000  0.569461  0.575049  1
  Ge  Ge30  1  0.000000  0.082573  0.662785  1
  Ge  Ge31  1  0.500000  0.430539  0.424951  1
  Ge  Ge32  1  0.500000  0.069461  0.924951  1
  Ge  Ge33  1  0.000000  0.917427  0.337215  1
