# generated using pymatgen
data_PrGd3(Te4O11)2
_symmetry_space_group_name_H-M   'P 1'
_cell_length_a   5.24605263
_cell_length_b   6.85435489
_cell_length_c   16.39791334
_cell_angle_alpha   93.48734149
_cell_angle_beta   99.10299816
_cell_angle_gamma   112.59251499
_symmetry_Int_Tables_number   1
_chemical_formula_structural   PrGd3(Te4O11)2
_chemical_formula_sum   'Pr1 Gd3 Te8 O22'
_cell_volume   532.73197432
_cell_formula_units_Z   1
loop_
 _symmetry_equiv_pos_site_id
 _symmetry_equiv_pos_as_xyz
  1  'x, y, z'
loop_
 _atom_site_type_symbol
 _atom_site_label
 _atom_site_symmetry_multiplicity
 _atom_site_fract_x
 _atom_site_fract_y
 _atom_site_fract_z
 _atom_site_occupancy
  Pr  Pr0  1  0.666246  0.801295  0.037418  1
  Gd  Gd1  1  0.333285  0.700364  0.463205  1
  Gd  Gd2  1  0.668348  0.300787  0.537169  1
  Gd  Gd3  1  0.327396  0.199302  0.959791  1
  Te  Te4  1  0.971173  0.385979  0.124589  1
  Te  Te5  1  0.360236  0.961891  0.201317  1
  Te  Te6  1  0.704183  0.542233  0.304220  1
  Te  Te7  1  0.963806  0.112779  0.376558  1
  Te  Te8  1  0.038082  0.887499  0.624090  1
  Te  Te9  1  0.296379  0.457157  0.696567  1
  Te  Te10  1  0.641466  0.039469  0.799775  1
  Te  Te11  1  0.023633  0.610216  0.872611  1
  O  O12  1  0.011101  0.189540  0.046117  1
  O  O13  1  0.717171  0.462929  0.051013  1
  O  O14  1  0.491763  0.055179  0.101581  1
  O  O15  1  0.310750  0.633966  0.127705  1
  O  O16  1  0.970549  0.873032  0.171943  1
  O  O17  1  0.399453  0.250634  0.253962  1
  O  O18  1  0.432453  0.629504  0.334778  1
  O  O19  1  0.055589  0.865988  0.374958  1
  O  O20  1  0.849457  0.451391  0.403534  1
  O  O21  1  0.698085  0.032171  0.448200  1
  O  O22  1  0.274907  0.313317  0.455174  1
  O  O23  1  0.726677  0.687741  0.545436  1
  O  O24  1  0.304203  0.968921  0.552694  1
  O  O25  1  0.152146  0.549733  0.597572  1
  O  O26  1  0.946495  0.134641  0.626146  1
  O  O27  1  0.570332  0.372952  0.665826  1
  O  O28  1  0.599244  0.749131  0.748619  1
  O  O29  1  0.030505  0.124786  0.830717  1
  O  O30  1  0.679471  0.367082  0.870844  1
  O  O31  1  0.507837  0.951569  0.899674  1
  O  O32  1  0.272652  0.523135  0.943543  1
  O  O33  1  0.004927  0.813689  0.952655  1
