# generated using pymatgen
data_Tb3Ni2Ir6Rh
_symmetry_space_group_name_H-M   'P 1'
_cell_length_a   5.29438918
_cell_length_b   5.29438832
_cell_length_c   9.00891461
_cell_angle_alpha   72.91191207
_cell_angle_beta   72.91191812
_cell_angle_gamma   60.00000587
_symmetry_Int_Tables_number   1
_chemical_formula_structural   Tb3Ni2Ir6Rh
_chemical_formula_sum   'Tb3 Ni2 Ir6 Rh1'
_cell_volume   205.71977205
_cell_formula_units_Z   1
loop_
 _symmetry_equiv_pos_site_id
 _symmetry_equiv_pos_as_xyz
  1  'x, y, z'
loop_
 _atom_site_type_symbol
 _atom_site_label
 _atom_site_symmetry_multiplicity
 _atom_site_fract_x
 _atom_site_fract_y
 _atom_site_fract_z
 _atom_site_occupancy
  Tb  Tb0  1  0.139797  0.139797  0.580608  1
  Tb  Tb1  1  0.860203  0.860203  0.419392  1
  Tb  Tb2  1  0.000000  0.000000  0.000000  1
  Ni  Ni3  1  0.333079  0.333079  0.000762  1
  Ni  Ni4  1  0.666921  0.666921  0.999238  1
  Ir  Ir5  1  0.078043  0.580220  0.761517  1
  Ir  Ir6  1  0.580220  0.580220  0.761517  1
  Ir  Ir7  1  0.580220  0.078043  0.761517  1
  Ir  Ir8  1  0.921957  0.419780  0.238483  1
  Ir  Ir9  1  0.419780  0.419780  0.238483  1
  Ir  Ir10  1  0.419780  0.921957  0.238483  1
  Rh  Rh11  1  0.500000  0.500000  0.500000  1
