# generated using pymatgen
data_CaB3Mo
_symmetry_space_group_name_H-M   'P 1'
_cell_length_a   3.10566600
_cell_length_b   5.49450481
_cell_length_c   6.96402857
_cell_angle_alpha   77.40842793
_cell_angle_beta   90.00000000
_cell_angle_gamma   90.00000000
_symmetry_Int_Tables_number   1
_chemical_formula_structural   CaB3Mo
_chemical_formula_sum   'Ca2 B6 Mo2'
_cell_volume   115.97674123
_cell_formula_units_Z   2
loop_
 _symmetry_equiv_pos_site_id
 _symmetry_equiv_pos_as_xyz
  1  'x, y, z'
loop_
 _atom_site_type_symbol
 _atom_site_label
 _atom_site_symmetry_multiplicity
 _atom_site_fract_x
 _atom_site_fract_y
 _atom_site_fract_z
 _atom_site_occupancy
  Ca  Ca0  1  0.750000  0.829778  0.707688  1
  Ca  Ca1  1  0.250000  0.170222  0.292312  1
  B  B2  1  0.250000  0.564920  0.467225  1
  B  B3  1  0.750000  0.435080  0.532775  1
  B  B4  1  0.250000  0.588423  0.992984  1
  B  B5  1  0.750000  0.411577  0.007016  1
  B  B6  1  0.250000  0.916323  0.991865  1
  B  B7  1  0.750000  0.083677  0.008135  1
  Mo  Mo8  1  0.750000  0.686592  0.216037  1
  Mo  Mo9  1  0.250000  0.313408  0.783963  1
