# generated using pymatgen
data_Pd(SeF6)2
_symmetry_space_group_name_H-M   'P 1'
_cell_length_a   6.13390800
_cell_length_b   7.89582300
_cell_length_c   9.86970600
_cell_angle_alpha   90.00000000
_cell_angle_beta   90.00000000
_cell_angle_gamma   90.00000000
_symmetry_Int_Tables_number   1
_chemical_formula_structural   Pd(SeF6)2
_chemical_formula_sum   'Pd2 Se4 F24'
_cell_volume   478.01208684
_cell_formula_units_Z   2
loop_
 _symmetry_equiv_pos_site_id
 _symmetry_equiv_pos_as_xyz
  1  'x, y, z'
loop_
 _atom_site_type_symbol
 _atom_site_label
 _atom_site_symmetry_multiplicity
 _atom_site_fract_x
 _atom_site_fract_y
 _atom_site_fract_z
 _atom_site_occupancy
  Pd  Pd0  1  0.000000  0.500000  0.000000  1
  Pd  Pd1  1  0.500000  0.000000  0.500000  1
  Se  Se2  1  0.500000  0.582341  0.241093  1
  Se  Se3  1  0.500000  0.417659  0.758907  1
  Se  Se4  1  0.000000  0.082341  0.258907  1
  Se  Se5  1  0.000000  0.917659  0.741093  1
  F  F6  1  0.224467  0.364326  0.909175  1
  F  F7  1  0.224467  0.635674  0.090825  1
  F  F8  1  0.275533  0.864326  0.590825  1
  F  F9  1  0.275533  0.135674  0.409175  1
  F  F10  1  0.775533  0.635674  0.090825  1
  F  F11  1  0.775533  0.364326  0.909175  1
  F  F12  1  0.795255  0.972160  0.854847  1
  F  F13  1  0.795255  0.027840  0.145153  1
  F  F14  1  0.704745  0.472160  0.645153  1
  F  F15  1  0.704745  0.527840  0.354847  1
  F  F16  1  0.204745  0.027840  0.145153  1
  F  F17  1  0.204745  0.972160  0.854847  1
  F  F18  1  0.295255  0.527840  0.354847  1
  F  F19  1  0.295255  0.472160  0.645153  1
  F  F20  1  0.000000  0.657245  0.846116  1
  F  F21  1  0.000000  0.342755  0.153884  1
  F  F22  1  0.500000  0.157245  0.653884  1
  F  F23  1  0.500000  0.842755  0.346116  1
  F  F24  1  0.500000  0.619076  0.830586  1
  F  F25  1  0.500000  0.380924  0.169414  1
  F  F26  1  0.000000  0.119076  0.669414  1
  F  F27  1  0.000000  0.880924  0.330586  1
  F  F28  1  0.724467  0.864326  0.590825  1
  F  F29  1  0.724467  0.135674  0.409175  1
