# generated using pymatgen
data_Tb2HfGaIr2
_symmetry_space_group_name_H-M   'P 1'
_cell_length_a   4.48335600
_cell_length_b   6.98197494
_cell_length_c   8.00426388
_cell_angle_alpha   88.86760896
_cell_angle_beta   90.00000000
_cell_angle_gamma   90.00000000
_symmetry_Int_Tables_number   1
_chemical_formula_structural   Tb2HfGaIr2
_chemical_formula_sum   'Tb4 Hf2 Ga2 Ir4'
_cell_volume   250.50597144
_cell_formula_units_Z   2
loop_
 _symmetry_equiv_pos_site_id
 _symmetry_equiv_pos_as_xyz
  1  'x, y, z'
loop_
 _atom_site_type_symbol
 _atom_site_label
 _atom_site_symmetry_multiplicity
 _atom_site_fract_x
 _atom_site_fract_y
 _atom_site_fract_z
 _atom_site_occupancy
  Tb  Tb0  1  0.250000  0.523606  0.165693  1
  Tb  Tb1  1  0.750000  0.476394  0.834307  1
  Tb  Tb2  1  0.750000  0.978758  0.703818  1
  Tb  Tb3  1  0.250000  0.021242  0.296182  1
  Hf  Hf4  1  0.250000  0.640604  0.577174  1
  Hf  Hf5  1  0.750000  0.359396  0.422826  1
  Ga  Ga6  1  0.750000  0.839590  0.074496  1
  Ga  Ga7  1  0.250000  0.160410  0.925504  1
  Ir  Ir8  1  0.250000  0.779237  0.888975  1
  Ir  Ir9  1  0.750000  0.220763  0.111025  1
  Ir  Ir10  1  0.750000  0.733436  0.400671  1
  Ir  Ir11  1  0.250000  0.266564  0.599329  1
