# generated using pymatgen
data_Th10GaSn2Bi5
_symmetry_space_group_name_H-M   'P 1'
_cell_length_a   9.74399831
_cell_length_b   9.74996084
_cell_length_c   6.58656809
_cell_angle_alpha   89.93424520
_cell_angle_beta   90.03290315
_cell_angle_gamma   120.02024544
_symmetry_Int_Tables_number   1
_chemical_formula_structural   Th10GaSn2Bi5
_chemical_formula_sum   'Th10 Ga1 Sn2 Bi5'
_cell_volume   541.80245409
_cell_formula_units_Z   1
loop_
 _symmetry_equiv_pos_site_id
 _symmetry_equiv_pos_as_xyz
  1  'x, y, z'
loop_
 _atom_site_type_symbol
 _atom_site_label
 _atom_site_symmetry_multiplicity
 _atom_site_fract_x
 _atom_site_fract_y
 _atom_site_fract_z
 _atom_site_occupancy
  Th  Th0  1  0.000000  0.728432  0.759918  1
  Th  Th1  1  0.270985  0.270873  0.760000  1
  Th  Th2  1  0.330354  0.666106  0.498412  1
  Th  Th3  1  0.669646  0.335750  0.498412  1
  Th  Th4  1  0.731636  0.727734  0.240178  1
  Th  Th5  1  0.729015  0.999888  0.760000  1
  Th  Th6  1  0.000000  0.273317  0.240458  1
  Th  Th7  1  0.268364  0.996098  0.240178  1
  Th  Th8  1  0.330865  0.666088  0.001506  1
  Th  Th9  1  0.669135  0.335221  0.001506  1
  Ga  Ga10  1  0.000000  0.000545  0.999685  1
  Sn  Sn11  1  0.000000  0.616049  0.252284  1
  Sn  Sn12  1  0.000000  0.000739  0.500431  1
  Bi  Bi13  1  0.615098  0.615399  0.746639  1
  Bi  Bi14  1  0.000000  0.384769  0.746549  1
  Bi  Bi15  1  0.384902  0.000300  0.746639  1
  Bi  Bi16  1  0.615693  0.999193  0.253602  1
  Bi  Bi17  1  0.384307  0.383500  0.253602  1
