# generated using pymatgen
data_Hf6AlSi5Ru12
_symmetry_space_group_name_H-M   'P 1'
_cell_length_a   4.39035400
_cell_length_b   6.20608700
_cell_length_c   13.13481200
_cell_angle_alpha   90.00000000
_cell_angle_beta   90.00038765
_cell_angle_gamma   90.00000000
_symmetry_Int_Tables_number   1
_chemical_formula_structural   Hf6AlSi5Ru12
_chemical_formula_sum   'Hf6 Al1 Si5 Ru12'
_cell_volume   357.88315713
_cell_formula_units_Z   1
loop_
 _symmetry_equiv_pos_site_id
 _symmetry_equiv_pos_as_xyz
  1  'x, y, z'
loop_
 _atom_site_type_symbol
 _atom_site_label
 _atom_site_symmetry_multiplicity
 _atom_site_fract_x
 _atom_site_fract_y
 _atom_site_fract_z
 _atom_site_occupancy
  Hf  Hf0  1  0.000009  0.000000  0.999703  1
  Hf  Hf1  1  0.499909  0.500000  0.167085  1
  Hf  Hf2  1  0.999896  0.000000  0.333337  1
  Hf  Hf3  1  0.499997  0.500000  0.499584  1
  Hf  Hf4  1  0.000089  0.000000  0.666957  1
  Hf  Hf5  1  0.500096  0.500000  0.833342  1
  Al  Al6  1  0.500101  0.000000  0.833347  1
  Si  Si7  1  0.000003  0.500000  0.998973  1
  Si  Si8  1  0.499913  0.000000  0.166028  1
  Si  Si9  1  0.999909  0.500000  0.333330  1
  Si  Si10  1  0.500000  0.000000  0.500652  1
  Si  Si11  1  0.000093  0.500000  0.667689  1
  Ru  Ru12  1  0.500003  0.251427  0.002351  1
  Ru  Ru13  1  0.500003  0.748574  0.002351  1
  Ru  Ru14  1  0.999911  0.250365  0.167573  1
  Ru  Ru15  1  0.999911  0.749636  0.167573  1
  Ru  Ru16  1  0.499916  0.249376  0.333336  1
  Ru  Ru17  1  0.499916  0.750625  0.333336  1
  Ru  Ru18  1  0.999998  0.250392  0.499061  1
  Ru  Ru19  1  0.999998  0.749608  0.499061  1
  Ru  Ru20  1  0.500081  0.251425  0.664346  1
  Ru  Ru21  1  0.500081  0.748576  0.664346  1
  Ru  Ru22  1  0.000082  0.253594  0.833318  1
  Ru  Ru23  1  0.000082  0.746407  0.833318  1
