# generated using pymatgen
data_NdPaSnRh2
_symmetry_space_group_name_H-M   'P 1'
_cell_length_a   7.75560012
_cell_length_b   7.75559960
_cell_length_c   3.70695000
_cell_angle_alpha   90.00000000
_cell_angle_beta   90.00000000
_cell_angle_gamma   95.54419449
_symmetry_Int_Tables_number   1
_chemical_formula_structural   NdPaSnRh2
_chemical_formula_sum   'Nd2 Pa2 Sn2 Rh4'
_cell_volume   221.92749367
_cell_formula_units_Z   2
loop_
 _symmetry_equiv_pos_site_id
 _symmetry_equiv_pos_as_xyz
  1  'x, y, z'
loop_
 _atom_site_type_symbol
 _atom_site_label
 _atom_site_symmetry_multiplicity
 _atom_site_fract_x
 _atom_site_fract_y
 _atom_site_fract_z
 _atom_site_occupancy
  Nd  Nd0  1  0.176034  0.323966  0.500000  1
  Nd  Nd1  1  0.823966  0.676034  0.500000  1
  Pa  Pa2  1  0.671483  0.171483  0.500000  1
  Pa  Pa3  1  0.328517  0.828517  0.500000  1
  Sn  Sn4  1  0.000000  0.000000  0.000000  1
  Sn  Sn5  1  0.500000  0.500000  0.000000  1
  Rh  Rh6  1  0.148320  0.648320  0.000000  1
  Rh  Rh7  1  0.851680  0.351680  0.000000  1
  Rh  Rh8  1  0.619920  0.880080  0.000000  1
  Rh  Rh9  1  0.380080  0.119920  0.000000  1
