# generated using pymatgen
data_Er19Mg(IrPt)6
_symmetry_space_group_name_H-M   'P 1'
_cell_length_a   10.95053535
_cell_length_b   10.94742134
_cell_length_c   6.26899500
_cell_angle_alpha   89.98577997
_cell_angle_beta   89.97159942
_cell_angle_gamma   89.99947481
_symmetry_Int_Tables_number   1
_chemical_formula_structural   Er19Mg(IrPt)6
_chemical_formula_sum   'Er19 Mg1 Ir6 Pt6'
_cell_volume   751.52778432
_cell_formula_units_Z   1
loop_
 _symmetry_equiv_pos_site_id
 _symmetry_equiv_pos_as_xyz
  1  'x, y, z'
loop_
 _atom_site_type_symbol
 _atom_site_label
 _atom_site_symmetry_multiplicity
 _atom_site_fract_x
 _atom_site_fract_y
 _atom_site_fract_z
 _atom_site_occupancy
  Er  Er0  1  0.290347  0.086541  0.375021  1
  Er  Er1  1  0.295440  0.908493  0.875827  1
  Er  Er2  1  0.704165  0.087346  0.874581  1
  Er  Er3  1  0.709722  0.917529  0.373992  1
  Er  Er4  1  0.584347  0.792472  0.874031  1
  Er  Er5  1  0.580379  0.207640  0.372573  1
  Er  Er6  1  0.413148  0.793457  0.378056  1
  Er  Er7  1  0.409192  0.206640  0.879982  1
  Er  Er8  1  0.209013  0.417356  0.623367  1
  Er  Er9  1  0.209123  0.586930  0.121474  1
  Er  Er10  1  0.795561  0.411258  0.124247  1
  Er  Er11  1  0.795354  0.585129  0.625780  1
  Er  Er12  1  0.913689  0.704681  0.125003  1
  Er  Er13  1  0.918477  0.289876  0.625463  1
  Er  Er14  1  0.087590  0.709394  0.625544  1
  Er  Er15  1  0.092666  0.295849  0.124726  1
  Er  Er16  1  0.000044  0.000216  0.999966  1
  Er  Er17  1  0.496827  0.498950  0.999985  1
  Er  Er18  1  0.496835  0.500895  0.500020  1
  Mg  Mg19  1  0.999998  0.999546  0.499988  1
  Ir  Ir20  1  0.346121  0.345261  0.252653  1
  Ir  Ir21  1  0.346041  0.654549  0.747718  1
  Ir  Ir22  1  0.500008  0.999607  0.122761  1
  Ir  Ir23  1  0.500061  0.000263  0.621117  1
  Ir  Ir24  1  0.999743  0.500017  0.877212  1
  Ir  Ir25  1  0.999773  0.499890  0.379006  1
  Pt  Pt26  1  0.846876  0.154382  0.248581  1
  Pt  Pt27  1  0.844955  0.847659  0.752167  1
  Pt  Pt28  1  0.153700  0.151798  0.751066  1
  Pt  Pt29  1  0.151391  0.845885  0.248379  1
  Pt  Pt30  1  0.655021  0.346072  0.747416  1
  Pt  Pt31  1  0.654394  0.654416  0.252299  1
