# generated using pymatgen
data_SmHo3(MoO6)2
_symmetry_space_group_name_H-M   'P 1'
_cell_length_a   5.39230900
_cell_length_b   7.71622033
_cell_length_c   11.47829658
_cell_angle_alpha   75.49786316
_cell_angle_beta   90.00000000
_cell_angle_gamma   90.00000000
_symmetry_Int_Tables_number   1
_chemical_formula_structural   SmHo3(MoO6)2
_chemical_formula_sum   'Sm2 Ho6 Mo4 O24'
_cell_volume   462.37488385
_cell_formula_units_Z   2
loop_
 _symmetry_equiv_pos_site_id
 _symmetry_equiv_pos_as_xyz
  1  'x, y, z'
loop_
 _atom_site_type_symbol
 _atom_site_label
 _atom_site_symmetry_multiplicity
 _atom_site_fract_x
 _atom_site_fract_y
 _atom_site_fract_z
 _atom_site_occupancy
  Sm  Sm0  1  0.682010  0.500000  0.750000  1
  Sm  Sm1  1  0.317990  0.500000  0.250000  1
  Ho  Ho2  1  0.738231  0.000000  0.750000  1
  Ho  Ho3  1  0.261769  0.000000  0.250000  1
  Ho  Ho4  1  0.186408  0.800254  0.577821  1
  Ho  Ho5  1  0.813592  0.800254  0.077821  1
  Ho  Ho6  1  0.186408  0.199746  0.922179  1
  Ho  Ho7  1  0.813592  0.199746  0.422179  1
  Mo  Mo8  1  0.252160  0.723787  0.886265  1
  Mo  Mo9  1  0.747840  0.723787  0.386265  1
  Mo  Mo10  1  0.252160  0.276213  0.613735  1
  Mo  Mo11  1  0.747840  0.276213  0.113735  1
  O  O12  1  0.034025  0.939794  0.896941  1
  O  O13  1  0.526020  0.848711  0.930018  1
  O  O14  1  0.965975  0.939794  0.396941  1
  O  O15  1  0.463015  0.789792  0.725770  1
  O  O16  1  0.473980  0.848711  0.430018  1
  O  O17  1  0.987171  0.716746  0.768902  1
  O  O18  1  0.536985  0.789792  0.225770  1
  O  O19  1  0.851980  0.637847  0.547059  1
  O  O20  1  0.349630  0.491698  0.888041  1
  O  O21  1  0.012829  0.716746  0.268902  1
  O  O22  1  0.349630  0.508302  0.611959  1
  O  O23  1  0.851980  0.362153  0.952941  1
  O  O24  1  0.148020  0.637847  0.047059  1
  O  O25  1  0.650370  0.491698  0.388041  1
  O  O26  1  0.987171  0.283254  0.731098  1
  O  O27  1  0.650370  0.508302  0.111959  1
  O  O28  1  0.148020  0.362153  0.452941  1
  O  O29  1  0.463015  0.210208  0.774230  1
  O  O30  1  0.012829  0.283254  0.231098  1
  O  O31  1  0.526020  0.151289  0.569982  1
  O  O32  1  0.536985  0.210208  0.274230  1
  O  O33  1  0.034025  0.060206  0.603059  1
  O  O34  1  0.473980  0.151289  0.069982  1
  O  O35  1  0.965975  0.060206  0.103059  1
