# generated using pymatgen
data_PmNdSi3Ni
_symmetry_space_group_name_H-M   'P 1'
_cell_length_a   5.87307113
_cell_length_b   5.87132841
_cell_length_c   5.87132984
_cell_angle_alpha   139.56361918
_cell_angle_beta   106.81588855
_cell_angle_gamma   87.10562947
_symmetry_Int_Tables_number   1
_chemical_formula_structural   PmNdSi3Ni
_chemical_formula_sum   'Pm1 Nd1 Si3 Ni1'
_cell_volume   120.91437516
_cell_formula_units_Z   1
loop_
 _symmetry_equiv_pos_site_id
 _symmetry_equiv_pos_as_xyz
  1  'x, y, z'
loop_
 _atom_site_type_symbol
 _atom_site_label
 _atom_site_symmetry_multiplicity
 _atom_site_fract_x
 _atom_site_fract_y
 _atom_site_fract_z
 _atom_site_occupancy
  Pm  Pm0  1  0.003159  0.002419  0.000740  1
  Nd  Nd1  1  0.497627  0.496960  0.000667  1
  Si  Si2  1  0.087575  0.749190  0.338384  1
  Si  Si3  1  0.901472  0.250759  0.650713  1
  Si  Si4  1  0.430276  0.749855  0.680420  1
  Ni  Ni5  1  0.579889  0.250815  0.329075  1
