# generated using pymatgen
data_Pr8Fe(Si4Au)3
_symmetry_space_group_name_H-M   'P 1'
_cell_length_a   8.29132600
_cell_length_b   8.29132655
_cell_length_c   8.70326300
_cell_angle_alpha   90.00000000
_cell_angle_beta   90.00000000
_cell_angle_gamma   120.00000580
_symmetry_Int_Tables_number   1
_chemical_formula_structural   Pr8Fe(Si4Au)3
_chemical_formula_sum   'Pr8 Fe1 Si12 Au3'
_cell_volume   518.15623055
_cell_formula_units_Z   1
loop_
 _symmetry_equiv_pos_site_id
 _symmetry_equiv_pos_as_xyz
  1  'x, y, z'
loop_
 _atom_site_type_symbol
 _atom_site_label
 _atom_site_symmetry_multiplicity
 _atom_site_fract_x
 _atom_site_fract_y
 _atom_site_fract_z
 _atom_site_occupancy
  Pr  Pr0  1  0.503528  0.496472  0.742471  1
  Pr  Pr1  1  0.503805  0.496195  0.257510  1
  Pr  Pr2  1  0.992944  0.496472  0.742471  1
  Pr  Pr3  1  0.992388  0.496195  0.257510  1
  Pr  Pr4  1  0.503528  0.007056  0.742471  1
  Pr  Pr5  1  0.503805  0.007612  0.257510  1
  Pr  Pr6  1  0.000000  0.000000  0.749194  1
  Pr  Pr7  1  0.000000  0.000000  0.250778  1
  Fe  Fe8  1  0.666667  0.333333  0.500373  1
  Si  Si9  1  0.836868  0.163132  0.000699  1
  Si  Si10  1  0.163562  0.836438  0.999311  1
  Si  Si11  1  0.326264  0.163132  0.000699  1
  Si  Si12  1  0.160790  0.839210  0.499760  1
  Si  Si13  1  0.672876  0.836438  0.999311  1
  Si  Si14  1  0.825658  0.174342  0.500311  1
  Si  Si15  1  0.836868  0.673736  0.000699  1
  Si  Si16  1  0.678420  0.839210  0.499760  1
  Si  Si17  1  0.163562  0.327124  0.999311  1
  Si  Si18  1  0.348685  0.174342  0.500311  1
  Si  Si19  1  0.160790  0.321580  0.499760  1
  Si  Si20  1  0.825658  0.651315  0.500311  1
  Au  Au21  1  0.666667  0.333333  0.999221  1
  Au  Au22  1  0.333333  0.666667  0.000665  1
  Au  Au23  1  0.333333  0.666667  0.499580  1
