# generated using pymatgen
data_Ca3Ho(NbN3)2
_symmetry_space_group_name_H-M   'P 1'
_cell_length_a   5.70492356
_cell_length_b   5.70492357
_cell_length_c   5.91774348
_cell_angle_alpha   99.33421617
_cell_angle_beta   99.33421913
_cell_angle_gamma   119.91479850
_symmetry_Int_Tables_number   1
_chemical_formula_structural   Ca3Ho(NbN3)2
_chemical_formula_sum   'Ca3 Ho1 Nb2 N6'
_cell_volume   157.93589110
_cell_formula_units_Z   1
loop_
 _symmetry_equiv_pos_site_id
 _symmetry_equiv_pos_as_xyz
  1  'x, y, z'
loop_
 _atom_site_type_symbol
 _atom_site_label
 _atom_site_symmetry_multiplicity
 _atom_site_fract_x
 _atom_site_fract_y
 _atom_site_fract_z
 _atom_site_occupancy
  Ca  Ca0  1  0.833798  0.166202  0.500000  1
  Ca  Ca1  1  0.166202  0.833798  0.500000  1
  Ca  Ca2  1  0.500000  0.500000  0.500000  1
  Ho  Ho3  1  0.000000  0.000000  0.000000  1
  Nb  Nb4  1  0.332883  0.667117  0.000000  1
  Nb  Nb5  1  0.667117  0.332883  0.000000  1
  N  N6  1  0.424481  0.071031  0.215418  1
  N  N7  1  0.928969  0.575519  0.784582  1
  N  N8  1  0.575519  0.928969  0.784582  1
  N  N9  1  0.071031  0.424481  0.215418  1
  N  N10  1  0.718707  0.718707  0.215189  1
  N  N11  1  0.281293  0.281293  0.784811  1
