# generated using pymatgen
data_Nd5SmZn4Pd2Pt11
_symmetry_space_group_name_H-M   'P 1'
_cell_length_a   8.38981802
_cell_length_b   8.38981672
_cell_length_c   8.39375007
_cell_angle_alpha   109.48788463
_cell_angle_beta   109.48787326
_cell_angle_gamma   109.45211366
_symmetry_Int_Tables_number   1
_chemical_formula_structural   Nd5SmZn4Pd2Pt11
_chemical_formula_sum   'Nd5 Sm1 Zn4 Pd2 Pt11'
_cell_volume   454.73976365
_cell_formula_units_Z   1
loop_
 _symmetry_equiv_pos_site_id
 _symmetry_equiv_pos_as_xyz
  1  'x, y, z'
loop_
 _atom_site_type_symbol
 _atom_site_label
 _atom_site_symmetry_multiplicity
 _atom_site_fract_x
 _atom_site_fract_y
 _atom_site_fract_z
 _atom_site_occupancy
  Nd  Nd0  1  0.299592  0.999313  0.299654  1
  Nd  Nd1  1  0.999313  0.299592  0.299654  1
  Nd  Nd2  1  0.300323  0.300323  0.999900  1
  Nd  Nd3  1  0.700433  0.000480  0.699311  1
  Nd  Nd4  1  0.000480  0.700433  0.699311  1
  Sm  Sm5  1  0.698083  0.698083  0.002814  1
  Zn  Zn6  1  0.000317  0.000317  0.499624  1
  Zn  Zn7  1  0.999480  0.500106  0.999238  1
  Zn  Zn8  1  0.500106  0.999480  0.999238  1
  Zn  Zn9  1  0.500285  0.500285  0.500959  1
  Pd  Pd10  1  0.669356  0.339031  0.669382  1
  Pd  Pd11  1  0.339031  0.669356  0.669382  1
  Pt  Pt12  1  0.331854  0.331854  0.660981  1
  Pt  Pt13  1  0.670835  0.000882  0.329686  1
  Pt  Pt14  1  0.000882  0.670835  0.329686  1
  Pt  Pt15  1  0.670480  0.331042  0.000059  1
  Pt  Pt16  1  0.330121  0.659615  0.330369  1
  Pt  Pt17  1  0.000898  0.331289  0.670549  1
  Pt  Pt18  1  0.331042  0.670480  0.000059  1
  Pt  Pt19  1  0.331289  0.000898  0.670549  1
  Pt  Pt20  1  0.659615  0.330121  0.330369  1
  Pt  Pt21  1  0.669948  0.669948  0.339939  1
  Pt  Pt22  1  0.996239  0.996239  0.999286  1
