# generated using pymatgen
data_Yb8LuSc(AlSb3)4
_symmetry_space_group_name_H-M   'P 1'
_cell_length_a   4.40000400
_cell_length_b   7.41661471
_cell_length_c   22.58786627
_cell_angle_alpha   90.07803359
_cell_angle_beta   90.00000000
_cell_angle_gamma   90.00000000
_symmetry_Int_Tables_number   1
_chemical_formula_structural   Yb8LuSc(AlSb3)4
_chemical_formula_sum   'Yb8 Lu1 Sc1 Al4 Sb12'
_cell_volume   737.11219184
_cell_formula_units_Z   1
loop_
 _symmetry_equiv_pos_site_id
 _symmetry_equiv_pos_as_xyz
  1  'x, y, z'
loop_
 _atom_site_type_symbol
 _atom_site_label
 _atom_site_symmetry_multiplicity
 _atom_site_fract_x
 _atom_site_fract_y
 _atom_site_fract_z
 _atom_site_occupancy
  Yb  Yb0  1  0.000000  0.468128  0.915226  1
  Yb  Yb1  1  0.000000  0.282922  0.748633  1
  Yb  Yb2  1  0.000000  0.783497  0.754919  1
  Yb  Yb3  1  0.000000  0.531872  0.084774  1
  Yb  Yb4  1  0.000000  0.966256  0.587604  1
  Yb  Yb5  1  0.000000  0.717078  0.251367  1
  Yb  Yb6  1  0.000000  0.033744  0.412396  1
  Yb  Yb7  1  0.000000  0.216503  0.245081  1
  Lu  Lu8  1  0.000000  0.500000  0.500000  1
  Sc  Sc9  1  0.000000  0.000000  0.000000  1
  Al  Al10  1  0.500000  0.831200  0.882344  1
  Al  Al11  1  0.500000  0.168800  0.117656  1
  Al  Al12  1  0.500000  0.669597  0.380567  1
  Al  Al13  1  0.500000  0.330403  0.619433  1
  Sb  Sb14  1  0.500000  0.781139  0.497403  1
  Sb  Sb15  1  0.000000  0.457159  0.364649  1
  Sb  Sb16  1  0.000000  0.955896  0.131679  1
  Sb  Sb17  1  0.500000  0.529676  0.814172  1
  Sb  Sb18  1  0.500000  0.470324  0.185828  1
  Sb  Sb19  1  0.000000  0.044104  0.868321  1
  Sb  Sb20  1  0.000000  0.542841  0.635351  1
  Sb  Sb21  1  0.500000  0.970138  0.311539  1
  Sb  Sb22  1  0.500000  0.218861  0.502597  1
  Sb  Sb23  1  0.500000  0.029862  0.688461  1
  Sb  Sb24  1  0.500000  0.271124  0.001278  1
  Sb  Sb25  1  0.500000  0.728876  0.998722  1
