# generated using pymatgen
data_Na3LiLaP12Ir19
_symmetry_space_group_name_H-M   'P 1'
_cell_length_a   12.64542411
_cell_length_b   12.66071567
_cell_length_c   3.96587700
_cell_angle_alpha   90.00000000
_cell_angle_beta   90.00000000
_cell_angle_gamma   119.97508405
_symmetry_Int_Tables_number   1
_chemical_formula_structural   Na3LiLaP12Ir19
_chemical_formula_sum   'Na3 Li1 La1 P12 Ir19'
_cell_volume   550.00990530
_cell_formula_units_Z   1
loop_
 _symmetry_equiv_pos_site_id
 _symmetry_equiv_pos_as_xyz
  1  'x, y, z'
loop_
 _atom_site_type_symbol
 _atom_site_label
 _atom_site_symmetry_multiplicity
 _atom_site_fract_x
 _atom_site_fract_y
 _atom_site_fract_z
 _atom_site_occupancy
  Na  Na0  1  0.001489  0.818134  0.500000  1
  Na  Na1  1  0.183327  0.181871  0.500000  1
  Na  Na2  1  0.665523  0.332124  0.000000  1
  Li  Li3  1  0.333502  0.667690  0.000000  1
  La  La4  1  0.823508  0.999995  0.500000  1
  P  P5  1  0.009392  0.187635  0.000000  1
  P  P6  1  0.821214  0.812990  0.000000  1
  P  P7  1  0.181211  0.999381  0.000000  1
  P  P8  1  0.510322  0.689253  0.500000  1
  P  P9  1  0.309190  0.821613  0.500000  1
  P  P10  1  0.179237  0.491214  0.500000  1
  P  P11  1  0.485616  0.176317  0.500000  1
  P  P12  1  0.687976  0.510812  0.500000  1
  P  P13  1  0.823262  0.311023  0.500000  1
  P  P14  1  0.999895  0.639788  0.000000  1
  P  P15  1  0.360121  0.360223  0.000000  1
  P  P16  1  0.636547  0.000171  0.000000  1
  Ir  Ir17  1  0.001343  0.294320  0.500000  1
  Ir  Ir18  1  0.706221  0.706242  0.500000  1
  Ir  Ir19  1  0.291414  0.999262  0.500000  1
  Ir  Ir20  1  0.619765  0.800382  0.000000  1
  Ir  Ir21  1  0.197457  0.816840  0.000000  1
  Ir  Ir22  1  0.184821  0.383482  0.000000  1
  Ir  Ir23  1  0.378613  0.182106  0.000000  1
  Ir  Ir24  1  0.802284  0.618435  0.000000  1
  Ir  Ir25  1  0.820505  0.199093  0.000000  1
  Ir  Ir26  1  0.506189  0.868543  0.500000  1
  Ir  Ir27  1  0.128806  0.638235  0.500000  1
  Ir  Ir28  1  0.361723  0.493741  0.500000  1
  Ir  Ir29  1  0.488241  0.361520  0.500000  1
  Ir  Ir30  1  0.870024  0.508535  0.500000  1
  Ir  Ir31  1  0.637817  0.128978  0.500000  1
  Ir  Ir32  1  0.999164  0.000054  0.000000  1
  Ir  Ir33  1  0.997913  0.457734  0.000000  1
  Ir  Ir34  1  0.540078  0.542482  0.000000  1
  Ir  Ir35  1  0.456288  0.999782  0.000000  1
