# generated using pymatgen
data_NdLu(Tc2P)4
_symmetry_space_group_name_H-M   'P 1'
_cell_length_a   7.43143823
_cell_length_b   7.43143823
_cell_length_c   3.95410800
_cell_angle_alpha   90.00000000
_cell_angle_beta   90.00000000
_cell_angle_gamma   89.38155363
_symmetry_Int_Tables_number   1
_chemical_formula_structural   NdLu(Tc2P)4
_chemical_formula_sum   'Nd1 Lu1 Tc8 P4'
_cell_volume   218.35793146
_cell_formula_units_Z   1
loop_
 _symmetry_equiv_pos_site_id
 _symmetry_equiv_pos_as_xyz
  1  'x, y, z'
loop_
 _atom_site_type_symbol
 _atom_site_label
 _atom_site_symmetry_multiplicity
 _atom_site_fract_x
 _atom_site_fract_y
 _atom_site_fract_z
 _atom_site_occupancy
  Nd  Nd0  1  0.500000  0.500000  0.000000  1
  Lu  Lu1  1  0.000000  0.000000  0.500000  1
  Tc  Tc2  1  0.157475  0.584500  0.500000  1
  Tc  Tc3  1  0.842525  0.415500  0.500000  1
  Tc  Tc4  1  0.336924  0.080396  0.000000  1
  Tc  Tc5  1  0.663076  0.919604  0.000000  1
  Tc  Tc6  1  0.584500  0.157475  0.500000  1
  Tc  Tc7  1  0.415500  0.842525  0.500000  1
  Tc  Tc8  1  0.080396  0.336924  0.000000  1
  Tc  Tc9  1  0.919604  0.663076  0.000000  1
  P  P10  1  0.715833  0.715833  0.500000  1
  P  P11  1  0.284167  0.284167  0.500000  1
  P  P12  1  0.791828  0.208172  0.000000  1
  P  P13  1  0.208172  0.791828  0.000000  1
