# generated using pymatgen
data_TbDy5TiAl23Ru8
_symmetry_space_group_name_H-M   'P 1'
_cell_length_a   8.82847696
_cell_length_b   8.81749876
_cell_length_c   9.59809366
_cell_angle_alpha   89.99939216
_cell_angle_beta   89.93058896
_cell_angle_gamma   119.94588177
_symmetry_Int_Tables_number   1
_chemical_formula_structural   TbDy5TiAl23Ru8
_chemical_formula_sum   'Tb1 Dy5 Ti1 Al23 Ru8'
_cell_volume   647.41529998
_cell_formula_units_Z   1
loop_
 _symmetry_equiv_pos_site_id
 _symmetry_equiv_pos_as_xyz
  1  'x, y, z'
loop_
 _atom_site_type_symbol
 _atom_site_label
 _atom_site_symmetry_multiplicity
 _atom_site_fract_x
 _atom_site_fract_y
 _atom_site_fract_z
 _atom_site_occupancy
  Tb  Tb0  1  0.191754  0.802982  0.247530  1
  Dy  Dy1  1  0.192132  0.389515  0.247532  1
  Dy  Dy2  1  0.615597  0.807805  0.250209  1
  Dy  Dy3  1  0.806578  0.193043  0.750912  1
  Dy  Dy4  1  0.806549  0.613419  0.750912  1
  Dy  Dy5  1  0.388878  0.194400  0.758527  1
  Ti  Ti6  1  0.330912  0.165467  0.428379  1
  Al  Al7  1  0.562119  0.439457  0.247725  1
  Al  Al8  1  0.562536  0.123054  0.247715  1
  Al  Al9  1  0.878221  0.438890  0.249117  1
  Al  Al10  1  0.437690  0.561860  0.749498  1
  Al  Al11  1  0.437739  0.875774  0.749491  1
  Al  Al12  1  0.121119  0.560496  0.749431  1
  Al  Al13  1  0.836872  0.164353  0.423664  1
  Al  Al14  1  0.836670  0.672429  0.423689  1
  Al  Al15  1  0.673819  0.836894  0.578963  1
  Al  Al16  1  0.160884  0.833880  0.574627  1
  Al  Al17  1  0.160810  0.326955  0.574374  1
  Al  Al18  1  0.673863  0.836949  0.922806  1
  Al  Al19  1  0.162575  0.836617  0.924469  1
  Al  Al20  1  0.162571  0.325875  0.924734  1
  Al  Al21  1  0.324875  0.162640  0.082970  1
  Al  Al22  1  0.836039  0.162253  0.075698  1
  Al  Al23  1  0.835798  0.673607  0.075671  1
  Al  Al24  1  0.669988  0.334935  0.520183  1
  Al  Al25  1  0.332227  0.666008  0.483694  1
  Al  Al26  1  0.335361  0.667601  0.014423  1
  Al  Al27  1  0.668320  0.334100  0.984495  1
  Al  Al28  1  0.003927  0.002474  0.248563  1
  Al  Al29  1  0.000421  0.000132  0.749224  1
  Ru  Ru30  1  0.000555  0.000304  0.499239  1
  Ru  Ru31  1  0.998457  0.999166  0.998179  1
  Ru  Ru32  1  0.496914  0.495444  0.498627  1
  Ru  Ru33  1  0.497099  0.001440  0.498702  1
  Ru  Ru34  1  0.998849  0.499359  0.499274  1
  Ru  Ru35  1  0.499542  0.498940  0.998231  1
  Ru  Ru36  1  0.499619  0.000614  0.998149  1
  Ru  Ru37  1  0.002120  0.500871  0.000378  1
