# generated using pymatgen
data_Gd4TmGeSe4
_symmetry_space_group_name_H-M   'P 1'
_cell_length_a   7.19019119
_cell_length_b   7.19019102
_cell_length_c   7.19019200
_cell_angle_alpha   99.42064666
_cell_angle_beta   99.42063835
_cell_angle_gamma   132.27095358
_symmetry_Int_Tables_number   1
_chemical_formula_structural   Gd4TmGeSe4
_chemical_formula_sum   'Gd4 Tm1 Ge1 Se4'
_cell_volume   251.54900158
_cell_formula_units_Z   1
loop_
 _symmetry_equiv_pos_site_id
 _symmetry_equiv_pos_as_xyz
  1  'x, y, z'
loop_
 _atom_site_type_symbol
 _atom_site_label
 _atom_site_symmetry_multiplicity
 _atom_site_fract_x
 _atom_site_fract_y
 _atom_site_fract_z
 _atom_site_occupancy
  Gd  Gd0  1  0.402867  0.792389  0.195256  1
  Gd  Gd1  1  0.597133  0.207611  0.804744  1
  Gd  Gd2  1  0.207611  0.402867  0.610478  1
  Gd  Gd3  1  0.792389  0.597133  0.389522  1
  Tm  Tm4  1  0.000000  0.000000  0.000000  1
  Ge  Ge5  1  0.500000  0.500000  0.000000  1
  Se  Se6  1  0.096694  0.701579  0.798272  1
  Se  Se7  1  0.701579  0.903306  0.604886  1
  Se  Se8  1  0.298421  0.096694  0.395114  1
  Se  Se9  1  0.903306  0.298421  0.201728  1
