# generated using pymatgen
data_TaNb6B8OsRu5
_symmetry_space_group_name_H-M   'P 1'
_cell_length_a   9.61528679
_cell_length_b   9.62370405
_cell_length_c   3.12689200
_cell_angle_alpha   90.00000000
_cell_angle_beta   90.00000000
_cell_angle_gamma   119.93413722
_symmetry_Int_Tables_number   1
_chemical_formula_structural   TaNb6B8OsRu5
_chemical_formula_sum   'Ta1 Nb6 B8 Os1 Ru5'
_cell_volume   250.74706773
_cell_formula_units_Z   1
loop_
 _symmetry_equiv_pos_site_id
 _symmetry_equiv_pos_as_xyz
  1  'x, y, z'
loop_
 _atom_site_type_symbol
 _atom_site_label
 _atom_site_symmetry_multiplicity
 _atom_site_fract_x
 _atom_site_fract_y
 _atom_site_fract_z
 _atom_site_occupancy
  Ta  Ta0  1  0.084914  0.722687  0.000000  1
  Nb  Nb1  1  0.000908  0.999570  0.000000  1
  Nb  Nb2  1  0.724258  0.639086  0.000000  1
  Nb  Nb3  1  0.361946  0.087571  0.000000  1
  Nb  Nb4  1  0.913953  0.275108  0.000000  1
  Nb  Nb5  1  0.275005  0.361527  0.000000  1
  Nb  Nb6  1  0.639190  0.914398  0.000000  1
  B  B7  1  0.666375  0.333296  0.000000  1
  B  B8  1  0.333580  0.667382  0.000000  1
  B  B9  1  0.154120  0.933414  0.500000  1
  B  B10  1  0.064545  0.216606  0.500000  1
  B  B11  1  0.783140  0.847230  0.500000  1
  B  B12  1  0.847838  0.064951  0.500000  1
  B  B13  1  0.934930  0.781358  0.500000  1
  B  B14  1  0.218088  0.154121  0.500000  1
  Os  Os15  1  0.358731  0.846498  0.500000  1
  Ru  Ru16  1  0.153559  0.514148  0.500000  1
  Ru  Ru17  1  0.484797  0.639740  0.500000  1
  Ru  Ru18  1  0.638772  0.153928  0.500000  1
  Ru  Ru19  1  0.846658  0.485998  0.500000  1
  Ru  Ru20  1  0.514696  0.361382  0.500000  1
