# generated using pymatgen
data_LiMgScTa7B20
_symmetry_space_group_name_H-M   'P 1'
_cell_length_a   6.15391840
_cell_length_b   7.00217099
_cell_length_c   7.39245486
_cell_angle_alpha   94.12093715
_cell_angle_beta   101.99476419
_cell_angle_gamma   115.93345864
_symmetry_Int_Tables_number   1
_chemical_formula_structural   LiMgScTa7B20
_chemical_formula_sum   'Li1 Mg1 Sc1 Ta7 B20'
_cell_volume   275.37774545
_cell_formula_units_Z   1
loop_
 _symmetry_equiv_pos_site_id
 _symmetry_equiv_pos_as_xyz
  1  'x, y, z'
loop_
 _atom_site_type_symbol
 _atom_site_label
 _atom_site_symmetry_multiplicity
 _atom_site_fract_x
 _atom_site_fract_y
 _atom_site_fract_z
 _atom_site_occupancy
  Li  Li0  1  0.999203  0.996989  0.994934  1
  Mg  Mg1  1  0.000446  0.603485  0.802738  1
  Sc  Sc2  1  0.001137  0.202331  0.601108  1
  Ta  Ta3  1  0.499779  0.998470  0.001038  1
  Ta  Ta4  1  0.501449  0.801453  0.400202  1
  Ta  Ta5  1  0.999781  0.397860  0.201899  1
  Ta  Ta6  1  0.500136  0.201469  0.600559  1
  Ta  Ta7  1  0.999497  0.799518  0.397476  1
  Ta  Ta8  1  0.501203  0.600706  0.800482  1
  Ta  Ta9  1  0.496895  0.397525  0.197831  1
  B  B10  1  0.330913  0.230194  0.870583  1
  B  B11  1  0.331819  0.632378  0.065863  1
  B  B12  1  0.165307  0.363877  0.936595  1
  B  B13  1  0.329699  0.033705  0.261061  1
  B  B14  1  0.164178  0.767651  0.129690  1
  B  B15  1  0.834626  0.232167  0.869823  1
  B  B16  1  0.165743  0.166041  0.329108  1
  B  B17  1  0.835793  0.636065  0.064289  1
  B  B18  1  0.333439  0.433906  0.466610  1
  B  B19  1  0.667703  0.367139  0.932831  1
  B  B20  1  0.834223  0.033056  0.262286  1
  B  B21  1  0.669782  0.768838  0.129954  1
  B  B22  1  0.333289  0.833780  0.668143  1
  B  B23  1  0.166026  0.567224  0.535483  1
  B  B24  1  0.665615  0.165141  0.334090  1
  B  B25  1  0.834224  0.434320  0.469170  1
  B  B26  1  0.165413  0.965703  0.735321  1
  B  B27  1  0.834695  0.833945  0.669245  1
  B  B28  1  0.668481  0.568231  0.534960  1
  B  B29  1  0.669504  0.966834  0.736629  1
