# generated using pymatgen
data_Tb6HoCoBr12
_symmetry_space_group_name_H-M   'P 1'
_cell_length_a   9.23048578
_cell_length_b   9.23048619
_cell_length_c   9.23048592
_cell_angle_alpha   106.74761473
_cell_angle_beta   106.74761809
_cell_angle_gamma   106.74760502
_symmetry_Int_Tables_number   1
_chemical_formula_structural   Tb6HoCoBr12
_chemical_formula_sum   'Tb6 Ho1 Co1 Br12'
_cell_volume   659.42436287
_cell_formula_units_Z   1
loop_
 _symmetry_equiv_pos_site_id
 _symmetry_equiv_pos_as_xyz
  1  'x, y, z'
loop_
 _atom_site_type_symbol
 _atom_site_label
 _atom_site_symmetry_multiplicity
 _atom_site_fract_x
 _atom_site_fract_y
 _atom_site_fract_z
 _atom_site_occupancy
  Tb  Tb0  1  0.978459  0.902522  0.697814  1
  Tb  Tb1  1  0.021541  0.097478  0.302186  1
  Tb  Tb2  1  0.097478  0.302186  0.021541  1
  Tb  Tb3  1  0.302186  0.021541  0.097478  1
  Tb  Tb4  1  0.902522  0.697814  0.978459  1
  Tb  Tb5  1  0.697814  0.978459  0.902522  1
  Ho  Ho6  1  0.500000  0.500000  0.500000  1
  Co  Co7  1  0.000000  0.000000  0.000000  1
  Br  Br8  1  0.538295  0.614487  0.831724  1
  Br  Br9  1  0.461705  0.385513  0.168276  1
  Br  Br10  1  0.321860  0.930033  0.778835  1
  Br  Br11  1  0.385513  0.168276  0.461705  1
  Br  Br12  1  0.930033  0.778835  0.321860  1
  Br  Br13  1  0.678140  0.069967  0.221165  1
  Br  Br14  1  0.069967  0.221165  0.678140  1
  Br  Br15  1  0.778835  0.321860  0.930033  1
  Br  Br16  1  0.221165  0.678140  0.069967  1
  Br  Br17  1  0.831724  0.538295  0.614487  1
  Br  Br18  1  0.168276  0.461705  0.385513  1
  Br  Br19  1  0.614487  0.831724  0.538295  1
