# generated using pymatgen
data_DyEr4Al2Ru3
_symmetry_space_group_name_H-M   'P 1'
_cell_length_a   8.29161648
_cell_length_b   8.29168130
_cell_length_c   8.29397216
_cell_angle_alpha   109.46462328
_cell_angle_beta   109.63291363
_cell_angle_gamma   109.36480786
_symmetry_Int_Tables_number   1
_chemical_formula_structural   DyEr4Al2Ru3
_chemical_formula_sum   'Dy2 Er8 Al4 Ru6'
_cell_volume   438.69174656
_cell_formula_units_Z   2
loop_
 _symmetry_equiv_pos_site_id
 _symmetry_equiv_pos_as_xyz
  1  'x, y, z'
loop_
 _atom_site_type_symbol
 _atom_site_label
 _atom_site_symmetry_multiplicity
 _atom_site_fract_x
 _atom_site_fract_y
 _atom_site_fract_z
 _atom_site_occupancy
  Dy  Dy0  1  0.474828  0.157499  0.225270  1
  Dy  Dy1  1  0.157706  0.226668  0.476947  1
  Er  Er2  1  0.228843  0.478022  0.157777  1
  Er  Er3  1  0.407130  0.694034  0.907630  1
  Er  Er4  1  0.695273  0.908981  0.409487  1
  Er  Er5  1  0.907911  0.407069  0.694906  1
  Er  Er6  1  0.656588  0.085598  0.835887  1
  Er  Er7  1  0.087200  0.836982  0.657615  1
  Er  Er8  1  0.837909  0.658242  0.088193  1
  Er  Er9  1  0.621511  0.621363  0.622315  1
  Al  Al10  1  0.409632  0.318689  0.907663  1
  Al  Al11  1  0.317165  0.905989  0.406847  1
  Al  Al12  1  0.906864  0.407769  0.316809  1
  Al  Al13  1  0.995509  0.997014  0.996227  1
  Ru  Ru14  1  0.036532  0.158424  0.785635  1
  Ru  Ru15  1  0.156271  0.783834  0.033142  1
  Ru  Ru16  1  0.782551  0.033615  0.157245  1
  Ru  Ru17  1  0.658186  0.533097  0.282580  1
  Ru  Ru18  1  0.531668  0.280116  0.656814  1
  Ru  Ru19  1  0.280726  0.656995  0.531014  1
