# generated using pymatgen
data_Ba7SrTa2Nb2O18
_symmetry_space_group_name_H-M   'P 1'
_cell_length_a   6.16927600
_cell_length_b   6.16927609
_cell_length_c   16.16637000
_cell_angle_alpha   90.00000000
_cell_angle_beta   90.00000000
_cell_angle_gamma   119.99997806
_symmetry_Int_Tables_number   1
_chemical_formula_structural   Ba7SrTa2Nb2O18
_chemical_formula_sum   'Ba7 Sr1 Ta2 Nb2 O18'
_cell_volume   532.85819414
_cell_formula_units_Z   1
loop_
 _symmetry_equiv_pos_site_id
 _symmetry_equiv_pos_as_xyz
  1  'x, y, z'
loop_
 _atom_site_type_symbol
 _atom_site_label
 _atom_site_symmetry_multiplicity
 _atom_site_fract_x
 _atom_site_fract_y
 _atom_site_fract_z
 _atom_site_occupancy
  Ba  Ba0  1  0.000000  0.000000  0.742440  1
  Ba  Ba1  1  0.000000  0.000000  0.256192  1
  Ba  Ba2  1  0.666667  0.333333  0.613129  1
  Ba  Ba3  1  0.333333  0.666667  0.141944  1
  Ba  Ba4  1  0.333333  0.666667  0.386455  1
  Ba  Ba5  1  0.666667  0.333333  0.857031  1
  Ba  Ba6  1  0.000000  0.000000  0.001495  1
  Sr  Sr7  1  0.000000  0.000000  0.501270  1
  Ta  Ta8  1  0.333333  0.666667  0.649698  1
  Ta  Ta9  1  0.666667  0.333333  0.165677  1
  Nb  Nb10  1  0.666667  0.333333  0.352219  1
  Nb  Nb11  1  0.333333  0.666667  0.836404  1
  O  O12  1  0.529191  0.955172  0.740401  1
  O  O13  1  0.044828  0.574019  0.740401  1
  O  O14  1  0.425981  0.470809  0.740401  1
  O  O15  1  0.470862  0.045124  0.258408  1
  O  O16  1  0.954876  0.425737  0.258408  1
  O  O17  1  0.574263  0.529138  0.258408  1
  O  O18  1  0.113787  0.357939  0.594100  1
  O  O19  1  0.642061  0.755848  0.594100  1
  O  O20  1  0.244152  0.886213  0.594100  1
  O  O21  1  0.891851  0.642208  0.112025  1
  O  O22  1  0.357792  0.249642  0.112025  1
  O  O23  1  0.750358  0.108149  0.112025  1
  O  O24  1  0.888276  0.644551  0.405828  1
  O  O25  1  0.355449  0.243725  0.405828  1
  O  O26  1  0.756275  0.111724  0.405828  1
  O  O27  1  0.106005  0.355360  0.887920  1
  O  O28  1  0.644640  0.750646  0.887920  1
  O  O29  1  0.249354  0.893995  0.887920  1
