# generated using pymatgen
data_YEr9(Si3Pt)2
_symmetry_space_group_name_H-M   'P 1'
_cell_length_a   7.26899300
_cell_length_b   7.88554640
_cell_length_c   14.53478000
_cell_angle_alpha   89.87964715
_cell_angle_beta   90.00000000
_cell_angle_gamma   90.00000000
_symmetry_Int_Tables_number   1
_chemical_formula_structural   YEr9(Si3Pt)2
_chemical_formula_sum   'Y2 Er18 Si12 Pt4'
_cell_volume   833.13148354
_cell_formula_units_Z   2
loop_
 _symmetry_equiv_pos_site_id
 _symmetry_equiv_pos_as_xyz
  1  'x, y, z'
loop_
 _atom_site_type_symbol
 _atom_site_label
 _atom_site_symmetry_multiplicity
 _atom_site_fract_x
 _atom_site_fract_y
 _atom_site_fract_z
 _atom_site_occupancy
  Y  Y0  1  0.515737  0.568377  0.339471  1
  Y  Y1  1  0.015737  0.431623  0.660529  1
  Er  Er2  1  0.812351  0.577392  0.877568  1
  Er  Er3  1  0.312351  0.422608  0.122432  1
  Er  Er4  1  0.186357  0.924029  0.376828  1
  Er  Er5  1  0.686357  0.075971  0.623172  1
  Er  Er6  1  0.186183  0.924694  0.624258  1
  Er  Er7  1  0.686183  0.075306  0.375742  1
  Er  Er8  1  0.814333  0.575611  0.123546  1
  Er  Er9  1  0.314333  0.424389  0.876454  1
  Er  Er10  1  0.661988  0.233540  0.999618  1
  Er  Er11  1  0.161988  0.766460  0.000382  1
  Er  Er12  1  0.338351  0.267389  0.499672  1
  Er  Er13  1  0.838351  0.732611  0.500328  1
  Er  Er14  1  0.482593  0.934517  0.843434  1
  Er  Er15  1  0.982593  0.065483  0.156566  1
  Er  Er16  1  0.481180  0.936222  0.155398  1
  Er  Er17  1  0.981180  0.063778  0.844602  1
  Er  Er18  1  0.517752  0.566002  0.657428  1
  Er  Er19  1  0.017752  0.433998  0.342572  1
  Si  Si20  1  0.653222  0.276936  0.789746  1
  Si  Si21  1  0.153222  0.723064  0.210254  1
  Si  Si22  1  0.348182  0.221683  0.288286  1
  Si  Si23  1  0.848182  0.778317  0.711714  1
  Si  Si24  1  0.351286  0.222329  0.711160  1
  Si  Si25  1  0.851286  0.777671  0.288840  1
  Si  Si26  1  0.650468  0.275781  0.209238  1
  Si  Si27  1  0.150468  0.724219  0.790762  1
  Si  Si28  1  0.768232  0.882767  0.000666  1
  Si  Si29  1  0.268232  0.117233  0.999334  1
  Si  Si30  1  0.231574  0.618127  0.500589  1
  Si  Si31  1  0.731574  0.381873  0.499411  1
  Pt  Pt32  1  0.517541  0.654620  0.000955  1
  Pt  Pt33  1  0.017541  0.345380  0.999045  1
  Pt  Pt34  1  0.482671  0.846589  0.501406  1
  Pt  Pt35  1  0.982671  0.153411  0.498594  1
