# generated using pymatgen
data_Cs3Rb(TeO3)2
_symmetry_space_group_name_H-M   'P 1'
_cell_length_a   6.81412300
_cell_length_b   6.81412358
_cell_length_c   8.07608200
_cell_angle_alpha   90.00000000
_cell_angle_beta   90.00000000
_cell_angle_gamma   120.00000205
_symmetry_Int_Tables_number   1
_chemical_formula_structural   Cs3Rb(TeO3)2
_chemical_formula_sum   'Cs3 Rb1 Te2 O6'
_cell_volume   324.75161285
_cell_formula_units_Z   1
loop_
 _symmetry_equiv_pos_site_id
 _symmetry_equiv_pos_as_xyz
  1  'x, y, z'
loop_
 _atom_site_type_symbol
 _atom_site_label
 _atom_site_symmetry_multiplicity
 _atom_site_fract_x
 _atom_site_fract_y
 _atom_site_fract_z
 _atom_site_occupancy
  Cs  Cs0  1  0.000000  0.000000  0.000000  1
  Cs  Cs1  1  0.666667  0.333333  0.359137  1
  Cs  Cs2  1  0.333333  0.666667  0.640863  1
  Rb  Rb3  1  0.000000  0.000000  0.500000  1
  Te  Te4  1  0.333333  0.666667  0.172674  1
  Te  Te5  1  0.666667  0.333333  0.827327  1
  O  O6  1  0.190597  0.381194  0.276566  1
  O  O7  1  0.190598  0.809403  0.276566  1
  O  O8  1  0.618806  0.809403  0.276566  1
  O  O9  1  0.381194  0.190597  0.723434  1
  O  O10  1  0.809402  0.190597  0.723434  1
  O  O11  1  0.809403  0.618807  0.723434  1
