# generated using pymatgen
data_YbNpBr6
_symmetry_space_group_name_H-M   'P 1'
_cell_length_a   8.04352977
_cell_length_b   8.04353015
_cell_length_c   8.04353083
_cell_angle_alpha   54.34219400
_cell_angle_beta   54.34219087
_cell_angle_gamma   54.34218776
_symmetry_Int_Tables_number   1
_chemical_formula_structural   YbNpBr6
_chemical_formula_sum   'Yb1 Np1 Br6'
_cell_volume   319.41349467
_cell_formula_units_Z   1
loop_
 _symmetry_equiv_pos_site_id
 _symmetry_equiv_pos_as_xyz
  1  'x, y, z'
loop_
 _atom_site_type_symbol
 _atom_site_label
 _atom_site_symmetry_multiplicity
 _atom_site_fract_x
 _atom_site_fract_y
 _atom_site_fract_z
 _atom_site_occupancy
  Yb  Yb0  1  0.167120  0.167120  0.167120  1
  Np  Np1  1  0.833289  0.833289  0.833289  1
  Br  Br2  1  0.929355  0.212291  0.590256  1
  Br  Br3  1  0.590256  0.929355  0.212291  1
  Br  Br4  1  0.212291  0.590256  0.929355  1
  Br  Br5  1  0.776432  0.435002  0.056255  1
  Br  Br6  1  0.435002  0.056255  0.776432  1
  Br  Br7  1  0.056255  0.776432  0.435002  1
