# generated using pymatgen
data_Dy3Tm5Sc11Si16W
_symmetry_space_group_name_H-M   'P 1'
_cell_length_a   7.05481479
_cell_length_b   7.30219804
_cell_length_c   13.85383186
_cell_angle_alpha   90.20249224
_cell_angle_beta   89.61807991
_cell_angle_gamma   89.73525365
_symmetry_Int_Tables_number   1
_chemical_formula_structural   Dy3Tm5Sc11Si16W
_chemical_formula_sum   'Dy3 Tm5 Sc11 Si16 W1'
_cell_volume   713.66120926
_cell_formula_units_Z   1
loop_
 _symmetry_equiv_pos_site_id
 _symmetry_equiv_pos_as_xyz
  1  'x, y, z'
loop_
 _atom_site_type_symbol
 _atom_site_label
 _atom_site_symmetry_multiplicity
 _atom_site_fract_x
 _atom_site_fract_y
 _atom_site_fract_z
 _atom_site_occupancy
  Dy  Dy0  1  0.011666  0.174650  0.097027  1
  Dy  Dy1  1  0.989322  0.825634  0.898957  1
  Dy  Dy2  1  0.487696  0.677451  0.899721  1
  Tm  Tm3  1  0.993298  0.829042  0.595659  1
  Tm  Tm4  1  0.512848  0.323032  0.096842  1
  Tm  Tm5  1  0.009794  0.175781  0.403890  1
  Tm  Tm6  1  0.506837  0.322901  0.410384  1
  Tm  Tm7  1  0.488108  0.676386  0.595620  1
  Sc  Sc8  1  0.163176  0.496186  0.744680  1
  Sc  Sc9  1  0.838032  0.497381  0.252200  1
  Sc  Sc10  1  0.337329  0.003390  0.252805  1
  Sc  Sc11  1  0.658600  0.001517  0.746840  1
  Sc  Sc12  1  0.665367  0.825419  0.379380  1
  Sc  Sc13  1  0.167961  0.678210  0.378740  1
  Sc  Sc14  1  0.669114  0.823962  0.124976  1
  Sc  Sc15  1  0.832658  0.323144  0.623090  1
  Sc  Sc16  1  0.333327  0.176712  0.874368  1
  Sc  Sc17  1  0.829769  0.323338  0.871577  1
  Sc  Sc18  1  0.170402  0.676529  0.126077  1
  Si  Si19  1  0.042244  0.119846  0.744466  1
  Si  Si20  1  0.964004  0.886601  0.251852  1
  Si  Si21  1  0.467220  0.614734  0.251133  1
  Si  Si22  1  0.530806  0.376244  0.745347  1
  Si  Si23  1  0.287225  0.878701  0.744692  1
  Si  Si24  1  0.710929  0.128704  0.251592  1
  Si  Si25  1  0.216584  0.371902  0.251217  1
  Si  Si26  1  0.784253  0.625787  0.745544  1
  Si  Si27  1  0.177369  0.451269  0.540445  1
  Si  Si28  1  0.840761  0.531394  0.460645  1
  Si  Si29  1  0.331549  0.970203  0.471358  1
  Si  Si30  1  0.843731  0.534521  0.039055  1
  Si  Si31  1  0.647634  0.034452  0.544749  1
  Si  Si32  1  0.154923  0.466042  0.959293  1
  Si  Si33  1  0.660705  0.036845  0.959294  1
  Si  Si34  1  0.341706  0.964086  0.038671  1
  W  W35  1  0.333052  0.178004  0.627815  1
