# generated using pymatgen
data_Dy7Ho9(InRu)4
_symmetry_space_group_name_H-M   'P 1'
_cell_length_a   9.61371975
_cell_length_b   9.61372030
_cell_length_c   9.65828400
_cell_angle_alpha   59.84653559
_cell_angle_beta   59.84653369
_cell_angle_gamma   59.75939741
_symmetry_Int_Tables_number   1
_chemical_formula_structural   Dy7Ho9(InRu)4
_chemical_formula_sum   'Dy7 Ho9 In4 Ru4'
_cell_volume   628.58548619
_cell_formula_units_Z   1
loop_
 _symmetry_equiv_pos_site_id
 _symmetry_equiv_pos_as_xyz
  1  'x, y, z'
loop_
 _atom_site_type_symbol
 _atom_site_label
 _atom_site_symmetry_multiplicity
 _atom_site_fract_x
 _atom_site_fract_y
 _atom_site_fract_z
 _atom_site_occupancy
  Dy  Dy0  1  0.058968  0.058968  0.441032  1
  Dy  Dy1  1  0.191389  0.808111  0.808298  1
  Dy  Dy2  1  0.808111  0.191389  0.192201  1
  Dy  Dy3  1  0.808111  0.191389  0.808298  1
  Dy  Dy4  1  0.191389  0.808111  0.192201  1
  Dy  Dy5  1  0.808546  0.808546  0.191454  1
  Dy  Dy6  1  0.192467  0.192467  0.807533  1
  Ho  Ho7  1  0.598168  0.598168  0.598429  1
  Ho  Ho8  1  0.598168  0.598168  0.205236  1
  Ho  Ho9  1  0.598380  0.206048  0.597786  1
  Ho  Ho10  1  0.206048  0.598380  0.597786  1
  Ho  Ho11  1  0.058738  0.440376  0.441921  1
  Ho  Ho12  1  0.440376  0.058738  0.058966  1
  Ho  Ho13  1  0.440376  0.058738  0.441921  1
  Ho  Ho14  1  0.058738  0.440376  0.058966  1
  Ho  Ho15  1  0.440537  0.440537  0.059463  1
  In  In16  1  0.832253  0.832253  0.832798  1
  In  In17  1  0.832253  0.832253  0.502697  1
  In  In18  1  0.832131  0.503124  0.832373  1
  In  In19  1  0.503124  0.832131  0.832373  1
  Ru  Ru20  1  0.389591  0.389591  0.388366  1
  Ru  Ru21  1  0.389591  0.389591  0.832452  1
  Ru  Ru22  1  0.391448  0.831101  0.388727  1
  Ru  Ru23  1  0.831101  0.391448  0.388727  1
