# generated using pymatgen
data_Pr8Nd4B2I17
_symmetry_space_group_name_H-M   'P 1'
_cell_length_a   9.91672809
_cell_length_b   11.87858180
_cell_length_c   11.68730254
_cell_angle_alpha   93.57256345
_cell_angle_beta   104.76481304
_cell_angle_gamma   115.76676952
_symmetry_Int_Tables_number   1
_chemical_formula_structural   Pr8Nd4B2I17
_chemical_formula_sum   'Pr8 Nd4 B2 I17'
_cell_volume   1174.97598242
_cell_formula_units_Z   1
loop_
 _symmetry_equiv_pos_site_id
 _symmetry_equiv_pos_as_xyz
  1  'x, y, z'
loop_
 _atom_site_type_symbol
 _atom_site_label
 _atom_site_symmetry_multiplicity
 _atom_site_fract_x
 _atom_site_fract_y
 _atom_site_fract_z
 _atom_site_occupancy
  Pr  Pr0  1  0.215238  0.664215  0.993506  1
  Pr  Pr1  1  0.273913  0.985581  0.903589  1
  Pr  Pr2  1  0.358065  0.760602  0.722339  1
  Pr  Pr3  1  0.944071  0.486342  0.672120  1
  Pr  Pr4  1  0.726083  0.014754  0.096614  1
  Pr  Pr5  1  0.145160  0.291366  0.147474  1
  Pr  Pr6  1  0.785051  0.336323  0.006734  1
  Pr  Pr7  1  0.854529  0.708593  0.853196  1
  Nd  Nd8  1  0.054959  0.512175  0.327209  1
  Nd  Nd9  1  0.995796  0.808642  0.585081  1
  Nd  Nd10  1  0.643718  0.239748  0.277441  1
  Nd  Nd11  1  0.004129  0.191310  0.414700  1
  B  B12  1  0.104000  0.737380  0.783952  1
  B  B13  1  0.895578  0.263871  0.216872  1
  I  I14  1  0.773404  0.528869  0.412511  1
  I  I15  1  0.629393  0.412992  0.744475  1
  I  I16  1  0.839695  0.894944  0.321022  1
  I  I17  1  0.321145  0.212102  0.370013  1
  I  I18  1  0.160308  0.105161  0.678972  1
  I  I19  1  0.590096  0.059461  0.827886  1
  I  I20  1  0.741096  0.170626  0.533954  1
  I  I21  1  0.543477  0.694608  0.956632  1
  I  I22  1  0.368686  0.587020  0.256369  1
  I  I23  1  0.226913  0.470508  0.584730  1
  I  I24  1  0.059045  0.360286  0.886289  1
  I  I25  1  0.457665  0.305023  0.045490  1
  I  I26  1  0.999958  0.000064  0.000067  1
  I  I27  1  0.256284  0.827757  0.463389  1
  I  I28  1  0.410902  0.942284  0.172808  1
  I  I29  1  0.679824  0.787986  0.629631  1
  I  I30  1  0.941820  0.639407  0.114932  1
