# generated using pymatgen
data_TmLuU2(B4Ru)4
_symmetry_space_group_name_H-M   'P 1'
_cell_length_a   3.53005600
_cell_length_b   5.93785869
_cell_length_c   11.48989956
_cell_angle_alpha   89.83062706
_cell_angle_beta   90.00000000
_cell_angle_gamma   90.00000000
_symmetry_Int_Tables_number   1
_chemical_formula_structural   TmLuU2(B4Ru)4
_chemical_formula_sum   'Tm1 Lu1 U2 B16 Ru4'
_cell_volume   240.83843027
_cell_formula_units_Z   1
loop_
 _symmetry_equiv_pos_site_id
 _symmetry_equiv_pos_as_xyz
  1  'x, y, z'
loop_
 _atom_site_type_symbol
 _atom_site_label
 _atom_site_symmetry_multiplicity
 _atom_site_fract_x
 _atom_site_fract_y
 _atom_site_fract_z
 _atom_site_occupancy
  Tm  Tm0  1  0.000000  0.129236  0.148060  1
  Lu  Lu1  1  0.000000  0.870731  0.851947  1
  U  U2  1  0.000000  0.628658  0.348998  1
  U  U3  1  0.000000  0.371314  0.651086  1
  B  B4  1  0.500000  0.790475  0.186745  1
  B  B5  1  0.500000  0.208797  0.813301  1
  B  B6  1  0.500000  0.291107  0.312495  1
  B  B7  1  0.500000  0.709068  0.687754  1
  B  B8  1  0.500000  0.864680  0.030397  1
  B  B9  1  0.500000  0.135155  0.969109  1
  B  B10  1  0.500000  0.367867  0.467339  1
  B  B11  1  0.500000  0.632201  0.532688  1
  B  B12  1  0.500000  0.885962  0.452705  1
  B  B13  1  0.500000  0.113949  0.547401  1
  B  B14  1  0.500000  0.386193  0.046073  1
  B  B15  1  0.500000  0.614548  0.953474  1
  B  B16  1  0.500000  0.975784  0.306941  1
  B  B17  1  0.500000  0.023935  0.693390  1
  B  B18  1  0.500000  0.473879  0.191613  1
  B  B19  1  0.500000  0.526613  0.808382  1
  Ru  Ru20  1  0.000000  0.639861  0.094354  1
  Ru  Ru21  1  0.000000  0.360003  0.905295  1
  Ru  Ru22  1  0.000000  0.140784  0.406266  1
  Ru  Ru23  1  0.000000  0.859200  0.594187  1
