# generated using pymatgen
data_Ca3(Bi2Pt)4
_symmetry_space_group_name_H-M   'P 1'
_cell_length_a   4.24358900
_cell_length_b   10.98775600
_cell_length_c   17.12841400
_cell_angle_alpha   90.00000000
_cell_angle_beta   90.00000000
_cell_angle_gamma   90.00000000
_symmetry_Int_Tables_number   1
_chemical_formula_structural   Ca3(Bi2Pt)4
_chemical_formula_sum   'Ca6 Bi16 Pt8'
_cell_volume   798.65547485
_cell_formula_units_Z   2
loop_
 _symmetry_equiv_pos_site_id
 _symmetry_equiv_pos_as_xyz
  1  'x, y, z'
loop_
 _atom_site_type_symbol
 _atom_site_label
 _atom_site_symmetry_multiplicity
 _atom_site_fract_x
 _atom_site_fract_y
 _atom_site_fract_z
 _atom_site_occupancy
  Ca  Ca0  1  0.500000  0.000000  0.500000  1
  Ca  Ca1  1  0.500000  0.500000  0.000000  1
  Ca  Ca2  1  0.500000  0.860113  0.197606  1
  Ca  Ca3  1  0.500000  0.139887  0.802394  1
  Ca  Ca4  1  0.500000  0.360113  0.302394  1
  Ca  Ca5  1  0.500000  0.639887  0.697606  1
  Bi  Bi6  1  0.000000  0.111025  0.213286  1
  Bi  Bi7  1  0.000000  0.888975  0.786714  1
  Bi  Bi8  1  0.000000  0.611025  0.286714  1
  Bi  Bi9  1  0.000000  0.388975  0.713286  1
  Bi  Bi10  1  0.000000  0.392177  0.141500  1
  Bi  Bi11  1  0.000000  0.607823  0.858500  1
  Bi  Bi12  1  0.000000  0.892177  0.358500  1
  Bi  Bi13  1  0.000000  0.107823  0.641500  1
  Bi  Bi14  1  0.500000  0.129994  0.037891  1
  Bi  Bi15  1  0.500000  0.870006  0.962109  1
  Bi  Bi16  1  0.500000  0.629994  0.462109  1
  Bi  Bi17  1  0.500000  0.370006  0.537891  1
  Bi  Bi18  1  0.000000  0.694902  0.085596  1
  Bi  Bi19  1  0.000000  0.305098  0.914404  1
  Bi  Bi20  1  0.000000  0.194902  0.414404  1
  Bi  Bi21  1  0.000000  0.805098  0.585596  1
  Pt  Pt22  1  0.000000  0.953091  0.079159  1
  Pt  Pt23  1  0.000000  0.046909  0.920841  1
  Pt  Pt24  1  0.000000  0.453091  0.420841  1
  Pt  Pt25  1  0.000000  0.546909  0.579159  1
  Pt  Pt26  1  0.500000  0.571121  0.176040  1
  Pt  Pt27  1  0.500000  0.428879  0.823960  1
  Pt  Pt28  1  0.500000  0.071121  0.323960  1
  Pt  Pt29  1  0.500000  0.928879  0.676040  1
