# generated using pymatgen
data_SmGeIrPt
_symmetry_space_group_name_H-M   'P 1'
_cell_length_a   9.52159200
_cell_length_b   9.52159155
_cell_length_c   4.21166000
_cell_angle_alpha   90.00000000
_cell_angle_beta   90.00000000
_cell_angle_gamma   154.95679873
_symmetry_Int_Tables_number   1
_chemical_formula_structural   SmGeIrPt
_chemical_formula_sum   'Sm2 Ge2 Ir2 Pt2'
_cell_volume   161.63009516
_cell_formula_units_Z   2
loop_
 _symmetry_equiv_pos_site_id
 _symmetry_equiv_pos_as_xyz
  1  'x, y, z'
loop_
 _atom_site_type_symbol
 _atom_site_label
 _atom_site_symmetry_multiplicity
 _atom_site_fract_x
 _atom_site_fract_y
 _atom_site_fract_z
 _atom_site_occupancy
  Sm  Sm0  1  0.103556  0.896444  0.750000  1
  Sm  Sm1  1  0.896444  0.103556  0.250000  1
  Ge  Ge2  1  0.322873  0.677127  0.750000  1
  Ge  Ge3  1  0.677127  0.322873  0.250000  1
  Ir  Ir4  1  0.250189  0.749811  0.250000  1
  Ir  Ir5  1  0.749811  0.250189  0.750000  1
  Pt  Pt6  1  0.545193  0.454807  0.250000  1
  Pt  Pt7  1  0.454807  0.545193  0.750000  1
