# generated using pymatgen
data_Tb8Lu11Si16Ag
_symmetry_space_group_name_H-M   'P 1'
_cell_length_a   7.58060339
_cell_length_b   7.58060363
_cell_length_c   13.73482679
_cell_angle_alpha   89.62847180
_cell_angle_beta   90.37152983
_cell_angle_gamma   90.11372546
_symmetry_Int_Tables_number   1
_chemical_formula_structural   Tb8Lu11Si16Ag
_chemical_formula_sum   'Tb8 Lu11 Si16 Ag1'
_cell_volume   789.24469319
_cell_formula_units_Z   1
loop_
 _symmetry_equiv_pos_site_id
 _symmetry_equiv_pos_as_xyz
  1  'x, y, z'
loop_
 _atom_site_type_symbol
 _atom_site_label
 _atom_site_symmetry_multiplicity
 _atom_site_fract_x
 _atom_site_fract_y
 _atom_site_fract_z
 _atom_site_occupancy
  Tb  Tb0  1  0.999052  0.350556  0.206366  1
  Tb  Tb1  1  0.004427  0.648202  0.714560  1
  Tb  Tb2  1  0.147150  0.495312  0.461358  1
  Tb  Tb3  1  0.499482  0.858854  0.036402  1
  Tb  Tb4  1  0.858854  0.499482  0.963598  1
  Tb  Tb5  1  0.495312  0.147150  0.538642  1
  Tb  Tb6  1  0.350556  0.999052  0.793634  1
  Tb  Tb7  1  0.648202  0.004427  0.285440  1
  Lu  Lu8  1  0.820473  0.820473  0.500000  1
  Lu  Lu9  1  0.320445  0.681288  0.248460  1
  Lu  Lu10  1  0.681288  0.320445  0.751540  1
  Lu  Lu11  1  0.139893  0.004928  0.375430  1
  Lu  Lu12  1  0.865557  0.998939  0.880053  1
  Lu  Lu13  1  0.495828  0.643234  0.626938  1
  Lu  Lu14  1  0.356158  0.495673  0.876833  1
  Lu  Lu15  1  0.495673  0.356158  0.123167  1
  Lu  Lu16  1  0.643234  0.495828  0.373062  1
  Lu  Lu17  1  0.004928  0.139893  0.624570  1
  Lu  Lu18  1  0.998939  0.865557  0.119947  1
  Si  Si19  1  0.351822  0.294428  0.315304  1
  Si  Si20  1  0.645760  0.709339  0.819683  1
  Si  Si21  1  0.206371  0.853227  0.567968  1
  Si  Si22  1  0.141420  0.777424  0.928825  1
  Si  Si23  1  0.777424  0.141420  0.071175  1
  Si  Si24  1  0.853227  0.206371  0.432032  1
  Si  Si25  1  0.294428  0.351822  0.684696  1
  Si  Si26  1  0.709339  0.645760  0.180317  1
  Si  Si27  1  0.292704  0.059339  0.187942  1
  Si  Si28  1  0.702250  0.942286  0.690587  1
  Si  Si29  1  0.443556  0.795112  0.437023  1
  Si  Si30  1  0.207794  0.571075  0.063030  1
  Si  Si31  1  0.571075  0.207794  0.936970  1
  Si  Si32  1  0.795112  0.443556  0.562977  1
  Si  Si33  1  0.059339  0.292704  0.812058  1
  Si  Si34  1  0.942286  0.702250  0.309413  1
  Ag  Ag35  1  0.180644  0.180644  0.000000  1
