# generated using pymatgen
data_Rb2GdHoB24
_symmetry_space_group_name_H-M   'P 1'
_cell_length_a   4.18478600
_cell_length_b   4.18478600
_cell_length_c   16.80108100
_cell_angle_alpha   90.00000000
_cell_angle_beta   90.00000000
_cell_angle_gamma   90.00000000
_symmetry_Int_Tables_number   1
_chemical_formula_structural   Rb2GdHoB24
_chemical_formula_sum   'Rb2 Gd1 Ho1 B24'
_cell_volume   294.22781989
_cell_formula_units_Z   1
loop_
 _symmetry_equiv_pos_site_id
 _symmetry_equiv_pos_as_xyz
  1  'x, y, z'
loop_
 _atom_site_type_symbol
 _atom_site_label
 _atom_site_symmetry_multiplicity
 _atom_site_fract_x
 _atom_site_fract_y
 _atom_site_fract_z
 _atom_site_occupancy
  Rb  Rb0  1  0.000000  0.000000  0.250304  1
  Rb  Rb1  1  0.000000  0.000000  0.749696  1
  Gd  Gd2  1  0.000000  0.000000  0.000000  1
  Ho  Ho3  1  0.000000  0.000000  0.500000  1
  B  B4  1  0.201680  0.500000  0.121735  1
  B  B5  1  0.201386  0.500000  0.378906  1
  B  B6  1  0.201386  0.500000  0.621094  1
  B  B7  1  0.201680  0.500000  0.878265  1
  B  B8  1  0.500000  0.500000  0.197935  1
  B  B9  1  0.500000  0.500000  0.451515  1
  B  B10  1  0.500000  0.500000  0.697336  1
  B  B11  1  0.500000  0.500000  0.951209  1
  B  B12  1  0.500000  0.201680  0.121735  1
  B  B13  1  0.500000  0.201386  0.378906  1
  B  B14  1  0.500000  0.201386  0.621094  1
  B  B15  1  0.500000  0.201680  0.878265  1
  B  B16  1  0.500000  0.500000  0.048791  1
  B  B17  1  0.500000  0.500000  0.302664  1
  B  B18  1  0.500000  0.500000  0.548485  1
  B  B19  1  0.500000  0.500000  0.802065  1
  B  B20  1  0.500000  0.798320  0.121735  1
  B  B21  1  0.500000  0.798614  0.378906  1
  B  B22  1  0.500000  0.798614  0.621094  1
  B  B23  1  0.500000  0.798320  0.878265  1
  B  B24  1  0.798320  0.500000  0.121735  1
  B  B25  1  0.798614  0.500000  0.378906  1
  B  B26  1  0.798614  0.500000  0.621094  1
  B  B27  1  0.798320  0.500000  0.878265  1
