# generated using pymatgen
data_Pr8Y12Si15Se
_symmetry_space_group_name_H-M   'P 1'
_cell_length_a   7.54899220
_cell_length_b   7.86965286
_cell_length_c   14.85223500
_cell_angle_alpha   90.00000000
_cell_angle_beta   90.00000000
_cell_angle_gamma   90.69239409
_symmetry_Int_Tables_number   1
_chemical_formula_structural   Pr8Y12Si15Se
_chemical_formula_sum   'Pr8 Y12 Si15 Se1'
_cell_volume   882.27637951
_cell_formula_units_Z   1
loop_
 _symmetry_equiv_pos_site_id
 _symmetry_equiv_pos_as_xyz
  1  'x, y, z'
loop_
 _atom_site_type_symbol
 _atom_site_label
 _atom_site_symmetry_multiplicity
 _atom_site_fract_x
 _atom_site_fract_y
 _atom_site_fract_z
 _atom_site_occupancy
  Pr  Pr0  1  0.019664  0.180870  0.402238  1
  Pr  Pr1  1  0.518032  0.320488  0.402626  1
  Pr  Pr2  1  0.489709  0.670201  0.906661  1
  Pr  Pr3  1  0.489709  0.670201  0.593339  1
  Pr  Pr4  1  0.982841  0.823134  0.599967  1
  Pr  Pr5  1  0.982841  0.823134  0.900033  1
  Pr  Pr6  1  0.518032  0.320488  0.097374  1
  Pr  Pr7  1  0.019664  0.180870  0.097762  1
  Y  Y8  1  0.319289  0.176874  0.624569  1
  Y  Y9  1  0.676306  0.823277  0.376611  1
  Y  Y10  1  0.663897  0.988781  0.750000  1
  Y  Y11  1  0.175657  0.679269  0.377126  1
  Y  Y12  1  0.817730  0.325521  0.878576  1
  Y  Y13  1  0.817730  0.325521  0.621424  1
  Y  Y14  1  0.841154  0.489013  0.250000  1
  Y  Y15  1  0.343483  0.012486  0.250000  1
  Y  Y16  1  0.319289  0.176874  0.875431  1
  Y  Y17  1  0.175657  0.679269  0.122874  1
  Y  Y18  1  0.676306  0.823277  0.123389  1
  Y  Y19  1  0.153325  0.502192  0.750000  1
  Si  Si20  1  0.467327  0.611138  0.250000  1
  Si  Si21  1  0.012681  0.138492  0.750000  1
  Si  Si22  1  0.526537  0.385857  0.750000  1
  Si  Si23  1  0.147757  0.470066  0.540353  1
  Si  Si24  1  0.969421  0.890144  0.250000  1
  Si  Si25  1  0.726123  0.121535  0.250000  1
  Si  Si26  1  0.852139  0.534470  0.039676  1
  Si  Si27  1  0.352872  0.967849  0.037375  1
  Si  Si28  1  0.147757  0.470066  0.959647  1
  Si  Si29  1  0.644520  0.028812  0.540934  1
  Si  Si30  1  0.352872  0.967849  0.462625  1
  Si  Si31  1  0.852139  0.534470  0.460324  1
  Si  Si32  1  0.777512  0.625576  0.750000  1
  Si  Si33  1  0.225149  0.379736  0.250000  1
  Si  Si34  1  0.644520  0.028812  0.959066  1
  Se  Se35  1  0.300359  0.853385  0.750000  1
