# generated using pymatgen
data_Ho3Cd(Ir2O7)2
_symmetry_space_group_name_H-M   'P 1'
_cell_length_a   7.18718555
_cell_length_b   7.28685088
_cell_length_c   7.28685200
_cell_angle_alpha   59.99999491
_cell_angle_beta   59.54020520
_cell_angle_gamma   59.54020221
_symmetry_Int_Tables_number   1
_chemical_formula_structural   Ho3Cd(Ir2O7)2
_chemical_formula_sum   'Ho3 Cd1 Ir4 O14'
_cell_volume   267.96013191
_cell_formula_units_Z   1
loop_
 _symmetry_equiv_pos_site_id
 _symmetry_equiv_pos_as_xyz
  1  'x, y, z'
loop_
 _atom_site_type_symbol
 _atom_site_label
 _atom_site_symmetry_multiplicity
 _atom_site_fract_x
 _atom_site_fract_y
 _atom_site_fract_z
 _atom_site_occupancy
  Ho  Ho0  1  0.125000  0.125000  0.625000  1
  Ho  Ho1  1  0.125000  0.125000  0.125000  1
  Ho  Ho2  1  0.125000  0.625000  0.125000  1
  Cd  Cd3  1  0.625000  0.125000  0.125000  1
  Ir  Ir4  1  0.625000  0.625000  0.625000  1
  Ir  Ir5  1  0.125000  0.625000  0.625000  1
  Ir  Ir6  1  0.625000  0.125000  0.625000  1
  Ir  Ir7  1  0.625000  0.625000  0.125000  1
  O  O8  1  0.964065  0.537932  0.537932  1
  O  O9  1  0.285935  0.289929  0.712068  1
  O  O10  1  0.964065  0.537932  0.960071  1
  O  O11  1  0.713605  0.294873  0.294873  1
  O  O12  1  0.536395  0.553350  0.955127  1
  O  O13  1  0.536395  0.955127  0.553350  1
  O  O14  1  0.536395  0.955127  0.955127  1
  O  O15  1  0.245065  0.251645  0.251645  1
  O  O16  1  0.285935  0.712068  0.712068  1
  O  O17  1  0.713605  0.294873  0.696650  1
  O  O18  1  0.004935  0.998355  0.998355  1
  O  O19  1  0.964065  0.960071  0.537932  1
  O  O20  1  0.285935  0.712068  0.289929  1
  O  O21  1  0.713605  0.696650  0.294873  1
