# generated using pymatgen
data_K4MoRhBr12
_symmetry_space_group_name_H-M   'P 1'
_cell_length_a   7.42862000
_cell_length_b   7.42862000
_cell_length_c   10.77566400
_cell_angle_alpha   90.00000000
_cell_angle_beta   90.00000000
_cell_angle_gamma   90.00000000
_symmetry_Int_Tables_number   1
_chemical_formula_structural   K4MoRhBr12
_chemical_formula_sum   'K4 Mo1 Rh1 Br12'
_cell_volume   594.64849969
_cell_formula_units_Z   1
loop_
 _symmetry_equiv_pos_site_id
 _symmetry_equiv_pos_as_xyz
  1  'x, y, z'
loop_
 _atom_site_type_symbol
 _atom_site_label
 _atom_site_symmetry_multiplicity
 _atom_site_fract_x
 _atom_site_fract_y
 _atom_site_fract_z
 _atom_site_occupancy
  K  K0  1  0.500000  0.000000  0.791354  1
  K  K1  1  0.000000  0.500000  0.208646  1
  K  K2  1  0.500000  0.000000  0.208646  1
  K  K3  1  0.000000  0.500000  0.791354  1
  Mo  Mo4  1  0.500000  0.500000  0.500000  1
  Rh  Rh5  1  0.000000  0.000000  0.000000  1
  Br  Br6  1  0.000000  0.000000  0.766737  1
  Br  Br7  1  0.500000  0.500000  0.263532  1
  Br  Br8  1  0.740162  0.740162  0.500000  1
  Br  Br9  1  0.239152  0.239152  0.000000  1
  Br  Br10  1  0.740162  0.259838  0.500000  1
  Br  Br11  1  0.239152  0.760848  0.000000  1
  Br  Br12  1  0.000000  0.000000  0.233263  1
  Br  Br13  1  0.500000  0.500000  0.736468  1
  Br  Br14  1  0.259838  0.259838  0.500000  1
  Br  Br15  1  0.760848  0.760848  0.000000  1
  Br  Br16  1  0.259838  0.740162  0.500000  1
  Br  Br17  1  0.760848  0.239152  0.000000  1
