# generated using pymatgen
data_Dy3YAgRh
_symmetry_space_group_name_H-M   'P 1'
_cell_length_a   9.53297164
_cell_length_b   9.52773756
_cell_length_c   9.53005816
_cell_angle_alpha   60.02582875
_cell_angle_beta   59.97512560
_cell_angle_gamma   59.99851679
_symmetry_Int_Tables_number   1
_chemical_formula_structural   Dy3YAgRh
_chemical_formula_sum   'Dy12 Y4 Ag4 Rh4'
_cell_volume   612.06385581
_cell_formula_units_Z   4
loop_
 _symmetry_equiv_pos_site_id
 _symmetry_equiv_pos_as_xyz
  1  'x, y, z'
loop_
 _atom_site_type_symbol
 _atom_site_label
 _atom_site_symmetry_multiplicity
 _atom_site_fract_x
 _atom_site_fract_y
 _atom_site_fract_z
 _atom_site_occupancy
  Dy  Dy0  1  0.603208  0.603357  0.603391  1
  Dy  Dy1  1  0.603347  0.603185  0.190079  1
  Dy  Dy2  1  0.603394  0.190062  0.603189  1
  Dy  Dy3  1  0.190033  0.603395  0.603355  1
  Dy  Dy4  1  0.062555  0.437453  0.437454  1
  Dy  Dy5  1  0.437455  0.062541  0.062539  1
  Dy  Dy6  1  0.436960  0.063036  0.436956  1
  Dy  Dy7  1  0.063048  0.436956  0.063041  1
  Dy  Dy8  1  0.437180  0.437184  0.062815  1
  Dy  Dy9  1  0.062808  0.062810  0.437189  1
  Dy  Dy10  1  0.186088  0.813909  0.813912  1
  Dy  Dy11  1  0.813908  0.186100  0.186077  1
  Y  Y12  1  0.814469  0.185541  0.814470  1
  Y  Y13  1  0.185515  0.814485  0.185527  1
  Y  Y14  1  0.814301  0.814297  0.185701  1
  Y  Y15  1  0.185705  0.185712  0.814294  1
  Ag  Ag16  1  0.832112  0.832007  0.832010  1
  Ag  Ag17  1  0.832012  0.832096  0.503875  1
  Ag  Ag18  1  0.831987  0.503908  0.832097  1
  Ag  Ag19  1  0.503874  0.831993  0.832024  1
  Rh  Rh20  1  0.393872  0.393514  0.393756  1
  Rh  Rh21  1  0.393510  0.393879  0.818848  1
  Rh  Rh22  1  0.393734  0.818843  0.393892  1
  Rh  Rh23  1  0.818927  0.393739  0.393511  1
