# generated using pymatgen
data_SmTm3(MoO4)6
_symmetry_space_group_name_H-M   'P 1'
_cell_length_a   7.43206378
_cell_length_b   7.43206378
_cell_length_c   10.66762550
_cell_angle_alpha   90.09628054
_cell_angle_beta   90.09628054
_cell_angle_gamma   89.85255828
_symmetry_Int_Tables_number   1
_chemical_formula_structural   SmTm3(MoO4)6
_chemical_formula_sum   'Sm1 Tm3 Mo6 O24'
_cell_volume   589.22878548
_cell_formula_units_Z   1
loop_
 _symmetry_equiv_pos_site_id
 _symmetry_equiv_pos_as_xyz
  1  'x, y, z'
loop_
 _atom_site_type_symbol
 _atom_site_label
 _atom_site_symmetry_multiplicity
 _atom_site_fract_x
 _atom_site_fract_y
 _atom_site_fract_z
 _atom_site_occupancy
  Sm  Sm0  1  0.684087  0.184087  0.259996  1
  Tm  Tm1  1  0.814077  0.686346  0.737806  1
  Tm  Tm2  1  0.310968  0.810968  0.262838  1
  Tm  Tm3  1  0.186346  0.314077  0.737806  1
  Mo  Mo4  1  0.496819  0.504684  0.996503  1
  Mo  Mo5  1  0.004684  0.996819  0.996503  1
  Mo  Mo6  1  0.706422  0.206422  0.648634  1
  Mo  Mo7  1  0.794751  0.707923  0.358244  1
  Mo  Mo8  1  0.293507  0.793507  0.643575  1
  Mo  Mo9  1  0.207923  0.294751  0.358244  1
  O  O10  1  0.306374  0.459858  0.898355  1
  O  O11  1  0.191373  0.951334  0.098391  1
  O  O12  1  0.689146  0.549988  0.900303  1
  O  O13  1  0.810785  0.039405  0.091188  1
  O  O14  1  0.539405  0.310785  0.091188  1
  O  O15  1  0.959858  0.806374  0.898355  1
  O  O16  1  0.451334  0.691373  0.098391  1
  O  O17  1  0.049988  0.189146  0.900303  1
  O  O18  1  0.995867  0.228818  0.297094  1
  O  O19  1  0.508187  0.725893  0.702398  1
  O  O20  1  0.007376  0.778564  0.298198  1
  O  O21  1  0.491561  0.274441  0.706347  1
  O  O22  1  0.774441  0.991561  0.706347  1
  O  O23  1  0.728818  0.495867  0.297094  1
  O  O24  1  0.225893  0.008187  0.702398  1
  O  O25  1  0.278564  0.507376  0.298198  1
  O  O26  1  0.694883  0.194883  0.482233  1
  O  O27  1  0.806980  0.694885  0.525067  1
  O  O28  1  0.304476  0.804476  0.476633  1
  O  O29  1  0.194885  0.306980  0.525067  1
  O  O30  1  0.875000  0.375000  0.695023  1
  O  O31  1  0.620653  0.868749  0.309971  1
  O  O32  1  0.125822  0.625822  0.691337  1
  O  O33  1  0.368749  0.120653  0.309971  1
