# generated using pymatgen
data_Pm2Ge2IrRhF2
_symmetry_space_group_name_H-M   'P 1'
_cell_length_a   4.09826400
_cell_length_b   4.09826400
_cell_length_c   8.30993700
_cell_angle_alpha   90.00000000
_cell_angle_beta   90.00000000
_cell_angle_gamma   90.00000000
_symmetry_Int_Tables_number   1
_chemical_formula_structural   Pm2Ge2IrRhF2
_chemical_formula_sum   'Pm2 Ge2 Ir1 Rh1 F2'
_cell_volume   139.57177240
_cell_formula_units_Z   1
loop_
 _symmetry_equiv_pos_site_id
 _symmetry_equiv_pos_as_xyz
  1  'x, y, z'
loop_
 _atom_site_type_symbol
 _atom_site_label
 _atom_site_symmetry_multiplicity
 _atom_site_fract_x
 _atom_site_fract_y
 _atom_site_fract_z
 _atom_site_occupancy
  Pm  Pm0  1  0.250002  0.250002  0.184765  1
  Pm  Pm1  1  0.750001  0.750001  0.815236  1
  Ge  Ge2  1  0.750001  0.750001  0.331920  1
  Ge  Ge3  1  0.250002  0.250002  0.668079  1
  Ir  Ir4  1  0.750001  0.250002  0.499999  1
  Rh  Rh5  1  0.250002  0.750001  0.499999  1
  F  F6  1  0.750001  0.250002  0.000000  1
  F  F7  1  0.250002  0.750001  0.000000  1
