# generated using pymatgen
data_Y3Ho3CoRh
_symmetry_space_group_name_H-M   'P 1'
_cell_length_a   6.24803976
_cell_length_b   7.08281474
_cell_length_c   9.40176849
_cell_angle_alpha   89.98854946
_cell_angle_beta   89.83736309
_cell_angle_gamma   90.51224161
_symmetry_Int_Tables_number   1
_chemical_formula_structural   Y3Ho3CoRh
_chemical_formula_sum   'Y6 Ho6 Co2 Rh2'
_cell_volume   416.04480393
_cell_formula_units_Z   2
loop_
 _symmetry_equiv_pos_site_id
 _symmetry_equiv_pos_as_xyz
  1  'x, y, z'
loop_
 _atom_site_type_symbol
 _atom_site_label
 _atom_site_symmetry_multiplicity
 _atom_site_fract_x
 _atom_site_fract_y
 _atom_site_fract_z
 _atom_site_occupancy
  Y  Y0  1  0.627986  0.042573  0.249128  1
  Y  Y1  1  0.372014  0.957427  0.750872  1
  Y  Y2  1  0.142810  0.469800  0.751118  1
  Y  Y3  1  0.857190  0.530200  0.248882  1
  Y  Y4  1  0.326864  0.672000  0.434294  1
  Y  Y5  1  0.673136  0.328000  0.565706  1
  Ho  Ho6  1  0.176081  0.181748  0.064671  1
  Ho  Ho7  1  0.823919  0.818252  0.935329  1
  Ho  Ho8  1  0.672457  0.328281  0.934076  1
  Ho  Ho9  1  0.824058  0.818897  0.565536  1
  Ho  Ho10  1  0.327543  0.671719  0.065924  1
  Ho  Ho11  1  0.175942  0.181103  0.434464  1
  Co  Co12  1  0.443059  0.382890  0.247250  1
  Co  Co13  1  0.556941  0.617110  0.752750  1
  Rh  Rh14  1  0.946019  0.112736  0.751943  1
  Rh  Rh15  1  0.053981  0.887264  0.248057  1
