# generated using pymatgen
data_Zr7ScCo16(As5P)2
_symmetry_space_group_name_H-M   'P 1'
_cell_length_a   12.49350916
_cell_length_b   12.48517332
_cell_length_c   3.75472400
_cell_angle_alpha   90.00000000
_cell_angle_beta   90.00000000
_cell_angle_gamma   120.02981485
_symmetry_Int_Tables_number   1
_chemical_formula_structural   Zr7ScCo16(As5P)2
_chemical_formula_sum   'Zr7 Sc1 Co16 As10 P2'
_cell_volume   507.05738254
_cell_formula_units_Z   1
loop_
 _symmetry_equiv_pos_site_id
 _symmetry_equiv_pos_as_xyz
  1  'x, y, z'
loop_
 _atom_site_type_symbol
 _atom_site_label
 _atom_site_symmetry_multiplicity
 _atom_site_fract_x
 _atom_site_fract_y
 _atom_site_fract_z
 _atom_site_occupancy
  Zr  Zr0  1  0.555809  0.999928  0.000000  1
  Zr  Zr1  1  0.999903  0.557435  0.000000  1
  Zr  Zr2  1  0.665966  0.333468  0.000000  1
  Zr  Zr3  1  0.332379  0.664937  0.000000  1
  Zr  Zr4  1  0.829546  0.823700  0.500000  1
  Zr  Zr5  1  0.168798  0.000684  0.500000  1
  Zr  Zr6  1  0.006783  0.173999  0.500000  1
  Sc  Sc7  1  0.441056  0.441113  0.000000  1
  Co  Co8  1  0.193491  0.364920  0.000000  1
  Co  Co9  1  0.171559  0.807005  0.000000  1
  Co  Co10  1  0.828690  0.636834  0.000000  1
  Co  Co11  1  0.805866  0.176865  0.000000  1
  Co  Co12  1  0.365884  0.193938  0.000000  1
  Co  Co13  1  0.124519  0.478177  0.500000  1
  Co  Co14  1  0.354800  0.876815  0.500000  1
  Co  Co15  1  0.521223  0.644105  0.500000  1
  Co  Co16  1  0.645578  0.521761  0.500000  1
  Co  Co17  1  0.877419  0.356588  0.500000  1
  Co  Co18  1  0.477775  0.124386  0.500000  1
  Co  Co19  1  0.007707  0.000308  0.000000  1
  Co  Co20  1  0.721236  0.000051  0.500000  1
  Co  Co21  1  0.999934  0.727704  0.500000  1
  Co  Co22  1  0.629594  0.822976  0.000000  1
  Co  Co23  1  0.272960  0.272893  0.500000  1
  As  As24  1  0.651480  0.651215  0.000000  1
  As  As25  1  0.342917  0.000687  0.000000  1
  As  As26  1  0.000955  0.344618  0.000000  1
  As  As27  1  0.482351  0.311648  0.500000  1
  As  As28  1  0.690202  0.175129  0.500000  1
  As  As29  1  0.826072  0.517562  0.500000  1
  As  As30  1  0.515614  0.824890  0.500000  1
  As  As31  1  0.173928  0.690880  0.500000  1
  As  As32  1  0.828743  0.999679  0.000000  1
  As  As33  1  0.311487  0.482209  0.500000  1
  P  P34  1  0.000861  0.825338  0.000000  1
  P  P35  1  0.176915  0.175556  0.000000  1
