# generated using pymatgen
data_Ta8Cr3ReB8
_symmetry_space_group_name_H-M   'P 1'
_cell_length_a   5.97059100
_cell_length_b   5.97059100
_cell_length_c   6.53216900
_cell_angle_alpha   90.00000000
_cell_angle_beta   90.00000000
_cell_angle_gamma   90.00000000
_symmetry_Int_Tables_number   1
_chemical_formula_structural   Ta8Cr3ReB8
_chemical_formula_sum   'Ta8 Cr3 Re1 B8'
_cell_volume   232.85847891
_cell_formula_units_Z   1
loop_
 _symmetry_equiv_pos_site_id
 _symmetry_equiv_pos_as_xyz
  1  'x, y, z'
loop_
 _atom_site_type_symbol
 _atom_site_label
 _atom_site_symmetry_multiplicity
 _atom_site_fract_x
 _atom_site_fract_y
 _atom_site_fract_z
 _atom_site_occupancy
  Ta  Ta0  1  0.677172  0.818053  0.502601  1
  Ta  Ta1  1  0.322828  0.181947  0.502601  1
  Ta  Ta2  1  0.818010  0.322861  0.997396  1
  Ta  Ta3  1  0.181990  0.677139  0.997396  1
  Ta  Ta4  1  0.818053  0.322828  0.502601  1
  Ta  Ta5  1  0.181947  0.677172  0.502601  1
  Ta  Ta6  1  0.322861  0.181990  0.997396  1
  Ta  Ta7  1  0.677139  0.818010  0.997396  1
  Cr  Cr8  1  0.500000  0.500000  0.250144  1
  Cr  Cr9  1  0.000000  0.000000  0.750125  1
  Cr  Cr10  1  0.500000  0.500000  0.749913  1
  Re  Re11  1  0.000000  0.000000  0.249943  1
  B  B12  1  0.390034  0.887515  0.249982  1
  B  B13  1  0.609966  0.112485  0.249982  1
  B  B14  1  0.110947  0.387317  0.749989  1
  B  B15  1  0.889053  0.612683  0.749989  1
  B  B16  1  0.887515  0.609966  0.249982  1
  B  B17  1  0.112485  0.390034  0.249982  1
  B  B18  1  0.387317  0.889053  0.749989  1
  B  B19  1  0.612683  0.110947  0.749989  1
