# generated using pymatgen
data_Er3Tm9OsRh3
_symmetry_space_group_name_H-M   'P 1'
_cell_length_a   6.29675379
_cell_length_b   7.18867773
_cell_length_c   9.07139300
_cell_angle_alpha   90.00000000
_cell_angle_beta   90.00000000
_cell_angle_gamma   90.06901789
_symmetry_Int_Tables_number   1
_chemical_formula_structural   Er3Tm9OsRh3
_chemical_formula_sum   'Er3 Tm9 Os1 Rh3'
_cell_volume   410.61933370
_cell_formula_units_Z   1
loop_
 _symmetry_equiv_pos_site_id
 _symmetry_equiv_pos_as_xyz
  1  'x, y, z'
loop_
 _atom_site_type_symbol
 _atom_site_label
 _atom_site_symmetry_multiplicity
 _atom_site_fract_x
 _atom_site_fract_y
 _atom_site_fract_z
 _atom_site_occupancy
  Er  Er0  1  0.373883  0.536018  0.250000  1
  Er  Er1  1  0.625641  0.465953  0.750000  1
  Er  Er2  1  0.129866  0.034412  0.250000  1
  Tm  Tm3  1  0.673139  0.177975  0.062169  1
  Tm  Tm4  1  0.172901  0.323401  0.936397  1
  Tm  Tm5  1  0.831600  0.677500  0.442028  1
  Tm  Tm6  1  0.322999  0.819677  0.564376  1
  Tm  Tm7  1  0.322999  0.819677  0.935624  1
  Tm  Tm8  1  0.831600  0.677500  0.057972  1
  Tm  Tm9  1  0.172901  0.323401  0.563603  1
  Tm  Tm10  1  0.673139  0.177975  0.437831  1
  Tm  Tm11  1  0.872916  0.965936  0.750000  1
  Os  Os12  1  0.037824  0.615929  0.750000  1
  Rh  Rh13  1  0.547496  0.885727  0.250000  1
  Rh  Rh14  1  0.456831  0.114933  0.750000  1
  Rh  Rh15  1  0.954263  0.383988  0.250000  1
