# generated using pymatgen
data_Rb8Nb3SbCl24
_symmetry_space_group_name_H-M   'P 1'
_cell_length_a   12.80108146
_cell_length_b   12.80108167
_cell_length_c   12.80108155
_cell_angle_alpha   132.09777769
_cell_angle_beta   132.09778036
_cell_angle_gamma   70.07464173
_symmetry_Int_Tables_number   1
_chemical_formula_structural   Rb8Nb3SbCl24
_chemical_formula_sum   'Rb8 Nb3 Sb1 Cl24'
_cell_volume   1132.20825784
_cell_formula_units_Z   1
loop_
 _symmetry_equiv_pos_site_id
 _symmetry_equiv_pos_as_xyz
  1  'x, y, z'
loop_
 _atom_site_type_symbol
 _atom_site_label
 _atom_site_symmetry_multiplicity
 _atom_site_fract_x
 _atom_site_fract_y
 _atom_site_fract_z
 _atom_site_occupancy
  Rb  Rb0  1  0.641492  0.638748  0.520867  1
  Rb  Rb1  1  0.879375  0.358508  0.997256  1
  Rb  Rb2  1  0.117881  0.120625  0.479133  1
  Rb  Rb3  1  0.361252  0.882119  0.002744  1
  Rb  Rb4  1  0.117881  0.638748  0.997256  1
  Rb  Rb5  1  0.879375  0.882119  0.520867  1
  Rb  Rb6  1  0.361252  0.358508  0.479133  1
  Rb  Rb7  1  0.641492  0.120625  0.002744  1
  Nb  Nb8  1  0.250000  0.750000  0.500000  1
  Nb  Nb9  1  0.500000  0.500000  0.000000  1
  Nb  Nb10  1  0.750000  0.250000  0.500000  1
  Sb  Sb11  1  0.000000  0.000000  0.000000  1
  Cl  Cl12  1  0.127439  0.127439  0.000000  1
  Cl  Cl13  1  0.481680  0.748620  0.733059  1
  Cl  Cl14  1  0.865841  0.365841  0.500000  1
  Cl  Cl15  1  0.984053  0.251514  0.732540  1
  Cl  Cl16  1  0.872561  0.872561  0.000000  1
  Cl  Cl17  1  0.251380  0.984438  0.733059  1
  Cl  Cl18  1  0.267816  0.500269  0.767548  1
  Cl  Cl19  1  0.499731  0.267279  0.767548  1
  Cl  Cl20  1  0.499731  0.732184  0.232452  1
  Cl  Cl21  1  0.518975  0.251514  0.267460  1
  Cl  Cl22  1  0.000873  0.744466  0.743593  1
  Cl  Cl23  1  0.251380  0.518320  0.266941  1
  Cl  Cl24  1  0.134864  0.634864  0.500000  1
  Cl  Cl25  1  0.732721  0.500269  0.232452  1
  Cl  Cl26  1  0.255534  0.999127  0.256407  1
  Cl  Cl27  1  0.748486  0.015947  0.267460  1
  Cl  Cl28  1  0.742722  0.999127  0.743593  1
  Cl  Cl29  1  0.634159  0.134159  0.500000  1
  Cl  Cl30  1  0.384066  0.384066  0.000000  1
  Cl  Cl31  1  0.615934  0.615934  0.000000  1
  Cl  Cl32  1  0.748486  0.481025  0.732540  1
  Cl  Cl33  1  0.015562  0.748620  0.266941  1
  Cl  Cl34  1  0.000873  0.257278  0.256407  1
  Cl  Cl35  1  0.365136  0.865136  0.500000  1
