# generated using pymatgen
data_Na3LiPu2Cl12
_symmetry_space_group_name_H-M   'P 1'
_cell_length_a   6.85370300
_cell_length_b   6.85370456
_cell_length_c   12.75458900
_cell_angle_alpha   90.00000000
_cell_angle_beta   90.00000000
_cell_angle_gamma   119.99998764
_symmetry_Int_Tables_number   1
_chemical_formula_structural   Na3LiPu2Cl12
_chemical_formula_sum   'Na3 Li1 Pu2 Cl12'
_cell_volume   518.85716065
_cell_formula_units_Z   1
loop_
 _symmetry_equiv_pos_site_id
 _symmetry_equiv_pos_as_xyz
  1  'x, y, z'
loop_
 _atom_site_type_symbol
 _atom_site_label
 _atom_site_symmetry_multiplicity
 _atom_site_fract_x
 _atom_site_fract_y
 _atom_site_fract_z
 _atom_site_occupancy
  Na  Na0  1  0.000000  0.000000  0.750000  1
  Na  Na1  1  0.666667  0.333333  0.750000  1
  Na  Na2  1  0.333333  0.666667  0.250000  1
  Li  Li3  1  0.000000  0.000000  0.250000  1
  Pu  Pu4  1  0.333333  0.666667  0.750000  1
  Pu  Pu5  1  0.666667  0.333333  0.250000  1
  Cl  Cl6  1  0.021046  0.354385  0.633980  1
  Cl  Cl7  1  0.333341  0.978954  0.633980  1
  Cl  Cl8  1  0.645615  0.666659  0.633980  1
  Cl  Cl9  1  0.645615  0.978954  0.866020  1
  Cl  Cl10  1  0.333341  0.354385  0.866020  1
  Cl  Cl11  1  0.021046  0.666659  0.866020  1
  Cl  Cl12  1  0.977637  0.317376  0.138528  1
  Cl  Cl13  1  0.339738  0.022363  0.138528  1
  Cl  Cl14  1  0.682624  0.660262  0.138528  1
  Cl  Cl15  1  0.682624  0.022363  0.361472  1
  Cl  Cl16  1  0.339738  0.317376  0.361472  1
  Cl  Cl17  1  0.977637  0.660262  0.361472  1
