# generated using pymatgen
data_Tb4Al18Co5Cu
_symmetry_space_group_name_H-M   'P 1'
_cell_length_a   7.42868271
_cell_length_b   7.42868329
_cell_length_c   9.35202590
_cell_angle_alpha   89.92482551
_cell_angle_beta   89.92481221
_cell_angle_gamma   119.29913761
_symmetry_Int_Tables_number   1
_chemical_formula_structural   Tb4Al18Co5Cu
_chemical_formula_sum   'Tb4 Al18 Co5 Cu1'
_cell_volume   450.07256649
_cell_formula_units_Z   1
loop_
 _symmetry_equiv_pos_site_id
 _symmetry_equiv_pos_as_xyz
  1  'x, y, z'
loop_
 _atom_site_type_symbol
 _atom_site_label
 _atom_site_symmetry_multiplicity
 _atom_site_fract_x
 _atom_site_fract_y
 _atom_site_fract_z
 _atom_site_occupancy
  Tb  Tb0  1  0.994524  0.674408  0.250392  1
  Tb  Tb1  1  0.005476  0.325592  0.749608  1
  Tb  Tb2  1  0.674408  0.994524  0.250392  1
  Tb  Tb3  1  0.325592  0.005476  0.749608  1
  Al  Al4  1  0.130973  0.130973  0.257693  1
  Al  Al5  1  0.869027  0.869027  0.742307  1
  Al  Al6  1  0.332095  0.332095  0.541831  1
  Al  Al7  1  0.661007  0.661007  0.046340  1
  Al  Al8  1  0.338993  0.338993  0.953660  1
  Al  Al9  1  0.667905  0.667905  0.458169  1
  Al  Al10  1  0.339404  0.554992  0.251253  1
  Al  Al11  1  0.660596  0.445008  0.748747  1
  Al  Al12  1  0.554992  0.339404  0.251253  1
  Al  Al13  1  0.445008  0.660596  0.748747  1
  Al  Al14  1  0.999820  0.342982  0.073864  1
  Al  Al15  1  0.002901  0.664706  0.569419  1
  Al  Al16  1  0.335294  0.997099  0.430581  1
  Al  Al17  1  0.657018  0.000180  0.926136  1
  Al  Al18  1  0.000180  0.657018  0.926136  1
  Al  Al19  1  0.997099  0.335294  0.430581  1
  Al  Al20  1  0.664706  0.002901  0.569419  1
  Al  Al21  1  0.342982  0.999820  0.073864  1
  Co  Co22  1  0.000000  0.000000  0.500000  1
  Co  Co23  1  0.670910  0.329090  0.000000  1
  Co  Co24  1  0.329078  0.670922  0.500000  1
  Co  Co25  1  0.329090  0.670910  0.000000  1
  Co  Co26  1  0.670922  0.329078  0.500000  1
  Cu  Cu27  1  0.000000  0.000000  0.000000  1
