# generated using pymatgen
data_Zr6Zn22CuAs
_symmetry_space_group_name_H-M   'P 1'
_cell_length_a   8.77020533
_cell_length_b   8.77020468
_cell_length_c   8.77020400
_cell_angle_alpha   60.00000258
_cell_angle_beta   60.00000503
_cell_angle_gamma   59.99999655
_symmetry_Int_Tables_number   1
_chemical_formula_structural   Zr6Zn22CuAs
_chemical_formula_sum   'Zr6 Zn22 Cu1 As1'
_cell_volume   476.99541218
_cell_formula_units_Z   1
loop_
 _symmetry_equiv_pos_site_id
 _symmetry_equiv_pos_as_xyz
  1  'x, y, z'
loop_
 _atom_site_type_symbol
 _atom_site_label
 _atom_site_symmetry_multiplicity
 _atom_site_fract_x
 _atom_site_fract_y
 _atom_site_fract_z
 _atom_site_occupancy
  Zr  Zr0  1  0.712011  0.287989  0.287989  1
  Zr  Zr1  1  0.287989  0.712011  0.712011  1
  Zr  Zr2  1  0.287989  0.712011  0.287989  1
  Zr  Zr3  1  0.712011  0.287989  0.712011  1
  Zr  Zr4  1  0.287989  0.287989  0.712011  1
  Zr  Zr5  1  0.712011  0.712011  0.287989  1
  Zn  Zn6  1  0.120474  0.120474  0.120474  1
  Zn  Zn7  1  0.879526  0.879526  0.879526  1
  Zn  Zn8  1  0.120474  0.120474  0.638579  1
  Zn  Zn9  1  0.120474  0.638579  0.120474  1
  Zn  Zn10  1  0.879526  0.879526  0.361421  1
  Zn  Zn11  1  0.879526  0.361421  0.879526  1
  Zn  Zn12  1  0.638579  0.120474  0.120474  1
  Zn  Zn13  1  0.361421  0.879526  0.879526  1
  Zn  Zn14  1  0.500000  0.000000  0.000000  1
  Zn  Zn15  1  0.000000  0.500000  0.500000  1
  Zn  Zn16  1  0.000000  0.500000  0.000000  1
  Zn  Zn17  1  0.500000  0.000000  0.500000  1
  Zn  Zn18  1  0.000000  0.000000  0.500000  1
  Zn  Zn19  1  0.500000  0.500000  0.000000  1
  Zn  Zn20  1  0.333828  0.333828  0.333828  1
  Zn  Zn21  1  0.666172  0.666172  0.666172  1
  Zn  Zn22  1  0.333828  0.333828  0.998516  1
  Zn  Zn23  1  0.333828  0.998516  0.333828  1
  Zn  Zn24  1  0.666172  0.666172  0.001484  1
  Zn  Zn25  1  0.666172  0.001484  0.666172  1
  Zn  Zn26  1  0.998516  0.333828  0.333828  1
  Zn  Zn27  1  0.001484  0.666172  0.666172  1
  Cu  Cu28  1  0.000000  0.000000  0.000000  1
  As  As29  1  0.500000  0.500000  0.500000  1
