# generated using pymatgen
data_Ti3MnSe6
_symmetry_space_group_name_H-M   'P 1'
_cell_length_a   7.15425669
_cell_length_b   7.15425634
_cell_length_c   7.15425670
_cell_angle_alpha   51.49506537
_cell_angle_beta   51.49506820
_cell_angle_gamma   51.49506580
_symmetry_Int_Tables_number   1
_chemical_formula_structural   Ti3MnSe6
_chemical_formula_sum   'Ti3 Mn1 Se6'
_cell_volume   207.08095402
_cell_formula_units_Z   1
loop_
 _symmetry_equiv_pos_site_id
 _symmetry_equiv_pos_as_xyz
  1  'x, y, z'
loop_
 _atom_site_type_symbol
 _atom_site_label
 _atom_site_symmetry_multiplicity
 _atom_site_fract_x
 _atom_site_fract_y
 _atom_site_fract_z
 _atom_site_occupancy
  Ti  Ti0  1  0.000000  0.000000  0.000000  1
  Ti  Ti1  1  0.334914  0.334914  0.334914  1
  Ti  Ti2  1  0.665086  0.665086  0.665086  1
  Mn  Mn3  1  0.500000  0.500000  0.500000  1
  Se  Se4  1  0.921144  0.583181  0.245020  1
  Se  Se5  1  0.583181  0.245020  0.921144  1
  Se  Se6  1  0.245020  0.921144  0.583181  1
  Se  Se7  1  0.754980  0.078856  0.416819  1
  Se  Se8  1  0.416819  0.754980  0.078856  1
  Se  Se9  1  0.078856  0.416819  0.754980  1
