# generated using pymatgen
data_Tm2Th(Co3P2)3
_symmetry_space_group_name_H-M   'P 1'
_cell_length_a   3.71873400
_cell_length_b   10.52687600
_cell_length_c   12.19300800
_cell_angle_alpha   90.00000000
_cell_angle_beta   90.00000000
_cell_angle_gamma   90.00000000
_symmetry_Int_Tables_number   1
_chemical_formula_structural   Tm2Th(Co3P2)3
_chemical_formula_sum   'Tm4 Th2 Co18 P12'
_cell_volume   477.31543729
_cell_formula_units_Z   2
loop_
 _symmetry_equiv_pos_site_id
 _symmetry_equiv_pos_as_xyz
  1  'x, y, z'
loop_
 _atom_site_type_symbol
 _atom_site_label
 _atom_site_symmetry_multiplicity
 _atom_site_fract_x
 _atom_site_fract_y
 _atom_site_fract_z
 _atom_site_occupancy
  Tm  Tm0  1  0.500000  0.816444  0.203731  1
  Tm  Tm1  1  0.500000  0.183556  0.203731  1
  Tm  Tm2  1  0.000000  0.683556  0.796269  1
  Tm  Tm3  1  0.000000  0.316444  0.796269  1
  Th  Th4  1  0.000000  0.500000  0.525154  1
  Th  Th5  1  0.500000  0.000000  0.474846  1
  Co  Co6  1  0.500000  0.500000  0.155739  1
  Co  Co7  1  0.000000  0.000000  0.844261  1
  Co  Co8  1  0.500000  0.500000  0.704164  1
  Co  Co9  1  0.000000  0.000000  0.295836  1
  Co  Co10  1  0.000000  0.500000  0.985740  1
  Co  Co11  1  0.500000  0.000000  0.014260  1
  Co  Co12  1  0.500000  0.333375  0.994534  1
  Co  Co13  1  0.500000  0.666625  0.994534  1
  Co  Co14  1  0.000000  0.166625  0.005466  1
  Co  Co15  1  0.000000  0.833375  0.005466  1
  Co  Co16  1  0.500000  0.298881  0.429077  1
  Co  Co17  1  0.500000  0.701119  0.429077  1
  Co  Co18  1  0.000000  0.201119  0.570923  1
  Co  Co19  1  0.000000  0.798881  0.570923  1
  Co  Co20  1  0.500000  0.879502  0.713806  1
  Co  Co21  1  0.500000  0.120498  0.713806  1
  Co  Co22  1  0.000000  0.620498  0.286194  1
  Co  Co23  1  0.000000  0.379502  0.286194  1
  P  P24  1  0.500000  0.500000  0.881992  1
  P  P25  1  0.000000  0.000000  0.118008  1
  P  P26  1  0.500000  0.500000  0.338438  1
  P  P27  1  0.000000  0.000000  0.661562  1
  P  P28  1  0.500000  0.306064  0.619713  1
  P  P29  1  0.500000  0.693936  0.619713  1
  P  P30  1  0.000000  0.193936  0.380287  1
  P  P31  1  0.000000  0.806064  0.380287  1
  P  P32  1  0.500000  0.846047  0.894643  1
  P  P33  1  0.500000  0.153953  0.894643  1
  P  P34  1  0.000000  0.653953  0.105357  1
  P  P35  1  0.000000  0.346047  0.105357  1
