# generated using pymatgen
data_CaLa3Ge5Rh9
_symmetry_space_group_name_H-M   'P 1'
_cell_length_a   12.17694588
_cell_length_b   12.17694532
_cell_length_c   12.17694549
_cell_angle_alpha   26.94978057
_cell_angle_beta   26.94978394
_cell_angle_gamma   26.94978952
_symmetry_Int_Tables_number   1
_chemical_formula_structural   CaLa3Ge5Rh9
_chemical_formula_sum   'Ca1 La3 Ge5 Rh9'
_cell_volume   327.09226708
_cell_formula_units_Z   1
loop_
 _symmetry_equiv_pos_site_id
 _symmetry_equiv_pos_as_xyz
  1  'x, y, z'
loop_
 _atom_site_type_symbol
 _atom_site_label
 _atom_site_symmetry_multiplicity
 _atom_site_fract_x
 _atom_site_fract_y
 _atom_site_fract_z
 _atom_site_occupancy
  Ca  Ca0  1  0.949909  0.949909  0.949909  1
  La  La1  1  0.854097  0.854097  0.854097  1
  La  La2  1  0.146985  0.146985  0.146985  1
  La  La3  1  0.049190  0.049190  0.049190  1
  Ge  Ge4  1  0.278663  0.278663  0.278663  1
  Ge  Ge5  1  0.500113  0.500113  0.500113  1
  Ge  Ge6  1  0.387677  0.387677  0.387677  1
  Ge  Ge7  1  0.721690  0.721690  0.721690  1
  Ge  Ge8  1  0.611959  0.611959  0.611959  1
  Rh  Rh9  1  0.608847  0.608847  0.108160  1
  Rh  Rh10  1  0.892957  0.390540  0.390540  1
  Rh  Rh11  1  0.500126  0.999577  0.500126  1
  Rh  Rh12  1  0.390540  0.892957  0.390540  1
  Rh  Rh13  1  0.500126  0.500126  0.999577  1
  Rh  Rh14  1  0.108160  0.608847  0.608847  1
  Rh  Rh15  1  0.999577  0.500126  0.500126  1
  Rh  Rh16  1  0.390540  0.390540  0.892957  1
  Rh  Rh17  1  0.608847  0.108160  0.608847  1
