# generated using pymatgen
data_NdLu3(WO6)2
_symmetry_space_group_name_H-M   'P 1'
_cell_length_a   5.37692200
_cell_length_b   7.67944904
_cell_length_c   11.41385766
_cell_angle_alpha   75.34382581
_cell_angle_beta   90.00000000
_cell_angle_gamma   90.00000000
_symmetry_Int_Tables_number   1
_chemical_formula_structural   NdLu3(WO6)2
_chemical_formula_sum   'Nd2 Lu6 W4 O24'
_cell_volume   455.96339066
_cell_formula_units_Z   2
loop_
 _symmetry_equiv_pos_site_id
 _symmetry_equiv_pos_as_xyz
  1  'x, y, z'
loop_
 _atom_site_type_symbol
 _atom_site_label
 _atom_site_symmetry_multiplicity
 _atom_site_fract_x
 _atom_site_fract_y
 _atom_site_fract_z
 _atom_site_occupancy
  Nd  Nd0  1  0.313593  0.500000  0.750000  1
  Nd  Nd1  1  0.686407  0.500000  0.250000  1
  Lu  Lu2  1  0.256376  0.000000  0.750000  1
  Lu  Lu3  1  0.184971  0.798029  0.077705  1
  Lu  Lu4  1  0.184971  0.201971  0.422295  1
  Lu  Lu5  1  0.743624  0.000000  0.250000  1
  Lu  Lu6  1  0.815029  0.201971  0.922295  1
  Lu  Lu7  1  0.815029  0.798029  0.577705  1
  W  W8  1  0.745242  0.728956  0.884386  1
  W  W9  1  0.254758  0.728956  0.384386  1
  W  W10  1  0.745242  0.271044  0.615614  1
  W  W11  1  0.254758  0.271044  0.115614  1
  O  O12  1  0.541552  0.155116  0.069295  1
  O  O13  1  0.041068  0.055740  0.104144  1
  O  O14  1  0.014579  0.722757  0.767571  1
  O  O15  1  0.458448  0.155116  0.569295  1
  O  O16  1  0.346420  0.490707  0.387793  1
  O  O17  1  0.958932  0.055740  0.604144  1
  O  O18  1  0.542852  0.799480  0.724458  1
  O  O19  1  0.457148  0.799480  0.224458  1
  O  O20  1  0.141383  0.642059  0.546825  1
  O  O21  1  0.041068  0.944260  0.395856  1
  O  O22  1  0.458448  0.844884  0.930705  1
  O  O23  1  0.457148  0.200520  0.275542  1
  O  O24  1  0.858617  0.357941  0.453175  1
  O  O25  1  0.653580  0.490707  0.887793  1
  O  O26  1  0.346420  0.509293  0.112207  1
  O  O27  1  0.958932  0.944260  0.895856  1
  O  O28  1  0.541552  0.844884  0.430705  1
  O  O29  1  0.985421  0.277243  0.232429  1
  O  O30  1  0.542852  0.200520  0.775542  1
  O  O31  1  0.858617  0.642059  0.046825  1
  O  O32  1  0.014579  0.277243  0.732429  1
  O  O33  1  0.141383  0.357941  0.953175  1
  O  O34  1  0.985421  0.722757  0.267571  1
  O  O35  1  0.653580  0.509293  0.612207  1
