# generated using pymatgen
data_Pr8YSc11Si15Se
_symmetry_space_group_name_H-M   'P 1'
_cell_length_a   7.28838699
_cell_length_b   7.60936525
_cell_length_c   14.24045350
_cell_angle_alpha   89.82337694
_cell_angle_beta   90.12082550
_cell_angle_gamma   90.93992171
_symmetry_Int_Tables_number   1
_chemical_formula_structural   Pr8YSc11Si15Se
_chemical_formula_sum   'Pr8 Y1 Sc11 Si15 Se1'
_cell_volume   789.66384006
_cell_formula_units_Z   1
loop_
 _symmetry_equiv_pos_site_id
 _symmetry_equiv_pos_as_xyz
  1  'x, y, z'
loop_
 _atom_site_type_symbol
 _atom_site_label
 _atom_site_symmetry_multiplicity
 _atom_site_fract_x
 _atom_site_fract_y
 _atom_site_fract_z
 _atom_site_occupancy
  Pr  Pr0  1  0.012290  0.173690  0.401507  1
  Pr  Pr1  1  0.513445  0.325474  0.400010  1
  Pr  Pr2  1  0.496407  0.665007  0.908171  1
  Pr  Pr3  1  0.495957  0.666250  0.593259  1
  Pr  Pr4  1  0.988264  0.827546  0.600516  1
  Pr  Pr5  1  0.990521  0.829168  0.900464  1
  Pr  Pr6  1  0.511681  0.326005  0.098312  1
  Pr  Pr7  1  0.012464  0.174208  0.097758  1
  Y  Y8  1  0.322756  0.173910  0.625431  1
  Sc  Sc9  1  0.672015  0.824630  0.372740  1
  Sc  Sc10  1  0.666622  0.999019  0.751372  1
  Sc  Sc11  1  0.171107  0.675680  0.373552  1
  Sc  Sc12  1  0.823205  0.329831  0.878302  1
  Sc  Sc13  1  0.823321  0.328471  0.623987  1
  Sc  Sc14  1  0.840968  0.502455  0.249570  1
  Sc  Sc15  1  0.341631  0.996991  0.249372  1
  Sc  Sc16  1  0.325310  0.176375  0.874406  1
  Sc  Sc17  1  0.170164  0.676078  0.124999  1
  Sc  Sc18  1  0.671382  0.825828  0.126053  1
  Sc  Sc19  1  0.154498  0.493375  0.751897  1
  Si  Si20  1  0.465480  0.623982  0.249467  1
  Si  Si21  1  0.009160  0.148243  0.753292  1
  Si  Si22  1  0.533185  0.377816  0.752911  1
  Si  Si23  1  0.145954  0.470744  0.539570  1
  Si  Si24  1  0.968650  0.874674  0.249503  1
  Si  Si25  1  0.711566  0.116909  0.249613  1
  Si  Si26  1  0.847929  0.539421  0.041028  1
  Si  Si27  1  0.348270  0.963579  0.038119  1
  Si  Si28  1  0.151821  0.465207  0.959129  1
  Si  Si29  1  0.656200  0.033078  0.538534  1
  Si  Si30  1  0.351400  0.959520  0.457175  1
  Si  Si31  1  0.847827  0.539188  0.459039  1
  Si  Si32  1  0.789406  0.620411  0.750734  1
  Si  Si33  1  0.211735  0.384814  0.249469  1
  Si  Si34  1  0.648943  0.035143  0.959183  1
  Se  Se35  1  0.308464  0.857280  0.751555  1
