# generated using pymatgen
data_Ho4Er6Si5Bi
_symmetry_space_group_name_H-M   'P 1'
_cell_length_a   8.47164431
_cell_length_b   8.51777802
_cell_length_c   6.30984500
_cell_angle_alpha   90.00000000
_cell_angle_beta   90.00000000
_cell_angle_gamma   119.88466718
_symmetry_Int_Tables_number   1
_chemical_formula_structural   Ho4Er6Si5Bi
_chemical_formula_sum   'Ho4 Er6 Si5 Bi1'
_cell_volume   394.77251240
_cell_formula_units_Z   1
loop_
 _symmetry_equiv_pos_site_id
 _symmetry_equiv_pos_as_xyz
  1  'x, y, z'
loop_
 _atom_site_type_symbol
 _atom_site_label
 _atom_site_symmetry_multiplicity
 _atom_site_fract_x
 _atom_site_fract_y
 _atom_site_fract_z
 _atom_site_occupancy
  Ho  Ho0  1  0.755202  0.756828  0.250000  1
  Ho  Ho1  1  0.768014  0.000029  0.750000  1
  Ho  Ho2  1  0.239652  0.254891  0.750000  1
  Ho  Ho3  1  0.240055  0.999967  0.250000  1
  Er  Er4  1  0.984623  0.744885  0.750000  1
  Er  Er5  1  0.998359  0.243353  0.250000  1
  Er  Er6  1  0.330594  0.653772  0.494968  1
  Er  Er7  1  0.676975  0.346224  0.004999  1
  Er  Er8  1  0.676975  0.346224  0.495001  1
  Er  Er9  1  0.330594  0.653772  0.005032  1
  Si  Si10  1  0.393111  0.390707  0.250000  1
  Si  Si11  1  0.002588  0.608989  0.250000  1
  Si  Si12  1  0.998674  0.394948  0.750000  1
  Si  Si13  1  0.604319  0.605428  0.750000  1
  Si  Si14  1  0.607061  0.000191  0.250000  1
  Bi  Bi15  1  0.393206  0.999793  0.750000  1
