# generated using pymatgen
data_Rb4IrWCl12
_symmetry_space_group_name_H-M   'P 1'
_cell_length_a   7.02762700
_cell_length_b   7.02762677
_cell_length_c   10.22269900
_cell_angle_alpha   90.00000000
_cell_angle_beta   90.00000000
_cell_angle_gamma   89.76368653
_symmetry_Int_Tables_number   1
_chemical_formula_structural   Rb4IrWCl12
_chemical_formula_sum   'Rb4 Ir1 W1 Cl12'
_cell_volume   504.86965808
_cell_formula_units_Z   1
loop_
 _symmetry_equiv_pos_site_id
 _symmetry_equiv_pos_as_xyz
  1  'x, y, z'
loop_
 _atom_site_type_symbol
 _atom_site_label
 _atom_site_symmetry_multiplicity
 _atom_site_fract_x
 _atom_site_fract_y
 _atom_site_fract_z
 _atom_site_occupancy
  Rb  Rb0  1  0.500000  0.000000  0.776382  1
  Rb  Rb1  1  0.000000  0.500000  0.223618  1
  Rb  Rb2  1  0.500000  0.000000  0.223618  1
  Rb  Rb3  1  0.000000  0.500000  0.776382  1
  Ir  Ir4  1  0.000000  0.000000  0.000000  1
  W  W5  1  0.500000  0.500000  0.500000  1
  Cl  Cl6  1  0.000000  0.000000  0.768618  1
  Cl  Cl7  1  0.500000  0.500000  0.268400  1
  Cl  Cl8  1  0.736729  0.736729  0.500000  1
  Cl  Cl9  1  0.237277  0.237277  0.000000  1
  Cl  Cl10  1  0.737707  0.262293  0.500000  1
  Cl  Cl11  1  0.238261  0.761739  0.000000  1
  Cl  Cl12  1  0.000000  0.000000  0.231382  1
  Cl  Cl13  1  0.500000  0.500000  0.731600  1
  Cl  Cl14  1  0.263271  0.263271  0.500000  1
  Cl  Cl15  1  0.762723  0.762723  0.000000  1
  Cl  Cl16  1  0.262293  0.737707  0.500000  1
  Cl  Cl17  1  0.761739  0.238261  0.000000  1
