# generated using pymatgen
data_TbHoBi4(SbO7)2
_symmetry_space_group_name_H-M   'P 1'
_cell_length_a   6.51100920
_cell_length_b   6.80773706
_cell_length_c   7.66183524
_cell_angle_alpha   106.36388113
_cell_angle_beta   89.61972781
_cell_angle_gamma   98.98090128
_symmetry_Int_Tables_number   1
_chemical_formula_structural   TbHoBi4(SbO7)2
_chemical_formula_sum   'Tb1 Ho1 Bi4 Sb2 O14'
_cell_volume   321.61075768
_cell_formula_units_Z   1
loop_
 _symmetry_equiv_pos_site_id
 _symmetry_equiv_pos_as_xyz
  1  'x, y, z'
loop_
 _atom_site_type_symbol
 _atom_site_label
 _atom_site_symmetry_multiplicity
 _atom_site_fract_x
 _atom_site_fract_y
 _atom_site_fract_z
 _atom_site_occupancy
  Tb  Tb0  1  0.543482  0.996773  0.752533  1
  Ho  Ho1  1  0.456888  0.003427  0.247603  1
  Bi  Bi2  1  0.255448  0.511448  0.878172  1
  Bi  Bi3  1  0.743902  0.489573  0.122023  1
  Bi  Bi4  1  0.730043  0.462674  0.608117  1
  Bi  Bi5  1  0.269733  0.536360  0.390441  1
  Sb  Sb6  1  0.000212  0.000065  0.499672  1
  Sb  Sb7  1  0.000033  0.000049  0.000673  1
  O  O8  1  0.458946  0.658905  0.180126  1
  O  O9  1  0.541479  0.344349  0.820935  1
  O  O10  1  0.292494  0.952577  0.956000  1
  O  O11  1  0.707708  0.046841  0.047170  1
  O  O12  1  0.287000  0.926937  0.512646  1
  O  O13  1  0.713250  0.072868  0.484693  1
  O  O14  1  0.528348  0.347985  0.348209  1
  O  O15  1  0.469931  0.649045  0.650330  1
  O  O16  1  0.916096  0.688860  0.955312  1
  O  O17  1  0.083545  0.311094  0.044645  1
  O  O18  1  0.098265  0.306617  0.612351  1
  O  O19  1  0.901009  0.693408  0.388046  1
  O  O20  1  0.902205  0.954318  0.738379  1
  O  O21  1  0.099982  0.045826  0.261924  1
