# generated using pymatgen
data_Dy7Ho3(CoBi2)2
_symmetry_space_group_name_H-M   'P 1'
_cell_length_a   7.99768011
_cell_length_b   8.88309919
_cell_length_c   12.41093017
_cell_angle_alpha   90.01683755
_cell_angle_beta   89.99078703
_cell_angle_gamma   90.01681416
_symmetry_Int_Tables_number   1
_chemical_formula_structural   Dy7Ho3(CoBi2)2
_chemical_formula_sum   'Dy14 Ho6 Co4 Bi8'
_cell_volume   881.72434102
_cell_formula_units_Z   2
loop_
 _symmetry_equiv_pos_site_id
 _symmetry_equiv_pos_as_xyz
  1  'x, y, z'
loop_
 _atom_site_type_symbol
 _atom_site_label
 _atom_site_symmetry_multiplicity
 _atom_site_fract_x
 _atom_site_fract_y
 _atom_site_fract_z
 _atom_site_occupancy
  Dy  Dy0  1  0.346969  0.750126  0.699569  1
  Dy  Dy1  1  0.653031  0.249874  0.300431  1
  Dy  Dy2  1  0.847172  0.249971  0.800644  1
  Dy  Dy3  1  0.152828  0.750029  0.199356  1
  Dy  Dy4  1  0.884962  0.749976  0.811042  1
  Dy  Dy5  1  0.115038  0.250024  0.188958  1
  Dy  Dy6  1  0.384821  0.249719  0.689269  1
  Dy  Dy7  1  0.615179  0.750281  0.310731  1
  Dy  Dy8  1  0.676102  0.537762  0.563046  1
  Dy  Dy9  1  0.323898  0.462238  0.436954  1
  Dy  Dy10  1  0.051960  0.750228  0.497949  1
  Dy  Dy11  1  0.948040  0.249772  0.502051  1
  Dy  Dy12  1  0.552174  0.249976  0.002088  1
  Dy  Dy13  1  0.447826  0.750024  0.997912  1
  Ho  Ho14  1  0.175083  0.462173  0.937115  1
  Ho  Ho15  1  0.324812  0.037900  0.437052  1
  Ho  Ho16  1  0.824917  0.537827  0.062885  1
  Ho  Ho17  1  0.675188  0.962100  0.562948  1
  Ho  Ho18  1  0.824935  0.962171  0.062902  1
  Ho  Ho19  1  0.175065  0.037829  0.937098  1
  Co  Co20  1  0.065067  0.750001  0.991953  1
  Co  Co21  1  0.934933  0.249999  0.008047  1
  Co  Co22  1  0.565278  0.249544  0.508161  1
  Co  Co23  1  0.434722  0.750456  0.491839  1
  Bi  Bi24  1  0.571812  0.509526  0.826633  1
  Bi  Bi25  1  0.428188  0.490474  0.173367  1
  Bi  Bi26  1  0.072275  0.490428  0.673529  1
  Bi  Bi27  1  0.428096  0.009548  0.173434  1
  Bi  Bi28  1  0.927725  0.509572  0.326471  1
  Bi  Bi29  1  0.571904  0.990452  0.826566  1
  Bi  Bi30  1  0.928109  0.990470  0.326533  1
  Bi  Bi31  1  0.071891  0.009530  0.673467  1
