# generated using pymatgen
data_Ac2PrSn5
_symmetry_space_group_name_H-M   'P 1'
_cell_length_a   6.79104379
_cell_length_b   6.79104366
_cell_length_c   11.00219300
_cell_angle_alpha   90.00000000
_cell_angle_beta   90.00000000
_cell_angle_gamma   102.84448610
_symmetry_Int_Tables_number   1
_chemical_formula_structural   Ac2PrSn5
_chemical_formula_sum   'Ac4 Pr2 Sn10'
_cell_volume   494.70545896
_cell_formula_units_Z   2
loop_
 _symmetry_equiv_pos_site_id
 _symmetry_equiv_pos_as_xyz
  1  'x, y, z'
loop_
 _atom_site_type_symbol
 _atom_site_label
 _atom_site_symmetry_multiplicity
 _atom_site_fract_x
 _atom_site_fract_y
 _atom_site_fract_z
 _atom_site_occupancy
  Ac  Ac0  1  0.200096  0.799904  0.500000  1
  Ac  Ac1  1  0.200096  0.799904  0.000000  1
  Ac  Ac2  1  0.799904  0.200096  0.500000  1
  Ac  Ac3  1  0.799904  0.200096  0.000000  1
  Pr  Pr4  1  0.636240  0.636240  0.250000  1
  Pr  Pr5  1  0.363760  0.363760  0.750000  1
  Sn  Sn6  1  0.026267  0.026267  0.250000  1
  Sn  Sn7  1  0.973733  0.973733  0.750000  1
  Sn  Sn8  1  0.328374  0.328374  0.049293  1
  Sn  Sn9  1  0.671626  0.671626  0.950707  1
  Sn  Sn10  1  0.328374  0.328374  0.450707  1
  Sn  Sn11  1  0.671626  0.671626  0.549293  1
  Sn  Sn12  1  0.488936  0.071819  0.250000  1
  Sn  Sn13  1  0.928181  0.511064  0.750000  1
  Sn  Sn14  1  0.511064  0.928181  0.750000  1
  Sn  Sn15  1  0.071819  0.488936  0.250000  1
