# generated using pymatgen
data_KRbDy2Y4F20
_symmetry_space_group_name_H-M   'P 1'
_cell_length_a   8.29002017
_cell_length_b   8.29001993
_cell_length_c   8.28932500
_cell_angle_alpha   60.00277693
_cell_angle_beta   60.00277790
_cell_angle_gamma   59.99444967
_symmetry_Int_Tables_number   1
_chemical_formula_structural   KRbDy2Y4F20
_chemical_formula_sum   'K1 Rb1 Dy2 Y4 F20'
_cell_volume   402.82400215
_cell_formula_units_Z   1
loop_
 _symmetry_equiv_pos_site_id
 _symmetry_equiv_pos_as_xyz
  1  'x, y, z'
loop_
 _atom_site_type_symbol
 _atom_site_label
 _atom_site_symmetry_multiplicity
 _atom_site_fract_x
 _atom_site_fract_y
 _atom_site_fract_z
 _atom_site_occupancy
  K  K0  1  0.750000  0.750000  0.750000  1
  Rb  Rb1  1  0.250000  0.250000  0.250000  1
  Dy  Dy2  1  0.240466  0.240466  0.759534  1
  Dy  Dy3  1  0.759534  0.759534  0.240466  1
  Y  Y4  1  0.759574  0.240426  0.240426  1
  Y  Y5  1  0.240426  0.759574  0.759574  1
  Y  Y6  1  0.240426  0.759574  0.240426  1
  Y  Y7  1  0.759574  0.240426  0.759574  1
  F  F8  1  0.829679  0.500406  0.499789  1
  F  F9  1  0.170126  0.499789  0.500406  1
  F  F10  1  0.500406  0.829679  0.170126  1
  F  F11  1  0.499789  0.170126  0.829679  1
  F  F12  1  0.500406  0.829679  0.499789  1
  F  F13  1  0.170126  0.499789  0.829679  1
  F  F14  1  0.499789  0.170126  0.500406  1
  F  F15  1  0.829679  0.500406  0.170126  1
  F  F16  1  0.500097  0.500097  0.829768  1
  F  F17  1  0.500097  0.500097  0.170037  1
  F  F18  1  0.170037  0.829768  0.500097  1
  F  F19  1  0.829768  0.170037  0.500097  1
  F  F20  1  0.109978  0.109978  0.109660  1
  F  F21  1  0.887711  0.887711  0.888022  1
  F  F22  1  0.109978  0.109978  0.670384  1
  F  F23  1  0.109660  0.670384  0.109978  1
  F  F24  1  0.887711  0.887711  0.336555  1
  F  F25  1  0.888022  0.336555  0.887711  1
  F  F26  1  0.670384  0.109660  0.109978  1
  F  F27  1  0.336555  0.888022  0.887711  1
