# generated using pymatgen
data_TbZr(NbSe2)8
_symmetry_space_group_name_H-M   'P 1'
_cell_length_a   7.02500800
_cell_length_b   7.02484009
_cell_length_c   14.01169801
_cell_angle_alpha   90.00000097
_cell_angle_beta   90.00356904
_cell_angle_gamma   119.99927368
_symmetry_Int_Tables_number   1
_chemical_formula_structural   TbZr(NbSe2)8
_chemical_formula_sum   'Tb1 Zr1 Nb8 Se16'
_cell_volume   598.83592101
_cell_formula_units_Z   1
loop_
 _symmetry_equiv_pos_site_id
 _symmetry_equiv_pos_as_xyz
  1  'x, y, z'
loop_
 _atom_site_type_symbol
 _atom_site_label
 _atom_site_symmetry_multiplicity
 _atom_site_fract_x
 _atom_site_fract_y
 _atom_site_fract_z
 _atom_site_occupancy
  Tb  Tb0  1  0.000000  0.000000  0.000000  1
  Zr  Zr1  1  0.000000  0.000000  0.500000  1
  Nb  Nb2  1  0.986708  0.493354  0.257713  1
  Nb  Nb3  1  0.013292  0.506646  0.742287  1
  Nb  Nb4  1  0.493342  0.506666  0.742294  1
  Nb  Nb5  1  0.506658  0.013323  0.257706  1
  Nb  Nb6  1  0.999988  0.999994  0.742105  1
  Nb  Nb7  1  0.000012  0.000006  0.257895  1
  Nb  Nb8  1  0.506658  0.493334  0.257706  1
  Nb  Nb9  1  0.493342  0.986677  0.742294  1
  Se  Se10  1  0.333313  0.666657  0.619831  1
  Se  Se11  1  0.666666  0.333332  0.134331  1
  Se  Se12  1  0.666687  0.333343  0.380169  1
  Se  Se13  1  0.333334  0.666668  0.865669  1
  Se  Se14  1  0.169562  0.339081  0.376996  1
  Se  Se15  1  0.830123  0.169876  0.861009  1
  Se  Se16  1  0.339754  0.169876  0.861017  1
  Se  Se17  1  0.660919  0.830460  0.376999  1
  Se  Se18  1  0.169562  0.830481  0.376996  1
  Se  Se19  1  0.830123  0.660247  0.861009  1
  Se  Se20  1  0.169877  0.339753  0.138991  1
  Se  Se21  1  0.830438  0.169519  0.623004  1
  Se  Se22  1  0.339081  0.169540  0.623001  1
  Se  Se23  1  0.660246  0.830124  0.138983  1
  Se  Se24  1  0.169877  0.830124  0.138991  1
  Se  Se25  1  0.830438  0.660919  0.623004  1
