# generated using pymatgen
data_Tb4Dy8TlGaCo4
_symmetry_space_group_name_H-M   'P 1'
_cell_length_a   8.35012846
_cell_length_b   8.35012920
_cell_length_c   8.35012934
_cell_angle_alpha   107.04637814
_cell_angle_beta   109.26183151
_cell_angle_gamma   112.14603444
_symmetry_Int_Tables_number   1
_chemical_formula_structural   Tb4Dy8TlGaCo4
_chemical_formula_sum   'Tb4 Dy8 Tl1 Ga1 Co4'
_cell_volume   447.28976997
_cell_formula_units_Z   1
loop_
 _symmetry_equiv_pos_site_id
 _symmetry_equiv_pos_as_xyz
  1  'x, y, z'
loop_
 _atom_site_type_symbol
 _atom_site_label
 _atom_site_symmetry_multiplicity
 _atom_site_fract_x
 _atom_site_fract_y
 _atom_site_fract_z
 _atom_site_occupancy
  Tb  Tb0  1  0.299204  0.268190  0.567393  1
  Tb  Tb1  1  0.700796  0.731810  0.432607  1
  Tb  Tb2  1  0.299204  0.731810  0.031014  1
  Tb  Tb3  1  0.700796  0.268190  0.968986  1
  Dy  Dy4  1  0.186596  0.511257  0.324659  1
  Dy  Dy5  1  0.186596  0.861938  0.675341  1
  Dy  Dy6  1  0.813404  0.488743  0.675341  1
  Dy  Dy7  1  0.813404  0.138062  0.324659  1
  Dy  Dy8  1  0.397314  0.216992  0.180322  1
  Dy  Dy9  1  0.036670  0.216992  0.819678  1
  Dy  Dy10  1  0.963330  0.783008  0.180322  1
  Dy  Dy11  1  0.602686  0.783008  0.819678  1
  Tl  Tl12  1  0.500000  0.000000  0.500000  1
  Ga  Ga13  1  0.500000  0.500000  0.000000  1
  Co  Co14  1  0.157128  0.500000  0.657128  1
  Co  Co15  1  0.842872  0.500000  0.342872  1
  Co  Co16  1  0.000000  0.113639  0.113639  1
  Co  Co17  1  0.000000  0.886361  0.886361  1
