# generated using pymatgen
data_LaEu(Zn2Pt)4
_symmetry_space_group_name_H-M   'P 1'
_cell_length_a   7.77419800
_cell_length_b   7.77419800
_cell_length_c   4.22882800
_cell_angle_alpha   90.00000000
_cell_angle_beta   90.00000000
_cell_angle_gamma   90.00000000
_symmetry_Int_Tables_number   1
_chemical_formula_structural   LaEu(Zn2Pt)4
_chemical_formula_sum   'La1 Eu1 Zn8 Pt4'
_cell_volume   255.58256020
_cell_formula_units_Z   1
loop_
 _symmetry_equiv_pos_site_id
 _symmetry_equiv_pos_as_xyz
  1  'x, y, z'
loop_
 _atom_site_type_symbol
 _atom_site_label
 _atom_site_symmetry_multiplicity
 _atom_site_fract_x
 _atom_site_fract_y
 _atom_site_fract_z
 _atom_site_occupancy
  La  La0  1  0.000000  0.000000  0.000000  1
  Eu  Eu1  1  0.500000  0.500000  0.500000  1
  Zn  Zn2  1  0.347224  0.090896  0.500000  1
  Zn  Zn3  1  0.652776  0.909104  0.500000  1
  Zn  Zn4  1  0.847224  0.409104  0.000000  1
  Zn  Zn5  1  0.152776  0.590896  0.000000  1
  Zn  Zn6  1  0.090896  0.347224  0.500000  1
  Zn  Zn7  1  0.909104  0.652776  0.500000  1
  Zn  Zn8  1  0.409104  0.847224  0.000000  1
  Zn  Zn9  1  0.590896  0.152776  0.000000  1
  Pt  Pt10  1  0.781742  0.218258  0.500000  1
  Pt  Pt11  1  0.218258  0.781742  0.500000  1
  Pt  Pt12  1  0.281742  0.281742  0.000000  1
  Pt  Pt13  1  0.718258  0.718258  0.000000  1
