# generated using pymatgen
data_AsCN8
_symmetry_space_group_name_H-M   'P 1'
_cell_length_a   7.56806146
_cell_length_b   6.45619521
_cell_length_c   5.20556129
_cell_angle_alpha   76.67989556
_cell_angle_beta   84.92360423
_cell_angle_gamma   70.95623269
_symmetry_Int_Tables_number   1
_chemical_formula_structural   AsCN8
_chemical_formula_sum   'As1 C1 N8'
_cell_volume   233.93527498
_cell_formula_units_Z   1
loop_
 _symmetry_equiv_pos_site_id
 _symmetry_equiv_pos_as_xyz
  1  'x, y, z'
loop_
 _atom_site_type_symbol
 _atom_site_label
 _atom_site_symmetry_multiplicity
 _atom_site_fract_x
 _atom_site_fract_y
 _atom_site_fract_z
 _atom_site_occupancy
  As  As0  1  0.882108  0.426243  0.347462  1
  C  C1  1  0.014532  0.475747  0.814753  1
  N  N2  1  0.283051  0.820130  0.949187  1
  N  N3  1  0.422180  0.691548  0.996734  1
  N  N4  1  0.755749  0.136098  0.904289  1
  N  N5  1  0.827973  0.007285  0.076852  1
  N  N6  1  0.022895  0.483227  0.576261  1
  N  N7  1  0.410302  0.075129  0.393687  1
  N  N8  1  0.456461  0.201067  0.460428  1
  N  N9  1  0.024272  0.475960  0.048582  1
