# generated using pymatgen
data_Dy5Sc2Mn(P3Ir4)4
_symmetry_space_group_name_H-M   'P 1'
_cell_length_a   12.68999600
_cell_length_b   12.83562760
_cell_length_c   3.96055000
_cell_angle_alpha   90.00000000
_cell_angle_beta   90.00000000
_cell_angle_gamma   119.62538542
_symmetry_Int_Tables_number   1
_chemical_formula_structural   Dy5Sc2Mn(P3Ir4)4
_chemical_formula_sum   'Dy5 Sc2 Mn1 P12 Ir16'
_cell_volume   560.77905266
_cell_formula_units_Z   1
loop_
 _symmetry_equiv_pos_site_id
 _symmetry_equiv_pos_as_xyz
  1  'x, y, z'
loop_
 _atom_site_type_symbol
 _atom_site_label
 _atom_site_symmetry_multiplicity
 _atom_site_fract_x
 _atom_site_fract_y
 _atom_site_fract_z
 _atom_site_occupancy
  Dy  Dy0  1  0.331355  0.663958  0.500000  1
  Dy  Dy1  1  0.667398  0.336042  0.500000  1
  Dy  Dy2  1  0.000617  0.811950  0.000000  1
  Dy  Dy3  1  0.188667  0.188050  0.000000  1
  Dy  Dy4  1  0.809066  0.000000  0.000000  1
  Sc  Sc5  1  0.997397  0.442712  0.500000  1
  Sc  Sc6  1  0.554685  0.557288  0.500000  1
  Mn  Mn7  1  0.461344  0.000000  0.500000  1
  P  P8  1  0.005850  0.648272  0.500000  1
  P  P9  1  0.357577  0.351728  0.500000  1
  P  P10  1  0.635826  0.000000  0.500000  1
  P  P11  1  0.516310  0.688194  0.000000  1
  P  P12  1  0.313224  0.830388  0.000000  1
  P  P13  1  0.166876  0.481871  0.000000  1
  P  P14  1  0.482836  0.169612  0.000000  1
  P  P15  1  0.685005  0.518129  0.000000  1
  P  P16  1  0.828116  0.311806  0.000000  1
  P  P17  1  0.999509  0.175713  0.500000  1
  P  P18  1  0.823796  0.824287  0.500000  1
  P  P19  1  0.179935  0.000000  0.500000  1
  Ir  Ir20  1  0.507013  0.868979  0.000000  1
  Ir  Ir21  1  0.126294  0.642703  0.000000  1
  Ir  Ir22  1  0.357382  0.495534  0.000000  1
  Ir  Ir23  1  0.483592  0.357297  0.000000  1
  Ir  Ir24  1  0.861849  0.504466  0.000000  1
  Ir  Ir25  1  0.638035  0.131021  0.000000  1
  Ir  Ir26  1  0.998019  0.276553  0.000000  1
  Ir  Ir27  1  0.721466  0.723447  0.000000  1
  Ir  Ir28  1  0.281159  0.000000  0.000000  1
  Ir  Ir29  1  0.625682  0.809576  0.500000  1
  Ir  Ir30  1  0.205538  0.825798  0.500000  1
  Ir  Ir31  1  0.179617  0.368643  0.500000  1
  Ir  Ir32  1  0.379740  0.174202  0.500000  1
  Ir  Ir33  1  0.810973  0.631357  0.500000  1
  Ir  Ir34  1  0.816105  0.190424  0.500000  1
  Ir  Ir35  1  0.002147  0.000000  0.500000  1
