# generated using pymatgen
data_Li3CeNd3AlRh4
_symmetry_space_group_name_H-M   'P 1'
_cell_length_a   4.02237200
_cell_length_b   7.08411698
_cell_length_c   8.57784005
_cell_angle_alpha   90.98953494
_cell_angle_beta   90.00000000
_cell_angle_gamma   90.00000000
_symmetry_Int_Tables_number   1
_chemical_formula_structural   Li3CeNd3AlRh4
_chemical_formula_sum   'Li3 Ce1 Nd3 Al1 Rh4'
_cell_volume   244.38870378
_cell_formula_units_Z   1
loop_
 _symmetry_equiv_pos_site_id
 _symmetry_equiv_pos_as_xyz
  1  'x, y, z'
loop_
 _atom_site_type_symbol
 _atom_site_label
 _atom_site_symmetry_multiplicity
 _atom_site_fract_x
 _atom_site_fract_y
 _atom_site_fract_z
 _atom_site_occupancy
  Li  Li0  1  0.250000  0.626931  0.549927  1
  Li  Li1  1  0.750000  0.379107  0.447783  1
  Li  Li2  1  0.750000  0.868383  0.053157  1
  Ce  Ce3  1  0.750000  0.454008  0.820185  1
  Nd  Nd4  1  0.250000  0.547085  0.180044  1
  Nd  Nd5  1  0.750000  0.957813  0.682948  1
  Nd  Nd6  1  0.250000  0.049166  0.317474  1
  Al  Al7  1  0.250000  0.117641  0.943220  1
  Rh  Rh8  1  0.250000  0.735088  0.876111  1
  Rh  Rh9  1  0.750000  0.242306  0.099570  1
  Rh  Rh10  1  0.750000  0.764289  0.370348  1
  Rh  Rh11  1  0.250000  0.258184  0.659232  1
