# generated using pymatgen
data_Lu11ScTc3Ir
_symmetry_space_group_name_H-M   'P 1'
_cell_length_a   6.12457850
_cell_length_b   7.25186894
_cell_length_c   8.89072800
_cell_angle_alpha   90.00000000
_cell_angle_beta   90.00000000
_cell_angle_gamma   90.59453429
_symmetry_Int_Tables_number   1
_chemical_formula_structural   Lu11ScTc3Ir
_chemical_formula_sum   'Lu11 Sc1 Tc3 Ir1'
_cell_volume   394.85723003
_cell_formula_units_Z   1
loop_
 _symmetry_equiv_pos_site_id
 _symmetry_equiv_pos_as_xyz
  1  'x, y, z'
loop_
 _atom_site_type_symbol
 _atom_site_label
 _atom_site_symmetry_multiplicity
 _atom_site_fract_x
 _atom_site_fract_y
 _atom_site_fract_z
 _atom_site_occupancy
  Lu  Lu0  1  0.332904  0.675071  0.063519  1
  Lu  Lu1  1  0.160568  0.176223  0.437449  1
  Lu  Lu2  1  0.664703  0.324729  0.558917  1
  Lu  Lu3  1  0.836338  0.823916  0.940268  1
  Lu  Lu4  1  0.664703  0.324729  0.941083  1
  Lu  Lu5  1  0.836338  0.823916  0.559732  1
  Lu  Lu6  1  0.332904  0.675071  0.436481  1
  Lu  Lu7  1  0.160568  0.176223  0.062551  1
  Lu  Lu8  1  0.624643  0.037409  0.250000  1
  Lu  Lu9  1  0.129629  0.459403  0.750000  1
  Lu  Lu10  1  0.374013  0.961591  0.750000  1
  Sc  Sc11  1  0.873925  0.542730  0.250000  1
  Tc  Tc12  1  0.038056  0.877313  0.250000  1
  Tc  Tc13  1  0.468998  0.386753  0.250000  1
  Tc  Tc14  1  0.959558  0.117521  0.750000  1
  Ir  Ir15  1  0.542151  0.617401  0.750000  1
