# generated using pymatgen
data_HoErB6Ir
_symmetry_space_group_name_H-M   'P 1'
_cell_length_a   3.62787400
_cell_length_b   9.15744700
_cell_length_c   11.49993700
_cell_angle_alpha   90.00000000
_cell_angle_beta   90.00000000
_cell_angle_gamma   90.00000000
_symmetry_Int_Tables_number   1
_chemical_formula_structural   HoErB6Ir
_chemical_formula_sum   'Ho4 Er4 B24 Ir4'
_cell_volume   382.05164160
_cell_formula_units_Z   4
loop_
 _symmetry_equiv_pos_site_id
 _symmetry_equiv_pos_as_xyz
  1  'x, y, z'
loop_
 _atom_site_type_symbol
 _atom_site_label
 _atom_site_symmetry_multiplicity
 _atom_site_fract_x
 _atom_site_fract_y
 _atom_site_fract_z
 _atom_site_occupancy
  Ho  Ho0  1  0.000000  0.321641  0.413265  1
  Ho  Ho1  1  0.000000  0.678359  0.586735  1
  Ho  Ho2  1  0.000000  0.821641  0.086735  1
  Ho  Ho3  1  0.000000  0.178359  0.913265  1
  Er  Er4  1  0.000000  0.944250  0.374266  1
  Er  Er5  1  0.000000  0.055750  0.625734  1
  Er  Er6  1  0.000000  0.444250  0.125734  1
  Er  Er7  1  0.000000  0.555750  0.874266  1
  B  B8  1  0.500000  0.553567  0.434037  1
  B  B9  1  0.500000  0.446433  0.565963  1
  B  B10  1  0.500000  0.053567  0.065963  1
  B  B11  1  0.500000  0.946433  0.934037  1
  B  B12  1  0.500000  0.749777  0.420775  1
  B  B13  1  0.500000  0.250223  0.579225  1
  B  B14  1  0.500000  0.249777  0.079225  1
  B  B15  1  0.500000  0.750223  0.920775  1
  B  B16  1  0.500000  0.793394  0.265168  1
  B  B17  1  0.500000  0.206606  0.734832  1
  B  B18  1  0.500000  0.293394  0.234832  1
  B  B19  1  0.500000  0.706606  0.765168  1
  B  B20  1  0.500000  0.632066  0.184031  1
  B  B21  1  0.500000  0.367934  0.815969  1
  B  B22  1  0.500000  0.132066  0.315969  1
  B  B23  1  0.500000  0.867934  0.684031  1
  B  B24  1  0.500000  0.981896  0.213242  1
  B  B25  1  0.500000  0.018104  0.786758  1
  B  B26  1  0.500000  0.481896  0.286758  1
  B  B27  1  0.500000  0.518104  0.713242  1
  B  B28  1  0.500000  0.609384  0.029905  1
  B  B29  1  0.500000  0.390616  0.970095  1
  B  B30  1  0.500000  0.109384  0.470095  1
  B  B31  1  0.500000  0.890616  0.529905  1
  Ir  Ir32  1  0.000000  0.638627  0.321096  1
  Ir  Ir33  1  0.000000  0.361373  0.678904  1
  Ir  Ir34  1  0.000000  0.138627  0.178904  1
  Ir  Ir35  1  0.000000  0.861373  0.821096  1
