# generated using pymatgen
data_Er2TcC2
_symmetry_space_group_name_H-M   'P 1'
_cell_length_a   5.03867700
_cell_length_b   6.52338600
_cell_length_c   9.78773100
_cell_angle_alpha   90.00000000
_cell_angle_beta   90.00000000
_cell_angle_gamma   90.00000000
_symmetry_Int_Tables_number   1
_chemical_formula_structural   Er2TcC2
_chemical_formula_sum   'Er8 Tc4 C8'
_cell_volume   321.71523036
_cell_formula_units_Z   4
loop_
 _symmetry_equiv_pos_site_id
 _symmetry_equiv_pos_as_xyz
  1  'x, y, z'
loop_
 _atom_site_type_symbol
 _atom_site_label
 _atom_site_symmetry_multiplicity
 _atom_site_fract_x
 _atom_site_fract_y
 _atom_site_fract_z
 _atom_site_occupancy
  Er  Er0  1  0.750000  0.533529  0.782710  1
  Er  Er1  1  0.250000  0.966471  0.282710  1
  Er  Er2  1  0.750000  0.677256  0.442158  1
  Er  Er3  1  0.250000  0.822744  0.942158  1
  Er  Er4  1  0.750000  0.177256  0.057842  1
  Er  Er5  1  0.250000  0.322744  0.557842  1
  Er  Er6  1  0.250000  0.466471  0.217290  1
  Er  Er7  1  0.750000  0.033529  0.717290  1
  Tc  Tc8  1  0.250000  0.282395  0.867984  1
  Tc  Tc9  1  0.250000  0.782395  0.632016  1
  Tc  Tc10  1  0.750000  0.217605  0.367984  1
  Tc  Tc11  1  0.750000  0.717605  0.132016  1
  C  C12  1  0.250000  0.675766  0.448396  1
  C  C13  1  0.250000  0.549545  0.758438  1
  C  C14  1  0.750000  0.450455  0.241562  1
  C  C15  1  0.750000  0.824234  0.948396  1
  C  C16  1  0.250000  0.049545  0.741562  1
  C  C17  1  0.250000  0.175766  0.051604  1
  C  C18  1  0.750000  0.324234  0.551604  1
  C  C19  1  0.750000  0.950455  0.258438  1
