# generated using pymatgen
data_Hf12Zn11PtN4
_symmetry_space_group_name_H-M   'P 1'
_cell_length_a   8.52742530
_cell_length_b   8.52742590
_cell_length_c   8.52364240
_cell_angle_alpha   59.98530281
_cell_angle_beta   59.98529687
_cell_angle_gamma   59.99999882
_symmetry_Int_Tables_number   1
_chemical_formula_structural   Hf12Zn11PtN4
_chemical_formula_sum   'Hf12 Zn11 Pt1 N4'
_cell_volume   438.17698684
_cell_formula_units_Z   1
loop_
 _symmetry_equiv_pos_site_id
 _symmetry_equiv_pos_as_xyz
  1  'x, y, z'
loop_
 _atom_site_type_symbol
 _atom_site_label
 _atom_site_symmetry_multiplicity
 _atom_site_fract_x
 _atom_site_fract_y
 _atom_site_fract_z
 _atom_site_occupancy
  Hf  Hf0  1  0.816766  0.186943  0.179526  1
  Hf  Hf1  1  0.186943  0.816766  0.179526  1
  Hf  Hf2  1  0.816766  0.816766  0.179526  1
  Hf  Hf3  1  0.189262  0.809914  0.811562  1
  Hf  Hf4  1  0.809914  0.189262  0.811562  1
  Hf  Hf5  1  0.189262  0.189262  0.811562  1
  Hf  Hf6  1  0.435827  0.061691  0.066655  1
  Hf  Hf7  1  0.061691  0.435827  0.066655  1
  Hf  Hf8  1  0.435827  0.435827  0.066655  1
  Hf  Hf9  1  0.064754  0.434060  0.436433  1
  Hf  Hf10  1  0.434060  0.064754  0.436433  1
  Hf  Hf11  1  0.064754  0.064754  0.436433  1
  Zn  Zn12  1  0.417623  0.417623  0.419980  1
  Zn  Zn13  1  0.744771  0.417623  0.419980  1
  Zn  Zn14  1  0.417623  0.744771  0.419980  1
  Zn  Zn15  1  0.833250  0.833250  0.500251  1
  Zn  Zn16  1  0.832887  0.832887  0.832509  1
  Zn  Zn17  1  0.501719  0.832887  0.832509  1
  Zn  Zn18  1  0.832887  0.501719  0.832509  1
  Zn  Zn19  1  0.624666  0.624666  0.126000  1
  Zn  Zn20  1  0.628827  0.628827  0.619254  1
  Zn  Zn21  1  0.123091  0.628827  0.619254  1
  Zn  Zn22  1  0.628827  0.123091  0.619254  1
  Pt  Pt23  1  0.410344  0.410344  0.768968  1
  N  N24  1  0.124271  0.124271  0.627187  1
  N  N25  1  0.124513  0.124513  0.126613  1
  N  N26  1  0.624360  0.124513  0.126613  1
  N  N27  1  0.124513  0.624360  0.126613  1
