# generated using pymatgen
data_Dy3ZrIn2Ir3
_symmetry_space_group_name_H-M   'P 1'
_cell_length_a   7.46689632
_cell_length_b   7.21630436
_cell_length_c   4.17165900
_cell_angle_alpha   90.00000000
_cell_angle_beta   90.00000000
_cell_angle_gamma   118.89590245
_symmetry_Int_Tables_number   1
_chemical_formula_structural   Dy3ZrIn2Ir3
_chemical_formula_sum   'Dy3 Zr1 In2 Ir3'
_cell_volume   196.79744783
_cell_formula_units_Z   1
loop_
 _symmetry_equiv_pos_site_id
 _symmetry_equiv_pos_as_xyz
  1  'x, y, z'
loop_
 _atom_site_type_symbol
 _atom_site_label
 _atom_site_symmetry_multiplicity
 _atom_site_fract_x
 _atom_site_fract_y
 _atom_site_fract_z
 _atom_site_occupancy
  Dy  Dy0  1  0.582773  0.587860  0.000000  1
  Dy  Dy1  1  0.417227  0.005087  0.000000  1
  Dy  Dy2  1  0.000000  0.393631  0.000000  1
  Zr  Zr3  1  0.000000  0.752403  0.500000  1
  In  In4  1  0.255734  0.253847  0.500000  1
  In  In5  1  0.744266  0.998113  0.500000  1
  Ir  Ir6  1  0.000000  0.981958  0.000000  1
  Ir  Ir7  1  0.678793  0.352947  0.500000  1
  Ir  Ir8  1  0.321207  0.674155  0.500000  1
