# generated using pymatgen
data_Dy5ErAl18(Si3Ru4)2
_symmetry_space_group_name_H-M   'P 1'
_cell_length_a   8.69008301
_cell_length_b   8.66313967
_cell_length_c   9.54260500
_cell_angle_alpha   90.00000000
_cell_angle_beta   90.00000000
_cell_angle_gamma   120.10950863
_symmetry_Int_Tables_number   1
_chemical_formula_structural   Dy5ErAl18(Si3Ru4)2
_chemical_formula_sum   'Dy5 Er1 Al18 Si6 Ru8'
_cell_volume   621.46478715
_cell_formula_units_Z   1
loop_
 _symmetry_equiv_pos_site_id
 _symmetry_equiv_pos_as_xyz
  1  'x, y, z'
loop_
 _atom_site_type_symbol
 _atom_site_label
 _atom_site_symmetry_multiplicity
 _atom_site_fract_x
 _atom_site_fract_y
 _atom_site_fract_z
 _atom_site_occupancy
  Dy  Dy0  1  0.192797  0.385630  0.250000  1
  Dy  Dy1  1  0.807186  0.614173  0.750000  1
  Dy  Dy2  1  0.611436  0.808821  0.250000  1
  Dy  Dy3  1  0.388730  0.191176  0.750000  1
  Dy  Dy4  1  0.197450  0.808732  0.250000  1
  Er  Er5  1  0.801872  0.191935  0.750000  1
  Al  Al6  1  0.164562  0.329489  0.579773  1
  Al  Al7  1  0.835125  0.670276  0.420531  1
  Al  Al8  1  0.670481  0.835086  0.577963  1
  Al  Al9  1  0.835125  0.670276  0.079469  1
  Al  Al10  1  0.329730  0.165257  0.422344  1
  Al  Al11  1  0.164562  0.329489  0.920227  1
  Al  Al12  1  0.164486  0.834740  0.577825  1
  Al  Al13  1  0.329730  0.165257  0.077656  1
  Al  Al14  1  0.835506  0.165234  0.422619  1
  Al  Al15  1  0.670481  0.835086  0.922037  1
  Al  Al16  1  0.835506  0.165234  0.077381  1
  Al  Al17  1  0.164486  0.834740  0.922175  1
  Al  Al18  1  0.873550  0.433763  0.250000  1
  Al  Al19  1  0.126074  0.565685  0.750000  1
  Al  Al20  1  0.560254  0.433824  0.250000  1
  Al  Al21  1  0.439699  0.566224  0.750000  1
  Al  Al22  1  0.999292  0.998517  0.250000  1
  Al  Al23  1  0.000203  0.001957  0.750000  1
  Si  Si24  1  0.331807  0.663434  0.038970  1
  Si  Si25  1  0.668459  0.336234  0.960561  1
  Si  Si26  1  0.668459  0.336234  0.539439  1
  Si  Si27  1  0.331807  0.663434  0.461030  1
  Si  Si28  1  0.562983  0.125907  0.250000  1
  Si  Si29  1  0.437627  0.874485  0.750000  1
  Ru  Ru30  1  0.500332  0.000166  0.999638  1
  Ru  Ru31  1  0.999818  0.499714  0.999715  1
  Ru  Ru32  1  0.500332  0.000166  0.500362  1
  Ru  Ru33  1  0.500098  0.499956  0.999909  1
  Ru  Ru34  1  0.999818  0.499714  0.500285  1
  Ru  Ru35  1  0.500098  0.499956  0.500091  1
  Ru  Ru36  1  0.000021  0.000000  0.000007  1
  Ru  Ru37  1  0.000021  0.000000  0.499993  1
