# generated using pymatgen
data_Yb5Si2Sn
_symmetry_space_group_name_H-M   'P 1'
_cell_length_a   9.28085526
_cell_length_b   9.28085562
_cell_length_c   9.28085551
_cell_angle_alpha   130.75540957
_cell_angle_beta   130.75541594
_cell_angle_gamma   72.20196570
_symmetry_Int_Tables_number   1
_chemical_formula_structural   Yb5Si2Sn
_chemical_formula_sum   'Yb10 Si4 Sn2'
_cell_volume   448.47171320
_cell_formula_units_Z   2
loop_
 _symmetry_equiv_pos_site_id
 _symmetry_equiv_pos_as_xyz
  1  'x, y, z'
loop_
 _atom_site_type_symbol
 _atom_site_label
 _atom_site_symmetry_multiplicity
 _atom_site_fract_x
 _atom_site_fract_y
 _atom_site_fract_z
 _atom_site_occupancy
  Yb  Yb0  1  0.000000  0.000000  0.000000  1
  Yb  Yb1  1  0.500000  0.500000  0.000000  1
  Yb  Yb2  1  0.186323  0.686323  0.144949  1
  Yb  Yb3  1  0.458624  0.958624  0.144949  1
  Yb  Yb4  1  0.041376  0.186323  0.500000  1
  Yb  Yb5  1  0.313677  0.458624  0.500000  1
  Yb  Yb6  1  0.686323  0.541376  0.500000  1
  Yb  Yb7  1  0.958624  0.813677  0.500000  1
  Yb  Yb8  1  0.541376  0.041376  0.855052  1
  Yb  Yb9  1  0.813677  0.313677  0.855052  1
  Si  Si10  1  0.887004  0.387004  0.274008  1
  Si  Si11  1  0.387004  0.112996  0.500000  1
  Si  Si12  1  0.612996  0.887004  0.500000  1
  Si  Si13  1  0.112996  0.612996  0.725992  1
  Sn  Sn14  1  0.250000  0.250000  0.000000  1
  Sn  Sn15  1  0.750000  0.750000  0.000000  1
