# generated using pymatgen
data_YbDy(Al5Os)4
_symmetry_space_group_name_H-M   'P 1'
_cell_length_a   6.87380100
_cell_length_b   6.87380116
_cell_length_c   9.15302100
_cell_angle_alpha   90.00000000
_cell_angle_beta   90.00000000
_cell_angle_gamma   96.46848943
_symmetry_Int_Tables_number   1
_chemical_formula_structural   YbDy(Al5Os)4
_chemical_formula_sum   'Yb1 Dy1 Al20 Os4'
_cell_volume   429.71924752
_cell_formula_units_Z   1
loop_
 _symmetry_equiv_pos_site_id
 _symmetry_equiv_pos_as_xyz
  1  'x, y, z'
loop_
 _atom_site_type_symbol
 _atom_site_label
 _atom_site_symmetry_multiplicity
 _atom_site_fract_x
 _atom_site_fract_y
 _atom_site_fract_z
 _atom_site_occupancy
  Yb  Yb0  1  0.373107  0.626893  0.250000  1
  Dy  Dy1  1  0.628211  0.371789  0.750000  1
  Al  Al2  1  0.281327  0.018502  0.750000  1
  Al  Al3  1  0.021671  0.283054  0.250000  1
  Al  Al4  1  0.716946  0.978329  0.250000  1
  Al  Al5  1  0.981498  0.718673  0.750000  1
  Al  Al6  1  0.876384  0.123616  0.951341  1
  Al  Al7  1  0.123831  0.876169  0.042903  1
  Al  Al8  1  0.876384  0.123616  0.548659  1
  Al  Al9  1  0.123831  0.876169  0.457097  1
  Al  Al10  1  0.645688  0.917324  0.750000  1
  Al  Al11  1  0.914383  0.644095  0.250000  1
  Al  Al12  1  0.355905  0.085617  0.250000  1
  Al  Al13  1  0.082676  0.354312  0.750000  1
  Al  Al14  1  0.344892  0.655108  0.899011  1
  Al  Al15  1  0.658176  0.341824  0.101474  1
  Al  Al16  1  0.344892  0.655108  0.600989  1
  Al  Al17  1  0.658176  0.341824  0.398526  1
  Al  Al18  1  0.723255  0.725012  0.999643  1
  Al  Al19  1  0.723255  0.725012  0.500357  1
  Al  Al20  1  0.274988  0.276745  0.999643  1
  Al  Al21  1  0.274988  0.276745  0.500357  1
  Os  Os22  1  0.499516  0.001749  0.999808  1
  Os  Os23  1  0.998251  0.500484  0.999808  1
  Os  Os24  1  0.499516  0.001749  0.500192  1
  Os  Os25  1  0.998251  0.500484  0.500192  1
