# generated using pymatgen
data_Ac4CrNiN6
_symmetry_space_group_name_H-M   'P 1'
_cell_length_a   6.67942536
_cell_length_b   6.67942596
_cell_length_c   12.46513687
_cell_angle_alpha   88.66112256
_cell_angle_beta   91.33887769
_cell_angle_gamma   130.44470307
_symmetry_Int_Tables_number   1
_chemical_formula_structural   Ac4CrNiN6
_chemical_formula_sum   'Ac8 Cr2 Ni2 N12'
_cell_volume   423.09177353
_cell_formula_units_Z   2
loop_
 _symmetry_equiv_pos_site_id
 _symmetry_equiv_pos_as_xyz
  1  'x, y, z'
loop_
 _atom_site_type_symbol
 _atom_site_label
 _atom_site_symmetry_multiplicity
 _atom_site_fract_x
 _atom_site_fract_y
 _atom_site_fract_z
 _atom_site_occupancy
  Ac  Ac0  1  0.577394  0.422606  0.670082  1
  Ac  Ac1  1  0.422606  0.577394  0.329918  1
  Ac  Ac2  1  0.950503  0.049497  0.139242  1
  Ac  Ac3  1  0.049497  0.950503  0.860758  1
  Ac  Ac4  1  0.861142  0.138858  0.580449  1
  Ac  Ac5  1  0.138858  0.861142  0.419551  1
  Ac  Ac6  1  0.649593  0.350407  0.061541  1
  Ac  Ac7  1  0.350407  0.649593  0.938459  1
  Cr  Cr8  1  0.766411  0.233589  0.339467  1
  Cr  Cr9  1  0.233589  0.766411  0.660533  1
  Ni  Ni10  1  0.788582  0.211418  0.830563  1
  Ni  Ni11  1  0.211418  0.788582  0.169437  1
  N  N12  1  0.864049  0.135951  0.966307  1
  N  N13  1  0.135951  0.864049  0.033693  1
  N  N14  1  0.676037  0.323963  0.454490  1
  N  N15  1  0.323963  0.676037  0.545510  1
  N  N16  1  0.537109  0.462891  0.863748  1
  N  N17  1  0.462891  0.537109  0.136252  1
  N  N18  1  0.918602  0.081398  0.377835  1
  N  N19  1  0.081398  0.918602  0.622165  1
  N  N20  1  0.506747  0.994969  0.737460  1
  N  N21  1  0.994969  0.506747  0.262540  1
  N  N22  1  0.493253  0.005031  0.262540  1
  N  N23  1  0.005031  0.493253  0.737460  1
