# generated using pymatgen
data_Sr3CoTc4NiP6
_symmetry_space_group_name_H-M   'P 1'
_cell_length_a   8.54349356
_cell_length_b   8.54357839
_cell_length_c   8.54357842
_cell_angle_alpha   152.78793985
_cell_angle_beta   94.91351484
_cell_angle_gamma   91.43421621
_symmetry_Int_Tables_number   1
_chemical_formula_structural   Sr3CoTc4NiP6
_chemical_formula_sum   'Sr3 Co1 Tc4 Ni1 P6'
_cell_volume   277.02310849
_cell_formula_units_Z   1
loop_
 _symmetry_equiv_pos_site_id
 _symmetry_equiv_pos_as_xyz
  1  'x, y, z'
loop_
 _atom_site_type_symbol
 _atom_site_label
 _atom_site_symmetry_multiplicity
 _atom_site_fract_x
 _atom_site_fract_y
 _atom_site_fract_z
 _atom_site_occupancy
  Sr  Sr0  1  0.338519  0.337687  0.000831  1
  Sr  Sr1  1  0.665226  0.666258  0.998967  1
  Sr  Sr2  1  0.996949  0.996088  0.000861  1
  Co  Co3  1  0.403894  0.166730  0.237165  1
  Tc  Tc4  1  0.575529  0.830270  0.745258  1
  Tc  Tc5  1  0.247293  0.502966  0.744328  1
  Tc  Tc6  1  0.760979  0.505541  0.255439  1
  Tc  Tc7  1  0.082263  0.827731  0.254531  1
  Ni  Ni8  1  0.929239  0.166727  0.762513  1
  P  P9  1  0.308636  0.666930  0.641706  1
  P  P10  1  0.673190  0.326545  0.346645  1
  P  P11  1  0.979196  0.328494  0.650702  1
  P  P12  1  0.352345  0.006526  0.345819  1
  P  P13  1  0.030629  0.666932  0.363697  1
  P  P14  1  0.656112  0.004573  0.651538  1
