# generated using pymatgen
data_Tm7LuB24(MoRu)2
_symmetry_space_group_name_H-M   'P 1'
_cell_length_a   3.61455100
_cell_length_b   9.13142197
_cell_length_c   11.51198118
_cell_angle_alpha   89.75303528
_cell_angle_beta   90.00000000
_cell_angle_gamma   90.00000000
_symmetry_Int_Tables_number   1
_chemical_formula_structural   Tm7LuB24(MoRu)2
_chemical_formula_sum   'Tm7 Lu1 B24 Mo2 Ru2'
_cell_volume   379.96081080
_cell_formula_units_Z   1
loop_
 _symmetry_equiv_pos_site_id
 _symmetry_equiv_pos_as_xyz
  1  'x, y, z'
loop_
 _atom_site_type_symbol
 _atom_site_label
 _atom_site_symmetry_multiplicity
 _atom_site_fract_x
 _atom_site_fract_y
 _atom_site_fract_z
 _atom_site_occupancy
  Tm  Tm0  1  0.000000  0.321803  0.414796  1
  Tm  Tm1  1  0.000000  0.678229  0.585504  1
  Tm  Tm2  1  0.000000  0.821285  0.085522  1
  Tm  Tm3  1  0.000000  0.178736  0.914227  1
  Tm  Tm4  1  0.000000  0.944613  0.371072  1
  Tm  Tm5  1  0.000000  0.055533  0.629104  1
  Tm  Tm6  1  0.000000  0.441813  0.127953  1
  Lu  Lu7  1  0.000000  0.558302  0.871588  1
  B  B8  1  0.500000  0.551472  0.434352  1
  B  B9  1  0.500000  0.448632  0.565936  1
  B  B10  1  0.500000  0.053766  0.066306  1
  B  B11  1  0.500000  0.945790  0.933591  1
  B  B12  1  0.500000  0.750844  0.421050  1
  B  B13  1  0.500000  0.249353  0.579164  1
  B  B14  1  0.500000  0.248868  0.080381  1
  B  B15  1  0.500000  0.750443  0.919394  1
  B  B16  1  0.500000  0.795338  0.263205  1
  B  B17  1  0.500000  0.204938  0.736834  1
  B  B18  1  0.500000  0.290679  0.233946  1
  B  B19  1  0.500000  0.708875  0.766147  1
  B  B20  1  0.500000  0.631200  0.181744  1
  B  B21  1  0.500000  0.369357  0.818224  1
  B  B22  1  0.500000  0.130420  0.313873  1
  B  B23  1  0.500000  0.869458  0.686234  1
  B  B24  1  0.500000  0.982725  0.211368  1
  B  B25  1  0.500000  0.017156  0.788707  1
  B  B26  1  0.500000  0.477491  0.287039  1
  B  B27  1  0.500000  0.522682  0.713365  1
  B  B28  1  0.500000  0.602012  0.027153  1
  B  B29  1  0.500000  0.398345  0.971847  1
  B  B30  1  0.500000  0.103023  0.470864  1
  B  B31  1  0.500000  0.897053  0.529303  1
  Mo  Mo32  1  0.000000  0.638992  0.318588  1
  Mo  Mo33  1  0.000000  0.361306  0.681567  1
  Ru  Ru34  1  0.000000  0.138158  0.177979  1
  Ru  Ru35  1  0.000000  0.861312  0.822072  1
