# generated using pymatgen
data_Zr6Ti4Al12Fe5Pt2
_symmetry_space_group_name_H-M   'P 1'
_cell_length_a   8.65619532
_cell_length_b   8.65619504
_cell_length_c   8.65308405
_cell_angle_alpha   60.11137377
_cell_angle_beta   60.11136623
_cell_angle_gamma   59.97091404
_symmetry_Int_Tables_number   1
_chemical_formula_structural   Zr6Ti4Al12Fe5Pt2
_chemical_formula_sum   'Zr6 Ti4 Al12 Fe5 Pt2'
_cell_volume   459.13791129
_cell_formula_units_Z   1
loop_
 _symmetry_equiv_pos_site_id
 _symmetry_equiv_pos_as_xyz
  1  'x, y, z'
loop_
 _atom_site_type_symbol
 _atom_site_label
 _atom_site_symmetry_multiplicity
 _atom_site_fract_x
 _atom_site_fract_y
 _atom_site_fract_z
 _atom_site_occupancy
  Zr  Zr0  1  0.700719  0.700719  0.306155  1
  Zr  Zr1  1  0.300326  0.694392  0.305386  1
  Zr  Zr2  1  0.694392  0.300326  0.305386  1
  Zr  Zr3  1  0.298997  0.298997  0.694838  1
  Zr  Zr4  1  0.698440  0.307574  0.692293  1
  Zr  Zr5  1  0.307574  0.698440  0.692293  1
  Ti  Ti6  1  0.880936  0.880936  0.355668  1
  Ti  Ti7  1  0.878064  0.353331  0.876765  1
  Ti  Ti8  1  0.353331  0.878064  0.876765  1
  Ti  Ti9  1  0.888693  0.888693  0.871983  1
  Al  Al10  1  0.119242  0.119242  0.644522  1
  Al  Al11  1  0.120259  0.646611  0.121991  1
  Al  Al12  1  0.646611  0.120259  0.121991  1
  Al  Al13  1  0.113161  0.113161  0.124466  1
  Al  Al14  1  0.660607  0.660607  0.007469  1
  Al  Al15  1  0.668146  0.003873  0.658599  1
  Al  Al16  1  0.003873  0.668146  0.658599  1
  Al  Al17  1  0.666579  0.666579  0.666539  1
  Al  Al18  1  0.339359  0.339359  0.996606  1
  Al  Al19  1  0.329429  0.999811  0.341095  1
  Al  Al20  1  0.999811  0.329429  0.341095  1
  Al  Al21  1  0.332806  0.332806  0.332450  1
  Fe  Fe22  1  0.999893  0.999893  0.997763  1
  Fe  Fe23  1  0.997384  0.997384  0.505748  1
  Fe  Fe24  1  0.501358  0.996789  0.503574  1
  Fe  Fe25  1  0.996789  0.501358  0.503574  1
  Fe  Fe26  1  0.502653  0.502653  0.997399  1
  Pt  Pt27  1  0.000583  0.499981  0.999492  1
  Pt  Pt28  1  0.499981  0.000583  0.999492  1
