# generated using pymatgen
data_YTmZr2(Al3Ir)6
_symmetry_space_group_name_H-M   'P 1'
_cell_length_a   7.51598108
_cell_length_b   7.50149957
_cell_length_c   9.35143000
_cell_angle_alpha   90.00000000
_cell_angle_beta   90.00000000
_cell_angle_gamma   119.73747957
_symmetry_Int_Tables_number   1
_chemical_formula_structural   YTmZr2(Al3Ir)6
_chemical_formula_sum   'Y1 Tm1 Zr2 Al18 Ir6'
_cell_volume   457.80993184
_cell_formula_units_Z   1
loop_
 _symmetry_equiv_pos_site_id
 _symmetry_equiv_pos_as_xyz
  1  'x, y, z'
loop_
 _atom_site_type_symbol
 _atom_site_label
 _atom_site_symmetry_multiplicity
 _atom_site_fract_x
 _atom_site_fract_y
 _atom_site_fract_z
 _atom_site_occupancy
  Y  Y0  1  0.670560  0.994357  0.250000  1
  Tm  Tm1  1  0.329276  0.005575  0.750000  1
  Zr  Zr2  1  0.995202  0.671011  0.250000  1
  Zr  Zr3  1  0.004886  0.329057  0.750000  1
  Al  Al4  1  0.126311  0.124298  0.250000  1
  Al  Al5  1  0.874236  0.875842  0.750000  1
  Al  Al6  1  0.000072  0.337036  0.074732  1
  Al  Al7  1  0.000365  0.663377  0.924722  1
  Al  Al8  1  0.000365  0.663377  0.575278  1
  Al  Al9  1  0.332240  0.998576  0.422639  1
  Al  Al10  1  0.000072  0.337036  0.425268  1
  Al  Al11  1  0.667343  0.001463  0.578224  1
  Al  Al12  1  0.667343  0.001463  0.921776  1
  Al  Al13  1  0.332240  0.998576  0.077361  1
  Al  Al14  1  0.331416  0.333289  0.556726  1
  Al  Al15  1  0.668609  0.666342  0.443778  1
  Al  Al16  1  0.668609  0.666342  0.056222  1
  Al  Al17  1  0.331416  0.333289  0.943274  1
  Al  Al18  1  0.334612  0.547987  0.250000  1
  Al  Al19  1  0.664859  0.451417  0.750000  1
  Al  Al20  1  0.553747  0.343474  0.250000  1
  Al  Al21  1  0.446120  0.656849  0.750000  1
  Ir  Ir22  1  0.671853  0.327454  0.999274  1
  Ir  Ir23  1  0.327832  0.672500  0.000357  1
  Ir  Ir24  1  0.327832  0.672500  0.499643  1
  Ir  Ir25  1  0.671853  0.327454  0.500726  1
  Ir  Ir26  1  0.000366  0.000030  0.999778  1
  Ir  Ir27  1  0.000366  0.000030  0.500222  1
