# generated using pymatgen
data_Dy2Ge4Mo3
_symmetry_space_group_name_H-M   'P 1'
_cell_length_a   7.06130400
_cell_length_b   6.91992881
_cell_length_c   6.99975824
_cell_angle_alpha   70.66253571
_cell_angle_beta   90.00000000
_cell_angle_gamma   90.00000000
_symmetry_Int_Tables_number   1
_chemical_formula_structural   Dy2Ge4Mo3
_chemical_formula_sum   'Dy4 Ge8 Mo6'
_cell_volume   322.73824746
_cell_formula_units_Z   2
loop_
 _symmetry_equiv_pos_site_id
 _symmetry_equiv_pos_as_xyz
  1  'x, y, z'
loop_
 _atom_site_type_symbol
 _atom_site_label
 _atom_site_symmetry_multiplicity
 _atom_site_fract_x
 _atom_site_fract_y
 _atom_site_fract_z
 _atom_site_occupancy
  Dy  Dy0  1  0.829546  0.055753  0.809645  1
  Dy  Dy1  1  0.329546  0.444247  0.190355  1
  Dy  Dy2  1  0.170454  0.944247  0.190355  1
  Dy  Dy3  1  0.670454  0.555753  0.809645  1
  Ge  Ge4  1  0.046970  0.359655  0.907388  1
  Ge  Ge5  1  0.546970  0.140345  0.092612  1
  Ge  Ge6  1  0.953030  0.640345  0.092612  1
  Ge  Ge7  1  0.453030  0.859655  0.907388  1
  Ge  Ge8  1  0.637635  0.366819  0.495159  1
  Ge  Ge9  1  0.137635  0.133181  0.504841  1
  Ge  Ge10  1  0.362365  0.633181  0.504841  1
  Ge  Ge11  1  0.862365  0.866819  0.495159  1
  Mo  Mo12  1  0.000000  0.500000  0.500000  1
  Mo  Mo13  1  0.500000  0.000000  0.500000  1
  Mo  Mo14  1  0.343053  0.248632  0.751080  1
  Mo  Mo15  1  0.843053  0.251368  0.248920  1
  Mo  Mo16  1  0.656947  0.751368  0.248920  1
  Mo  Mo17  1  0.156947  0.748632  0.751080  1
