# generated using pymatgen
data_Tm6Zn22PtS
_symmetry_space_group_name_H-M   'P 1'
_cell_length_a   9.01908755
_cell_length_b   8.97243671
_cell_length_c   9.01908800
_cell_angle_alpha   60.17095343
_cell_angle_beta   59.64050716
_cell_angle_gamma   60.17095808
_symmetry_Int_Tables_number   1
_chemical_formula_structural   Tm6Zn22PtS
_chemical_formula_sum   'Tm6 Zn22 Pt1 S1'
_cell_volume   515.98632122
_cell_formula_units_Z   1
loop_
 _symmetry_equiv_pos_site_id
 _symmetry_equiv_pos_as_xyz
  1  'x, y, z'
loop_
 _atom_site_type_symbol
 _atom_site_label
 _atom_site_symmetry_multiplicity
 _atom_site_fract_x
 _atom_site_fract_y
 _atom_site_fract_z
 _atom_site_occupancy
  Tm  Tm0  1  0.713462  0.290392  0.286538  1
  Tm  Tm1  1  0.711581  0.288419  0.711581  1
  Tm  Tm2  1  0.713462  0.709608  0.286538  1
  Tm  Tm3  1  0.286538  0.709608  0.713462  1
  Tm  Tm4  1  0.288419  0.711581  0.288419  1
  Tm  Tm5  1  0.286538  0.290392  0.713462  1
  Zn  Zn6  1  0.626897  0.124959  0.123185  1
  Zn  Zn7  1  0.124050  0.625583  0.124050  1
  Zn  Zn8  1  0.123185  0.124959  0.626897  1
  Zn  Zn9  1  0.124050  0.126318  0.124050  1
  Zn  Zn10  1  0.373103  0.875041  0.876815  1
  Zn  Zn11  1  0.875950  0.374417  0.875950  1
  Zn  Zn12  1  0.876815  0.875041  0.373103  1
  Zn  Zn13  1  0.875950  0.873682  0.875950  1
  Zn  Zn14  1  0.500000  0.000000  0.000000  1
  Zn  Zn15  1  0.500000  0.000000  0.500000  1
  Zn  Zn16  1  0.500000  0.500000  0.000000  1
  Zn  Zn17  1  0.000000  0.500000  0.500000  1
  Zn  Zn18  1  0.000000  0.000000  0.500000  1
  Zn  Zn19  1  0.000000  0.000000  0.000000  1
  Zn  Zn20  1  0.010686  0.328829  0.331653  1
  Zn  Zn21  1  0.331850  0.006772  0.331850  1
  Zn  Zn22  1  0.331653  0.328829  0.010686  1
  Zn  Zn23  1  0.331850  0.329525  0.331850  1
  Zn  Zn24  1  0.989314  0.671171  0.668347  1
  Zn  Zn25  1  0.668150  0.993228  0.668150  1
  Zn  Zn26  1  0.668347  0.671171  0.989314  1
  Zn  Zn27  1  0.668150  0.670475  0.668150  1
  Pt  Pt28  1  0.000000  0.500000  0.000000  1
  S  S29  1  0.500000  0.500000  0.500000  1
