# generated using pymatgen
data_YEr9Tl4(InPd)4
_symmetry_space_group_name_H-M   'P 1'
_cell_length_a   3.60805200
_cell_length_b   8.17861602
_cell_length_c   18.25740087
_cell_angle_alpha   90.02214978
_cell_angle_beta   90.00000000
_cell_angle_gamma   90.00000000
_symmetry_Int_Tables_number   1
_chemical_formula_structural   YEr9Tl4(InPd)4
_chemical_formula_sum   'Y1 Er9 Tl4 In4 Pd4'
_cell_volume   538.75526340
_cell_formula_units_Z   1
loop_
 _symmetry_equiv_pos_site_id
 _symmetry_equiv_pos_as_xyz
  1  'x, y, z'
loop_
 _atom_site_type_symbol
 _atom_site_label
 _atom_site_symmetry_multiplicity
 _atom_site_fract_x
 _atom_site_fract_y
 _atom_site_fract_z
 _atom_site_occupancy
  Y  Y0  1  0.000000  0.500000  0.500000  1
  Er  Er1  1  0.000000  0.000000  0.000000  1
  Er  Er2  1  0.000000  0.740754  0.281380  1
  Er  Er3  1  0.000000  0.259246  0.718620  1
  Er  Er4  1  0.000000  0.759500  0.782119  1
  Er  Er5  1  0.000000  0.240500  0.217881  1
  Er  Er6  1  0.000000  0.616195  0.085319  1
  Er  Er7  1  0.000000  0.383805  0.914681  1
  Er  Er8  1  0.000000  0.883342  0.585764  1
  Er  Er9  1  0.000000  0.116658  0.414236  1
  Tl  Tl10  1  0.500000  0.708500  0.934282  1
  Tl  Tl11  1  0.500000  0.291500  0.065718  1
  Tl  Tl12  1  0.500000  0.793383  0.433604  1
  Tl  Tl13  1  0.500000  0.206617  0.566396  1
  In  In14  1  0.500000  0.584387  0.651029  1
  In  In15  1  0.500000  0.415613  0.348971  1
  In  In16  1  0.500000  0.916191  0.150144  1
  In  In17  1  0.500000  0.083809  0.849856  1
  Pd  Pd18  1  0.500000  0.528067  0.197529  1
  Pd  Pd19  1  0.500000  0.471933  0.802471  1
  Pd  Pd20  1  0.500000  0.972034  0.698066  1
  Pd  Pd21  1  0.500000  0.027966  0.301934  1
