# generated using pymatgen
data_DyEr2HfIn2Ir3
_symmetry_space_group_name_H-M   'P 1'
_cell_length_a   7.42148935
_cell_length_b   7.21173688
_cell_length_c   4.15157700
_cell_angle_alpha   90.00000000
_cell_angle_beta   90.00000000
_cell_angle_gamma   119.06938861
_symmetry_Int_Tables_number   1
_chemical_formula_structural   DyEr2HfIn2Ir3
_chemical_formula_sum   'Dy1 Er2 Hf1 In2 Ir3'
_cell_volume   194.20988839
_cell_formula_units_Z   1
loop_
 _symmetry_equiv_pos_site_id
 _symmetry_equiv_pos_as_xyz
  1  'x, y, z'
loop_
 _atom_site_type_symbol
 _atom_site_label
 _atom_site_symmetry_multiplicity
 _atom_site_fract_x
 _atom_site_fract_y
 _atom_site_fract_z
 _atom_site_occupancy
  Dy  Dy0  1  0.000000  0.395046  0.000000  1
  Er  Er1  1  0.584679  0.587996  0.000000  1
  Er  Er2  1  0.415321  0.003316  0.000000  1
  Hf  Hf3  1  0.000000  0.752603  0.500000  1
  In  In4  1  0.255961  0.254272  0.500000  1
  In  In5  1  0.744039  0.998313  0.500000  1
  Ir  Ir6  1  0.000000  0.978475  0.000000  1
  Ir  Ir7  1  0.681008  0.355494  0.500000  1
  Ir  Ir8  1  0.318992  0.674487  0.500000  1
