# generated using pymatgen
data_HoTh2Co(Ni6B)2
_symmetry_space_group_name_H-M   'P 1'
_cell_length_a   4.96067561
_cell_length_b   4.94289693
_cell_length_c   11.00341500
_cell_angle_alpha   90.00000000
_cell_angle_beta   90.00000000
_cell_angle_gamma   119.88151568
_symmetry_Int_Tables_number   1
_chemical_formula_structural   HoTh2Co(Ni6B)2
_chemical_formula_sum   'Ho1 Th2 Co1 Ni12 B2'
_cell_volume   233.93639119
_cell_formula_units_Z   1
loop_
 _symmetry_equiv_pos_site_id
 _symmetry_equiv_pos_as_xyz
  1  'x, y, z'
loop_
 _atom_site_type_symbol
 _atom_site_label
 _atom_site_symmetry_multiplicity
 _atom_site_fract_x
 _atom_site_fract_y
 _atom_site_fract_z
 _atom_site_occupancy
  Ho  Ho0  1  0.000000  0.000000  0.998926  1
  Th  Th1  1  0.000000  0.000000  0.676488  1
  Th  Th2  1  0.000000  0.000000  0.326101  1
  Co  Co3  1  0.000000  0.500000  0.871079  1
  Ni  Ni4  1  0.500000  0.500000  0.500150  1
  Ni  Ni5  1  0.500000  0.000000  0.500150  1
  Ni  Ni6  1  0.000000  0.500000  0.499830  1
  Ni  Ni7  1  0.671028  0.335514  0.683079  1
  Ni  Ni8  1  0.328972  0.664486  0.683079  1
  Ni  Ni9  1  0.332629  0.666315  0.317019  1
  Ni  Ni10  1  0.667371  0.333685  0.317019  1
  Ni  Ni11  1  0.500000  0.500000  0.868657  1
  Ni  Ni12  1  0.500000  0.000000  0.868657  1
  Ni  Ni13  1  0.500000  0.500000  0.130561  1
  Ni  Ni14  1  0.500000  0.000000  0.130561  1
  Ni  Ni15  1  0.000000  0.500000  0.130681  1
  B  B16  1  0.671073  0.335536  0.998981  1
  B  B17  1  0.328927  0.664464  0.998981  1
