# generated using pymatgen
data_Pa2Zn16Pd
_symmetry_space_group_name_H-M   'P 1'
_cell_length_a   6.77747271
_cell_length_b   6.80524517
_cell_length_c   6.80524500
_cell_angle_alpha   83.35008077
_cell_angle_beta   82.66359634
_cell_angle_gamma   82.66361074
_symmetry_Int_Tables_number   1
_chemical_formula_structural   Pa2Zn16Pd
_chemical_formula_sum   'Pa2 Zn16 Pd1'
_cell_volume   307.17255176
_cell_formula_units_Z   1
loop_
 _symmetry_equiv_pos_site_id
 _symmetry_equiv_pos_as_xyz
  1  'x, y, z'
loop_
 _atom_site_type_symbol
 _atom_site_label
 _atom_site_symmetry_multiplicity
 _atom_site_fract_x
 _atom_site_fract_y
 _atom_site_fract_z
 _atom_site_occupancy
  Pa  Pa0  1  0.664566  0.653189  0.653189  1
  Pa  Pa1  1  0.335347  0.340303  0.340303  1
  Zn  Zn2  1  0.353947  0.353427  0.842588  1
  Zn  Zn3  1  0.100537  0.102425  0.102425  1
  Zn  Zn4  1  0.895570  0.894432  0.894432  1
  Zn  Zn5  1  0.999188  0.002852  0.499003  1
  Zn  Zn6  1  0.999188  0.499003  0.002852  1
  Zn  Zn7  1  0.498555  0.002048  0.002048  1
  Zn  Zn8  1  0.299511  0.702573  0.998200  1
  Zn  Zn9  1  0.705132  0.003738  0.296403  1
  Zn  Zn10  1  0.001087  0.295110  0.704410  1
  Zn  Zn11  1  0.705132  0.296403  0.003738  1
  Zn  Zn12  1  0.299511  0.998200  0.702573  1
  Zn  Zn13  1  0.001087  0.704410  0.295110  1
  Zn  Zn14  1  0.161150  0.647422  0.647422  1
  Zn  Zn15  1  0.644917  0.649208  0.152136  1
  Zn  Zn16  1  0.644917  0.152136  0.649208  1
  Zn  Zn17  1  0.353947  0.842588  0.353427  1
  Pd  Pd18  1  0.836715  0.360533  0.360533  1
