# generated using pymatgen
data_Ho3Er5(BBr6)2
_symmetry_space_group_name_H-M   'P 1'
_cell_length_a   3.92839300
_cell_length_b   13.07274288
_cell_length_c   13.53812791
_cell_angle_alpha   90.04198543
_cell_angle_beta   90.00000000
_cell_angle_gamma   90.00000000
_symmetry_Int_Tables_number   1
_chemical_formula_structural   Ho3Er5(BBr6)2
_chemical_formula_sum   'Ho3 Er5 B2 Br12'
_cell_volume   695.24863393
_cell_formula_units_Z   1
loop_
 _symmetry_equiv_pos_site_id
 _symmetry_equiv_pos_as_xyz
  1  'x, y, z'
loop_
 _atom_site_type_symbol
 _atom_site_label
 _atom_site_symmetry_multiplicity
 _atom_site_fract_x
 _atom_site_fract_y
 _atom_site_fract_z
 _atom_site_occupancy
  Ho  Ho0  1  0.500000  0.122393  0.856133  1
  Ho  Ho1  1  0.500000  0.877624  0.143878  1
  Ho  Ho2  1  0.500000  0.622326  0.643817  1
  Er  Er3  1  0.000000  0.100975  0.080209  1
  Er  Er4  1  0.000000  0.899041  0.919819  1
  Er  Er5  1  0.000000  0.600850  0.419775  1
  Er  Er6  1  0.000000  0.399001  0.580042  1
  Er  Er7  1  0.500000  0.377853  0.356405  1
  B  B8  1  0.500000  0.000033  0.000024  1
  B  B9  1  0.500000  0.499775  0.499733  1
  Br  Br10  1  0.500000  0.268181  0.681694  1
  Br  Br11  1  0.500000  0.731796  0.318266  1
  Br  Br12  1  0.500000  0.768144  0.818254  1
  Br  Br13  1  0.500000  0.232144  0.182096  1
  Br  Br14  1  0.000000  0.261206  0.931344  1
  Br  Br15  1  0.000000  0.738797  0.068675  1
  Br  Br16  1  0.000000  0.480241  0.239602  1
  Br  Br17  1  0.000000  0.519081  0.760779  1
  Br  Br18  1  0.000000  0.980929  0.260859  1
  Br  Br19  1  0.000000  0.019073  0.739156  1
  Br  Br20  1  0.000000  0.239382  0.430781  1
  Br  Br21  1  0.000000  0.761155  0.568659  1
