# generated using pymatgen
data_Ho6Lu4Sn5Sb
_symmetry_space_group_name_H-M   'P 1'
_cell_length_a   8.86922613
_cell_length_b   8.86922682
_cell_length_c   6.40515200
_cell_angle_alpha   90.00000000
_cell_angle_beta   90.00000000
_cell_angle_gamma   119.98009160
_symmetry_Int_Tables_number   1
_chemical_formula_structural   Ho6Lu4Sn5Sb
_chemical_formula_sum   'Ho6 Lu4 Sn5 Sb1'
_cell_volume   436.43407424
_cell_formula_units_Z   1
loop_
 _symmetry_equiv_pos_site_id
 _symmetry_equiv_pos_as_xyz
  1  'x, y, z'
loop_
 _atom_site_type_symbol
 _atom_site_label
 _atom_site_symmetry_multiplicity
 _atom_site_fract_x
 _atom_site_fract_y
 _atom_site_fract_z
 _atom_site_occupancy
  Ho  Ho0  1  0.761172  0.761172  0.750000  1
  Ho  Ho1  1  0.238913  0.998985  0.750000  1
  Ho  Ho2  1  0.998985  0.238913  0.750000  1
  Ho  Ho3  1  0.239392  0.239392  0.250000  1
  Ho  Ho4  1  0.760887  0.000379  0.250000  1
  Ho  Ho5  1  0.000379  0.760887  0.250000  1
  Lu  Lu6  1  0.667029  0.333171  0.000088  1
  Lu  Lu7  1  0.333171  0.667029  0.000088  1
  Lu  Lu8  1  0.333171  0.667029  0.499912  1
  Lu  Lu9  1  0.667029  0.333171  0.499912  1
  Sn  Sn10  1  0.602887  0.999732  0.750000  1
  Sn  Sn11  1  0.999732  0.602887  0.750000  1
  Sn  Sn12  1  0.603734  0.603734  0.250000  1
  Sn  Sn13  1  0.397026  0.000569  0.250000  1
  Sn  Sn14  1  0.000569  0.397026  0.250000  1
  Sb  Sb15  1  0.395924  0.395924  0.750000  1
