# generated using pymatgen
data_Ge(S4Cl)4
_symmetry_space_group_name_H-M   'P 1'
_cell_length_a   15.88804495
_cell_length_b   12.93532730
_cell_length_c   12.56549243
_cell_angle_alpha   77.06189165
_cell_angle_beta   52.51242867
_cell_angle_gamma   50.42567914
_symmetry_Int_Tables_number   1
_chemical_formula_structural   Ge(S4Cl)4
_chemical_formula_sum   'Ge2 S32 Cl8'
_cell_volume   1521.74380990
_cell_formula_units_Z   2
loop_
 _symmetry_equiv_pos_site_id
 _symmetry_equiv_pos_as_xyz
  1  'x, y, z'
loop_
 _atom_site_type_symbol
 _atom_site_label
 _atom_site_symmetry_multiplicity
 _atom_site_fract_x
 _atom_site_fract_y
 _atom_site_fract_z
 _atom_site_occupancy
  Ge  Ge0  1  0.247043  0.252957  0.252957  1
  Ge  Ge1  1  0.997043  0.002957  0.002957  1
  S  S2  1  0.524591  0.467898  0.261760  1
  S  S3  1  0.321044  0.880087  0.164305  1
  S  S4  1  0.745751  0.261760  0.467898  1
  S  S5  1  0.810047  0.530516  0.328086  1
  S  S6  1  0.634563  0.164305  0.880087  1
  S  S7  1  0.179432  0.310568  0.648235  1
  S  S8  1  0.595874  0.926366  0.588951  1
  S  S9  1  0.325550  0.816538  0.328093  1
  S  S10  1  0.635923  0.649276  0.338563  1
  S  S11  1  0.331351  0.328086  0.530516  1
  S  S12  1  0.719484  0.439953  0.918649  1
  S  S13  1  0.782102  0.725409  0.504249  1
  S  S14  1  0.323634  0.654126  0.361190  1
  S  S15  1  0.911437  0.873762  0.614077  1
  S  S16  1  0.601765  0.388236  0.070568  1
  S  S17  1  0.888810  0.588951  0.926366  1
  S  S18  1  0.264958  0.544222  0.729138  1
  S  S19  1  0.705778  0.985042  0.788319  1
  S  S20  1  0.433462  0.924450  0.720182  1
  S  S21  1  0.369913  0.928956  0.615437  1
  S  S22  1  0.376238  0.338563  0.649276  1
  S  S23  1  0.939432  0.070568  0.388236  1
  S  S24  1  0.085695  0.615437  0.928956  1
  S  S25  1  0.529818  0.328093  0.816538  1
  S  S26  1  0.520862  0.788319  0.985042  1
  S  S27  1  0.921914  0.918649  0.439953  1
  S  S28  1  0.661049  0.361190  0.654126  1
  S  S29  1  0.861764  0.648235  0.310568  1
  S  S30  1  0.921907  0.720182  0.924450  1
  S  S31  1  0.600724  0.614077  0.873762  1
  S  S32  1  0.461681  0.729138  0.544222  1
  S  S33  1  0.988240  0.504249  0.725409  1
  Cl  Cl34  1  0.177509  0.821972  0.981851  1
  Cl  Cl35  1  0.972400  0.180928  0.028286  1
  Cl  Cl36  1  0.018667  0.981851  0.821972  1
  Cl  Cl37  1  0.818386  0.028286  0.180928  1
  Cl  Cl38  1  0.428028  0.072491  0.231333  1
  Cl  Cl39  1  0.268149  0.231333  0.072491  1
  Cl  Cl40  1  0.221714  0.431614  0.277600  1
  Cl  Cl41  1  0.069072  0.277600  0.431614  1
