# generated using pymatgen
data_NaPu2S3
_symmetry_space_group_name_H-M   'P 1'
_cell_length_a   6.97619494
_cell_length_b   6.97619506
_cell_length_c   6.97619576
_cell_angle_alpha   146.43488726
_cell_angle_beta   132.85040596
_cell_angle_gamma   59.11313943
_symmetry_Int_Tables_number   1
_chemical_formula_structural   NaPu2S3
_chemical_formula_sum   'Na1 Pu2 S3'
_cell_volume   136.42013550
_cell_formula_units_Z   1
loop_
 _symmetry_equiv_pos_site_id
 _symmetry_equiv_pos_as_xyz
  1  'x, y, z'
loop_
 _atom_site_type_symbol
 _atom_site_label
 _atom_site_symmetry_multiplicity
 _atom_site_fract_x
 _atom_site_fract_y
 _atom_site_fract_z
 _atom_site_occupancy
  Na  Na0  1  0.000000  0.000000  0.000000  1
  Pu  Pu1  1  0.662473  0.662473  0.000000  1
  Pu  Pu2  1  0.337527  0.337527  0.000000  1
  S  S3  1  0.500000  0.000000  0.500000  1
  S  S4  1  0.179957  0.679957  0.500000  1
  S  S5  1  0.820043  0.320043  0.500000  1
