# generated using pymatgen
data_Pm4Mn3TcO12
_symmetry_space_group_name_H-M   'P 1'
_cell_length_a   5.49308070
_cell_length_b   5.91092540
_cell_length_c   7.78371382
_cell_angle_alpha   90.56085605
_cell_angle_beta   89.66261646
_cell_angle_gamma   90.49071475
_symmetry_Int_Tables_number   1
_chemical_formula_structural   Pm4Mn3TcO12
_chemical_formula_sum   'Pm4 Mn3 Tc1 O12'
_cell_volume   252.70525003
_cell_formula_units_Z   1
loop_
 _symmetry_equiv_pos_site_id
 _symmetry_equiv_pos_as_xyz
  1  'x, y, z'
loop_
 _atom_site_type_symbol
 _atom_site_label
 _atom_site_symmetry_multiplicity
 _atom_site_fract_x
 _atom_site_fract_y
 _atom_site_fract_z
 _atom_site_occupancy
  Pm  Pm0  1  0.980794  0.076863  0.253776  1
  Pm  Pm1  1  0.515387  0.569964  0.255975  1
  Pm  Pm2  1  0.484613  0.430036  0.744025  1
  Pm  Pm3  1  0.019206  0.923137  0.746224  1
  Mn  Mn4  1  0.000000  0.499999  0.000000  1
  Mn  Mn5  1  0.500001  0.000000  0.500000  1
  Mn  Mn6  1  0.000000  0.499999  0.500000  1
  Tc  Tc7  1  0.500001  0.000000  0.000000  1
  O  O8  1  0.678142  0.295860  0.058629  1
  O  O9  1  0.801283  0.816861  0.054896  1
  O  O10  1  0.106112  0.464768  0.258941  1
  O  O11  1  0.388903  0.961718  0.248795  1
  O  O12  1  0.704495  0.317001  0.447859  1
  O  O13  1  0.788308  0.823125  0.446833  1
  O  O14  1  0.211692  0.176875  0.553167  1
  O  O15  1  0.295505  0.682998  0.552141  1
  O  O16  1  0.611097  0.038283  0.751205  1
  O  O17  1  0.893888  0.535232  0.741059  1
  O  O18  1  0.198717  0.183139  0.945105  1
  O  O19  1  0.321858  0.704139  0.941372  1
