# generated using pymatgen
data_DyHo7Sc12Si15Tc
_symmetry_space_group_name_H-M   'P 1'
_cell_length_a   7.07888206
_cell_length_b   7.43782524
_cell_length_c   13.93305008
_cell_angle_alpha   90.01200102
_cell_angle_beta   89.99732469
_cell_angle_gamma   90.18797031
_symmetry_Int_Tables_number   1
_chemical_formula_structural   DyHo7Sc12Si15Tc
_chemical_formula_sum   'Dy1 Ho7 Sc12 Si15 Tc1'
_cell_volume   733.59184961
_cell_formula_units_Z   1
loop_
 _symmetry_equiv_pos_site_id
 _symmetry_equiv_pos_as_xyz
  1  'x, y, z'
loop_
 _atom_site_type_symbol
 _atom_site_label
 _atom_site_symmetry_multiplicity
 _atom_site_fract_x
 _atom_site_fract_y
 _atom_site_fract_z
 _atom_site_occupancy
  Dy  Dy0  1  0.489048  0.675680  0.595850  1
  Ho  Ho1  1  0.011600  0.178646  0.095968  1
  Ho  Ho2  1  0.991038  0.827303  0.903829  1
  Ho  Ho3  1  0.489020  0.675904  0.903996  1
  Ho  Ho4  1  0.991043  0.827355  0.596220  1
  Ho  Ho5  1  0.510845  0.322875  0.096050  1
  Ho  Ho6  1  0.011570  0.178659  0.404011  1
  Ho  Ho7  1  0.510859  0.322854  0.403884  1
  Sc  Sc8  1  0.156369  0.499097  0.750060  1
  Sc  Sc9  1  0.838285  0.494679  0.249994  1
  Sc  Sc10  1  0.338746  0.005846  0.249973  1
  Sc  Sc11  1  0.667806  0.998728  0.750055  1
  Sc  Sc12  1  0.316357  0.171474  0.627915  1
  Sc  Sc13  1  0.672063  0.826248  0.373934  1
  Sc  Sc14  1  0.171681  0.677914  0.373835  1
  Sc  Sc15  1  0.671983  0.826163  0.126007  1
  Sc  Sc16  1  0.837518  0.319602  0.627281  1
  Sc  Sc17  1  0.316342  0.171506  0.872134  1
  Sc  Sc18  1  0.837516  0.319609  0.872767  1
  Sc  Sc19  1  0.171727  0.677937  0.126111  1
  Si  Si20  1  0.968440  0.884646  0.249993  1
  Si  Si21  1  0.470201  0.613825  0.249991  1
  Si  Si22  1  0.529601  0.388104  0.750095  1
  Si  Si23  1  0.286664  0.867100  0.750119  1
  Si  Si24  1  0.713129  0.129705  0.249996  1
  Si  Si25  1  0.214179  0.369818  0.249995  1
  Si  Si26  1  0.780111  0.628472  0.750135  1
  Si  Si27  1  0.159963  0.468611  0.536779  1
  Si  Si28  1  0.844405  0.536200  0.461473  1
  Si  Si29  1  0.344140  0.965772  0.459861  1
  Si  Si30  1  0.844311  0.536225  0.038491  1
  Si  Si31  1  0.655392  0.034181  0.538827  1
  Si  Si32  1  0.160302  0.468774  0.963149  1
  Si  Si33  1  0.655291  0.033915  0.961116  1
  Si  Si34  1  0.344180  0.965587  0.040081  1
  Tc  Tc35  1  0.028277  0.110988  0.750023  1
