# generated using pymatgen
data_Th3Sn2GeRu2Rh
_symmetry_space_group_name_H-M   'P 1'
_cell_length_a   7.47300777
_cell_length_b   7.46187725
_cell_length_c   4.10105200
_cell_angle_alpha   90.00000000
_cell_angle_beta   90.00000000
_cell_angle_gamma   120.05912985
_symmetry_Int_Tables_number   1
_chemical_formula_structural   Th3Sn2GeRu2Rh
_chemical_formula_sum   'Th3 Sn2 Ge1 Ru2 Rh1'
_cell_volume   197.92942699
_cell_formula_units_Z   1
loop_
 _symmetry_equiv_pos_site_id
 _symmetry_equiv_pos_as_xyz
  1  'x, y, z'
loop_
 _atom_site_type_symbol
 _atom_site_label
 _atom_site_symmetry_multiplicity
 _atom_site_fract_x
 _atom_site_fract_y
 _atom_site_fract_z
 _atom_site_occupancy
  Th  Th0  1  0.428630  0.424828  0.500000  1
  Th  Th1  1  0.592932  0.998651  0.500000  1
  Th  Th2  1  0.990727  0.589462  0.500000  1
  Sn  Sn3  1  0.247909  0.003751  0.000000  1
  Sn  Sn4  1  0.002077  0.247793  0.000000  1
  Ge  Ge5  1  0.752391  0.749275  0.000000  1
  Ru  Ru6  1  0.668685  0.341813  0.000000  1
  Ru  Ru7  1  0.974823  0.975263  0.500000  1
  Rh  Rh8  1  0.341826  0.669162  0.000000  1
