# generated using pymatgen
data_Nd7Er(Tm3Pt4)4
_symmetry_space_group_name_H-M   'P 1'
_cell_length_a   7.51430897
_cell_length_b   7.60299842
_cell_length_c   14.67113716
_cell_angle_alpha   90.00556257
_cell_angle_beta   90.04484071
_cell_angle_gamma   90.03769497
_symmetry_Int_Tables_number   1
_chemical_formula_structural   Nd7Er(Tm3Pt4)4
_chemical_formula_sum   'Nd7 Er1 Tm12 Pt16'
_cell_volume   838.18039185
_cell_formula_units_Z   1
loop_
 _symmetry_equiv_pos_site_id
 _symmetry_equiv_pos_as_xyz
  1  'x, y, z'
loop_
 _atom_site_type_symbol
 _atom_site_label
 _atom_site_symmetry_multiplicity
 _atom_site_fract_x
 _atom_site_fract_y
 _atom_site_fract_z
 _atom_site_occupancy
  Nd  Nd0  1  0.500495  0.678818  0.593018  1
  Nd  Nd1  1  0.999494  0.822564  0.906530  1
  Nd  Nd2  1  0.499655  0.322688  0.093541  1
  Nd  Nd3  1  0.000194  0.175726  0.407674  1
  Nd  Nd4  1  0.499666  0.322537  0.406553  1
  Nd  Nd5  1  0.999889  0.177734  0.093165  1
  Nd  Nd6  1  0.500427  0.677538  0.906368  1
  Er  Er7  1  0.002364  0.820328  0.594214  1
  Tm  Tm8  1  0.658724  0.166383  0.623191  1
  Tm  Tm9  1  0.156712  0.331791  0.875577  1
  Tm  Tm10  1  0.343000  0.832311  0.123906  1
  Tm  Tm11  1  0.844786  0.668788  0.377219  1
  Tm  Tm12  1  0.342708  0.832600  0.376620  1
  Tm  Tm13  1  0.843054  0.667394  0.124109  1
  Tm  Tm14  1  0.657123  0.167461  0.875705  1
  Tm  Tm15  1  0.156448  0.332310  0.623634  1
  Tm  Tm16  1  0.820283  0.509203  0.749120  1
  Tm  Tm17  1  0.319168  0.991468  0.748862  1
  Tm  Tm18  1  0.179680  0.491705  0.250230  1
  Tm  Tm19  1  0.680016  0.008305  0.250150  1
  Pt  Pt20  1  0.680534  0.961734  0.458808  1
  Pt  Pt21  1  0.179655  0.536720  0.042606  1
  Pt  Pt22  1  0.320722  0.036887  0.957338  1
  Pt  Pt23  1  0.822503  0.467858  0.544017  1
  Pt  Pt24  1  0.314507  0.032809  0.543643  1
  Pt  Pt25  1  0.820923  0.463121  0.957289  1
  Pt  Pt26  1  0.679441  0.963195  0.042639  1
  Pt  Pt27  1  0.178650  0.539516  0.458618  1
  Pt  Pt28  1  0.453390  0.380253  0.749737  1
  Pt  Pt29  1  0.954788  0.117960  0.748746  1
  Pt  Pt30  1  0.546042  0.620459  0.250264  1
  Pt  Pt31  1  0.046104  0.879619  0.250128  1
  Pt  Pt32  1  0.686101  0.861201  0.748864  1
  Pt  Pt33  1  0.181610  0.640938  0.747514  1
  Pt  Pt34  1  0.315494  0.138536  0.250162  1
  Pt  Pt35  1  0.815649  0.361542  0.250239  1
