# generated using pymatgen
data_CaTbDy6(B6Ru)4
_symmetry_space_group_name_H-M   'P 1'
_cell_length_a   3.66623200
_cell_length_b   9.15745082
_cell_length_c   11.54456304
_cell_angle_alpha   89.89161235
_cell_angle_beta   90.00000000
_cell_angle_gamma   90.00000000
_symmetry_Int_Tables_number   1
_chemical_formula_structural   CaTbDy6(B6Ru)4
_chemical_formula_sum   'Ca1 Tb1 Dy6 B24 Ru4'
_cell_volume   387.58883761
_cell_formula_units_Z   1
loop_
 _symmetry_equiv_pos_site_id
 _symmetry_equiv_pos_as_xyz
  1  'x, y, z'
loop_
 _atom_site_type_symbol
 _atom_site_label
 _atom_site_symmetry_multiplicity
 _atom_site_fract_x
 _atom_site_fract_y
 _atom_site_fract_z
 _atom_site_occupancy
  Ca  Ca0  1  0.000000  0.323117  0.413828  1
  Tb  Tb1  1  0.000000  0.675274  0.585060  1
  Dy  Dy2  1  0.000000  0.823102  0.086370  1
  Dy  Dy3  1  0.000000  0.177324  0.914564  1
  Dy  Dy4  1  0.000000  0.944085  0.371007  1
  Dy  Dy5  1  0.000000  0.057934  0.628301  1
  Dy  Dy6  1  0.000000  0.443024  0.129623  1
  Dy  Dy7  1  0.000000  0.556107  0.872239  1
  B  B8  1  0.500000  0.554571  0.432365  1
  B  B9  1  0.500000  0.445956  0.567911  1
  B  B10  1  0.500000  0.053325  0.066583  1
  B  B11  1  0.500000  0.945735  0.932370  1
  B  B12  1  0.500000  0.748287  0.419009  1
  B  B13  1  0.500000  0.252448  0.581388  1
  B  B14  1  0.500000  0.247167  0.080281  1
  B  B15  1  0.500000  0.752146  0.919617  1
  B  B16  1  0.500000  0.791414  0.266087  1
  B  B17  1  0.500000  0.209842  0.734184  1
  B  B18  1  0.500000  0.289616  0.232902  1
  B  B19  1  0.500000  0.709506  0.766686  1
  B  B20  1  0.500000  0.632603  0.185942  1
  B  B21  1  0.500000  0.368036  0.815100  1
  B  B22  1  0.500000  0.131194  0.313421  1
  B  B23  1  0.500000  0.868305  0.685476  1
  B  B24  1  0.500000  0.983664  0.211578  1
  B  B25  1  0.500000  0.016049  0.787459  1
  B  B26  1  0.500000  0.484817  0.287552  1
  B  B27  1  0.500000  0.515783  0.712941  1
  B  B28  1  0.500000  0.609089  0.030389  1
  B  B29  1  0.500000  0.391098  0.970346  1
  B  B30  1  0.500000  0.104845  0.470931  1
  B  B31  1  0.500000  0.894035  0.529289  1
  Ru  Ru32  1  0.000000  0.640094  0.320324  1
  Ru  Ru33  1  0.000000  0.361872  0.680720  1
  Ru  Ru34  1  0.000000  0.136396  0.176926  1
  Ru  Ru35  1  0.000000  0.862143  0.821232  1
