# generated using pymatgen
data_Er3Tm7Si5P
_symmetry_space_group_name_H-M   'P 1'
_cell_length_a   8.29365141
_cell_length_b   8.30979655
_cell_length_c   6.18654000
_cell_angle_alpha   90.00000000
_cell_angle_beta   90.00000000
_cell_angle_gamma   119.97154562
_symmetry_Int_Tables_number   1
_chemical_formula_structural   Er3Tm7Si5P
_chemical_formula_sum   'Er3 Tm7 Si5 P1'
_cell_volume   369.35082835
_cell_formula_units_Z   1
loop_
 _symmetry_equiv_pos_site_id
 _symmetry_equiv_pos_as_xyz
  1  'x, y, z'
loop_
 _atom_site_type_symbol
 _atom_site_label
 _atom_site_symmetry_multiplicity
 _atom_site_fract_x
 _atom_site_fract_y
 _atom_site_fract_z
 _atom_site_occupancy
  Er  Er0  1  0.755676  0.999978  0.750000  1
  Er  Er1  1  0.243581  0.242973  0.750000  1
  Er  Er2  1  0.242939  0.999766  0.250000  1
  Tm  Tm3  1  0.000493  0.756712  0.750000  1
  Tm  Tm4  1  0.000905  0.244100  0.250000  1
  Tm  Tm5  1  0.757344  0.756228  0.250000  1
  Tm  Tm6  1  0.333723  0.667474  0.500308  1
  Tm  Tm7  1  0.666562  0.332736  0.999720  1
  Tm  Tm8  1  0.666562  0.332736  0.500280  1
  Tm  Tm9  1  0.333723  0.667474  0.999692  1
  Si  Si10  1  0.394936  0.394566  0.250000  1
  Si  Si11  1  0.000378  0.605326  0.250000  1
  Si  Si12  1  0.000084  0.394838  0.750000  1
  Si  Si13  1  0.606234  0.605752  0.750000  1
  Si  Si14  1  0.607252  0.999987  0.250000  1
  P  P15  1  0.389607  0.999352  0.750000  1
