# generated using pymatgen
data_Er4Ga20Tc5Au
_symmetry_space_group_name_H-M   'P 1'
_cell_length_a   9.04179000
_cell_length_b   9.04179000
_cell_length_c   6.37468100
_cell_angle_alpha   90.00000000
_cell_angle_beta   90.00000000
_cell_angle_gamma   90.00000000
_symmetry_Int_Tables_number   1
_chemical_formula_structural   Er4Ga20Tc5Au
_chemical_formula_sum   'Er4 Ga20 Tc5 Au1'
_cell_volume   521.15545631
_cell_formula_units_Z   1
loop_
 _symmetry_equiv_pos_site_id
 _symmetry_equiv_pos_as_xyz
  1  'x, y, z'
loop_
 _atom_site_type_symbol
 _atom_site_label
 _atom_site_symmetry_multiplicity
 _atom_site_fract_x
 _atom_site_fract_y
 _atom_site_fract_z
 _atom_site_occupancy
  Er  Er0  1  0.680009  0.185482  0.000000  1
  Er  Er1  1  0.319991  0.814518  0.000000  1
  Er  Er2  1  0.814518  0.680009  0.000000  1
  Er  Er3  1  0.185482  0.319991  0.000000  1
  Ga  Ga4  1  0.936213  0.214347  0.296460  1
  Ga  Ga5  1  0.704814  0.440631  0.293129  1
  Ga  Ga6  1  0.500000  0.000000  0.286995  1
  Ga  Ga7  1  0.559369  0.704814  0.706871  1
  Ga  Ga8  1  0.295186  0.559369  0.706871  1
  Ga  Ga9  1  0.785653  0.936213  0.296460  1
  Ga  Ga10  1  0.936213  0.214347  0.703540  1
  Ga  Ga11  1  0.295186  0.559369  0.293129  1
  Ga  Ga12  1  0.063787  0.785653  0.296460  1
  Ga  Ga13  1  0.704814  0.440631  0.706871  1
  Ga  Ga14  1  0.440631  0.295186  0.706871  1
  Ga  Ga15  1  0.063787  0.785653  0.703540  1
  Ga  Ga16  1  0.214347  0.063787  0.703540  1
  Ga  Ga17  1  0.785653  0.936213  0.703540  1
  Ga  Ga18  1  0.214347  0.063787  0.296460  1
  Ga  Ga19  1  0.000000  0.500000  0.713005  1
  Ga  Ga20  1  0.000000  0.500000  0.286995  1
  Ga  Ga21  1  0.559369  0.704814  0.293129  1
  Ga  Ga22  1  0.440631  0.295186  0.293129  1
  Ga  Ga23  1  0.500000  0.000000  0.713005  1
  Tc  Tc24  1  0.680653  0.176291  0.500000  1
  Tc  Tc25  1  0.823709  0.680653  0.500000  1
  Tc  Tc26  1  0.176291  0.319347  0.500000  1
  Tc  Tc27  1  0.319347  0.823709  0.500000  1
  Tc  Tc28  1  0.500000  0.500000  0.000000  1
  Au  Au29  1  0.000000  0.000000  0.000000  1
