# generated using pymatgen
data_Sm8Ga(Pd7Pt)3
_symmetry_space_group_name_H-M   'P 1'
_cell_length_a   8.45294600
_cell_length_b   8.44955100
_cell_length_c   8.45283500
_cell_angle_alpha   90.00000000
_cell_angle_beta   90.00000000
_cell_angle_gamma   90.00000000
_symmetry_Int_Tables_number   1
_chemical_formula_structural   Sm8Ga(Pd7Pt)3
_chemical_formula_sum   'Sm8 Ga1 Pd21 Pt3'
_cell_volume   603.73189177
_cell_formula_units_Z   1
loop_
 _symmetry_equiv_pos_site_id
 _symmetry_equiv_pos_as_xyz
  1  'x, y, z'
loop_
 _atom_site_type_symbol
 _atom_site_label
 _atom_site_symmetry_multiplicity
 _atom_site_fract_x
 _atom_site_fract_y
 _atom_site_fract_z
 _atom_site_occupancy
  Sm  Sm0  1  0.251689  0.251777  0.251066  1
  Sm  Sm1  1  0.748207  0.747628  0.748309  1
  Sm  Sm2  1  0.748207  0.747628  0.251691  1
  Sm  Sm3  1  0.748207  0.252372  0.748309  1
  Sm  Sm4  1  0.251689  0.251777  0.748934  1
  Sm  Sm5  1  0.251689  0.748223  0.251066  1
  Sm  Sm6  1  0.251689  0.748223  0.748934  1
  Sm  Sm7  1  0.748207  0.252372  0.251691  1
  Ga  Ga8  1  0.000676  0.000000  0.000000  1
  Pd  Pd9  1  0.999926  0.260867  0.500000  1
  Pd  Pd10  1  0.499945  0.260785  0.000000  1
  Pd  Pd11  1  0.999926  0.739133  0.500000  1
  Pd  Pd12  1  0.499945  0.739215  0.000000  1
  Pd  Pd13  1  0.499935  0.000000  0.260905  1
  Pd  Pd14  1  0.260735  0.000000  0.500000  1
  Pd  Pd15  1  0.499935  0.000000  0.739095  1
  Pd  Pd16  1  0.738993  0.000000  0.500000  1
  Pd  Pd17  1  0.999939  0.500000  0.261073  1
  Pd  Pd18  1  0.999939  0.500000  0.738927  1
  Pd  Pd19  1  0.253308  0.500000  0.500000  1
  Pd  Pd20  1  0.746761  0.500000  0.500000  1
  Pd  Pd21  1  0.500144  0.253339  0.500000  1
  Pd  Pd22  1  0.500144  0.746661  0.500000  1
  Pd  Pd23  1  0.500090  0.500000  0.253206  1
  Pd  Pd24  1  0.500090  0.500000  0.746794  1
  Pd  Pd25  1  0.707658  0.000000  0.000000  1
  Pd  Pd26  1  0.999694  0.293656  0.000000  1
  Pd  Pd27  1  0.999694  0.706344  0.000000  1
  Pd  Pd28  1  0.999698  0.000000  0.293766  1
  Pd  Pd29  1  0.999698  0.000000  0.706234  1
  Pt  Pt30  1  0.260547  0.500000  0.000000  1
  Pt  Pt31  1  0.739145  0.500000  0.000000  1
  Pt  Pt32  1  0.293853  0.000000  0.000000  1
