# generated using pymatgen
data_La8Dy12Si15Bi
_symmetry_space_group_name_H-M   'P 1'
_cell_length_a   7.77532665
_cell_length_b   7.96299640
_cell_length_c   15.16683600
_cell_angle_alpha   90.12681645
_cell_angle_beta   86.71736118
_cell_angle_gamma   90.08252271
_symmetry_Int_Tables_number   1
_chemical_formula_structural   La8Dy12Si15Bi
_chemical_formula_sum   'La8 Dy12 Si15 Bi1'
_cell_volume   937.50921208
_cell_formula_units_Z   1
loop_
 _symmetry_equiv_pos_site_id
 _symmetry_equiv_pos_as_xyz
  1  'x, y, z'
loop_
 _atom_site_type_symbol
 _atom_site_label
 _atom_site_symmetry_multiplicity
 _atom_site_fract_x
 _atom_site_fract_y
 _atom_site_fract_z
 _atom_site_occupancy
  La  La0  1  0.026720  0.184126  0.101048  1
  La  La1  1  0.973206  0.818159  0.899587  1
  La  La2  1  0.473789  0.682739  0.899459  1
  La  La3  1  0.996590  0.824665  0.600363  1
  La  La4  1  0.527185  0.317099  0.102296  1
  La  La5  1  0.999662  0.176465  0.398834  1
  La  La6  1  0.511567  0.314723  0.396437  1
  La  La7  1  0.509373  0.686827  0.602195  1
  Dy  Dy8  1  0.164249  0.503256  0.753118  1
  Dy  Dy9  1  0.834010  0.497601  0.254859  1
  Dy  Dy10  1  0.334965  0.005720  0.254102  1
  Dy  Dy11  1  0.668606  0.994486  0.748183  1
  Dy  Dy12  1  0.354422  0.150135  0.623912  1
  Dy  Dy13  1  0.650811  0.833947  0.379393  1
  Dy  Dy14  1  0.147435  0.678807  0.371116  1
  Dy  Dy15  1  0.677116  0.823824  0.122135  1
  Dy  Dy16  1  0.832957  0.331146  0.623460  1
  Dy  Dy17  1  0.322235  0.175891  0.877447  1
  Dy  Dy18  1  0.822285  0.322800  0.877383  1
  Dy  Dy19  1  0.177008  0.677200  0.122945  1
  Si  Si20  1  0.040020  0.119466  0.752668  1
  Si  Si21  1  0.957806  0.885240  0.245281  1
  Si  Si22  1  0.459480  0.618222  0.246241  1
  Si  Si23  1  0.536899  0.381598  0.753338  1
  Si  Si24  1  0.284669  0.873653  0.753124  1
  Si  Si25  1  0.718508  0.119724  0.247059  1
  Si  Si26  1  0.217145  0.380833  0.247513  1
  Si  Si27  1  0.786185  0.622220  0.752609  1
  Si  Si28  1  0.804157  0.539710  0.454267  1
  Si  Si29  1  0.306948  0.962751  0.454078  1
  Si  Si30  1  0.860161  0.529790  0.041372  1
  Si  Si31  1  0.693966  0.037189  0.545608  1
  Si  Si32  1  0.138220  0.471454  0.958672  1
  Si  Si33  1  0.638032  0.029559  0.958747  1
  Si  Si34  1  0.360110  0.971666  0.041898  1
  Bi  Bi35  1  0.193499  0.457310  0.539255  1
