# generated using pymatgen
data_HoErTa4(B2Ru5)2
_symmetry_space_group_name_H-M   'P 1'
_cell_length_a   9.54575501
_cell_length_b   9.54581469
_cell_length_c   3.08734600
_cell_angle_alpha   90.00000000
_cell_angle_beta   90.00000000
_cell_angle_gamma   90.57446698
_symmetry_Int_Tables_number   1
_chemical_formula_structural   HoErTa4(B2Ru5)2
_chemical_formula_sum   'Ho1 Er1 Ta4 B4 Ru10'
_cell_volume   281.31102785
_cell_formula_units_Z   1
loop_
 _symmetry_equiv_pos_site_id
 _symmetry_equiv_pos_as_xyz
  1  'x, y, z'
loop_
 _atom_site_type_symbol
 _atom_site_label
 _atom_site_symmetry_multiplicity
 _atom_site_fract_x
 _atom_site_fract_y
 _atom_site_fract_z
 _atom_site_occupancy
  Ho  Ho0  1  0.176099  0.323902  0.000000  1
  Er  Er1  1  0.823891  0.676108  0.000000  1
  Ta  Ta2  1  0.323831  0.823826  0.000000  1
  Ta  Ta3  1  0.676175  0.176166  0.000000  1
  Ta  Ta4  1  0.500122  0.500040  0.000000  1
  Ta  Ta5  1  0.999957  0.999875  0.000000  1
  B  B6  1  0.620630  0.879371  0.000000  1
  B  B7  1  0.379488  0.120514  0.000000  1
  B  B8  1  0.120945  0.621044  0.000000  1
  B  B9  1  0.878956  0.379058  0.000000  1
  Ru  Ru10  1  0.559783  0.722888  0.500000  1
  Ru  Ru11  1  0.440442  0.277074  0.500000  1
  Ru  Ru12  1  0.081522  0.785562  0.500000  1
  Ru  Ru13  1  0.918289  0.214370  0.500000  1
  Ru  Ru14  1  0.285630  0.581711  0.500000  1
  Ru  Ru15  1  0.714436  0.418481  0.500000  1
  Ru  Ru16  1  0.222926  0.059559  0.500000  1
  Ru  Ru17  1  0.777111  0.940216  0.500000  1
  Ru  Ru18  1  0.500021  0.999982  0.500000  1
  Ru  Ru19  1  0.999745  0.500254  0.500000  1
