# generated using pymatgen
data_NdHo2Co7TcP6Ru
_symmetry_space_group_name_H-M   'P 1'
_cell_length_a   3.76105200
_cell_length_b   10.62556500
_cell_length_c   12.34247200
_cell_angle_alpha   90.00000000
_cell_angle_beta   90.00000000
_cell_angle_gamma   90.00000000
_symmetry_Int_Tables_number   1
_chemical_formula_structural   NdHo2Co7TcP6Ru
_chemical_formula_sum   'Nd2 Ho4 Co14 Tc2 P12 Ru2'
_cell_volume   493.24594206
_cell_formula_units_Z   2
loop_
 _symmetry_equiv_pos_site_id
 _symmetry_equiv_pos_as_xyz
  1  'x, y, z'
loop_
 _atom_site_type_symbol
 _atom_site_label
 _atom_site_symmetry_multiplicity
 _atom_site_fract_x
 _atom_site_fract_y
 _atom_site_fract_z
 _atom_site_occupancy
  Nd  Nd0  1  0.000000  0.500000  0.529228  1
  Nd  Nd1  1  0.500000  0.000000  0.478078  1
  Ho  Ho2  1  0.500000  0.818034  0.200628  1
  Ho  Ho3  1  0.500000  0.181966  0.200628  1
  Ho  Ho4  1  0.000000  0.683054  0.797348  1
  Ho  Ho5  1  0.000000  0.316946  0.797348  1
  Co  Co6  1  0.000000  0.500000  0.986731  1
  Co  Co7  1  0.500000  0.000000  0.012134  1
  Co  Co8  1  0.000000  0.201414  0.575393  1
  Co  Co9  1  0.000000  0.798586  0.575393  1
  Co  Co10  1  0.500000  0.879889  0.713663  1
  Co  Co11  1  0.500000  0.120111  0.713663  1
  Co  Co12  1  0.000000  0.620912  0.284673  1
  Co  Co13  1  0.000000  0.379088  0.284673  1
  Co  Co14  1  0.500000  0.331870  0.990398  1
  Co  Co15  1  0.500000  0.668130  0.990398  1
  Co  Co16  1  0.000000  0.167755  0.008423  1
  Co  Co17  1  0.000000  0.832245  0.008423  1
  Co  Co18  1  0.500000  0.500000  0.707476  1
  Co  Co19  1  0.000000  0.000000  0.292499  1
  Tc  Tc20  1  0.500000  0.500000  0.151929  1
  Tc  Tc21  1  0.000000  0.000000  0.845856  1
  P  P22  1  0.500000  0.306405  0.622253  1
  P  P23  1  0.500000  0.693595  0.622253  1
  P  P24  1  0.000000  0.187262  0.379000  1
  P  P25  1  0.000000  0.812738  0.379000  1
  P  P26  1  0.500000  0.500000  0.883001  1
  P  P27  1  0.000000  0.000000  0.115878  1
  P  P28  1  0.500000  0.845937  0.894564  1
  P  P29  1  0.500000  0.154063  0.894564  1
  P  P30  1  0.000000  0.653820  0.104400  1
  P  P31  1  0.000000  0.346180  0.104400  1
  P  P32  1  0.500000  0.500000  0.341384  1
  P  P33  1  0.000000  0.000000  0.655839  1
  Ru  Ru34  1  0.500000  0.295266  0.429241  1
  Ru  Ru35  1  0.500000  0.704734  0.429241  1
