# generated using pymatgen
data_Pr3SmGa18(IrPt)3
_symmetry_space_group_name_H-M   'P 1'
_cell_length_a   7.72131632
_cell_length_b   7.72593822
_cell_length_c   9.59023811
_cell_angle_alpha   89.97643621
_cell_angle_beta   89.97730478
_cell_angle_gamma   119.80445832
_symmetry_Int_Tables_number   1
_chemical_formula_structural   Pr3SmGa18(IrPt)3
_chemical_formula_sum   'Pr3 Sm1 Ga18 Ir3 Pt3'
_cell_volume   496.42635071
_cell_formula_units_Z   1
loop_
 _symmetry_equiv_pos_site_id
 _symmetry_equiv_pos_as_xyz
  1  'x, y, z'
loop_
 _atom_site_type_symbol
 _atom_site_label
 _atom_site_symmetry_multiplicity
 _atom_site_fract_x
 _atom_site_fract_y
 _atom_site_fract_z
 _atom_site_occupancy
  Pr  Pr0  1  0.997565  0.668496  0.249455  1
  Pr  Pr1  1  0.004471  0.333199  0.750870  1
  Pr  Pr2  1  0.666674  0.995284  0.249194  1
  Sm  Sm3  1  0.331025  0.002964  0.750460  1
  Ga  Ga4  1  0.127535  0.128391  0.250297  1
  Ga  Ga5  1  0.872911  0.873345  0.749701  1
  Ga  Ga6  1  0.000785  0.330772  0.079812  1
  Ga  Ga7  1  0.000568  0.670677  0.917977  1
  Ga  Ga8  1  0.998318  0.667046  0.579883  1
  Ga  Ga9  1  0.334241  0.002998  0.423329  1
  Ga  Ga10  1  0.995640  0.330346  0.422537  1
  Ga  Ga11  1  0.667946  0.004257  0.579291  1
  Ga  Ga12  1  0.667530  0.999395  0.918488  1
  Ga  Ga13  1  0.330897  0.001175  0.078830  1
  Ga  Ga14  1  0.331974  0.327899  0.560969  1
  Ga  Ga15  1  0.671105  0.667920  0.440883  1
  Ga  Ga16  1  0.669111  0.668806  0.062650  1
  Ga  Ga17  1  0.331248  0.329799  0.935389  1
  Ga  Ga18  1  0.342012  0.541321  0.250685  1
  Ga  Ga19  1  0.655480  0.453157  0.747058  1
  Ga  Ga20  1  0.544459  0.342036  0.253141  1
  Ga  Ga21  1  0.458880  0.659431  0.749277  1
  Ir  Ir22  1  0.670378  0.329370  0.500696  1
  Ir  Ir23  1  0.000478  0.000111  0.999214  1
  Ir  Ir24  1  0.000277  0.000310  0.500711  1
  Pt  Pt25  1  0.670726  0.329386  0.999303  1
  Pt  Pt26  1  0.328957  0.670965  0.999221  1
  Pt  Pt27  1  0.328807  0.671146  0.500678  1
