# generated using pymatgen
data_Y4Cu2MoRu5
_symmetry_space_group_name_H-M   'P 1'
_cell_length_a   5.47872884
_cell_length_b   5.26919740
_cell_length_c   8.88697200
_cell_angle_alpha   90.00000000
_cell_angle_beta   90.00000000
_cell_angle_gamma   122.51912457
_symmetry_Int_Tables_number   1
_chemical_formula_structural   Y4Cu2MoRu5
_chemical_formula_sum   'Y4 Cu2 Mo1 Ru5'
_cell_volume   216.32907537
_cell_formula_units_Z   1
loop_
 _symmetry_equiv_pos_site_id
 _symmetry_equiv_pos_as_xyz
  1  'x, y, z'
loop_
 _atom_site_type_symbol
 _atom_site_label
 _atom_site_symmetry_multiplicity
 _atom_site_fract_x
 _atom_site_fract_y
 _atom_site_fract_z
 _atom_site_occupancy
  Y  Y0  1  0.331496  0.670116  0.434129  1
  Y  Y1  1  0.669649  0.348088  0.561523  1
  Y  Y2  1  0.669649  0.348088  0.938477  1
  Y  Y3  1  0.331496  0.670116  0.065871  1
  Cu  Cu4  1  0.339722  0.158905  0.250000  1
  Cu  Cu5  1  0.838446  0.652124  0.250000  1
  Mo  Mo6  1  0.156292  0.316828  0.750000  1
  Ru  Ru7  1  0.170207  0.821347  0.750000  1
  Ru  Ru8  1  0.648189  0.822972  0.750000  1
  Ru  Ru9  1  0.000199  0.018573  0.003584  1
  Ru  Ru10  1  0.844459  0.154272  0.250000  1
  Ru  Ru11  1  0.000199  0.018573  0.496416  1
