# generated using pymatgen
data_Sr5Si2BiF
_symmetry_space_group_name_H-M   'P 1'
_cell_length_a   9.78166808
_cell_length_b   9.78166756
_cell_length_c   9.78166800
_cell_angle_alpha   129.57345450
_cell_angle_beta   129.57345201
_cell_angle_gamma   74.08959415
_symmetry_Int_Tables_number   1
_chemical_formula_structural   Sr5Si2BiF
_chemical_formula_sum   'Sr10 Si4 Bi2 F2'
_cell_volume   542.23534412
_cell_formula_units_Z   2
loop_
 _symmetry_equiv_pos_site_id
 _symmetry_equiv_pos_as_xyz
  1  'x, y, z'
loop_
 _atom_site_type_symbol
 _atom_site_label
 _atom_site_symmetry_multiplicity
 _atom_site_fract_x
 _atom_site_fract_y
 _atom_site_fract_z
 _atom_site_occupancy
  Sr  Sr0  1  0.500000  0.500000  0.000000  1
  Sr  Sr1  1  0.000000  0.000000  0.000000  1
  Sr  Sr2  1  0.520183  0.020183  0.822906  1
  Sr  Sr3  1  0.197277  0.697277  0.177094  1
  Sr  Sr4  1  0.020183  0.197277  0.500000  1
  Sr  Sr5  1  0.697277  0.520183  0.500000  1
  Sr  Sr6  1  0.479817  0.979817  0.177094  1
  Sr  Sr7  1  0.802723  0.302723  0.822906  1
  Sr  Sr8  1  0.979817  0.802723  0.500000  1
  Sr  Sr9  1  0.302723  0.479817  0.500000  1
  Si  Si10  1  0.888746  0.388746  0.277492  1
  Si  Si11  1  0.111254  0.611254  0.722508  1
  Si  Si12  1  0.388746  0.111254  0.500000  1
  Si  Si13  1  0.611254  0.888746  0.500000  1
  Bi  Bi14  1  0.250000  0.250000  0.000000  1
  Bi  Bi15  1  0.750000  0.750000  0.000000  1
  F  F16  1  0.250000  0.750000  0.500000  1
  F  F17  1  0.750000  0.250000  0.500000  1
