# generated using pymatgen
data_CePaAl2Zn15
_symmetry_space_group_name_H-M   'P 1'
_cell_length_a   6.85713594
_cell_length_b   6.85713707
_cell_length_c   6.85713607
_cell_angle_alpha   82.76379065
_cell_angle_beta   82.76379161
_cell_angle_gamma   82.76378417
_symmetry_Int_Tables_number   1
_chemical_formula_structural   CePaAl2Zn15
_chemical_formula_sum   'Ce1 Pa1 Al2 Zn15'
_cell_volume   315.31738834
_cell_formula_units_Z   1
loop_
 _symmetry_equiv_pos_site_id
 _symmetry_equiv_pos_as_xyz
  1  'x, y, z'
loop_
 _atom_site_type_symbol
 _atom_site_label
 _atom_site_symmetry_multiplicity
 _atom_site_fract_x
 _atom_site_fract_y
 _atom_site_fract_z
 _atom_site_occupancy
  Ce  Ce0  1  0.336329  0.336329  0.336329  1
  Pa  Pa1  1  0.664754  0.664754  0.664754  1
  Al  Al2  1  0.899534  0.899534  0.899534  1
  Al  Al3  1  0.099823  0.099823  0.099823  1
  Zn  Zn4  1  0.999627  0.999627  0.499978  1
  Zn  Zn5  1  0.999627  0.499978  0.999627  1
  Zn  Zn6  1  0.499978  0.999627  0.999627  1
  Zn  Zn7  1  0.300064  0.700231  0.999471  1
  Zn  Zn8  1  0.700231  0.999471  0.300064  1
  Zn  Zn9  1  0.999471  0.300064  0.700231  1
  Zn  Zn10  1  0.300064  0.999471  0.700231  1
  Zn  Zn11  1  0.999471  0.700231  0.300064  1
  Zn  Zn12  1  0.700231  0.300064  0.999471  1
  Zn  Zn13  1  0.353081  0.353081  0.836385  1
  Zn  Zn14  1  0.353081  0.836385  0.353081  1
  Zn  Zn15  1  0.836385  0.353081  0.353081  1
  Zn  Zn16  1  0.648313  0.648313  0.161622  1
  Zn  Zn17  1  0.648313  0.161622  0.648313  1
  Zn  Zn18  1  0.161622  0.648313  0.648313  1
