# generated using pymatgen
data_Rb8Ce3NiBr24
_symmetry_space_group_name_H-M   'P 1'
_cell_length_a   13.66717654
_cell_length_b   13.66717614
_cell_length_c   13.66717659
_cell_angle_alpha   132.25179365
_cell_angle_beta   132.25179571
_cell_angle_gamma   69.83163528
_symmetry_Int_Tables_number   1
_chemical_formula_structural   Rb8Ce3NiBr24
_chemical_formula_sum   'Rb8 Ce3 Ni1 Br24'
_cell_volume   1371.62115181
_cell_formula_units_Z   1
loop_
 _symmetry_equiv_pos_site_id
 _symmetry_equiv_pos_as_xyz
  1  'x, y, z'
loop_
 _atom_site_type_symbol
 _atom_site_label
 _atom_site_symmetry_multiplicity
 _atom_site_fract_x
 _atom_site_fract_y
 _atom_site_fract_z
 _atom_site_occupancy
  Rb  Rb0  1  0.363795  0.364724  0.484764  1
  Rb  Rb1  1  0.120969  0.636205  0.000928  1
  Rb  Rb2  1  0.879960  0.879031  0.515236  1
  Rb  Rb3  1  0.121812  0.123186  0.486296  1
  Rb  Rb4  1  0.364485  0.878188  0.001373  1
  Rb  Rb5  1  0.636890  0.635515  0.513704  1
  Rb  Rb6  1  0.635276  0.120040  0.999072  1
  Rb  Rb7  1  0.876814  0.363110  0.998627  1
  Ce  Ce8  1  0.250000  0.750000  0.500000  1
  Ce  Ce9  1  0.500000  0.500000  0.000000  1
  Ce  Ce10  1  0.750000  0.250000  0.500000  1
  Ni  Ni11  1  0.000000  0.000000  0.000000  1
  Br  Br12  1  0.001686  0.787894  0.286234  1
  Br  Br13  1  0.019253  0.218213  0.237230  1
  Br  Br14  1  0.284547  0.998314  0.786208  1
  Br  Br15  1  0.998808  0.214736  0.716631  1
  Br  Br16  1  0.124729  0.624729  0.500000  1
  Br  Br17  1  0.247319  0.527378  0.775930  1
  Br  Br18  1  0.501660  0.715453  0.713766  1
  Br  Br19  1  0.498105  0.282177  0.283369  1
  Br  Br20  1  0.472622  0.248552  0.719941  1
  Br  Br21  1  0.624099  0.624099  0.000000  1
  Br  Br22  1  0.528611  0.752681  0.280059  1
  Br  Br23  1  0.108029  0.108029  0.000000  1
  Br  Br24  1  0.891971  0.891971  0.000000  1
  Br  Br25  1  0.980984  0.782022  0.762770  1
  Br  Br26  1  0.781787  0.019016  0.801038  1
  Br  Br27  1  0.217978  0.980747  0.198962  1
  Br  Br28  1  0.751448  0.471389  0.224070  1
  Br  Br29  1  0.212106  0.498340  0.213792  1
  Br  Br30  1  0.375271  0.875271  0.500000  1
  Br  Br31  1  0.875212  0.375212  0.500000  1
  Br  Br32  1  0.375901  0.375901  0.000000  1
  Br  Br33  1  0.624788  0.124788  0.500000  1
  Br  Br34  1  0.785264  0.501895  0.784073  1
  Br  Br35  1  0.717823  0.001192  0.215927  1
