# generated using pymatgen
data_TaTi8Nb3Al8(PtN)4
_symmetry_space_group_name_H-M   'P 1'
_cell_length_a   8.23744193
_cell_length_b   8.22338592
_cell_length_c   8.22352200
_cell_angle_alpha   60.11276275
_cell_angle_beta   59.94290302
_cell_angle_gamma   60.04280589
_symmetry_Int_Tables_number   1
_chemical_formula_structural   TaTi8Nb3Al8(PtN)4
_chemical_formula_sum   'Ta1 Ti8 Nb3 Al8 Pt4 N4'
_cell_volume   394.19125709
_cell_formula_units_Z   1
loop_
 _symmetry_equiv_pos_site_id
 _symmetry_equiv_pos_as_xyz
  1  'x, y, z'
loop_
 _atom_site_type_symbol
 _atom_site_label
 _atom_site_symmetry_multiplicity
 _atom_site_fract_x
 _atom_site_fract_y
 _atom_site_fract_z
 _atom_site_occupancy
  Ta  Ta0  1  0.068833  0.068847  0.431158  1
  Ti  Ti1  1  0.067533  0.432134  0.069037  1
  Ti  Ti2  1  0.432152  0.067516  0.431302  1
  Ti  Ti3  1  0.180285  0.818785  0.182255  1
  Ti  Ti4  1  0.180854  0.818444  0.817787  1
  Ti  Ti5  1  0.818432  0.180863  0.182921  1
  Ti  Ti6  1  0.818778  0.180285  0.818676  1
  Ti  Ti7  1  0.431971  0.431964  0.068031  1
  Ti  Ti8  1  0.180453  0.180447  0.819546  1
  Nb  Nb9  1  0.818599  0.818635  0.181397  1
  Nb  Nb10  1  0.067145  0.432603  0.431259  1
  Nb  Nb11  1  0.432594  0.067120  0.069019  1
  Al  Al12  1  0.417935  0.752259  0.415382  1
  Al  Al13  1  0.835857  0.833247  0.496033  1
  Al  Al14  1  0.494017  0.836706  0.835874  1
  Al  Al15  1  0.833248  0.835874  0.834873  1
  Al  Al16  1  0.752314  0.417928  0.414387  1
  Al  Al17  1  0.415051  0.414727  0.415894  1
  Al  Al18  1  0.414704  0.415034  0.754366  1
  Al  Al19  1  0.836707  0.493985  0.833408  1
  Pt  Pt20  1  0.626007  0.125652  0.621606  1
  Pt  Pt21  1  0.625237  0.620496  0.124022  1
  Pt  Pt22  1  0.125662  0.626036  0.626688  1
  Pt  Pt23  1  0.620471  0.625286  0.630225  1
  N  N24  1  0.133989  0.624960  0.116349  1
  N  N25  1  0.127174  0.119074  0.631445  1
  N  N26  1  0.624914  0.133985  0.124750  1
  N  N27  1  0.119086  0.127107  0.122311  1
