# generated using pymatgen
data_Pr5HfIrO12
_symmetry_space_group_name_H-M   'P 1'
_cell_length_a   7.15920127
_cell_length_b   7.15920249
_cell_length_c   7.77696908
_cell_angle_alpha   74.30329182
_cell_angle_beta   74.30327764
_cell_angle_gamma   50.49994323
_symmetry_Int_Tables_number   1
_chemical_formula_structural   Pr5HfIrO12
_chemical_formula_sum   'Pr5 Hf1 Ir1 O12'
_cell_volume   293.48846641
_cell_formula_units_Z   1
loop_
 _symmetry_equiv_pos_site_id
 _symmetry_equiv_pos_as_xyz
  1  'x, y, z'
loop_
 _atom_site_type_symbol
 _atom_site_label
 _atom_site_symmetry_multiplicity
 _atom_site_fract_x
 _atom_site_fract_y
 _atom_site_fract_z
 _atom_site_occupancy
  Pr  Pr0  1  0.304462  0.305271  0.359732  1
  Pr  Pr1  1  0.694729  0.695538  0.640268  1
  Pr  Pr2  1  0.684178  0.699205  0.169520  1
  Pr  Pr3  1  0.300795  0.315822  0.830480  1
  Pr  Pr4  1  0.005197  0.994803  0.500000  1
  Hf  Hf5  1  0.776869  0.223131  0.000000  1
  Ir  Ir6  1  0.249642  0.750358  0.000000  1
  O  O7  1  0.093554  0.597013  0.574731  1
  O  O8  1  0.013706  0.985559  0.187837  1
  O  O9  1  0.402987  0.906446  0.425269  1
  O  O10  1  0.497733  0.503414  0.177082  1
  O  O11  1  0.097598  0.590316  0.079713  1
  O  O12  1  0.903125  0.408602  0.420157  1
  O  O13  1  0.014441  0.986294  0.812163  1
  O  O14  1  0.591398  0.096874  0.579843  1
  O  O15  1  0.496586  0.502267  0.822918  1
  O  O16  1  0.566473  0.103157  0.080580  1
  O  O17  1  0.409684  0.902402  0.920287  1
  O  O18  1  0.896843  0.433527  0.919420  1
