# generated using pymatgen
data_CeDy3Ga12Fe
_symmetry_space_group_name_H-M   'P 1'
_cell_length_a   7.47447315
_cell_length_b   7.47447254
_cell_length_c   7.39152800
_cell_angle_alpha   109.24658436
_cell_angle_beta   109.24658273
_cell_angle_gamma   109.69491919
_symmetry_Int_Tables_number   1
_chemical_formula_structural   CeDy3Ga12Fe
_chemical_formula_sum   'Ce1 Dy3 Ga12 Fe1'
_cell_volume   318.76452370
_cell_formula_units_Z   1
loop_
 _symmetry_equiv_pos_site_id
 _symmetry_equiv_pos_as_xyz
  1  'x, y, z'
loop_
 _atom_site_type_symbol
 _atom_site_label
 _atom_site_symmetry_multiplicity
 _atom_site_fract_x
 _atom_site_fract_y
 _atom_site_fract_z
 _atom_site_occupancy
  Ce  Ce0  1  0.000000  0.000000  0.500000  1
  Dy  Dy1  1  0.000000  0.500000  0.000000  1
  Dy  Dy2  1  0.500000  0.000000  0.000000  1
  Dy  Dy3  1  0.500000  0.500000  0.500000  1
  Ga  Ga4  1  0.749675  0.250325  0.500000  1
  Ga  Ga5  1  0.749675  0.499351  0.249675  1
  Ga  Ga6  1  0.500649  0.250325  0.750325  1
  Ga  Ga7  1  0.250325  0.500649  0.750325  1
  Ga  Ga8  1  0.250325  0.749675  0.500000  1
  Ga  Ga9  1  0.499351  0.749675  0.249675  1
  Ga  Ga10  1  0.716051  0.716051  0.000265  1
  Ga  Ga11  1  0.283949  0.000000  0.284214  1
  Ga  Ga12  1  0.000000  0.283949  0.284214  1
  Ga  Ga13  1  0.283949  0.283949  0.999735  1
  Ga  Ga14  1  0.716051  0.000000  0.715786  1
  Ga  Ga15  1  0.000000  0.716051  0.715786  1
  Fe  Fe16  1  0.000000  0.000000  0.000000  1
