# generated using pymatgen
data_TbLu15(In3Co)2
_symmetry_space_group_name_H-M   'P 1'
_cell_length_a   10.17758700
_cell_length_b   10.17758784
_cell_length_c   6.90162000
_cell_angle_alpha   90.00000000
_cell_angle_beta   90.00000000
_cell_angle_gamma   120.00000701
_symmetry_Int_Tables_number   1
_chemical_formula_structural   TbLu15(In3Co)2
_chemical_formula_sum   'Tb1 Lu15 In6 Co2'
_cell_volume   619.11500190
_cell_formula_units_Z   1
loop_
 _symmetry_equiv_pos_site_id
 _symmetry_equiv_pos_as_xyz
  1  'x, y, z'
loop_
 _atom_site_type_symbol
 _atom_site_label
 _atom_site_symmetry_multiplicity
 _atom_site_fract_x
 _atom_site_fract_y
 _atom_site_fract_z
 _atom_site_occupancy
  Tb  Tb0  1  0.000000  0.000000  0.994513  1
  Lu  Lu1  1  0.465005  0.534995  0.481312  1
  Lu  Lu2  1  0.069991  0.534995  0.481312  1
  Lu  Lu3  1  0.465005  0.930009  0.481312  1
  Lu  Lu4  1  0.535134  0.464866  0.981564  1
  Lu  Lu5  1  0.929731  0.464866  0.981564  1
  Lu  Lu6  1  0.535134  0.070269  0.981564  1
  Lu  Lu7  1  0.820316  0.179684  0.277634  1
  Lu  Lu8  1  0.359368  0.179684  0.277634  1
  Lu  Lu9  1  0.820316  0.640632  0.277634  1
  Lu  Lu10  1  0.179854  0.820146  0.775424  1
  Lu  Lu11  1  0.640292  0.820146  0.775424  1
  Lu  Lu12  1  0.179854  0.359708  0.775424  1
  Lu  Lu13  1  0.333333  0.666667  0.091901  1
  Lu  Lu14  1  0.666667  0.333333  0.591496  1
  Lu  Lu15  1  0.000000  0.000000  0.495357  1
  In  In16  1  0.163027  0.836973  0.236462  1
  In  In17  1  0.673945  0.836973  0.236462  1
  In  In18  1  0.163027  0.326055  0.236462  1
  In  In19  1  0.837146  0.162854  0.734155  1
  In  In20  1  0.325709  0.162854  0.734155  1
  In  In21  1  0.837146  0.674291  0.734155  1
  Co  Co22  1  0.333333  0.666667  0.706207  1
  Co  Co23  1  0.666667  0.333333  0.205420  1
