# generated using pymatgen
data_Y3TaOs2O
_symmetry_space_group_name_H-M   'P 1'
_cell_length_a   9.04967486
_cell_length_b   9.04967435
_cell_length_c   9.04967400
_cell_angle_alpha   59.99999397
_cell_angle_beta   59.99999585
_cell_angle_gamma   60.00000168
_symmetry_Int_Tables_number   1
_chemical_formula_structural   Y3TaOs2O
_chemical_formula_sum   'Y12 Ta4 Os8 O4'
_cell_volume   524.06340794
_cell_formula_units_Z   4
loop_
 _symmetry_equiv_pos_site_id
 _symmetry_equiv_pos_as_xyz
  1  'x, y, z'
loop_
 _atom_site_type_symbol
 _atom_site_label
 _atom_site_symmetry_multiplicity
 _atom_site_fract_x
 _atom_site_fract_y
 _atom_site_fract_z
 _atom_site_occupancy
  Y  Y0  1  0.809354  0.809354  0.190646  1
  Y  Y1  1  0.190646  0.190646  0.809354  1
  Y  Y2  1  0.809354  0.190646  0.809354  1
  Y  Y3  1  0.190646  0.809354  0.190646  1
  Y  Y4  1  0.190646  0.809354  0.809354  1
  Y  Y5  1  0.809354  0.190646  0.190646  1
  Y  Y6  1  0.440646  0.440646  0.059354  1
  Y  Y7  1  0.059354  0.059354  0.440646  1
  Y  Y8  1  0.440646  0.059354  0.440646  1
  Y  Y9  1  0.059354  0.440646  0.059354  1
  Y  Y10  1  0.059354  0.440646  0.440646  1
  Y  Y11  1  0.440646  0.059354  0.059354  1
  Ta  Ta12  1  0.125000  0.625000  0.625000  1
  Ta  Ta13  1  0.625000  0.125000  0.625000  1
  Ta  Ta14  1  0.625000  0.625000  0.125000  1
  Ta  Ta15  1  0.625000  0.625000  0.625000  1
  Os  Os16  1  0.738226  0.420591  0.420591  1
  Os  Os17  1  0.420591  0.738226  0.420591  1
  Os  Os18  1  0.420591  0.420591  0.738226  1
  Os  Os19  1  0.420591  0.420591  0.420591  1
  Os  Os20  1  0.511774  0.829409  0.829409  1
  Os  Os21  1  0.829409  0.511774  0.829409  1
  Os  Os22  1  0.829409  0.829409  0.511774  1
  Os  Os23  1  0.829409  0.829409  0.829409  1
  O  O24  1  0.625000  0.125000  0.125000  1
  O  O25  1  0.125000  0.625000  0.125000  1
  O  O26  1  0.125000  0.125000  0.625000  1
  O  O27  1  0.125000  0.125000  0.125000  1
