# generated using pymatgen
data_Tb7Dy9Cd4Os3Rh
_symmetry_space_group_name_H-M   'P 1'
_cell_length_a   9.70894754
_cell_length_b   9.60757524
_cell_length_c   9.70628615
_cell_angle_alpha   59.52982673
_cell_angle_beta   59.89757131
_cell_angle_gamma   59.54845181
_symmetry_Int_Tables_number   1
_chemical_formula_structural   Tb7Dy9Cd4Os3Rh
_chemical_formula_sum   'Tb7 Dy9 Cd4 Os3 Rh1'
_cell_volume   635.22973725
_cell_formula_units_Z   1
loop_
 _symmetry_equiv_pos_site_id
 _symmetry_equiv_pos_as_xyz
  1  'x, y, z'
loop_
 _atom_site_type_symbol
 _atom_site_label
 _atom_site_symmetry_multiplicity
 _atom_site_fract_x
 _atom_site_fract_y
 _atom_site_fract_z
 _atom_site_occupancy
  Tb  Tb0  1  0.558644  0.562321  0.939101  1
  Tb  Tb1  1  0.155866  0.533365  0.155536  1
  Tb  Tb2  1  0.689696  0.312368  0.308929  1
  Tb  Tb3  1  0.939500  0.562261  0.558889  1
  Tb  Tb4  1  0.938809  0.563450  0.938007  1
  Tb  Tb5  1  0.691303  0.688215  0.310983  1
  Tb  Tb6  1  0.560284  0.945049  0.933616  1
  Dy  Dy7  1  0.151360  0.152060  0.151130  1
  Dy  Dy8  1  0.310118  0.688631  0.311117  1
  Dy  Dy9  1  0.543116  0.152699  0.152413  1
  Dy  Dy10  1  0.308619  0.312976  0.689628  1
  Dy  Dy11  1  0.310587  0.687761  0.691371  1
  Dy  Dy12  1  0.152271  0.152385  0.543546  1
  Dy  Dy13  1  0.689813  0.313358  0.690242  1
  Dy  Dy14  1  0.934307  0.944905  0.560062  1
  Dy  Dy15  1  0.559311  0.944942  0.559403  1
  Cd  Cd16  1  0.920526  0.919903  0.920065  1
  Cd  Cd17  1  0.240722  0.920008  0.920131  1
  Cd  Cd18  1  0.920285  0.919926  0.240883  1
  Cd  Cd19  1  0.919408  0.242975  0.919185  1
  Os  Os20  1  0.362531  0.353075  0.920426  1
  Os  Os21  1  0.363156  0.354236  0.363262  1
  Os  Os22  1  0.920765  0.352598  0.362615  1
  Rh  Rh23  1  0.359003  0.920530  0.359457  1
