# generated using pymatgen
data_Hf18CuMo8S
_symmetry_space_group_name_H-M   'P 1'
_cell_length_a   8.66788900
_cell_length_b   8.66788869
_cell_length_c   8.55178000
_cell_angle_alpha   90.00000000
_cell_angle_beta   90.00000000
_cell_angle_gamma   119.99999737
_symmetry_Int_Tables_number   1
_chemical_formula_structural   Hf18CuMo8S
_chemical_formula_sum   'Hf18 Cu1 Mo8 S1'
_cell_volume   556.43421876
_cell_formula_units_Z   1
loop_
 _symmetry_equiv_pos_site_id
 _symmetry_equiv_pos_as_xyz
  1  'x, y, z'
loop_
 _atom_site_type_symbol
 _atom_site_label
 _atom_site_symmetry_multiplicity
 _atom_site_fract_x
 _atom_site_fract_y
 _atom_site_fract_z
 _atom_site_occupancy
  Hf  Hf0  1  0.198031  0.801969  0.447569  1
  Hf  Hf1  1  0.198031  0.396063  0.447569  1
  Hf  Hf2  1  0.603937  0.801969  0.447569  1
  Hf  Hf3  1  0.802794  0.197206  0.549631  1
  Hf  Hf4  1  0.802794  0.605589  0.549631  1
  Hf  Hf5  1  0.394411  0.197206  0.549631  1
  Hf  Hf6  1  0.802794  0.197206  0.950369  1
  Hf  Hf7  1  0.802794  0.605589  0.950369  1
  Hf  Hf8  1  0.394411  0.197206  0.950369  1
  Hf  Hf9  1  0.198031  0.801969  0.052431  1
  Hf  Hf10  1  0.198031  0.396063  0.052431  1
  Hf  Hf11  1  0.603937  0.801969  0.052431  1
  Hf  Hf12  1  0.541842  0.458158  0.250000  1
  Hf  Hf13  1  0.541842  0.083684  0.250000  1
  Hf  Hf14  1  0.916316  0.458158  0.250000  1
  Hf  Hf15  1  0.456662  0.543338  0.750000  1
  Hf  Hf16  1  0.456662  0.913323  0.750000  1
  Hf  Hf17  1  0.086677  0.543338  0.750000  1
  Cu  Cu18  1  0.333333  0.666667  0.250000  1
  Mo  Mo19  1  0.888284  0.111716  0.250000  1
  Mo  Mo20  1  0.888284  0.776566  0.250000  1
  Mo  Mo21  1  0.223434  0.111716  0.250000  1
  Mo  Mo22  1  0.111114  0.888886  0.750000  1
  Mo  Mo23  1  0.111114  0.222229  0.750000  1
  Mo  Mo24  1  0.777771  0.888886  0.750000  1
  Mo  Mo25  1  0.000000  0.000000  0.499961  1
  Mo  Mo26  1  0.000000  0.000000  0.000039  1
  S  S27  1  0.666667  0.333333  0.750000  1
