# generated using pymatgen
data_Nd2Sc3Tl4
_symmetry_space_group_name_H-M   'P 1'
_cell_length_a   7.85486300
_cell_length_b   8.06510700
_cell_length_c   15.36428700
_cell_angle_alpha   90.00000000
_cell_angle_beta   90.00000000
_cell_angle_gamma   90.00000000
_symmetry_Int_Tables_number   1
_chemical_formula_structural   Nd2Sc3Tl4
_chemical_formula_sum   'Nd8 Sc12 Tl16'
_cell_volume   973.33235307
_cell_formula_units_Z   4
loop_
 _symmetry_equiv_pos_site_id
 _symmetry_equiv_pos_as_xyz
  1  'x, y, z'
loop_
 _atom_site_type_symbol
 _atom_site_label
 _atom_site_symmetry_multiplicity
 _atom_site_fract_x
 _atom_site_fract_y
 _atom_site_fract_z
 _atom_site_occupancy
  Nd  Nd0  1  0.000911  0.178772  0.405777  1
  Nd  Nd1  1  0.500911  0.321228  0.405777  1
  Nd  Nd2  1  0.499089  0.678772  0.905777  1
  Nd  Nd3  1  0.499089  0.678772  0.594223  1
  Nd  Nd4  1  0.999089  0.821228  0.594223  1
  Nd  Nd5  1  0.999089  0.821228  0.905777  1
  Nd  Nd6  1  0.500911  0.321228  0.094223  1
  Nd  Nd7  1  0.000911  0.178772  0.094223  1
  Sc  Sc8  1  0.334178  0.161119  0.625538  1
  Sc  Sc9  1  0.665822  0.838881  0.374462  1
  Sc  Sc10  1  0.665894  0.004155  0.750000  1
  Sc  Sc11  1  0.165822  0.661119  0.374462  1
  Sc  Sc12  1  0.834178  0.338881  0.874462  1
  Sc  Sc13  1  0.834178  0.338881  0.625538  1
  Sc  Sc14  1  0.834106  0.504155  0.250000  1
  Sc  Sc15  1  0.334106  0.995845  0.250000  1
  Sc  Sc16  1  0.334178  0.161119  0.874462  1
  Sc  Sc17  1  0.165822  0.661119  0.125538  1
  Sc  Sc18  1  0.665822  0.838881  0.125538  1
  Sc  Sc19  1  0.165894  0.495845  0.750000  1
  Tl  Tl20  1  0.299880  0.861772  0.750000  1
  Tl  Tl21  1  0.473547  0.628758  0.250000  1
  Tl  Tl22  1  0.026453  0.128758  0.750000  1
  Tl  Tl23  1  0.526453  0.371242  0.750000  1
  Tl  Tl24  1  0.175844  0.456702  0.542152  1
  Tl  Tl25  1  0.973547  0.871242  0.250000  1
  Tl  Tl26  1  0.700120  0.138228  0.250000  1
  Tl  Tl27  1  0.824156  0.543298  0.042152  1
  Tl  Tl28  1  0.324156  0.956702  0.042152  1
  Tl  Tl29  1  0.175844  0.456702  0.957848  1
  Tl  Tl30  1  0.675844  0.043298  0.542152  1
  Tl  Tl31  1  0.324156  0.956702  0.457848  1
  Tl  Tl32  1  0.824156  0.543298  0.457848  1
  Tl  Tl33  1  0.799880  0.638228  0.750000  1
  Tl  Tl34  1  0.200120  0.361772  0.250000  1
  Tl  Tl35  1  0.675844  0.043298  0.957848  1
