# generated using pymatgen
data_LaPuN3
_symmetry_space_group_name_H-M   'P 1'
_cell_length_a   6.00023800
_cell_length_b   5.90240200
_cell_length_c   8.39078400
_cell_angle_alpha   90.00000000
_cell_angle_beta   90.00000000
_cell_angle_gamma   90.00000000
_symmetry_Int_Tables_number   1
_chemical_formula_structural   LaPuN3
_chemical_formula_sum   'La4 Pu4 N12'
_cell_volume   297.16646871
_cell_formula_units_Z   4
loop_
 _symmetry_equiv_pos_site_id
 _symmetry_equiv_pos_as_xyz
  1  'x, y, z'
loop_
 _atom_site_type_symbol
 _atom_site_label
 _atom_site_symmetry_multiplicity
 _atom_site_fract_x
 _atom_site_fract_y
 _atom_site_fract_z
 _atom_site_occupancy
  La  La0  1  0.040037  0.994054  0.250000  1
  La  La1  1  0.959963  0.005946  0.750000  1
  La  La2  1  0.540037  0.505946  0.250000  1
  La  La3  1  0.459963  0.494054  0.750000  1
  Pu  Pu4  1  0.500000  0.000000  0.000000  1
  Pu  Pu5  1  0.000000  0.500000  0.500000  1
  Pu  Pu6  1  0.000000  0.500000  0.000000  1
  Pu  Pu7  1  0.500000  0.000000  0.500000  1
  N  N8  1  0.697920  0.268185  0.954055  1
  N  N9  1  0.802080  0.768185  0.454055  1
  N  N10  1  0.802080  0.768185  0.045945  1
  N  N11  1  0.697920  0.268185  0.545945  1
  N  N12  1  0.197920  0.231815  0.954055  1
  N  N13  1  0.302080  0.731815  0.454055  1
  N  N14  1  0.024643  0.591257  0.750000  1
  N  N15  1  0.975357  0.408743  0.250000  1
  N  N16  1  0.475357  0.091257  0.250000  1
  N  N17  1  0.302080  0.731815  0.045945  1
  N  N18  1  0.197920  0.231815  0.545945  1
  N  N19  1  0.524643  0.908743  0.750000  1
