# generated using pymatgen
data_Fe2PbCl8
_symmetry_space_group_name_H-M   'P 1'
_cell_length_a   7.12992300
_cell_length_b   7.50618577
_cell_length_c   13.07692495
_cell_angle_alpha   85.69935490
_cell_angle_beta   90.00000000
_cell_angle_gamma   90.00000000
_symmetry_Int_Tables_number   1
_chemical_formula_structural   Fe2PbCl8
_chemical_formula_sum   'Fe4 Pb2 Cl16'
_cell_volume   697.88715846
_cell_formula_units_Z   2
loop_
 _symmetry_equiv_pos_site_id
 _symmetry_equiv_pos_as_xyz
  1  'x, y, z'
loop_
 _atom_site_type_symbol
 _atom_site_label
 _atom_site_symmetry_multiplicity
 _atom_site_fract_x
 _atom_site_fract_y
 _atom_site_fract_z
 _atom_site_occupancy
  Fe  Fe0  1  0.262313  0.325113  0.919314  1
  Fe  Fe1  1  0.737687  0.674887  0.080686  1
  Fe  Fe2  1  0.262313  0.674887  0.580686  1
  Fe  Fe3  1  0.737687  0.325113  0.419314  1
  Pb  Pb4  1  0.844177  0.500000  0.750000  1
  Pb  Pb5  1  0.155823  0.500000  0.250000  1
  Cl  Cl6  1  0.304683  0.267765  0.086332  1
  Cl  Cl7  1  0.175607  0.604877  0.881435  1
  Cl  Cl8  1  0.023888  0.170988  0.861126  1
  Cl  Cl9  1  0.824393  0.604877  0.381435  1
  Cl  Cl10  1  0.527073  0.739055  0.657654  1
  Cl  Cl11  1  0.472927  0.739055  0.157654  1
  Cl  Cl12  1  0.695317  0.267765  0.586332  1
  Cl  Cl13  1  0.304683  0.732235  0.413668  1
  Cl  Cl14  1  0.527073  0.260945  0.842346  1
  Cl  Cl15  1  0.472927  0.260945  0.342346  1
  Cl  Cl16  1  0.175607  0.395123  0.618565  1
  Cl  Cl17  1  0.824393  0.395123  0.118565  1
  Cl  Cl18  1  0.695317  0.732235  0.913668  1
  Cl  Cl19  1  0.976112  0.829012  0.138874  1
  Cl  Cl20  1  0.976112  0.170988  0.361126  1
  Cl  Cl21  1  0.023888  0.829012  0.638874  1
