# generated using pymatgen
data_Zr8Si16TcW11
_symmetry_space_group_name_H-M   'P 1'
_cell_length_a   6.72373555
_cell_length_b   6.72354730
_cell_length_c   12.58799814
_cell_angle_alpha   90.07635677
_cell_angle_beta   90.05276400
_cell_angle_gamma   89.94325450
_symmetry_Int_Tables_number   1
_chemical_formula_structural   Zr8Si16TcW11
_chemical_formula_sum   'Zr8 Si16 Tc1 W11'
_cell_volume   569.06906267
_cell_formula_units_Z   1
loop_
 _symmetry_equiv_pos_site_id
 _symmetry_equiv_pos_as_xyz
  1  'x, y, z'
loop_
 _atom_site_type_symbol
 _atom_site_label
 _atom_site_symmetry_multiplicity
 _atom_site_fract_x
 _atom_site_fract_y
 _atom_site_fract_z
 _atom_site_occupancy
  Zr  Zr0  1  0.004485  0.660126  0.033063  1
  Zr  Zr1  1  0.993606  0.336946  0.532708  1
  Zr  Zr2  1  0.661912  0.005747  0.968050  1
  Zr  Zr3  1  0.162783  0.489738  0.782452  1
  Zr  Zr4  1  0.833441  0.507643  0.281497  1
  Zr  Zr5  1  0.491813  0.166065  0.216920  1
  Zr  Zr6  1  0.510893  0.833286  0.717854  1
  Zr  Zr7  1  0.335746  0.993849  0.468098  1
  Si  Si8  1  0.034582  0.710891  0.437114  1
  Si  Si9  1  0.970826  0.274754  0.935931  1
  Si  Si10  1  0.709504  0.035146  0.562350  1
  Si  Si11  1  0.209850  0.467721  0.187329  1
  Si  Si12  1  0.790942  0.534648  0.688385  1
  Si  Si13  1  0.465731  0.209379  0.813917  1
  Si  Si14  1  0.533827  0.792655  0.312884  1
  Si  Si15  1  0.281879  0.969478  0.057519  1
  Si  Si16  1  0.882240  0.798703  0.823233  1
  Si  Si17  1  0.124702  0.207264  0.323361  1
  Si  Si18  1  0.794059  0.877531  0.177409  1
  Si  Si19  1  0.294689  0.625405  0.572482  1
  Si  Si20  1  0.703906  0.377306  0.071433  1
  Si  Si21  1  0.624485  0.296614  0.429087  1
  Si  Si22  1  0.373696  0.702241  0.928830  1
  Si  Si23  1  0.204016  0.122572  0.679074  1
  Tc  Tc24  1  0.186089  0.982083  0.863227  1
  W  W25  1  0.330719  0.497371  0.380635  1
  W  W26  1  0.830273  0.005378  0.369375  1
  W  W27  1  0.995410  0.173660  0.132785  1
  W  W28  1  0.002742  0.830438  0.630928  1
  W  W29  1  0.672328  0.505772  0.880717  1
  W  W30  1  0.495028  0.330764  0.621990  1
  W  W31  1  0.501848  0.673932  0.119950  1
  W  W32  1  0.667950  0.669123  0.500798  1
  W  W33  1  0.829436  0.168047  0.748434  1
  W  W34  1  0.165339  0.833730  0.249926  1
  W  W35  1  0.329225  0.333995  0.000257  1
