# generated using pymatgen
data_DyY(Tm3Sb10)2
_symmetry_space_group_name_H-M   'P 1'
_cell_length_a   4.20388500
_cell_length_b   13.15627014
_cell_length_c   14.55594423
_cell_angle_alpha   78.44691995
_cell_angle_beta   90.00000000
_cell_angle_gamma   90.00000000
_symmetry_Int_Tables_number   1
_chemical_formula_structural   DyY(Tm3Sb10)2
_chemical_formula_sum   'Dy1 Y1 Tm6 Sb20'
_cell_volume   788.74142049
_cell_formula_units_Z   1
loop_
 _symmetry_equiv_pos_site_id
 _symmetry_equiv_pos_as_xyz
  1  'x, y, z'
loop_
 _atom_site_type_symbol
 _atom_site_label
 _atom_site_symmetry_multiplicity
 _atom_site_fract_x
 _atom_site_fract_y
 _atom_site_fract_z
 _atom_site_occupancy
  Dy  Dy0  1  0.750000  0.046234  0.641112  1
  Y  Y1  1  0.250000  0.953776  0.358955  1
  Tm  Tm2  1  0.250000  0.395405  0.770636  1
  Tm  Tm3  1  0.750000  0.604600  0.229357  1
  Tm  Tm4  1  0.250000  0.661432  0.856172  1
  Tm  Tm5  1  0.750000  0.338571  0.143847  1
  Tm  Tm6  1  0.250000  0.668297  0.576304  1
  Tm  Tm7  1  0.750000  0.331732  0.423684  1
  Sb  Sb8  1  0.250000  0.144823  0.778533  1
  Sb  Sb9  1  0.750000  0.855050  0.221335  1
  Sb  Sb10  1  0.250000  0.145622  0.482489  1
  Sb  Sb11  1  0.750000  0.854319  0.517725  1
  Sb  Sb12  1  0.250000  0.153957  0.170123  1
  Sb  Sb13  1  0.750000  0.846079  0.829827  1
  Sb  Sb14  1  0.250000  0.420782  0.975433  1
  Sb  Sb15  1  0.750000  0.579226  0.024566  1
  Sb  Sb16  1  0.750000  0.028768  0.910358  1
  Sb  Sb17  1  0.250000  0.971215  0.089585  1
  Sb  Sb18  1  0.750000  0.141101  0.321950  1
  Sb  Sb19  1  0.250000  0.859068  0.678037  1
  Sb  Sb20  1  0.750000  0.279328  0.936708  1
  Sb  Sb21  1  0.250000  0.720677  0.063285  1
  Sb  Sb22  1  0.750000  0.285839  0.652974  1
  Sb  Sb23  1  0.250000  0.714089  0.346997  1
  Sb  Sb24  1  0.750000  0.576377  0.734406  1
  Sb  Sb25  1  0.250000  0.423625  0.265594  1
  Sb  Sb26  1  0.750000  0.571673  0.447134  1
  Sb  Sb27  1  0.250000  0.428338  0.552873  1
