# generated using pymatgen
data_ErTmLu2(B6W)2
_symmetry_space_group_name_H-M   'P 1'
_cell_length_a   3.54550600
_cell_length_b   9.25133002
_cell_length_c   11.63096805
_cell_angle_alpha   89.99819880
_cell_angle_beta   90.00000000
_cell_angle_gamma   90.00000000
_symmetry_Int_Tables_number   1
_chemical_formula_structural   ErTmLu2(B6W)2
_chemical_formula_sum   'Er2 Tm2 Lu4 B24 W4'
_cell_volume   381.50326645
_cell_formula_units_Z   2
loop_
 _symmetry_equiv_pos_site_id
 _symmetry_equiv_pos_as_xyz
  1  'x, y, z'
loop_
 _atom_site_type_symbol
 _atom_site_label
 _atom_site_symmetry_multiplicity
 _atom_site_fract_x
 _atom_site_fract_y
 _atom_site_fract_z
 _atom_site_occupancy
  Er  Er0  1  0.000000  0.320602  0.413691  1
  Er  Er1  1  0.000000  0.679398  0.586309  1
  Tm  Tm2  1  0.000000  0.820604  0.086261  1
  Tm  Tm3  1  0.000000  0.179396  0.913739  1
  Lu  Lu4  1  0.000000  0.944196  0.372341  1
  Lu  Lu5  1  0.000000  0.055804  0.627659  1
  Lu  Lu6  1  0.000000  0.444170  0.127387  1
  Lu  Lu7  1  0.000000  0.555830  0.872613  1
  B  B8  1  0.500000  0.551673  0.434902  1
  B  B9  1  0.500000  0.448327  0.565098  1
  B  B10  1  0.500000  0.051517  0.064771  1
  B  B11  1  0.500000  0.948483  0.935229  1
  B  B12  1  0.500000  0.752893  0.421758  1
  B  B13  1  0.500000  0.247107  0.578242  1
  B  B14  1  0.500000  0.252629  0.077724  1
  B  B15  1  0.500000  0.747371  0.922276  1
  B  B16  1  0.500000  0.795824  0.263411  1
  B  B17  1  0.500000  0.204176  0.736588  1
  B  B18  1  0.500000  0.295651  0.236092  1
  B  B19  1  0.500000  0.704349  0.763909  1
  B  B20  1  0.500000  0.631316  0.181955  1
  B  B21  1  0.500000  0.368684  0.818045  1
  B  B22  1  0.500000  0.130948  0.317665  1
  B  B23  1  0.500000  0.869052  0.682335  1
  B  B24  1  0.500000  0.978059  0.212985  1
  B  B25  1  0.500000  0.021941  0.787015  1
  B  B26  1  0.500000  0.478290  0.286560  1
  B  B27  1  0.500000  0.521710  0.713440  1
  B  B28  1  0.500000  0.600355  0.027900  1
  B  B29  1  0.500000  0.399645  0.972100  1
  B  B30  1  0.500000  0.099732  0.472216  1
  B  B31  1  0.500000  0.900268  0.527784  1
  W  W32  1  0.000000  0.639842  0.319894  1
  W  W33  1  0.000000  0.360158  0.680106  1
  W  W34  1  0.000000  0.139566  0.179632  1
  W  W35  1  0.000000  0.860434  0.820368  1
