# generated using pymatgen
data_Tm2PaAl2InIr3
_symmetry_space_group_name_H-M   'P 1'
_cell_length_a   7.38372901
_cell_length_b   7.29147650
_cell_length_c   3.81083100
_cell_angle_alpha   90.00000000
_cell_angle_beta   90.00000000
_cell_angle_gamma   119.38166920
_symmetry_Int_Tables_number   1
_chemical_formula_structural   Tm2PaAl2InIr3
_chemical_formula_sum   'Tm2 Pa1 Al2 In1 Ir3'
_cell_volume   178.77794177
_cell_formula_units_Z   1
loop_
 _symmetry_equiv_pos_site_id
 _symmetry_equiv_pos_as_xyz
  1  'x, y, z'
loop_
 _atom_site_type_symbol
 _atom_site_label
 _atom_site_symmetry_multiplicity
 _atom_site_fract_x
 _atom_site_fract_y
 _atom_site_fract_z
 _atom_site_occupancy
  Tm  Tm0  1  0.403778  0.001556  0.000000  1
  Tm  Tm1  1  0.009733  0.419114  0.000000  1
  Pa  Pa2  1  0.575496  0.575576  0.000000  1
  Al  Al3  1  0.006445  0.750213  0.500000  1
  Al  Al4  1  0.234842  0.233418  0.500000  1
  In  In5  1  0.748798  0.014117  0.500000  1
  Ir  Ir6  1  0.013142  0.988727  0.000000  1
  Ir  Ir7  1  0.664168  0.365692  0.500000  1
  Ir  Ir8  1  0.343597  0.651586  0.500000  1
