# generated using pymatgen
data_SmTh3(Al3Rh)6
_symmetry_space_group_name_H-M   'P 1'
_cell_length_a   7.65827998
_cell_length_b   7.66249393
_cell_length_c   9.55612000
_cell_angle_alpha   90.00000000
_cell_angle_beta   90.00000000
_cell_angle_gamma   119.39402432
_symmetry_Int_Tables_number   1
_chemical_formula_structural   SmTh3(Al3Rh)6
_chemical_formula_sum   'Sm1 Th3 Al18 Rh6'
_cell_volume   488.57725870
_cell_formula_units_Z   1
loop_
 _symmetry_equiv_pos_site_id
 _symmetry_equiv_pos_as_xyz
  1  'x, y, z'
loop_
 _atom_site_type_symbol
 _atom_site_label
 _atom_site_symmetry_multiplicity
 _atom_site_fract_x
 _atom_site_fract_y
 _atom_site_fract_z
 _atom_site_occupancy
  Sm  Sm0  1  0.328998  0.005733  0.750000  1
  Th  Th1  1  0.994943  0.671140  0.250000  1
  Th  Th2  1  0.004597  0.329253  0.750000  1
  Th  Th3  1  0.670404  0.994651  0.250000  1
  Al  Al4  1  0.133675  0.132222  0.250000  1
  Al  Al5  1  0.869985  0.869495  0.750000  1
  Al  Al6  1  0.005277  0.335640  0.074288  1
  Al  Al7  1  0.999192  0.668150  0.923765  1
  Al  Al8  1  0.999192  0.668150  0.576235  1
  Al  Al9  1  0.335127  0.004176  0.429527  1
  Al  Al10  1  0.005277  0.335640  0.425712  1
  Al  Al11  1  0.661111  0.995481  0.576246  1
  Al  Al12  1  0.661111  0.995481  0.923754  1
  Al  Al13  1  0.335127  0.004176  0.070473  1
  Al  Al14  1  0.335966  0.333460  0.549939  1
  Al  Al15  1  0.663646  0.663709  0.454844  1
  Al  Al16  1  0.663646  0.663709  0.045156  1
  Al  Al17  1  0.335966  0.333460  0.950061  1
  Al  Al18  1  0.340816  0.545264  0.250000  1
  Al  Al19  1  0.658146  0.450864  0.750000  1
  Al  Al20  1  0.545021  0.339476  0.250000  1
  Al  Al21  1  0.452789  0.660653  0.750000  1
  Rh  Rh22  1  0.674043  0.328813  0.000768  1
  Rh  Rh23  1  0.327524  0.671253  0.000622  1
  Rh  Rh24  1  0.327524  0.671253  0.499378  1
  Rh  Rh25  1  0.674043  0.328813  0.499232  1
  Rh  Rh26  1  0.998426  0.999943  0.000932  1
  Rh  Rh27  1  0.998426  0.999943  0.499068  1
