# generated using pymatgen
data_YbY18Mg(Cd3Ru)2
_symmetry_space_group_name_H-M   'P 1'
_cell_length_a   9.60682600
_cell_length_b   9.60682618
_cell_length_c   9.78099900
_cell_angle_alpha   90.00000000
_cell_angle_beta   90.00000000
_cell_angle_gamma   120.00000626
_symmetry_Int_Tables_number   1
_chemical_formula_structural   YbY18Mg(Cd3Ru)2
_chemical_formula_sum   'Yb1 Y18 Mg1 Cd6 Ru2'
_cell_volume   781.76041649
_cell_formula_units_Z   1
loop_
 _symmetry_equiv_pos_site_id
 _symmetry_equiv_pos_as_xyz
  1  'x, y, z'
loop_
 _atom_site_type_symbol
 _atom_site_label
 _atom_site_symmetry_multiplicity
 _atom_site_fract_x
 _atom_site_fract_y
 _atom_site_fract_z
 _atom_site_occupancy
  Yb  Yb0  1  0.000000  0.000000  0.000000  1
  Y  Y1  1  0.207888  0.792112  0.439690  1
  Y  Y2  1  0.207888  0.415776  0.439690  1
  Y  Y3  1  0.584224  0.792112  0.439690  1
  Y  Y4  1  0.792112  0.207888  0.560310  1
  Y  Y5  1  0.792112  0.584224  0.560310  1
  Y  Y6  1  0.415776  0.207888  0.560310  1
  Y  Y7  1  0.789165  0.210835  0.941404  1
  Y  Y8  1  0.789165  0.578328  0.941404  1
  Y  Y9  1  0.421672  0.210835  0.941404  1
  Y  Y10  1  0.210835  0.789165  0.058596  1
  Y  Y11  1  0.210835  0.421672  0.058596  1
  Y  Y12  1  0.578328  0.789165  0.058596  1
  Y  Y13  1  0.541364  0.458636  0.251430  1
  Y  Y14  1  0.541364  0.082728  0.251430  1
  Y  Y15  1  0.917272  0.458636  0.251430  1
  Y  Y16  1  0.458636  0.541364  0.748570  1
  Y  Y17  1  0.458636  0.917272  0.748570  1
  Y  Y18  1  0.082728  0.541364  0.748570  1
  Mg  Mg19  1  0.000000  0.000000  0.500000  1
  Cd  Cd20  1  0.887111  0.112889  0.256176  1
  Cd  Cd21  1  0.887111  0.774223  0.256176  1
  Cd  Cd22  1  0.225777  0.112889  0.256176  1
  Cd  Cd23  1  0.112889  0.887111  0.743824  1
  Cd  Cd24  1  0.112889  0.225777  0.743824  1
  Cd  Cd25  1  0.774223  0.887111  0.743824  1
  Ru  Ru26  1  0.333333  0.666667  0.250157  1
  Ru  Ru27  1  0.666667  0.333333  0.749843  1
