# generated using pymatgen
data_Sr6Bi2Br5ClO6
_symmetry_space_group_name_H-M   'P 1'
_cell_length_a   6.91789700
_cell_length_b   11.39885000
_cell_length_c   12.85801400
_cell_angle_alpha   90.00000000
_cell_angle_beta   89.99826589
_cell_angle_gamma   90.00000000
_symmetry_Int_Tables_number   1
_chemical_formula_structural   Sr6Bi2Br5ClO6
_chemical_formula_sum   'Sr12 Bi4 Br10 Cl2 O12'
_cell_volume   1013.93245462
_cell_formula_units_Z   2
loop_
 _symmetry_equiv_pos_site_id
 _symmetry_equiv_pos_as_xyz
  1  'x, y, z'
loop_
 _atom_site_type_symbol
 _atom_site_label
 _atom_site_symmetry_multiplicity
 _atom_site_fract_x
 _atom_site_fract_y
 _atom_site_fract_z
 _atom_site_occupancy
  Sr  Sr0  1  0.367160  0.428256  0.112388  1
  Sr  Sr1  1  0.867749  0.250000  0.001863  1
  Sr  Sr2  1  0.867176  0.428255  0.387617  1
  Sr  Sr3  1  0.627425  0.575312  0.881429  1
  Sr  Sr4  1  0.867176  0.071745  0.387617  1
  Sr  Sr5  1  0.127428  0.924684  0.618572  1
  Sr  Sr6  1  0.632717  0.750000  0.509604  1
  Sr  Sr7  1  0.627425  0.924688  0.881429  1
  Sr  Sr8  1  0.367160  0.071744  0.112388  1
  Sr  Sr9  1  0.127428  0.575316  0.618572  1
  Sr  Sr10  1  0.367775  0.250000  0.498125  1
  Sr  Sr11  1  0.132692  0.750000  0.990409  1
  Bi  Bi12  1  0.597709  0.750000  0.106989  1
  Bi  Bi13  1  0.903817  0.250000  0.611356  1
  Bi  Bi14  1  0.403781  0.250000  0.888652  1
  Bi  Bi15  1  0.097749  0.750000  0.393008  1
  Br  Br16  1  0.053313  0.031970  0.849431  1
  Br  Br17  1  0.661379  0.250000  0.213540  1
  Br  Br18  1  0.053313  0.468030  0.849431  1
  Br  Br19  1  0.161374  0.250000  0.286459  1
  Br  Br20  1  0.949081  0.961207  0.153240  1
  Br  Br21  1  0.553356  0.031890  0.650553  1
  Br  Br22  1  0.949081  0.538793  0.153240  1
  Br  Br23  1  0.449101  0.961226  0.346757  1
  Br  Br24  1  0.553356  0.468110  0.650553  1
  Br  Br25  1  0.449101  0.538774  0.346757  1
  Cl  Cl26  1  0.341581  0.750000  0.787957  1
  Cl  Cl27  1  0.841612  0.750000  0.712060  1
  O  O28  1  0.585098  0.119674  0.956301  1
  O  O29  1  0.415552  0.620854  0.037893  1
  O  O30  1  0.915581  0.879144  0.462104  1
  O  O31  1  0.226035  0.250000  0.023517  1
  O  O32  1  0.773524  0.750000  0.971249  1
  O  O33  1  0.085129  0.380324  0.543700  1
  O  O34  1  0.726063  0.250000  0.476496  1
  O  O35  1  0.273543  0.750000  0.528748  1
  O  O36  1  0.915581  0.620856  0.462104  1
  O  O37  1  0.085129  0.119676  0.543700  1
  O  O38  1  0.585098  0.380326  0.956301  1
  O  O39  1  0.415552  0.879146  0.037893  1
