# generated using pymatgen
data_RuRh5W2
_symmetry_space_group_name_H-M   'P 1'
_cell_length_a   5.54167288
_cell_length_b   5.54167297
_cell_length_c   4.38520700
_cell_angle_alpha   90.00000000
_cell_angle_beta   90.00000000
_cell_angle_gamma   120.36353126
_symmetry_Int_Tables_number   1
_chemical_formula_structural   RuRh5W2
_chemical_formula_sum   'Ru1 Rh5 W2'
_cell_volume   116.19834071
_cell_formula_units_Z   1
loop_
 _symmetry_equiv_pos_site_id
 _symmetry_equiv_pos_as_xyz
  1  'x, y, z'
loop_
 _atom_site_type_symbol
 _atom_site_label
 _atom_site_symmetry_multiplicity
 _atom_site_fract_x
 _atom_site_fract_y
 _atom_site_fract_z
 _atom_site_occupancy
  Ru  Ru0  1  0.833450  0.166550  0.750000  1
  Rh  Rh1  1  0.165327  0.332286  0.250000  1
  Rh  Rh2  1  0.667714  0.834673  0.250000  1
  Rh  Rh3  1  0.167489  0.832511  0.250000  1
  Rh  Rh4  1  0.832695  0.667246  0.750000  1
  Rh  Rh5  1  0.332754  0.167305  0.750000  1
  W  W6  1  0.332561  0.667439  0.750000  1
  W  W7  1  0.668010  0.331990  0.250000  1
