# generated using pymatgen
data_La2Zn19CuPd2
_symmetry_space_group_name_H-M   'P 1'
_cell_length_a   8.31858139
_cell_length_b   8.30195487
_cell_length_c   8.34506172
_cell_angle_alpha   99.77247016
_cell_angle_beta   99.82816033
_cell_angle_gamma   131.22794686
_symmetry_Int_Tables_number   1
_chemical_formula_structural   La2Zn19CuPd2
_chemical_formula_sum   'La2 Zn19 Cu1 Pd2'
_cell_volume   394.89433935
_cell_formula_units_Z   1
loop_
 _symmetry_equiv_pos_site_id
 _symmetry_equiv_pos_as_xyz
  1  'x, y, z'
loop_
 _atom_site_type_symbol
 _atom_site_label
 _atom_site_symmetry_multiplicity
 _atom_site_fract_x
 _atom_site_fract_y
 _atom_site_fract_z
 _atom_site_occupancy
  La  La0  1  0.252733  0.753884  0.504634  1
  La  La1  1  0.997267  0.996116  0.995366  1
  Zn  Zn2  1  0.902227  0.572078  0.084927  1
  Zn  Zn3  1  0.426244  0.511138  0.329396  1
  Zn  Zn4  1  0.483502  0.570761  0.672285  1
  Zn  Zn5  1  0.427363  0.100310  0.916607  1
  Zn  Zn6  1  0.766498  0.179239  0.827715  1
  Zn  Zn7  1  0.485482  0.811450  0.914938  1
  Zn  Zn8  1  0.495084  0.499324  0.002807  1
  Zn  Zn9  1  0.764518  0.938550  0.585062  1
  Zn  Zn10  1  0.754916  0.250676  0.497193  1
  Zn  Zn11  1  0.065551  0.643550  0.824637  1
  Zn  Zn12  1  0.347773  0.177922  0.415073  1
  Zn  Zn13  1  0.822637  0.649690  0.583393  1
  Zn  Zn14  1  0.901397  0.817968  0.328239  1
  Zn  Zn15  1  0.184449  0.106450  0.675363  1
  Zn  Zn16  1  0.067118  0.239830  0.420935  1
  Zn  Zn17  1  0.348603  0.932032  0.171761  1
  Zn  Zn18  1  0.823756  0.238862  0.170604  1
  Zn  Zn19  1  0.182882  0.510170  0.079065  1
  Zn  Zn20  1  0.625000  0.375000  0.750000  1
  Cu  Cu21  1  0.125000  0.375000  0.750000  1
  Pd  Pd22  1  0.625000  0.875000  0.250000  1
  Pd  Pd23  1  0.625000  0.375000  0.250000  1
