# generated using pymatgen
data_Sc4Be4VGaIr10
_symmetry_space_group_name_H-M   'P 1'
_cell_length_a   9.49016500
_cell_length_b   9.49016500
_cell_length_c   3.11586300
_cell_angle_alpha   90.00000000
_cell_angle_beta   90.00000000
_cell_angle_gamma   90.00000000
_symmetry_Int_Tables_number   1
_chemical_formula_structural   Sc4Be4VGaIr10
_chemical_formula_sum   'Sc4 Be4 V1 Ga1 Ir10'
_cell_volume   280.62469140
_cell_formula_units_Z   1
loop_
 _symmetry_equiv_pos_site_id
 _symmetry_equiv_pos_as_xyz
  1  'x, y, z'
loop_
 _atom_site_type_symbol
 _atom_site_label
 _atom_site_symmetry_multiplicity
 _atom_site_fract_x
 _atom_site_fract_y
 _atom_site_fract_z
 _atom_site_occupancy
  Sc  Sc0  1  0.673676  0.177058  0.000000  1
  Sc  Sc1  1  0.326324  0.822942  0.000000  1
  Sc  Sc2  1  0.177058  0.326324  0.000000  1
  Sc  Sc3  1  0.822942  0.673676  0.000000  1
  Be  Be4  1  0.124669  0.622156  0.000000  1
  Be  Be5  1  0.875331  0.377844  0.000000  1
  Be  Be6  1  0.622156  0.875331  0.000000  1
  Be  Be7  1  0.377844  0.124669  0.000000  1
  V  V8  1  0.000000  0.000000  0.000000  1
  Ga  Ga9  1  0.500000  0.500000  0.000000  1
  Ir  Ir10  1  0.207526  0.066595  0.500000  1
  Ir  Ir11  1  0.792474  0.933405  0.500000  1
  Ir  Ir12  1  0.066595  0.792474  0.500000  1
  Ir  Ir13  1  0.710254  0.429796  0.500000  1
  Ir  Ir14  1  0.933405  0.207526  0.500000  1
  Ir  Ir15  1  0.289746  0.570204  0.500000  1
  Ir  Ir16  1  0.570204  0.710254  0.500000  1
  Ir  Ir17  1  0.429796  0.289746  0.500000  1
  Ir  Ir18  1  0.500000  0.000000  0.500000  1
  Ir  Ir19  1  0.000000  0.500000  0.500000  1
