# generated using pymatgen
data_Ti2Co2Sn2Ir
_symmetry_space_group_name_H-M   'P 1'
_cell_length_a   7.43309587
_cell_length_b   7.43309568
_cell_length_c   7.43309606
_cell_angle_alpha   33.87651574
_cell_angle_beta   33.87651753
_cell_angle_gamma   33.87651200
_symmetry_Int_Tables_number   1
_chemical_formula_structural   Ti2Co2Sn2Ir
_chemical_formula_sum   'Ti2 Co2 Sn2 Ir1'
_cell_volume   113.71626389
_cell_formula_units_Z   1
loop_
 _symmetry_equiv_pos_site_id
 _symmetry_equiv_pos_as_xyz
  1  'x, y, z'
loop_
 _atom_site_type_symbol
 _atom_site_label
 _atom_site_symmetry_multiplicity
 _atom_site_fract_x
 _atom_site_fract_y
 _atom_site_fract_z
 _atom_site_occupancy
  Ti  Ti0  1  0.750882  0.750882  0.750882  1
  Ti  Ti1  1  0.250237  0.250237  0.250237  1
  Co  Co2  1  0.628483  0.628483  0.628483  1
  Co  Co3  1  0.375251  0.375251  0.375251  1
  Sn  Sn4  1  0.991280  0.991280  0.991280  1
  Sn  Sn5  1  0.507081  0.507081  0.507081  1
  Ir  Ir6  1  0.121785  0.121785  0.121785  1
