# generated using pymatgen
data_Nd8CdHgOsPd
_symmetry_space_group_name_H-M   'P 1'
_cell_length_a   9.96559361
_cell_length_b   9.96559393
_cell_length_c   10.08478700
_cell_angle_alpha   59.60355952
_cell_angle_beta   59.60355846
_cell_angle_gamma   59.52345146
_symmetry_Int_Tables_number   1
_chemical_formula_structural   Nd8CdHgOsPd
_chemical_formula_sum   'Nd16 Cd2 Hg2 Os2 Pd2'
_cell_volume   701.39045922
_cell_formula_units_Z   2
loop_
 _symmetry_equiv_pos_site_id
 _symmetry_equiv_pos_as_xyz
  1  'x, y, z'
loop_
 _atom_site_type_symbol
 _atom_site_label
 _atom_site_symmetry_multiplicity
 _atom_site_fract_x
 _atom_site_fract_y
 _atom_site_fract_z
 _atom_site_occupancy
  Nd  Nd0  1  0.349784  0.349784  0.354563  1
  Nd  Nd1  1  0.349784  0.349784  0.945869  1
  Nd  Nd2  1  0.344988  0.953786  0.350613  1
  Nd  Nd3  1  0.953786  0.344988  0.350613  1
  Nd  Nd4  1  0.815252  0.187938  0.193145  1
  Nd  Nd5  1  0.187938  0.815252  0.803666  1
  Nd  Nd6  1  0.187938  0.815252  0.193145  1
  Nd  Nd7  1  0.815252  0.187938  0.803666  1
  Nd  Nd8  1  0.188906  0.188906  0.811094  1
  Nd  Nd9  1  0.803538  0.803538  0.196462  1
  Nd  Nd10  1  0.938417  0.554845  0.566423  1
  Nd  Nd11  1  0.554845  0.938417  0.940314  1
  Nd  Nd12  1  0.554845  0.938417  0.566423  1
  Nd  Nd13  1  0.938417  0.554845  0.940314  1
  Nd  Nd14  1  0.562389  0.562389  0.937611  1
  Nd  Nd15  1  0.938463  0.938463  0.561537  1
  Cd  Cd16  1  0.580412  0.258885  0.580352  1
  Cd  Cd17  1  0.258885  0.580412  0.580352  1
  Hg  Hg18  1  0.583387  0.583387  0.585663  1
  Hg  Hg19  1  0.583387  0.583387  0.247564  1
  Os  Os20  1  0.144603  0.144603  0.136494  1
  Os  Os21  1  0.144603  0.144603  0.574298  1
  Pd  Pd22  1  0.146881  0.573300  0.139908  1
  Pd  Pd23  1  0.573300  0.146881  0.139908  1
