# generated using pymatgen
data_Tb3Pr(Rh2O7)2
_symmetry_space_group_name_H-M   'P 1'
_cell_length_a   7.26820957
_cell_length_b   7.31905650
_cell_length_c   7.26821000
_cell_angle_alpha   60.22954465
_cell_angle_beta   59.99999803
_cell_angle_gamma   60.22954790
_symmetry_Int_Tables_number   1
_chemical_formula_structural   Tb3Pr(Rh2O7)2
_chemical_formula_sum   'Tb3 Pr1 Rh4 O14'
_cell_volume   274.34253427
_cell_formula_units_Z   1
loop_
 _symmetry_equiv_pos_site_id
 _symmetry_equiv_pos_as_xyz
  1  'x, y, z'
loop_
 _atom_site_type_symbol
 _atom_site_label
 _atom_site_symmetry_multiplicity
 _atom_site_fract_x
 _atom_site_fract_y
 _atom_site_fract_z
 _atom_site_occupancy
  Tb  Tb0  1  0.125000  0.125000  0.125000  1
  Tb  Tb1  1  0.625000  0.125000  0.125000  1
  Tb  Tb2  1  0.125000  0.125000  0.625000  1
  Pr  Pr3  1  0.125000  0.625000  0.125000  1
  Rh  Rh4  1  0.625000  0.625000  0.625000  1
  Rh  Rh5  1  0.625000  0.625000  0.125000  1
  Rh  Rh6  1  0.125000  0.625000  0.625000  1
  Rh  Rh7  1  0.625000  0.125000  0.625000  1
  O  O8  1  0.253299  0.240102  0.253299  1
  O  O9  1  0.290243  0.717526  0.290243  1
  O  O10  1  0.959936  0.960398  0.539832  1
  O  O11  1  0.539832  0.960398  0.539832  1
  O  O12  1  0.701986  0.717526  0.290243  1
  O  O13  1  0.959757  0.532474  0.548014  1
  O  O14  1  0.710168  0.289602  0.710168  1
  O  O15  1  0.290064  0.289602  0.710168  1
  O  O16  1  0.710168  0.289602  0.290064  1
  O  O17  1  0.290243  0.717526  0.701986  1
  O  O18  1  0.959757  0.532474  0.959757  1
  O  O19  1  0.548014  0.532474  0.959757  1
  O  O20  1  0.996701  0.009898  0.996701  1
  O  O21  1  0.539832  0.960398  0.959936  1
