# generated using pymatgen
data_Hf9Ge6MoCN
_symmetry_space_group_name_H-M   'P 1'
_cell_length_a   7.90299200
_cell_length_b   7.90299164
_cell_length_c   5.56627500
_cell_angle_alpha   90.00000000
_cell_angle_beta   90.00000000
_cell_angle_gamma   119.99999313
_symmetry_Int_Tables_number   1
_chemical_formula_structural   Hf9Ge6MoCN
_chemical_formula_sum   'Hf9 Ge6 Mo1 C1 N1'
_cell_volume   301.07755831
_cell_formula_units_Z   1
loop_
 _symmetry_equiv_pos_site_id
 _symmetry_equiv_pos_as_xyz
  1  'x, y, z'
loop_
 _atom_site_type_symbol
 _atom_site_label
 _atom_site_symmetry_multiplicity
 _atom_site_fract_x
 _atom_site_fract_y
 _atom_site_fract_z
 _atom_site_occupancy
  Hf  Hf0  1  0.666667  0.333333  0.000000  1
  Hf  Hf1  1  0.333333  0.666667  0.500000  1
  Hf  Hf2  1  0.666667  0.333333  0.500000  1
  Hf  Hf3  1  0.767075  0.999673  0.749591  1
  Hf  Hf4  1  0.767075  0.767402  0.250409  1
  Hf  Hf5  1  0.000327  0.232925  0.250409  1
  Hf  Hf6  1  0.000327  0.767402  0.749591  1
  Hf  Hf7  1  0.232598  0.232925  0.749591  1
  Hf  Hf8  1  0.232598  0.999673  0.250409  1
  Ge  Ge9  1  0.403226  0.996429  0.756762  1
  Ge  Ge10  1  0.403226  0.406797  0.243238  1
  Ge  Ge11  1  0.003571  0.596774  0.243238  1
  Ge  Ge12  1  0.003571  0.406797  0.756762  1
  Ge  Ge13  1  0.593203  0.596774  0.756762  1
  Ge  Ge14  1  0.593203  0.996429  0.243238  1
  Mo  Mo15  1  0.333333  0.666667  0.000000  1
  C  C16  1  0.000000  0.000000  0.000000  1
  N  N17  1  0.000000  0.000000  0.500000  1
