# generated using pymatgen
data_Hf6Ta3TiAl12Ir7
_symmetry_space_group_name_H-M   'P 1'
_cell_length_a   8.80725899
_cell_length_b   8.80725971
_cell_length_c   8.80726010
_cell_angle_alpha   60.04632450
_cell_angle_beta   60.04632328
_cell_angle_gamma   60.04632261
_symmetry_Int_Tables_number   1
_chemical_formula_structural   Hf6Ta3TiAl12Ir7
_chemical_formula_sum   'Hf6 Ta3 Ti1 Al12 Ir7'
_cell_volume   483.57422969
_cell_formula_units_Z   1
loop_
 _symmetry_equiv_pos_site_id
 _symmetry_equiv_pos_as_xyz
  1  'x, y, z'
loop_
 _atom_site_type_symbol
 _atom_site_label
 _atom_site_symmetry_multiplicity
 _atom_site_fract_x
 _atom_site_fract_y
 _atom_site_fract_z
 _atom_site_occupancy
  Hf  Hf0  1  0.686547  0.686547  0.312870  1
  Hf  Hf1  1  0.314530  0.685162  0.314530  1
  Hf  Hf2  1  0.685162  0.314530  0.314530  1
  Hf  Hf3  1  0.314530  0.314530  0.685162  1
  Hf  Hf4  1  0.686547  0.312870  0.686547  1
  Hf  Hf5  1  0.312870  0.686547  0.686547  1
  Ta  Ta6  1  0.879218  0.879218  0.361792  1
  Ta  Ta7  1  0.879218  0.361792  0.879218  1
  Ta  Ta8  1  0.361792  0.879218  0.879218  1
  Ti  Ti9  1  0.879801  0.879801  0.879801  1
  Al  Al10  1  0.120318  0.120318  0.634243  1
  Al  Al11  1  0.120318  0.634243  0.120318  1
  Al  Al12  1  0.634243  0.120318  0.120318  1
  Al  Al13  1  0.122107  0.122107  0.122107  1
  Al  Al14  1  0.660980  0.660980  0.022305  1
  Al  Al15  1  0.660980  0.022305  0.660980  1
  Al  Al16  1  0.022305  0.660980  0.660980  1
  Al  Al17  1  0.657855  0.657855  0.657855  1
  Al  Al18  1  0.339263  0.339263  0.982912  1
  Al  Al19  1  0.339263  0.982912  0.339263  1
  Al  Al20  1  0.982912  0.339263  0.339263  1
  Al  Al21  1  0.338689  0.338689  0.338689  1
  Ir  Ir22  1  0.000017  0.000017  0.000017  1
  Ir  Ir23  1  0.997413  0.997413  0.500950  1
  Ir  Ir24  1  0.503906  0.996950  0.503906  1
  Ir  Ir25  1  0.996950  0.503906  0.503906  1
  Ir  Ir26  1  0.503906  0.503906  0.996950  1
  Ir  Ir27  1  0.997413  0.500950  0.997413  1
  Ir  Ir28  1  0.500950  0.997413  0.997413  1
