# generated using pymatgen
data_TbLuZr2(Al3Rh)6
_symmetry_space_group_name_H-M   'P 1'
_cell_length_a   7.51493772
_cell_length_b   7.49594484
_cell_length_c   9.34055400
_cell_angle_alpha   90.00000000
_cell_angle_beta   90.00000000
_cell_angle_gamma   119.63243054
_symmetry_Int_Tables_number   1
_chemical_formula_structural   TbLuZr2(Al3Rh)6
_chemical_formula_sum   'Tb1 Lu1 Zr2 Al18 Rh6'
_cell_volume   457.35319794
_cell_formula_units_Z   1
loop_
 _symmetry_equiv_pos_site_id
 _symmetry_equiv_pos_as_xyz
  1  'x, y, z'
loop_
 _atom_site_type_symbol
 _atom_site_label
 _atom_site_symmetry_multiplicity
 _atom_site_fract_x
 _atom_site_fract_y
 _atom_site_fract_z
 _atom_site_occupancy
  Tb  Tb0  1  0.670673  0.993413  0.250000  1
  Lu  Lu1  1  0.328302  0.006232  0.750000  1
  Zr  Zr2  1  0.995298  0.672096  0.250000  1
  Zr  Zr3  1  0.005387  0.328190  0.750000  1
  Al  Al4  1  0.126197  0.124202  0.250000  1
  Al  Al5  1  0.875479  0.876268  0.750000  1
  Al  Al6  1  0.999611  0.337570  0.073883  1
  Al  Al7  1  0.001595  0.662925  0.923243  1
  Al  Al8  1  0.001595  0.662925  0.576757  1
  Al  Al9  1  0.332116  0.998405  0.423028  1
  Al  Al10  1  0.999611  0.337570  0.426117  1
  Al  Al11  1  0.666836  0.002079  0.580482  1
  Al  Al12  1  0.666836  0.002079  0.919518  1
  Al  Al13  1  0.332116  0.998405  0.076972  1
  Al  Al14  1  0.330846  0.332837  0.556514  1
  Al  Al15  1  0.669191  0.666357  0.446997  1
  Al  Al16  1  0.669191  0.666357  0.053003  1
  Al  Al17  1  0.330846  0.332837  0.943486  1
  Al  Al18  1  0.333770  0.548337  0.250000  1
  Al  Al19  1  0.664507  0.449388  0.750000  1
  Al  Al20  1  0.556405  0.344968  0.250000  1
  Al  Al21  1  0.442804  0.656177  0.750000  1
  Rh  Rh22  1  0.671789  0.327070  0.998638  1
  Rh  Rh23  1  0.327620  0.672738  0.999993  1
  Rh  Rh24  1  0.327620  0.672738  0.500007  1
  Rh  Rh25  1  0.671789  0.327070  0.501362  1
  Rh  Rh26  1  0.000984  0.000385  0.999172  1
  Rh  Rh27  1  0.000984  0.000385  0.500828  1
