# generated using pymatgen
data_PrNd2Y13(CdPd)4
_symmetry_space_group_name_H-M   'P 1'
_cell_length_a   9.82424002
_cell_length_b   9.79474801
_cell_length_c   9.79855500
_cell_angle_alpha   59.98714522
_cell_angle_beta   60.08645118
_cell_angle_gamma   60.09037930
_symmetry_Int_Tables_number   1
_chemical_formula_structural   PrNd2Y13(CdPd)4
_chemical_formula_sum   'Pr1 Nd2 Y13 Cd4 Pd4'
_cell_volume   667.53807863
_cell_formula_units_Z   1
loop_
 _symmetry_equiv_pos_site_id
 _symmetry_equiv_pos_as_xyz
  1  'x, y, z'
loop_
 _atom_site_type_symbol
 _atom_site_label
 _atom_site_symmetry_multiplicity
 _atom_site_fract_x
 _atom_site_fract_y
 _atom_site_fract_z
 _atom_site_occupancy
  Pr  Pr0  1  0.356711  0.933076  0.355107  1
  Nd  Nd1  1  0.353876  0.355136  0.353024  1
  Nd  Nd2  1  0.353876  0.355136  0.937964  1
  Y  Y3  1  0.932511  0.357355  0.355067  1
  Y  Y4  1  0.811531  0.188744  0.189158  1
  Y  Y5  1  0.187168  0.813290  0.812240  1
  Y  Y6  1  0.187168  0.813290  0.187302  1
  Y  Y7  1  0.811531  0.188744  0.810568  1
  Y  Y8  1  0.188547  0.188329  0.811562  1
  Y  Y9  1  0.812478  0.812067  0.187728  1
  Y  Y10  1  0.935502  0.565373  0.565649  1
  Y  Y11  1  0.566445  0.933861  0.933124  1
  Y  Y12  1  0.566445  0.933861  0.566569  1
  Y  Y13  1  0.935502  0.565373  0.933476  1
  Y  Y14  1  0.566895  0.566877  0.933114  1
  Y  Y15  1  0.935110  0.934720  0.565085  1
  Cd  Cd16  1  0.586416  0.579724  0.583387  1
  Cd  Cd17  1  0.586416  0.579724  0.250473  1
  Cd  Cd18  1  0.585291  0.250284  0.582213  1
  Cd  Cd19  1  0.250678  0.580439  0.584442  1
  Pd  Pd20  1  0.139210  0.145933  0.146351  1
  Pd  Pd21  1  0.139210  0.145933  0.568505  1
  Pd  Pd22  1  0.138690  0.570072  0.145618  1
  Pd  Pd23  1  0.572792  0.142658  0.142275  1
