# generated using pymatgen
data_Li8Y7TmSn7Sb
_symmetry_space_group_name_H-M   'P 1'
_cell_length_a   9.39949974
_cell_length_b   9.39950076
_cell_length_c   7.24564304
_cell_angle_alpha   90.05817249
_cell_angle_beta   89.94182913
_cell_angle_gamma   119.97976841
_symmetry_Int_Tables_number   1
_chemical_formula_structural   Li8Y7TmSn7Sb
_chemical_formula_sum   'Li8 Y7 Tm1 Sn7 Sb1'
_cell_volume   554.50478346
_cell_formula_units_Z   1
loop_
 _symmetry_equiv_pos_site_id
 _symmetry_equiv_pos_as_xyz
  1  'x, y, z'
loop_
 _atom_site_type_symbol
 _atom_site_label
 _atom_site_symmetry_multiplicity
 _atom_site_fract_x
 _atom_site_fract_y
 _atom_site_fract_z
 _atom_site_occupancy
  Li  Li0  1  0.832244  0.665975  0.712298  1
  Li  Li1  1  0.833251  0.166749  0.712850  1
  Li  Li2  1  0.333780  0.666220  0.821402  1
  Li  Li3  1  0.666624  0.333376  0.321322  1
  Li  Li4  1  0.666414  0.833272  0.212931  1
  Li  Li5  1  0.166728  0.333586  0.212931  1
  Li  Li6  1  0.166786  0.833214  0.213075  1
  Li  Li7  1  0.334025  0.167756  0.712298  1
  Y  Y8  1  0.999082  0.000918  0.002518  1
  Y  Y9  1  0.999292  0.000708  0.499718  1
  Y  Y10  1  0.511233  0.488767  0.006428  1
  Y  Y11  1  0.021291  0.509637  0.505102  1
  Y  Y12  1  0.490363  0.978709  0.505102  1
  Y  Y13  1  0.513256  0.023098  0.008117  1
  Y  Y14  1  0.976902  0.486744  0.008117  1
  Tm  Tm15  1  0.488736  0.511264  0.506104  1
  Sn  Sn16  1  0.666556  0.333444  0.739648  1
  Sn  Sn17  1  0.333319  0.666681  0.240847  1
  Sn  Sn18  1  0.833329  0.166671  0.269426  1
  Sn  Sn19  1  0.166975  0.333653  0.769333  1
  Sn  Sn20  1  0.333490  0.166698  0.270245  1
  Sn  Sn21  1  0.833302  0.666510  0.270245  1
  Sn  Sn22  1  0.666347  0.833025  0.769333  1
  Sb  Sb23  1  0.166674  0.833326  0.768612  1
