# generated using pymatgen
data_CeCo2PO8
_symmetry_space_group_name_H-M   'P 1'
_cell_length_a   5.23897928
_cell_length_b   4.46936077
_cell_length_c   9.42803201
_cell_angle_alpha   81.22914280
_cell_angle_beta   87.81387556
_cell_angle_gamma   70.09919404
_symmetry_Int_Tables_number   1
_chemical_formula_structural   CeCo2PO8
_chemical_formula_sum   'Ce1 Co2 P1 O8'
_cell_volume   205.12365284
_cell_formula_units_Z   1
loop_
 _symmetry_equiv_pos_site_id
 _symmetry_equiv_pos_as_xyz
  1  'x, y, z'
loop_
 _atom_site_type_symbol
 _atom_site_label
 _atom_site_symmetry_multiplicity
 _atom_site_fract_x
 _atom_site_fract_y
 _atom_site_fract_z
 _atom_site_occupancy
  Ce  Ce0  1  0.951976  0.214564  0.399375  1
  Co  Co1  1  0.692933  0.313027  0.777240  1
  Co  Co2  1  0.305417  0.703699  0.215179  1
  P  P3  1  0.324864  0.910162  0.882069  1
  O  O4  1  0.595134  0.376058  0.274472  1
  O  O5  1  0.777991  0.331475  0.589227  1
  O  O6  1  0.055902  0.185322  0.841326  1
  O  O7  1  0.555018  0.043602  0.905039  1
  O  O8  1  0.199554  0.115331  0.207095  1
  O  O9  1  0.401158  0.702190  0.756409  1
  O  O10  1  0.086717  0.673482  0.367909  1
  O  O11  1  0.304855  0.682607  0.020732  1
