# generated using pymatgen
data_Pr3Zn2Pd3Au
_symmetry_space_group_name_H-M   'P 1'
_cell_length_a   7.50454445
_cell_length_b   7.50454348
_cell_length_c   3.97613500
_cell_angle_alpha   90.00000000
_cell_angle_beta   90.00000000
_cell_angle_gamma   118.26570890
_symmetry_Int_Tables_number   1
_chemical_formula_structural   Pr3Zn2Pd3Au
_chemical_formula_sum   'Pr3 Zn2 Pd3 Au1'
_cell_volume   197.22763964
_cell_formula_units_Z   1
loop_
 _symmetry_equiv_pos_site_id
 _symmetry_equiv_pos_as_xyz
  1  'x, y, z'
loop_
 _atom_site_type_symbol
 _atom_site_label
 _atom_site_symmetry_multiplicity
 _atom_site_fract_x
 _atom_site_fract_y
 _atom_site_fract_z
 _atom_site_occupancy
  Pr  Pr0  1  0.599458  0.991912  0.500000  1
  Pr  Pr1  1  0.408045  0.408045  0.500000  1
  Pr  Pr2  1  0.991912  0.599458  0.500000  1
  Zn  Zn3  1  0.000396  0.250947  0.000000  1
  Zn  Zn4  1  0.250947  0.000396  0.000000  1
  Pd  Pd5  1  0.024928  0.024928  0.500000  1
  Pd  Pd6  1  0.316135  0.662739  0.000000  1
  Pd  Pd7  1  0.662739  0.316135  0.000000  1
  Au  Au8  1  0.745440  0.745440  0.000000  1
