# generated using pymatgen
data_LaNd2Dy17Sn16
_symmetry_space_group_name_H-M   'P 1'
_cell_length_a   8.03944982
_cell_length_b   8.23156044
_cell_length_c   15.56572700
_cell_angle_alpha   90.00849877
_cell_angle_beta   88.44757970
_cell_angle_gamma   89.49730349
_symmetry_Int_Tables_number   1
_chemical_formula_structural   LaNd2Dy17Sn16
_chemical_formula_sum   'La1 Nd2 Dy17 Sn16'
_cell_volume   1029.67869592
_cell_formula_units_Z   1
loop_
 _symmetry_equiv_pos_site_id
 _symmetry_equiv_pos_as_xyz
  1  'x, y, z'
loop_
 _atom_site_type_symbol
 _atom_site_label
 _atom_site_symmetry_multiplicity
 _atom_site_fract_x
 _atom_site_fract_y
 _atom_site_fract_z
 _atom_site_occupancy
  La  La0  1  0.010916  0.179941  0.406042  1
  Nd  Nd1  1  0.989250  0.820398  0.596953  1
  Nd  Nd2  1  0.512821  0.324213  0.403759  1
  Dy  Dy3  1  0.368391  0.837705  0.120768  1
  Dy  Dy4  1  0.144284  0.336390  0.623436  1
  Dy  Dy5  1  0.478125  0.676944  0.901678  1
  Dy  Dy6  1  0.867178  0.660581  0.119058  1
  Dy  Dy7  1  0.133125  0.337970  0.879536  1
  Dy  Dy8  1  0.195267  0.501912  0.246879  1
  Dy  Dy9  1  0.693805  0.997812  0.247052  1
  Dy  Dy10  1  0.484322  0.677344  0.599061  1
  Dy  Dy11  1  0.306771  0.001553  0.753118  1
  Dy  Dy12  1  0.645628  0.167775  0.626972  1
  Dy  Dy13  1  0.805093  0.498774  0.752427  1
  Dy  Dy14  1  0.857138  0.663637  0.376409  1
  Dy  Dy15  1  0.019804  0.179703  0.096833  1
  Dy  Dy16  1  0.977639  0.819679  0.900254  1
  Dy  Dy17  1  0.631291  0.160905  0.877998  1
  Dy  Dy18  1  0.522754  0.321666  0.097792  1
  Dy  Dy19  1  0.355399  0.835563  0.372850  1
  Sn  Sn20  1  0.801508  0.465185  0.543922  1
  Sn  Sn21  1  0.682490  0.957861  0.460549  1
  Sn  Sn22  1  0.672749  0.852134  0.750343  1
  Sn  Sn23  1  0.197379  0.547174  0.460599  1
  Sn  Sn24  1  0.288801  0.032991  0.957951  1
  Sn  Sn25  1  0.825469  0.354787  0.247953  1
  Sn  Sn26  1  0.789558  0.461826  0.957758  1
  Sn  Sn27  1  0.561555  0.620302  0.247757  1
  Sn  Sn28  1  0.211616  0.535580  0.041406  1
  Sn  Sn29  1  0.438621  0.381272  0.752358  1
  Sn  Sn30  1  0.175927  0.644897  0.750437  1
  Sn  Sn31  1  0.942157  0.121864  0.750715  1
  Sn  Sn32  1  0.319381  0.035145  0.543335  1
  Sn  Sn33  1  0.709821  0.964718  0.041081  1
  Sn  Sn34  1  0.326106  0.146658  0.247347  1
  Sn  Sn35  1  0.057859  0.877138  0.247618  1
