# generated using pymatgen
data_Y5Ho10Lu(In3Co)2
_symmetry_space_group_name_H-M   'P 1'
_cell_length_a   10.35593500
_cell_length_b   10.34523943
_cell_length_c   7.02928400
_cell_angle_alpha   89.90689993
_cell_angle_beta   90.00000000
_cell_angle_gamma   120.03420263
_symmetry_Int_Tables_number   1
_chemical_formula_structural   Y5Ho10Lu(In3Co)2
_chemical_formula_sum   'Y5 Ho10 Lu1 In6 Co2'
_cell_volume   651.96012954
_cell_formula_units_Z   1
loop_
 _symmetry_equiv_pos_site_id
 _symmetry_equiv_pos_as_xyz
  1  'x, y, z'
loop_
 _atom_site_type_symbol
 _atom_site_label
 _atom_site_symmetry_multiplicity
 _atom_site_fract_x
 _atom_site_fract_y
 _atom_site_fract_z
 _atom_site_occupancy
  Y  Y0  1  0.929518  0.464687  0.505156  1
  Y  Y1  1  0.535169  0.464687  0.505156  1
  Y  Y2  1  0.465226  0.930451  0.005274  1
  Y  Y3  1  0.070268  0.535063  0.005067  1
  Y  Y4  1  0.464795  0.535063  0.005067  1
  Ho  Ho5  1  0.177817  0.355634  0.711731  1
  Ho  Ho6  1  0.643889  0.822874  0.710813  1
  Ho  Ho7  1  0.178985  0.822874  0.710813  1
  Ho  Ho8  1  0.821851  0.643703  0.211403  1
  Ho  Ho9  1  0.356062  0.177360  0.213022  1
  Ho  Ho10  1  0.821297  0.177360  0.213022  1
  Ho  Ho11  1  0.666238  0.332474  0.896021  1
  Ho  Ho12  1  0.333927  0.667855  0.396695  1
  Ho  Ho13  1  0.999924  0.999848  0.493155  1
  Ho  Ho14  1  0.999952  0.999905  0.993032  1
  Lu  Lu15  1  0.536260  0.072522  0.505412  1
  In  In16  1  0.837106  0.674212  0.753167  1
  In  In17  1  0.326467  0.163128  0.753971  1
  In  In18  1  0.836661  0.163128  0.753971  1
  In  In19  1  0.163043  0.326087  0.253758  1
  In  In20  1  0.674060  0.836546  0.253251  1
  In  In21  1  0.162485  0.836546  0.253251  1
  Co  Co22  1  0.665674  0.331349  0.278614  1
  Co  Co23  1  0.333322  0.666645  0.777221  1
