# generated using pymatgen
data_Sc4Al23SiPt9
_symmetry_space_group_name_H-M   'P 1'
_cell_length_a   7.46395522
_cell_length_b   7.45935508
_cell_length_c   12.98934627
_cell_angle_alpha   84.50594282
_cell_angle_beta   100.98511541
_cell_angle_gamma   119.88814143
_symmetry_Int_Tables_number   1
_chemical_formula_structural   Sc4Al23SiPt9
_chemical_formula_sum   'Sc4 Al23 Si1 Pt9'
_cell_volume   615.52394883
_cell_formula_units_Z   1
loop_
 _symmetry_equiv_pos_site_id
 _symmetry_equiv_pos_as_xyz
  1  'x, y, z'
loop_
 _atom_site_type_symbol
 _atom_site_label
 _atom_site_symmetry_multiplicity
 _atom_site_fract_x
 _atom_site_fract_y
 _atom_site_fract_z
 _atom_site_occupancy
  Sc  Sc0  1  0.731874  0.999744  0.192590  1
  Sc  Sc1  1  0.261534  0.001603  0.808246  1
  Sc  Sc2  1  0.062799  0.667507  0.192402  1
  Sc  Sc3  1  0.938874  0.325782  0.808301  1
  Al  Al4  1  0.185686  0.125015  0.182788  1
  Al  Al5  1  0.984719  0.665838  0.940623  1
  Al  Al6  1  0.016638  0.334355  0.058047  1
  Al  Al7  1  0.395079  0.668344  0.816552  1
  Al  Al8  1  0.605016  0.335187  0.183043  1
  Al  Al9  1  0.887528  0.663132  0.676561  1
  Al  Al10  1  0.112662  0.333929  0.323977  1
  Al  Al11  1  0.607270  0.454451  0.815971  1
  Al  Al12  1  0.395990  0.545091  0.183419  1
  Al  Al13  1  0.230963  0.338816  0.675562  1
  Al  Al14  1  0.770483  0.662672  0.324374  1
  Al  Al15  1  0.853380  0.332628  0.560308  1
  Al  Al16  1  0.186131  0.000088  0.560198  1
  Al  Al17  1  0.813640  0.999955  0.441343  1
  Al  Al18  1  0.353455  0.997124  0.058096  1
  Al  Al19  1  0.646179  0.004895  0.940391  1
  Al  Al20  1  0.555948  0.996290  0.677015  1
  Al  Al21  1  0.441366  0.003816  0.323557  1
  Al  Al22  1  0.520701  0.666959  0.562215  1
  Al  Al23  1  0.478524  0.332444  0.436321  1
  Al  Al24  1  0.691042  0.673095  0.054751  1
  Al  Al25  1  0.316876  0.333459  0.949607  1
  Al  Al26  1  0.146106  0.666517  0.439600  1
  Si  Si27  1  0.805578  0.866452  0.816014  1
  Pt  Pt28  1  0.331298  0.673599  0.999232  1
  Pt  Pt29  1  0.546189  0.325514  0.637569  1
  Pt  Pt30  1  0.454335  0.675610  0.362307  1
  Pt  Pt31  1  0.887916  0.006619  0.644078  1
  Pt  Pt32  1  0.111220  0.991182  0.360925  1
  Pt  Pt33  1  0.673174  0.331460  0.999109  1
  Pt  Pt34  1  0.205244  0.667405  0.639207  1
  Pt  Pt35  1  0.795711  0.332611  0.361134  1
  Pt  Pt36  1  0.998873  0.000815  0.994571  1
