# generated using pymatgen
data_Y20Ir3OsAu8
_symmetry_space_group_name_H-M   'P 1'
_cell_length_a   11.38614800
_cell_length_b   11.38614800
_cell_length_c   6.32971800
_cell_angle_alpha   90.00000000
_cell_angle_beta   90.00000000
_cell_angle_gamma   90.00000000
_symmetry_Int_Tables_number   1
_chemical_formula_structural   Y20Ir3OsAu8
_chemical_formula_sum   'Y20 Ir3 Os1 Au8'
_cell_volume   820.61227883
_cell_formula_units_Z   1
loop_
 _symmetry_equiv_pos_site_id
 _symmetry_equiv_pos_as_xyz
  1  'x, y, z'
loop_
 _atom_site_type_symbol
 _atom_site_label
 _atom_site_symmetry_multiplicity
 _atom_site_fract_x
 _atom_site_fract_y
 _atom_site_fract_z
 _atom_site_occupancy
  Y  Y0  1  0.299408  0.082530  0.346897  1
  Y  Y1  1  0.299648  0.917486  0.850242  1
  Y  Y2  1  0.700352  0.082514  0.850242  1
  Y  Y3  1  0.700592  0.917470  0.346897  1
  Y  Y4  1  0.582514  0.799648  0.850242  1
  Y  Y5  1  0.582530  0.200592  0.346897  1
  Y  Y6  1  0.417470  0.799408  0.346897  1
  Y  Y7  1  0.417486  0.200352  0.850242  1
  Y  Y8  1  0.202080  0.417198  0.650802  1
  Y  Y9  1  0.202046  0.582743  0.150785  1
  Y  Y10  1  0.797954  0.417257  0.150785  1
  Y  Y11  1  0.797920  0.582802  0.650802  1
  Y  Y12  1  0.917257  0.702046  0.150785  1
  Y  Y13  1  0.917198  0.297920  0.650802  1
  Y  Y14  1  0.082802  0.702080  0.650802  1
  Y  Y15  1  0.082743  0.297954  0.150785  1
  Y  Y16  1  0.000000  0.000000  0.499873  1
  Y  Y17  1  0.000000  0.000000  0.999877  1
  Y  Y18  1  0.500000  0.500000  0.999877  1
  Y  Y19  1  0.500000  0.500000  0.499873  1
  Ir  Ir20  1  0.500000  0.000000  0.598775  1
  Ir  Ir21  1  0.000000  0.500000  0.902262  1
  Ir  Ir22  1  0.000000  0.500000  0.402372  1
  Os  Os23  1  0.500000  0.000000  0.099903  1
  Au  Au24  1  0.843734  0.156984  0.250381  1
  Au  Au25  1  0.843610  0.843215  0.750189  1
  Au  Au26  1  0.156390  0.156785  0.750189  1
  Au  Au27  1  0.156266  0.843016  0.250381  1
  Au  Au28  1  0.656785  0.343610  0.750189  1
  Au  Au29  1  0.656984  0.656266  0.250381  1
  Au  Au30  1  0.343016  0.343734  0.250381  1
  Au  Au31  1  0.343215  0.656390  0.750189  1
