# generated using pymatgen
data_Er(LuZn4)3
_symmetry_space_group_name_H-M   'P 1'
_cell_length_a   4.34567700
_cell_length_b   6.61599775
_cell_length_c   9.99874813
_cell_angle_alpha   90.05459910
_cell_angle_beta   90.00000000
_cell_angle_gamma   90.00000000
_symmetry_Int_Tables_number   1
_chemical_formula_structural   Er(LuZn4)3
_chemical_formula_sum   'Er1 Lu3 Zn12'
_cell_volume   287.47376970
_cell_formula_units_Z   1
loop_
 _symmetry_equiv_pos_site_id
 _symmetry_equiv_pos_as_xyz
  1  'x, y, z'
loop_
 _atom_site_type_symbol
 _atom_site_label
 _atom_site_symmetry_multiplicity
 _atom_site_fract_x
 _atom_site_fract_y
 _atom_site_fract_z
 _atom_site_occupancy
  Er  Er0  1  0.250000  0.279477  0.664694  1
  Lu  Lu1  1  0.250000  0.779663  0.835470  1
  Lu  Lu2  1  0.750000  0.720378  0.335496  1
  Lu  Lu3  1  0.750000  0.220424  0.164726  1
  Zn  Zn4  1  0.250000  0.535678  0.103274  1
  Zn  Zn5  1  0.250000  0.035465  0.396459  1
  Zn  Zn6  1  0.750000  0.464160  0.896803  1
  Zn  Zn7  1  0.750000  0.963848  0.602992  1
  Zn  Zn8  1  0.250000  0.919621  0.149333  1
  Zn  Zn9  1  0.250000  0.419664  0.350642  1
  Zn  Zn10  1  0.750000  0.080069  0.851178  1
  Zn  Zn11  1  0.750000  0.581027  0.648922  1
  Zn  Zn12  1  0.250000  0.216002  0.957564  1
  Zn  Zn13  1  0.250000  0.716970  0.542830  1
  Zn  Zn14  1  0.750000  0.783827  0.042917  1
  Zn  Zn15  1  0.750000  0.283726  0.456700  1
