# generated using pymatgen
data_Tm7Lu9CdIn3Ir4
_symmetry_space_group_name_H-M   'P 1'
_cell_length_a   9.50131323
_cell_length_b   9.51071338
_cell_length_c   9.51249307
_cell_angle_alpha   59.82991738
_cell_angle_beta   59.86957937
_cell_angle_gamma   59.91983967
_symmetry_Int_Tables_number   1
_chemical_formula_structural   Tm7Lu9CdIn3Ir4
_chemical_formula_sum   'Tm7 Lu9 Cd1 In3 Ir4'
_cell_volume   606.07077355
_cell_formula_units_Z   1
loop_
 _symmetry_equiv_pos_site_id
 _symmetry_equiv_pos_as_xyz
  1  'x, y, z'
loop_
 _atom_site_type_symbol
 _atom_site_label
 _atom_site_symmetry_multiplicity
 _atom_site_fract_x
 _atom_site_fract_y
 _atom_site_fract_z
 _atom_site_occupancy
  Tm  Tm0  1  0.057615  0.057986  0.441076  1
  Tm  Tm1  1  0.190907  0.811178  0.811694  1
  Tm  Tm2  1  0.810186  0.189980  0.189641  1
  Tm  Tm3  1  0.811818  0.189248  0.810140  1
  Tm  Tm4  1  0.192296  0.809637  0.188438  1
  Tm  Tm5  1  0.811998  0.809848  0.189183  1
  Tm  Tm6  1  0.192108  0.188474  0.809988  1
  Lu  Lu7  1  0.599106  0.598105  0.598289  1
  Lu  Lu8  1  0.599637  0.599660  0.203256  1
  Lu  Lu9  1  0.599368  0.203542  0.599797  1
  Lu  Lu10  1  0.202997  0.599383  0.599823  1
  Lu  Lu11  1  0.057732  0.441581  0.441269  1
  Lu  Lu12  1  0.439906  0.059699  0.059457  1
  Lu  Lu13  1  0.441045  0.058555  0.440499  1
  Lu  Lu14  1  0.057633  0.441289  0.057746  1
  Lu  Lu15  1  0.440684  0.440492  0.058648  1
  Cd  Cd16  1  0.501593  0.832615  0.832688  1
  In  In17  1  0.831499  0.834084  0.834176  1
  In  In18  1  0.831314  0.833548  0.500864  1
  In  In19  1  0.831392  0.500801  0.833660  1
  Ir  Ir20  1  0.390811  0.390852  0.390940  1
  Ir  Ir21  1  0.390272  0.390895  0.827463  1
  Ir  Ir22  1  0.391358  0.826770  0.390716  1
  Ir  Ir23  1  0.826726  0.391779  0.390549  1
