# generated using pymatgen
data_LuHf2PtF15
_symmetry_space_group_name_H-M   'P 1'
_cell_length_a   8.02285812
_cell_length_b   8.02285766
_cell_length_c   8.00957909
_cell_angle_alpha   79.80107668
_cell_angle_beta   79.80107872
_cell_angle_gamma   100.14304741
_symmetry_Int_Tables_number   1
_chemical_formula_structural   LuHf2PtF15
_chemical_formula_sum   'Lu2 Hf4 Pt2 F30'
_cell_volume   487.79503050
_cell_formula_units_Z   2
loop_
 _symmetry_equiv_pos_site_id
 _symmetry_equiv_pos_as_xyz
  1  'x, y, z'
loop_
 _atom_site_type_symbol
 _atom_site_label
 _atom_site_symmetry_multiplicity
 _atom_site_fract_x
 _atom_site_fract_y
 _atom_site_fract_z
 _atom_site_occupancy
  Lu  Lu0  1  0.676996  0.323004  0.750000  1
  Lu  Lu1  1  0.323004  0.676996  0.250000  1
  Hf  Hf2  1  0.822740  0.751873  0.327469  1
  Hf  Hf3  1  0.248127  0.177260  0.172531  1
  Hf  Hf4  1  0.177260  0.248127  0.672531  1
  Hf  Hf5  1  0.751873  0.822740  0.827469  1
  Pt  Pt6  1  0.250276  0.749724  0.750000  1
  Pt  Pt7  1  0.749724  0.250276  0.250000  1
  F  F8  1  0.151919  0.184097  0.944645  1
  F  F9  1  0.686860  0.563908  0.844491  1
  F  F10  1  0.043082  0.660230  0.314890  1
  F  F11  1  0.660230  0.043082  0.814890  1
  F  F12  1  0.563908  0.686860  0.344491  1
  F  F13  1  0.184097  0.151919  0.444645  1
  F  F14  1  0.848081  0.815903  0.055355  1
  F  F15  1  0.313140  0.436092  0.155509  1
  F  F16  1  0.956918  0.339770  0.685110  1
  F  F17  1  0.339770  0.956918  0.185110  1
  F  F18  1  0.436092  0.313140  0.655509  1
  F  F19  1  0.815903  0.848081  0.555355  1
  F  F20  1  0.973327  0.026673  0.750000  1
  F  F21  1  0.540390  0.753135  0.026051  1
  F  F22  1  0.246865  0.459610  0.473949  1
  F  F23  1  0.459610  0.246865  0.973949  1
  F  F24  1  0.753135  0.540390  0.526051  1
  F  F25  1  0.026673  0.973327  0.250000  1
  F  F26  1  0.211510  0.723874  0.003443  1
  F  F27  1  0.223744  0.494919  0.792282  1
  F  F28  1  0.994441  0.709683  0.778933  1
  F  F29  1  0.709683  0.994441  0.278933  1
  F  F30  1  0.494919  0.223744  0.292282  1
  F  F31  1  0.723874  0.211510  0.503443  1
  F  F32  1  0.788490  0.276126  0.996557  1
  F  F33  1  0.776256  0.505081  0.207718  1
  F  F34  1  0.005559  0.290317  0.221067  1
  F  F35  1  0.290317  0.005559  0.721067  1
  F  F36  1  0.505081  0.776256  0.707718  1
  F  F37  1  0.276126  0.788490  0.496557  1
