# generated using pymatgen
data_Tl5In13
_symmetry_space_group_name_H-M   'P 1'
_cell_length_a   17.97089682
_cell_length_b   17.97089674
_cell_length_c   7.62081200
_cell_angle_alpha   95.88449630
_cell_angle_beta   95.88449307
_cell_angle_gamma   11.47330266
_symmetry_Int_Tables_number   1
_chemical_formula_structural   Tl5In13
_chemical_formula_sum   'Tl5 In13'
_cell_volume   486.94781698
_cell_formula_units_Z   1
loop_
 _symmetry_equiv_pos_site_id
 _symmetry_equiv_pos_as_xyz
  1  'x, y, z'
loop_
 _atom_site_type_symbol
 _atom_site_label
 _atom_site_symmetry_multiplicity
 _atom_site_fract_x
 _atom_site_fract_y
 _atom_site_fract_z
 _atom_site_occupancy
  Tl  Tl0  1  0.000000  0.000000  0.000000  1
  Tl  Tl1  1  0.667182  0.667182  0.329492  1
  Tl  Tl2  1  0.889120  0.889120  0.428368  1
  Tl  Tl3  1  0.110880  0.110880  0.571633  1
  Tl  Tl4  1  0.332818  0.332818  0.670508  1
  In  In5  1  0.108035  0.108035  0.052565  1
  In  In6  1  0.223910  0.223910  0.112639  1
  In  In7  1  0.332868  0.332868  0.148641  1
  In  In8  1  0.446462  0.446462  0.222116  1
  In  In9  1  0.556516  0.556516  0.286150  1
  In  In10  1  0.778124  0.778124  0.382508  1
  In  In11  1  0.000000  0.000000  0.500000  1
  In  In12  1  0.221876  0.221876  0.617493  1
  In  In13  1  0.443484  0.443484  0.713850  1
  In  In14  1  0.553538  0.553538  0.777883  1
  In  In15  1  0.667131  0.667131  0.851359  1
  In  In16  1  0.776089  0.776089  0.887360  1
  In  In17  1  0.891966  0.891966  0.947436  1
