# generated using pymatgen
data_Yb4CoOs6Ru
_symmetry_space_group_name_H-M   'P 1'
_cell_length_a   5.17808900
_cell_length_b   5.27529081
_cell_length_c   8.71807567
_cell_angle_alpha   89.86987976
_cell_angle_beta   89.99647106
_cell_angle_gamma   119.39814691
_symmetry_Int_Tables_number   1
_chemical_formula_structural   Yb4CoOs6Ru
_chemical_formula_sum   'Yb4 Co1 Os6 Ru1'
_cell_volume   207.47592127
_cell_formula_units_Z   1
loop_
 _symmetry_equiv_pos_site_id
 _symmetry_equiv_pos_as_xyz
  1  'x, y, z'
loop_
 _atom_site_type_symbol
 _atom_site_label
 _atom_site_symmetry_multiplicity
 _atom_site_fract_x
 _atom_site_fract_y
 _atom_site_fract_z
 _atom_site_occupancy
  Yb  Yb0  1  0.666229  0.332519  0.567545  1
  Yb  Yb1  1  0.331134  0.662245  0.436876  1
  Yb  Yb2  1  0.331418  0.662819  0.062921  1
  Yb  Yb3  1  0.666097  0.332184  0.933111  1
  Co  Co4  1  0.177706  0.355493  0.747582  1
  Os  Os5  1  0.990849  0.981698  0.507268  1
  Os  Os6  1  0.180470  0.837777  0.748825  1
  Os  Os7  1  0.657334  0.837810  0.748854  1
  Os  Os8  1  0.834326  0.668615  0.250388  1
  Os  Os9  1  0.829510  0.175501  0.251702  1
  Os  Os10  1  0.346026  0.175513  0.251712  1
  Ru  Ru11  1  0.988902  0.977826  0.993216  1
