# generated using pymatgen
data_YEr(Be12Cu)2
_symmetry_space_group_name_H-M   'P 1'
_cell_length_a   7.26482375
_cell_length_b   7.31583631
_cell_length_c   7.24885219
_cell_angle_alpha   59.83879423
_cell_angle_beta   59.82088346
_cell_angle_gamma   59.62272420
_symmetry_Int_Tables_number   1
_chemical_formula_structural   YEr(Be12Cu)2
_chemical_formula_sum   'Y1 Er1 Be24 Cu2'
_cell_volume   270.94069949
_cell_formula_units_Z   1
loop_
 _symmetry_equiv_pos_site_id
 _symmetry_equiv_pos_as_xyz
  1  'x, y, z'
loop_
 _atom_site_type_symbol
 _atom_site_label
 _atom_site_symmetry_multiplicity
 _atom_site_fract_x
 _atom_site_fract_y
 _atom_site_fract_z
 _atom_site_occupancy
  Y  Y0  1  0.252887  0.247113  0.252887  1
  Er  Er1  1  0.747212  0.752788  0.747212  1
  Be  Be2  1  0.500009  0.499991  0.500009  1
  Be  Be3  1  0.999998  0.000002  0.999998  1
  Be  Be4  1  0.564977  0.793096  0.435643  1
  Be  Be5  1  0.435643  0.206284  0.564977  1
  Be  Be6  1  0.290457  0.936005  0.710127  1
  Be  Be7  1  0.710127  0.063412  0.290457  1
  Be  Be8  1  0.931200  0.278843  0.068406  1
  Be  Be9  1  0.068406  0.721551  0.931200  1
  Be  Be10  1  0.207460  0.799758  0.557705  1
  Be  Be11  1  0.792071  0.199688  0.442787  1
  Be  Be12  1  0.442787  0.565453  0.792071  1
  Be  Be13  1  0.557705  0.435078  0.207460  1
  Be  Be14  1  0.711788  0.286385  0.935980  1
  Be  Be15  1  0.288655  0.713973  0.063587  1
  Be  Be16  1  0.063587  0.933784  0.288655  1
  Be  Be17  1  0.935980  0.065848  0.711788  1
  Be  Be18  1  0.565891  0.206214  0.791743  1
  Be  Be19  1  0.434539  0.793278  0.207733  1
  Be  Be20  1  0.791743  0.436151  0.565891  1
  Be  Be21  1  0.207733  0.564451  0.434539  1
  Be  Be22  1  0.936035  0.712654  0.291228  1
  Be  Be23  1  0.063417  0.287765  0.709317  1
  Be  Be24  1  0.291228  0.060083  0.936035  1
  Be  Be25  1  0.709317  0.939501  0.063417  1
  Cu  Cu26  1  0.803287  0.557852  0.195862  1
  Cu  Cu27  1  0.195862  0.442999  0.803287  1
