# generated using pymatgen
data_Sc5Co16Si7W
_symmetry_space_group_name_H-M   'P 1'
_cell_length_a   7.96225603
_cell_length_b   8.00397743
_cell_length_c   8.00397717
_cell_angle_alpha   59.65543821
_cell_angle_beta   60.17227880
_cell_angle_gamma   60.17228207
_symmetry_Int_Tables_number   1
_chemical_formula_structural   Sc5Co16Si7W
_chemical_formula_sum   'Sc5 Co16 Si7 W1'
_cell_volume   360.66944831
_cell_formula_units_Z   1
loop_
 _symmetry_equiv_pos_site_id
 _symmetry_equiv_pos_as_xyz
  1  'x, y, z'
loop_
 _atom_site_type_symbol
 _atom_site_label
 _atom_site_symmetry_multiplicity
 _atom_site_fract_x
 _atom_site_fract_y
 _atom_site_fract_z
 _atom_site_occupancy
  Sc  Sc0  1  0.288898  0.711102  0.711102  1
  Sc  Sc1  1  0.298941  0.701059  0.295806  1
  Sc  Sc2  1  0.298941  0.295806  0.701059  1
  Sc  Sc3  1  0.704195  0.295805  0.701060  1
  Sc  Sc4  1  0.704195  0.701060  0.295805  1
  Co  Co5  1  0.112954  0.120928  0.120928  1
  Co  Co6  1  0.119587  0.122134  0.638690  1
  Co  Co7  1  0.645188  0.120928  0.120928  1
  Co  Co8  1  0.119587  0.638690  0.122134  1
  Co  Co9  1  0.877865  0.880412  0.880412  1
  Co  Co10  1  0.879071  0.887045  0.354813  1
  Co  Co11  1  0.879071  0.354813  0.887045  1
  Co  Co12  1  0.361311  0.880412  0.880412  1
  Co  Co13  1  0.331183  0.327698  0.327698  1
  Co  Co14  1  0.326254  0.326147  0.021342  1
  Co  Co15  1  0.013417  0.327698  0.327698  1
  Co  Co16  1  0.326254  0.021342  0.326147  1
  Co  Co17  1  0.673851  0.673744  0.673744  1
  Co  Co18  1  0.672300  0.668815  0.986583  1
  Co  Co19  1  0.672300  0.986583  0.668815  1
  Co  Co20  1  0.978658  0.673744  0.673744  1
  Si  Si21  1  0.500260  0.999739  0.999739  1
  Si  Si22  1  0.000260  0.499739  0.499739  1
  Si  Si23  1  0.999459  0.497227  0.000541  1
  Si  Si24  1  0.999459  0.000541  0.497227  1
  Si  Si25  1  0.502772  0.000540  0.497228  1
  Si  Si26  1  0.502772  0.497228  0.000540  1
  Si  Si27  1  0.004220  0.995780  0.995780  1
  W  W28  1  0.706770  0.293230  0.293230  1
