# generated using pymatgen
data_Tm3Mn8P6Pt
_symmetry_space_group_name_H-M   'P 1'
_cell_length_a   3.61173900
_cell_length_b   10.97855400
_cell_length_c   12.75775800
_cell_angle_alpha   90.00000000
_cell_angle_beta   90.00000000
_cell_angle_gamma   90.00000000
_symmetry_Int_Tables_number   1
_chemical_formula_structural   Tm3Mn8P6Pt
_chemical_formula_sum   'Tm6 Mn16 P12 Pt2'
_cell_volume   505.86643115
_cell_formula_units_Z   2
loop_
 _symmetry_equiv_pos_site_id
 _symmetry_equiv_pos_as_xyz
  1  'x, y, z'
loop_
 _atom_site_type_symbol
 _atom_site_label
 _atom_site_symmetry_multiplicity
 _atom_site_fract_x
 _atom_site_fract_y
 _atom_site_fract_z
 _atom_site_occupancy
  Tm  Tm0  1  0.000000  0.500000  0.525029  1
  Tm  Tm1  1  0.500000  0.000000  0.474971  1
  Tm  Tm2  1  0.500000  0.815827  0.203622  1
  Tm  Tm3  1  0.500000  0.184173  0.203622  1
  Tm  Tm4  1  0.000000  0.684173  0.796378  1
  Tm  Tm5  1  0.000000  0.315827  0.796378  1
  Mn  Mn6  1  0.500000  0.500000  0.167223  1
  Mn  Mn7  1  0.000000  0.000000  0.832777  1
  Mn  Mn8  1  0.000000  0.500000  0.994962  1
  Mn  Mn9  1  0.500000  0.000000  0.005038  1
  Mn  Mn10  1  0.500000  0.331630  0.997315  1
  Mn  Mn11  1  0.500000  0.668370  0.997315  1
  Mn  Mn12  1  0.000000  0.168370  0.002685  1
  Mn  Mn13  1  0.000000  0.831630  0.002685  1
  Mn  Mn14  1  0.500000  0.300676  0.432370  1
  Mn  Mn15  1  0.500000  0.699324  0.432370  1
  Mn  Mn16  1  0.000000  0.199324  0.567630  1
  Mn  Mn17  1  0.000000  0.800676  0.567630  1
  Mn  Mn18  1  0.500000  0.882248  0.703522  1
  Mn  Mn19  1  0.500000  0.117752  0.703522  1
  Mn  Mn20  1  0.000000  0.617752  0.296478  1
  Mn  Mn21  1  0.000000  0.382248  0.296478  1
  P  P22  1  0.500000  0.500000  0.888933  1
  P  P23  1  0.000000  0.000000  0.111067  1
  P  P24  1  0.500000  0.500000  0.359105  1
  P  P25  1  0.000000  0.000000  0.640895  1
  P  P26  1  0.500000  0.309871  0.615496  1
  P  P27  1  0.500000  0.690129  0.615496  1
  P  P28  1  0.000000  0.190129  0.384504  1
  P  P29  1  0.000000  0.809871  0.384504  1
  P  P30  1  0.500000  0.845710  0.884788  1
  P  P31  1  0.500000  0.154290  0.884788  1
  P  P32  1  0.000000  0.654290  0.115212  1
  P  P33  1  0.000000  0.345710  0.115212  1
  Pt  Pt34  1  0.500000  0.500000  0.704899  1
  Pt  Pt35  1  0.000000  0.000000  0.295101  1
