# generated using pymatgen
data_LaP12OsRu3
_symmetry_space_group_name_H-M   'P 1'
_cell_length_a   7.03696795
_cell_length_b   7.03543494
_cell_length_c   7.03543502
_cell_angle_alpha   109.46679813
_cell_angle_beta   109.47564292
_cell_angle_gamma   109.47564002
_symmetry_Int_Tables_number   1
_chemical_formula_structural   LaP12OsRu3
_chemical_formula_sum   'La1 P12 Os1 Ru3'
_cell_volume   268.11548623
_cell_formula_units_Z   1
loop_
 _symmetry_equiv_pos_site_id
 _symmetry_equiv_pos_as_xyz
  1  'x, y, z'
loop_
 _atom_site_type_symbol
 _atom_site_label
 _atom_site_symmetry_multiplicity
 _atom_site_fract_x
 _atom_site_fract_y
 _atom_site_fract_z
 _atom_site_occupancy
  La  La0  1  0.000000  0.000000  0.000000  1
  P  P1  1  0.143295  0.785388  0.641226  1
  P  P2  1  0.144078  0.502100  0.358078  1
  P  P3  1  0.855922  0.497900  0.641922  1
  P  P4  1  0.358022  0.144022  0.502100  1
  P  P5  1  0.786000  0.641922  0.144022  1
  P  P6  1  0.856705  0.214612  0.358774  1
  P  P7  1  0.642092  0.144161  0.785388  1
  P  P8  1  0.497931  0.641226  0.855839  1
  P  P9  1  0.641978  0.855978  0.497900  1
  P  P10  1  0.502069  0.358774  0.144161  1
  P  P11  1  0.357908  0.855839  0.214612  1
  P  P12  1  0.214000  0.358078  0.855978  1
  Os  Os13  1  0.500000  0.000000  0.000000  1
  Ru  Ru14  1  0.500000  0.500000  0.500000  1
  Ru  Ru15  1  0.000000  0.500000  0.000000  1
  Ru  Ru16  1  0.000000  0.000000  0.500000  1
