# generated using pymatgen
data_Er2Pa2Ge6Ir5Rh2
_symmetry_space_group_name_H-M   'P 1'
_cell_length_a   7.28859085
_cell_length_b   7.28859236
_cell_length_c   7.31147618
_cell_angle_alpha   109.38377002
_cell_angle_beta   109.47080748
_cell_angle_gamma   109.43218015
_symmetry_Int_Tables_number   1
_chemical_formula_structural   Er2Pa2Ge6Ir5Rh2
_chemical_formula_sum   'Er2 Pa2 Ge6 Ir5 Rh2'
_cell_volume   299.46670343
_cell_formula_units_Z   1
loop_
 _symmetry_equiv_pos_site_id
 _symmetry_equiv_pos_as_xyz
  1  'x, y, z'
loop_
 _atom_site_type_symbol
 _atom_site_label
 _atom_site_symmetry_multiplicity
 _atom_site_fract_x
 _atom_site_fract_y
 _atom_site_fract_z
 _atom_site_occupancy
  Er  Er0  1  0.999723  0.499827  0.999941  1
  Er  Er1  1  0.500113  0.000218  0.999941  1
  Pa  Pa2  1  0.000323  0.000161  0.500255  1
  Pa  Pa3  1  0.500094  0.499932  0.500255  1
  Ge  Ge4  1  0.682924  0.683170  0.000372  1
  Ge  Ge5  1  0.317879  0.994984  0.312863  1
  Ge  Ge6  1  0.995361  0.317201  0.312562  1
  Ge  Ge7  1  0.317202  0.317448  0.000372  1
  Ge  Ge8  1  0.682370  0.004177  0.686547  1
  Ge  Ge9  1  0.004646  0.682833  0.687479  1
  Ir  Ir10  1  0.749843  0.249696  0.500085  1
  Ir  Ir11  1  0.748763  0.503702  0.252465  1
  Ir  Ir12  1  0.496596  0.250289  0.746885  1
  Ir  Ir13  1  0.250659  0.496580  0.747239  1
  Ir  Ir14  1  0.250389  0.750242  0.500085  1
  Rh  Rh15  1  0.502279  0.749557  0.251836  1
  Rh  Rh16  1  0.000835  0.999983  0.000818  1
