# generated using pymatgen
data_CsRb4GeP3
_symmetry_space_group_name_H-M   'P 1'
_cell_length_a   5.48224700
_cell_length_b   14.79979100
_cell_length_c   16.40752600
_cell_angle_alpha   90.00000000
_cell_angle_beta   90.00000000
_cell_angle_gamma   90.00000000
_symmetry_Int_Tables_number   1
_chemical_formula_structural   CsRb4GeP3
_chemical_formula_sum   'Cs4 Rb16 Ge4 P12'
_cell_volume   1331.24283125
_cell_formula_units_Z   4
loop_
 _symmetry_equiv_pos_site_id
 _symmetry_equiv_pos_as_xyz
  1  'x, y, z'
loop_
 _atom_site_type_symbol
 _atom_site_label
 _atom_site_symmetry_multiplicity
 _atom_site_fract_x
 _atom_site_fract_y
 _atom_site_fract_z
 _atom_site_occupancy
  Cs  Cs0  1  0.250000  0.127570  0.520134  1
  Cs  Cs1  1  0.750000  0.872430  0.479866  1
  Cs  Cs2  1  0.750000  0.627570  0.979866  1
  Cs  Cs3  1  0.250000  0.372430  0.020134  1
  Rb  Rb4  1  0.250000  0.426157  0.564134  1
  Rb  Rb5  1  0.750000  0.573843  0.435866  1
  Rb  Rb6  1  0.750000  0.926157  0.935866  1
  Rb  Rb7  1  0.250000  0.073843  0.064134  1
  Rb  Rb8  1  0.250000  0.815866  0.084325  1
  Rb  Rb9  1  0.750000  0.184134  0.915675  1
  Rb  Rb10  1  0.750000  0.315866  0.415675  1
  Rb  Rb11  1  0.250000  0.684134  0.584325  1
  Rb  Rb12  1  0.250000  0.233767  0.259931  1
  Rb  Rb13  1  0.750000  0.766233  0.740069  1
  Rb  Rb14  1  0.750000  0.733767  0.240069  1
  Rb  Rb15  1  0.250000  0.266233  0.759931  1
  Rb  Rb16  1  0.250000  0.944841  0.292297  1
  Rb  Rb17  1  0.750000  0.055159  0.707703  1
  Rb  Rb18  1  0.750000  0.444841  0.207703  1
  Rb  Rb19  1  0.250000  0.555159  0.792297  1
  Ge  Ge20  1  0.250000  0.585205  0.292074  1
  Ge  Ge21  1  0.750000  0.414795  0.707926  1
  Ge  Ge22  1  0.750000  0.085205  0.207926  1
  Ge  Ge23  1  0.250000  0.914795  0.792074  1
  P  P24  1  0.250000  0.592574  0.151683  1
  P  P25  1  0.750000  0.407426  0.848317  1
  P  P26  1  0.750000  0.092574  0.348317  1
  P  P27  1  0.250000  0.907426  0.651683  1
  P  P28  1  0.250000  0.446543  0.353533  1
  P  P29  1  0.750000  0.553457  0.646467  1
  P  P30  1  0.750000  0.946543  0.146467  1
  P  P31  1  0.250000  0.053457  0.853533  1
  P  P32  1  0.250000  0.714495  0.371813  1
  P  P33  1  0.750000  0.285505  0.628187  1
  P  P34  1  0.750000  0.214495  0.128187  1
  P  P35  1  0.250000  0.785505  0.871813  1
