# generated using pymatgen
data_Ce2Er3HgPb3
_symmetry_space_group_name_H-M   'P 1'
_cell_length_a   9.50166700
_cell_length_b   9.50166862
_cell_length_c   6.48607200
_cell_angle_alpha   90.00000000
_cell_angle_beta   90.00000000
_cell_angle_gamma   120.00000482
_symmetry_Int_Tables_number   1
_chemical_formula_structural   Ce2Er3HgPb3
_chemical_formula_sum   'Ce4 Er6 Hg2 Pb6'
_cell_volume   507.12154456
_cell_formula_units_Z   2
loop_
 _symmetry_equiv_pos_site_id
 _symmetry_equiv_pos_as_xyz
  1  'x, y, z'
loop_
 _atom_site_type_symbol
 _atom_site_label
 _atom_site_symmetry_multiplicity
 _atom_site_fract_x
 _atom_site_fract_y
 _atom_site_fract_z
 _atom_site_occupancy
  Ce  Ce0  1  0.666667  0.333333  0.500000  1
  Ce  Ce1  1  0.333333  0.666667  0.500000  1
  Ce  Ce2  1  0.333333  0.666667  0.000000  1
  Ce  Ce3  1  0.666667  0.333333  0.000000  1
  Er  Er4  1  0.719895  0.719895  0.250000  1
  Er  Er5  1  0.280105  0.000000  0.250000  1
  Er  Er6  1  0.000000  0.280105  0.250000  1
  Er  Er7  1  0.280105  0.280105  0.750000  1
  Er  Er8  1  0.719895  0.000000  0.750000  1
  Er  Er9  1  0.000000  0.719895  0.750000  1
  Hg  Hg10  1  0.000000  0.000000  0.500000  1
  Hg  Hg11  1  0.000000  0.000000  0.000000  1
  Pb  Pb12  1  0.372331  0.372331  0.250000  1
  Pb  Pb13  1  0.627669  0.000000  0.250000  1
  Pb  Pb14  1  0.000000  0.627669  0.250000  1
  Pb  Pb15  1  0.627669  0.627669  0.750000  1
  Pb  Pb16  1  0.372331  0.000000  0.750000  1
  Pb  Pb17  1  0.000000  0.372331  0.750000  1
