# generated using pymatgen
data_Ce5ErCo16(P6Os)2
_symmetry_space_group_name_H-M   'P 1'
_cell_length_a   3.76428900
_cell_length_b   10.53596843
_cell_length_c   12.33935119
_cell_angle_alpha   90.16117429
_cell_angle_beta   90.00000000
_cell_angle_gamma   90.00000000
_symmetry_Int_Tables_number   1
_chemical_formula_structural   Ce5ErCo16(P6Os)2
_chemical_formula_sum   'Ce5 Er1 Co16 P12 Os2'
_cell_volume   489.38203887
_cell_formula_units_Z   1
loop_
 _symmetry_equiv_pos_site_id
 _symmetry_equiv_pos_as_xyz
  1  'x, y, z'
loop_
 _atom_site_type_symbol
 _atom_site_label
 _atom_site_symmetry_multiplicity
 _atom_site_fract_x
 _atom_site_fract_y
 _atom_site_fract_z
 _atom_site_occupancy
  Ce  Ce0  1  0.750000  0.250927  0.472756  1
  Ce  Ce1  1  0.250000  0.749540  0.525291  1
  Ce  Ce2  1  0.250000  0.932700  0.792502  1
  Ce  Ce3  1  0.250000  0.566991  0.790976  1
  Ce  Ce4  1  0.750000  0.069439  0.208927  1
  Er  Er5  1  0.750000  0.435695  0.206427  1
  Co  Co6  1  0.250000  0.247308  0.298321  1
  Co  Co7  1  0.750000  0.749344  0.703031  1
  Co  Co8  1  0.750000  0.251557  0.016645  1
  Co  Co9  1  0.250000  0.748915  0.986788  1
  Co  Co10  1  0.250000  0.417881  0.010839  1
  Co  Co11  1  0.250000  0.085309  0.009764  1
  Co  Co12  1  0.750000  0.582220  0.991158  1
  Co  Co13  1  0.750000  0.917372  0.992371  1
  Co  Co14  1  0.250000  0.448195  0.569451  1
  Co  Co15  1  0.250000  0.051565  0.572444  1
  Co  Co16  1  0.750000  0.550648  0.426084  1
  Co  Co17  1  0.750000  0.947313  0.427989  1
  Co  Co18  1  0.250000  0.868545  0.286623  1
  Co  Co19  1  0.250000  0.629869  0.286090  1
  Co  Co20  1  0.750000  0.130696  0.713778  1
  Co  Co21  1  0.750000  0.369299  0.712218  1
  P  P22  1  0.250000  0.253589  0.119596  1
  P  P23  1  0.750000  0.749735  0.884807  1
  P  P24  1  0.250000  0.249922  0.652792  1
  P  P25  1  0.750000  0.749307  0.346122  1
  P  P26  1  0.250000  0.442232  0.381709  1
  P  P27  1  0.250000  0.055177  0.387980  1
  P  P28  1  0.750000  0.555266  0.610629  1
  P  P29  1  0.750000  0.943874  0.612712  1
  P  P30  1  0.250000  0.903813  0.104493  1
  P  P31  1  0.250000  0.595508  0.106276  1
  P  P32  1  0.750000  0.098755  0.897189  1
  P  P33  1  0.750000  0.402252  0.895840  1
  Os  Os34  1  0.250000  0.250766  0.843228  1
  Os  Os35  1  0.750000  0.748476  0.156152  1
