# generated using pymatgen
data_Pr4Nd2FeBr10
_symmetry_space_group_name_H-M   'P 1'
_cell_length_a   7.70161577
_cell_length_b   9.54994407
_cell_length_c   9.50621702
_cell_angle_alpha   108.82374490
_cell_angle_beta   106.18045616
_cell_angle_gamma   96.88656679
_symmetry_Int_Tables_number   1
_chemical_formula_structural   Pr4Nd2FeBr10
_chemical_formula_sum   'Pr4 Nd2 Fe1 Br10'
_cell_volume   618.41064244
_cell_formula_units_Z   1
loop_
 _symmetry_equiv_pos_site_id
 _symmetry_equiv_pos_as_xyz
  1  'x, y, z'
loop_
 _atom_site_type_symbol
 _atom_site_label
 _atom_site_symmetry_multiplicity
 _atom_site_fract_x
 _atom_site_fract_y
 _atom_site_fract_z
 _atom_site_occupancy
  Pr  Pr0  1  0.124830  0.761392  0.048194  1
  Pr  Pr1  1  0.631524  0.811585  0.859148  1
  Pr  Pr2  1  0.875611  0.238660  0.953343  1
  Pr  Pr3  1  0.973809  0.094377  0.292559  1
  Nd  Nd4  1  0.366318  0.185772  0.137744  1
  Nd  Nd5  1  0.028109  0.907543  0.710571  1
  Fe  Fe6  1  0.999863  0.999795  0.000552  1
  Br  Br7  1  0.449451  0.079040  0.822507  1
  Br  Br8  1  0.749650  0.543790  0.917119  1
  Br  Br9  1  0.252069  0.454333  0.083575  1
  Br  Br10  1  0.914052  0.168719  0.633159  1
  Br  Br11  1  0.645291  0.727738  0.541855  1
  Br  Br12  1  0.548132  0.921689  0.176644  1
  Br  Br13  1  0.087764  0.830981  0.369755  1
  Br  Br14  1  0.794466  0.351202  0.258216  1
  Br  Br15  1  0.197840  0.647873  0.739695  1
  Br  Br16  1  0.361220  0.275513  0.455365  1
