# generated using pymatgen
data_Tb3Y(NiB10)2
_symmetry_space_group_name_H-M   'P 1'
_cell_length_a   4.14854600
_cell_length_b   5.55999002
_cell_length_c   11.10468904
_cell_angle_alpha   89.99088411
_cell_angle_beta   90.00000000
_cell_angle_gamma   90.00000000
_symmetry_Int_Tables_number   1
_chemical_formula_structural   Tb3Y(NiB10)2
_chemical_formula_sum   'Tb3 Y1 Ni2 B20'
_cell_volume   256.13935871
_cell_formula_units_Z   1
loop_
 _symmetry_equiv_pos_site_id
 _symmetry_equiv_pos_as_xyz
  1  'x, y, z'
loop_
 _atom_site_type_symbol
 _atom_site_label
 _atom_site_symmetry_multiplicity
 _atom_site_fract_x
 _atom_site_fract_y
 _atom_site_fract_z
 _atom_site_occupancy
  Tb  Tb0  1  0.500000  0.813288  0.637459  1
  Tb  Tb1  1  0.500000  0.313143  0.862565  1
  Tb  Tb2  1  0.500000  0.686819  0.137482  1
  Y  Y3  1  0.500000  0.186748  0.362577  1
  Ni  Ni4  1  0.000000  0.999947  0.000004  1
  Ni  Ni5  1  0.000000  0.500068  0.499987  1
  B  B6  1  0.000000  0.374393  0.041026  1
  B  B7  1  0.000000  0.625572  0.959010  1
  B  B8  1  0.000000  0.125588  0.540999  1
  B  B9  1  0.000000  0.874365  0.459020  1
  B  B10  1  0.000000  0.342153  0.198369  1
  B  B11  1  0.000000  0.657778  0.801637  1
  B  B12  1  0.000000  0.157786  0.698329  1
  B  B13  1  0.000000  0.841997  0.301537  1
  B  B14  1  0.000000  0.030726  0.186634  1
  B  B15  1  0.000000  0.969058  0.813249  1
  B  B16  1  0.000000  0.469103  0.686730  1
  B  B17  1  0.000000  0.530887  0.313245  1
  B  B18  1  0.301423  0.202184  0.114564  1
  B  B19  1  0.698603  0.797763  0.885431  1
  B  B20  1  0.301397  0.797763  0.885431  1
  B  B21  1  0.698628  0.297882  0.614622  1
  B  B22  1  0.698577  0.202184  0.114564  1
  B  B23  1  0.301356  0.702460  0.385454  1
  B  B24  1  0.698644  0.702460  0.385454  1
  B  B25  1  0.301372  0.297882  0.614622  1
