# generated using pymatgen
data_Ho4Zn5Ni9
_symmetry_space_group_name_H-M   'P 1'
_cell_length_a   5.11929260
_cell_length_b   5.11929333
_cell_length_c   12.23867213
_cell_angle_alpha   77.92779534
_cell_angle_beta   77.92779302
_cell_angle_gamma   60.00001502
_symmetry_Int_Tables_number   1
_chemical_formula_structural   Ho4Zn5Ni9
_chemical_formula_sum   'Ho4 Zn5 Ni9'
_cell_volume   269.54807607
_cell_formula_units_Z   1
loop_
 _symmetry_equiv_pos_site_id
 _symmetry_equiv_pos_as_xyz
  1  'x, y, z'
loop_
 _atom_site_type_symbol
 _atom_site_label
 _atom_site_symmetry_multiplicity
 _atom_site_fract_x
 _atom_site_fract_y
 _atom_site_fract_z
 _atom_site_occupancy
  Ho  Ho0  1  0.952836  0.952836  0.141490  1
  Ho  Ho1  1  0.047164  0.047164  0.858510  1
  Ho  Ho2  1  0.855246  0.855246  0.434263  1
  Ho  Ho3  1  0.144754  0.144754  0.565737  1
  Zn  Zn4  1  0.500000  0.500000  0.500000  1
  Zn  Zn5  1  0.722373  0.722373  0.832881  1
  Zn  Zn6  1  0.277627  0.277627  0.167119  1
  Zn  Zn7  1  0.610632  0.610632  0.168102  1
  Zn  Zn8  1  0.389368  0.389368  0.831898  1
  Ni  Ni9  1  0.000000  0.500000  0.000000  1
  Ni  Ni10  1  0.500000  0.000000  0.000000  1
  Ni  Ni11  1  0.500000  0.500000  0.000000  1
  Ni  Ni12  1  0.386108  0.386108  0.333633  1
  Ni  Ni13  1  0.894153  0.386108  0.333633  1
  Ni  Ni14  1  0.386108  0.894153  0.333633  1
  Ni  Ni15  1  0.613892  0.613892  0.666367  1
  Ni  Ni16  1  0.105847  0.613892  0.666367  1
  Ni  Ni17  1  0.613892  0.105847  0.666367  1
