# generated using pymatgen
data_Bi3BWO9
_symmetry_space_group_name_H-M   'P 1'
_cell_length_a   5.76354700
_cell_length_b   8.93888929
_cell_length_c   8.93889000
_cell_angle_alpha   120.00000263
_cell_angle_beta   90.00000000
_cell_angle_gamma   90.00000000
_symmetry_Int_Tables_number   1
_chemical_formula_structural   Bi3BWO9
_chemical_formula_sum   'Bi6 B2 W2 O18'
_cell_volume   398.82980908
_cell_formula_units_Z   2
loop_
 _symmetry_equiv_pos_site_id
 _symmetry_equiv_pos_as_xyz
  1  'x, y, z'
loop_
 _atom_site_type_symbol
 _atom_site_label
 _atom_site_symmetry_multiplicity
 _atom_site_fract_x
 _atom_site_fract_y
 _atom_site_fract_z
 _atom_site_occupancy
  Bi  Bi0  1  0.210181  0.702638  0.053072  1
  Bi  Bi1  1  0.210181  0.350434  0.297362  1
  Bi  Bi2  1  0.710181  0.053072  0.350434  1
  Bi  Bi3  1  0.710181  0.297362  0.946928  1
  Bi  Bi4  1  0.710181  0.649566  0.702638  1
  Bi  Bi5  1  0.210181  0.946928  0.649566  1
  B  B6  1  0.900213  0.000000  0.000000  1
  B  B7  1  0.400213  0.000000  0.000000  1
  W  W8  1  0.737388  0.666667  0.333333  1
  W  W9  1  0.237388  0.333333  0.666667  1
  O  O10  1  0.541334  0.789640  0.252528  1
  O  O11  1  0.436773  0.128697  0.593483  1
  O  O12  1  0.395645  0.083934  0.178991  1
  O  O13  1  0.541334  0.747471  0.537111  1
  O  O14  1  0.895645  0.916066  0.821009  1
  O  O15  1  0.895645  0.904943  0.083934  1
  O  O16  1  0.436773  0.406517  0.535214  1
  O  O17  1  0.041334  0.537111  0.789640  1
  O  O18  1  0.041334  0.210360  0.747471  1
  O  O19  1  0.895645  0.178991  0.095057  1
  O  O20  1  0.541334  0.462889  0.210360  1
  O  O21  1  0.436773  0.464786  0.871303  1
  O  O22  1  0.936773  0.535214  0.128697  1
  O  O23  1  0.936773  0.871303  0.406517  1
  O  O24  1  0.041334  0.252528  0.462889  1
  O  O25  1  0.936773  0.593483  0.464786  1
  O  O26  1  0.395645  0.095057  0.916066  1
  O  O27  1  0.395645  0.821009  0.904943  1
