# generated using pymatgen
data_Ho20Ir7OsRh4
_symmetry_space_group_name_H-M   'P 1'
_cell_length_a   10.81472755
_cell_length_b   10.81377455
_cell_length_c   6.38877701
_cell_angle_alpha   90.00352866
_cell_angle_beta   90.00459610
_cell_angle_gamma   89.93876364
_symmetry_Int_Tables_number   1
_chemical_formula_structural   Ho20Ir7OsRh4
_chemical_formula_sum   'Ho20 Ir7 Os1 Rh4'
_cell_volume   747.15442635
_cell_formula_units_Z   1
loop_
 _symmetry_equiv_pos_site_id
 _symmetry_equiv_pos_as_xyz
  1  'x, y, z'
loop_
 _atom_site_type_symbol
 _atom_site_label
 _atom_site_symmetry_multiplicity
 _atom_site_fract_x
 _atom_site_fract_y
 _atom_site_fract_z
 _atom_site_occupancy
  Ho  Ho0  1  0.291951  0.087440  0.375559  1
  Ho  Ho1  1  0.292738  0.912737  0.880633  1
  Ho  Ho2  1  0.706733  0.087015  0.880159  1
  Ho  Ho3  1  0.707478  0.911383  0.375773  1
  Ho  Ho4  1  0.587331  0.792599  0.881015  1
  Ho  Ho5  1  0.586356  0.208096  0.375510  1
  Ho  Ho6  1  0.412444  0.792086  0.375478  1
  Ho  Ho7  1  0.412662  0.207363  0.880805  1
  Ho  Ho8  1  0.209890  0.411378  0.621579  1
  Ho  Ho9  1  0.209660  0.588299  0.121142  1
  Ho  Ho10  1  0.790140  0.412953  0.121111  1
  Ho  Ho11  1  0.790153  0.588631  0.621791  1
  Ho  Ho12  1  0.911815  0.709777  0.121071  1
  Ho  Ho13  1  0.911686  0.290802  0.622483  1
  Ho  Ho14  1  0.088599  0.709791  0.622002  1
  Ho  Ho15  1  0.089468  0.290862  0.120805  1
  Ho  Ho16  1  0.000182  0.999749  0.499363  1
  Ho  Ho17  1  0.000258  0.999831  0.999202  1
  Ho  Ho18  1  0.499945  0.499907  0.999219  1
  Ho  Ho19  1  0.500118  0.499996  0.499419  1
  Ir  Ir20  1  0.847528  0.846348  0.749775  1
  Ir  Ir21  1  0.151948  0.154113  0.750029  1
  Ir  Ir22  1  0.152422  0.845480  0.250467  1
  Ir  Ir23  1  0.654677  0.346970  0.749989  1
  Ir  Ir24  1  0.654637  0.652369  0.250460  1
  Ir  Ir25  1  0.345451  0.347476  0.250563  1
  Ir  Ir26  1  0.345862  0.652556  0.749923  1
  Os  Os27  1  0.500395  0.000210  0.124765  1
  Rh  Rh28  1  0.847500  0.154398  0.250544  1
  Rh  Rh29  1  0.500348  0.000193  0.622086  1
  Rh  Rh30  1  0.999820  0.499650  0.878669  1
  Rh  Rh31  1  0.999805  0.499542  0.378609  1
