# generated using pymatgen
data_Nd5Pa(Co3P2)6
_symmetry_space_group_name_H-M   'P 1'
_cell_length_a   3.76225000
_cell_length_b   10.59422462
_cell_length_c   12.37996826
_cell_angle_alpha   90.21477754
_cell_angle_beta   90.00000000
_cell_angle_gamma   90.00000000
_symmetry_Int_Tables_number   1
_chemical_formula_structural   Nd5Pa(Co3P2)6
_chemical_formula_sum   'Nd5 Pa1 Co18 P12'
_cell_volume   493.43881288
_cell_formula_units_Z   1
loop_
 _symmetry_equiv_pos_site_id
 _symmetry_equiv_pos_as_xyz
  1  'x, y, z'
loop_
 _atom_site_type_symbol
 _atom_site_label
 _atom_site_symmetry_multiplicity
 _atom_site_fract_x
 _atom_site_fract_y
 _atom_site_fract_z
 _atom_site_occupancy
  Nd  Nd0  1  0.000000  0.499675  0.520464  1
  Nd  Nd1  1  0.500000  0.999144  0.479634  1
  Nd  Nd2  1  0.500000  0.184338  0.205365  1
  Nd  Nd3  1  0.000000  0.683268  0.794289  1
  Nd  Nd4  1  0.000000  0.317228  0.794144  1
  Pa  Pa5  1  0.500000  0.820758  0.209175  1
  Co  Co6  1  0.500000  0.500406  0.159198  1
  Co  Co7  1  0.000000  0.999317  0.842473  1
  Co  Co8  1  0.500000  0.499638  0.705704  1
  Co  Co9  1  0.000000  0.986840  0.289323  1
  Co  Co10  1  0.000000  0.502312  0.988467  1
  Co  Co11  1  0.500000  0.999586  0.013715  1
  Co  Co12  1  0.500000  0.334942  0.996483  1
  Co  Co13  1  0.500000  0.669085  0.999632  1
  Co  Co14  1  0.000000  0.167324  0.004233  1
  Co  Co15  1  0.000000  0.834948  0.005449  1
  Co  Co16  1  0.500000  0.295534  0.429467  1
  Co  Co17  1  0.500000  0.700708  0.426281  1
  Co  Co18  1  0.000000  0.201789  0.569589  1
  Co  Co19  1  0.000000  0.796915  0.570288  1
  Co  Co20  1  0.500000  0.881454  0.711371  1
  Co  Co21  1  0.500000  0.118296  0.711092  1
  Co  Co22  1  0.000000  0.623375  0.285055  1
  Co  Co23  1  0.000000  0.381836  0.289074  1
  P  P24  1  0.500000  0.501447  0.887151  1
  P  P25  1  0.000000  0.000752  0.111841  1
  P  P26  1  0.500000  0.497929  0.339859  1
  P  P27  1  0.000000  0.999697  0.660597  1
  P  P28  1  0.500000  0.306174  0.614048  1
  P  P29  1  0.500000  0.692571  0.614063  1
  P  P30  1  0.000000  0.190585  0.385361  1
  P  P31  1  0.000000  0.804705  0.387805  1
  P  P32  1  0.500000  0.849615  0.894565  1
  P  P33  1  0.500000  0.151980  0.895553  1
  P  P34  1  0.000000  0.655746  0.104644  1
  P  P35  1  0.000000  0.350086  0.104546  1
