# generated using pymatgen
data_Ho4Sn5GeRh7
_symmetry_space_group_name_H-M   'P 1'
_cell_length_a   7.53889518
_cell_length_b   7.53889426
_cell_length_c   7.53889598
_cell_angle_alpha   109.09331032
_cell_angle_beta   109.66051122
_cell_angle_gamma   109.66050735
_symmetry_Int_Tables_number   1
_chemical_formula_structural   Ho4Sn5GeRh7
_chemical_formula_sum   'Ho4 Sn5 Ge1 Rh7'
_cell_volume   329.82761805
_cell_formula_units_Z   1
loop_
 _symmetry_equiv_pos_site_id
 _symmetry_equiv_pos_as_xyz
  1  'x, y, z'
loop_
 _atom_site_type_symbol
 _atom_site_label
 _atom_site_symmetry_multiplicity
 _atom_site_fract_x
 _atom_site_fract_y
 _atom_site_fract_z
 _atom_site_occupancy
  Ho  Ho0  1  0.000000  0.990211  0.525019  1
  Ho  Ho1  1  0.000000  0.525019  0.990211  1
  Ho  Ho2  1  0.465193  0.990211  0.990211  1
  Ho  Ho3  1  0.534807  0.525019  0.525019  1
  Sn  Sn4  1  0.685054  0.698606  0.013553  1
  Sn  Sn5  1  0.314946  0.013553  0.328499  1
  Sn  Sn6  1  0.000000  0.294705  0.294705  1
  Sn  Sn7  1  0.314946  0.328499  0.013553  1
  Sn  Sn8  1  0.685054  0.013553  0.698606  1
  Ge  Ge9  1  0.000000  0.657327  0.657327  1
  Rh  Rh10  1  0.754371  0.249104  0.494733  1
  Rh  Rh11  1  0.754371  0.494733  0.249104  1
  Rh  Rh12  1  0.500000  0.259304  0.759304  1
  Rh  Rh13  1  0.245629  0.494733  0.740362  1
  Rh  Rh14  1  0.245629  0.740362  0.494733  1
  Rh  Rh15  1  0.500000  0.759304  0.259304  1
  Rh  Rh16  1  0.000000  0.965756  0.965756  1
