# generated using pymatgen
data_Nd2TaGa6
_symmetry_space_group_name_H-M   'P 1'
_cell_length_a   6.41078331
_cell_length_b   6.41078274
_cell_length_c   6.41078400
_cell_angle_alpha   59.99999348
_cell_angle_beta   59.99999642
_cell_angle_gamma   60.00000063
_symmetry_Int_Tables_number   1
_chemical_formula_structural   Nd2TaGa6
_chemical_formula_sum   'Nd2 Ta1 Ga6'
_cell_volume   186.30232358
_cell_formula_units_Z   1
loop_
 _symmetry_equiv_pos_site_id
 _symmetry_equiv_pos_as_xyz
  1  'x, y, z'
loop_
 _atom_site_type_symbol
 _atom_site_label
 _atom_site_symmetry_multiplicity
 _atom_site_fract_x
 _atom_site_fract_y
 _atom_site_fract_z
 _atom_site_occupancy
  Nd  Nd0  1  0.250000  0.250000  0.250000  1
  Nd  Nd1  1  0.750001  0.750001  0.750001  1
  Ta  Ta2  1  0.000000  0.000000  0.000000  1
  Ga  Ga3  1  0.711673  0.288327  0.288327  1
  Ga  Ga4  1  0.288327  0.711673  0.288327  1
  Ga  Ga5  1  0.711672  0.711672  0.288328  1
  Ga  Ga6  1  0.288327  0.288327  0.711673  1
  Ga  Ga7  1  0.711672  0.288328  0.711672  1
  Ga  Ga8  1  0.288328  0.711672  0.711672  1
