# generated using pymatgen
data_ZrSc9(TcSn5)2
_symmetry_space_group_name_H-M   'P 1'
_cell_length_a   10.81025218
_cell_length_b   10.81025278
_cell_length_c   10.79680817
_cell_angle_alpha   148.78699610
_cell_angle_beta   131.49143307
_cell_angle_gamma   58.94456871
_symmetry_Int_Tables_number   1
_chemical_formula_structural   ZrSc9(TcSn5)2
_chemical_formula_sum   'Zr1 Sc9 Tc2 Sn10'
_cell_volume   485.57172636
_cell_formula_units_Z   1
loop_
 _symmetry_equiv_pos_site_id
 _symmetry_equiv_pos_as_xyz
  1  'x, y, z'
loop_
 _atom_site_type_symbol
 _atom_site_label
 _atom_site_symmetry_multiplicity
 _atom_site_fract_x
 _atom_site_fract_y
 _atom_site_fract_z
 _atom_site_occupancy
  Zr  Zr0  1  0.695596  0.945596  0.250000  1
  Sc  Sc1  1  0.304427  0.054427  0.750000  1
  Sc  Sc2  1  0.676361  0.437192  0.238598  1
  Sc  Sc3  1  0.324688  0.565720  0.764330  1
  Sc  Sc4  1  0.198595  0.937763  0.261402  1
  Sc  Sc5  1  0.801391  0.060360  0.735670  1
  Sc  Sc6  1  0.256155  0.146328  0.115022  1
  Sc  Sc7  1  0.745509  0.853741  0.887455  1
  Sc  Sc8  1  0.031306  0.641134  0.384978  1
  Sc  Sc9  1  0.966285  0.358054  0.612545  1
  Tc  Tc10  1  0.307574  0.557574  0.250000  1
  Tc  Tc11  1  0.692686  0.442686  0.750000  1
  Sn  Sn12  1  0.587112  0.312943  0.322187  1
  Sn  Sn13  1  0.411290  0.688314  0.676696  1
  Sn  Sn14  1  0.990756  0.764924  0.177813  1
  Sn  Sn15  1  0.011619  0.234595  0.823304  1
  Sn  Sn16  1  0.998665  0.248665  0.250000  1
  Sn  Sn17  1  0.001634  0.751634  0.750000  1
  Sn  Sn18  1  0.472884  0.079579  0.407982  1
  Sn  Sn19  1  0.526332  0.922998  0.595460  1
  Sn  Sn20  1  0.671596  0.564900  0.092018  1
  Sn  Sn21  1  0.327538  0.430874  0.904540  1
