# generated using pymatgen
data_Ta2Ti10AlSi3C8
_symmetry_space_group_name_H-M   'P 1'
_cell_length_a   6.17452532
_cell_length_b   6.17458623
_cell_length_c   17.98007510
_cell_angle_alpha   90.00068575
_cell_angle_beta   90.00086719
_cell_angle_gamma   119.95637771
_symmetry_Int_Tables_number   1
_chemical_formula_structural   Ta2Ti10AlSi3C8
_chemical_formula_sum   'Ta4 Ti20 Al2 Si6 C16'
_cell_volume   593.91501131
_cell_formula_units_Z   2
loop_
 _symmetry_equiv_pos_site_id
 _symmetry_equiv_pos_as_xyz
  1  'x, y, z'
loop_
 _atom_site_type_symbol
 _atom_site_label
 _atom_site_symmetry_multiplicity
 _atom_site_fract_x
 _atom_site_fract_y
 _atom_site_fract_z
 _atom_site_occupancy
  Ta  Ta0  1  0.000486  0.000037  0.000182  1
  Ta  Ta1  1  0.500544  0.500094  0.000153  1
  Ta  Ta2  1  0.000377  0.000017  0.499806  1
  Ta  Ta3  1  0.500439  0.500066  0.499836  1
  Ti  Ti4  1  0.000482  0.500076  0.000206  1
  Ti  Ti5  1  0.500488  0.000076  0.000203  1
  Ti  Ti6  1  0.000386  0.500040  0.499772  1
  Ti  Ti7  1  0.500396  0.000033  0.499772  1
  Ti  Ti8  1  0.663849  0.833156  0.865665  1
  Ti  Ti9  1  0.667745  0.332885  0.863540  1
  Ti  Ti10  1  0.167478  0.336768  0.865651  1
  Ti  Ti11  1  0.169039  0.831568  0.866317  1
  Ti  Ti12  1  0.831900  0.168593  0.133922  1
  Ti  Ti13  1  0.333199  0.667288  0.136703  1
  Ti  Ti14  1  0.833487  0.663308  0.134568  1
  Ti  Ti15  1  0.337182  0.167012  0.134541  1
  Ti  Ti16  1  0.663824  0.833153  0.634345  1
  Ti  Ti17  1  0.667699  0.332849  0.636490  1
  Ti  Ti18  1  0.167411  0.336719  0.634357  1
  Ti  Ti19  1  0.168970  0.831552  0.633705  1
  Ti  Ti20  1  0.831818  0.168529  0.366032  1
  Ti  Ti21  1  0.333122  0.667223  0.363237  1
  Ti  Ti22  1  0.833343  0.663296  0.365393  1
  Ti  Ti23  1  0.337053  0.167006  0.365425  1
  Al  Al24  1  0.000795  0.999905  0.750107  1
  Al  Al25  1  0.000559  0.000205  0.250048  1
  Si  Si26  1  0.010047  0.504805  0.750099  1
  Si  Si27  1  0.495773  0.505066  0.750110  1
  Si  Si28  1  0.495637  0.990616  0.750098  1
  Si  Si29  1  0.990982  0.495319  0.250042  1
  Si  Si30  1  0.505105  0.495083  0.250051  1
  Si  Si31  1  0.504807  0.009472  0.250041  1
  C  C32  1  0.665205  0.833859  0.426572  1
  C  C33  1  0.667905  0.332510  0.427955  1
  C  C34  1  0.166516  0.335208  0.426587  1
  C  C35  1  0.168362  0.831979  0.427151  1
  C  C36  1  0.832457  0.168085  0.572598  1
  C  C37  1  0.332916  0.667486  0.571782  1
  C  C38  1  0.834273  0.664891  0.573144  1
  C  C39  1  0.335573  0.166206  0.573148  1
  C  C40  1  0.665274  0.833900  0.073381  1
  C  C41  1  0.668025  0.332532  0.071978  1
  C  C42  1  0.166603  0.335258  0.073369  1
  C  C43  1  0.168481  0.831979  0.072796  1
  C  C44  1  0.832517  0.168147  0.927353  1
  C  C45  1  0.332951  0.667537  0.928174  1
  C  C46  1  0.834366  0.664903  0.926806  1
  C  C47  1  0.335661  0.166206  0.926792  1
