# generated using pymatgen
data_Cs(RuS)2
_symmetry_space_group_name_H-M   'P 1'
_cell_length_a   7.54054032
_cell_length_b   7.54054048
_cell_length_c   7.54053973
_cell_angle_alpha   149.41004008
_cell_angle_beta   149.41004459
_cell_angle_gamma   43.80809482
_symmetry_Int_Tables_number   1
_chemical_formula_structural   Cs(RuS)2
_chemical_formula_sum   'Cs1 Ru2 S2'
_cell_volume   110.72307771
_cell_formula_units_Z   1
loop_
 _symmetry_equiv_pos_site_id
 _symmetry_equiv_pos_as_xyz
  1  'x, y, z'
loop_
 _atom_site_type_symbol
 _atom_site_label
 _atom_site_symmetry_multiplicity
 _atom_site_fract_x
 _atom_site_fract_y
 _atom_site_fract_z
 _atom_site_occupancy
  Cs  Cs0  1  0.000000  0.000000  0.000000  1
  Ru  Ru1  1  0.750000  0.250000  0.500000  1
  Ru  Ru2  1  0.250000  0.750000  0.500000  1
  S  S3  1  0.336878  0.336878  0.000000  1
  S  S4  1  0.663122  0.663122  0.000000  1
