# generated using pymatgen
data_Pr2PaIn2GaRh3
_symmetry_space_group_name_H-M   'P 1'
_cell_length_a   7.63347238
_cell_length_b   7.78238849
_cell_length_c   3.90005100
_cell_angle_alpha   90.00000000
_cell_angle_beta   90.00000000
_cell_angle_gamma   121.02067271
_symmetry_Int_Tables_number   1
_chemical_formula_structural   Pr2PaIn2GaRh3
_chemical_formula_sum   'Pr2 Pa1 In2 Ga1 Rh3'
_cell_volume   198.55312903
_cell_formula_units_Z   1
loop_
 _symmetry_equiv_pos_site_id
 _symmetry_equiv_pos_as_xyz
  1  'x, y, z'
loop_
 _atom_site_type_symbol
 _atom_site_label
 _atom_site_symmetry_multiplicity
 _atom_site_fract_x
 _atom_site_fract_y
 _atom_site_fract_z
 _atom_site_occupancy
  Pr  Pr0  1  0.425398  0.430213  0.500000  1
  Pr  Pr1  1  0.591818  0.991319  0.500000  1
  Pa  Pa2  1  0.995863  0.588695  0.500000  1
  In  In3  1  0.005579  0.239790  0.000000  1
  In  In4  1  0.262062  0.018353  0.000000  1
  Ga  Ga5  1  0.748671  0.742771  0.000000  1
  Rh  Rh6  1  0.285512  0.665199  0.000000  1
  Rh  Rh7  1  0.970550  0.948085  0.500000  1
  Rh  Rh8  1  0.714547  0.375575  0.000000  1
