# generated using pymatgen
data_BaCuSb12Os2Pd
_symmetry_space_group_name_H-M   'P 1'
_cell_length_a   8.22365145
_cell_length_b   8.22624255
_cell_length_c   8.28432452
_cell_angle_alpha   109.31683912
_cell_angle_beta   109.38093233
_cell_angle_gamma   109.48202325
_symmetry_Int_Tables_number   1
_chemical_formula_structural   BaCuSb12Os2Pd
_chemical_formula_sum   'Ba1 Cu1 Sb12 Os2 Pd1'
_cell_volume   432.66115246
_cell_formula_units_Z   1
loop_
 _symmetry_equiv_pos_site_id
 _symmetry_equiv_pos_as_xyz
  1  'x, y, z'
loop_
 _atom_site_type_symbol
 _atom_site_label
 _atom_site_symmetry_multiplicity
 _atom_site_fract_x
 _atom_site_fract_y
 _atom_site_fract_z
 _atom_site_occupancy
  Ba  Ba0  1  0.000000  0.000000  0.000000  1
  Cu  Cu1  1  0.500000  0.000000  0.000000  1
  Sb  Sb2  1  0.339582  0.185523  0.837039  1
  Sb  Sb3  1  0.660418  0.814477  0.162961  1
  Sb  Sb4  1  0.650972  0.499486  0.838661  1
  Sb  Sb5  1  0.349028  0.500514  0.161339  1
  Sb  Sb6  1  0.187802  0.846236  0.348670  1
  Sb  Sb7  1  0.812198  0.153764  0.651330  1
  Sb  Sb8  1  0.497616  0.838176  0.651940  1
  Sb  Sb9  1  0.502384  0.161824  0.348060  1
  Sb  Sb10  1  0.842866  0.347705  0.191552  1
  Sb  Sb11  1  0.157134  0.652295  0.808448  1
  Sb  Sb12  1  0.843200  0.659402  0.501965  1
  Sb  Sb13  1  0.156800  0.340598  0.498035  1
  Os  Os14  1  0.000000  0.000000  0.500000  1
  Os  Os15  1  0.500000  0.500000  0.500000  1
  Pd  Pd16  1  0.000000  0.500000  0.000000  1
