# generated using pymatgen
data_Nd10CuBi4PPb2
_symmetry_space_group_name_H-M   'P 1'
_cell_length_a   9.62109072
_cell_length_b   9.60336085
_cell_length_c   6.67284375
_cell_angle_alpha   89.94537212
_cell_angle_beta   90.02726499
_cell_angle_gamma   119.93905105
_symmetry_Int_Tables_number   1
_chemical_formula_structural   Nd10CuBi4PPb2
_chemical_formula_sum   'Nd10 Cu1 Bi4 P1 Pb2'
_cell_volume   534.26330574
_cell_formula_units_Z   1
loop_
 _symmetry_equiv_pos_site_id
 _symmetry_equiv_pos_as_xyz
  1  'x, y, z'
loop_
 _atom_site_type_symbol
 _atom_site_label
 _atom_site_symmetry_multiplicity
 _atom_site_fract_x
 _atom_site_fract_y
 _atom_site_fract_z
 _atom_site_occupancy
  Nd  Nd0  1  0.665158  0.332282  0.998789  1
  Nd  Nd1  1  0.334842  0.667126  0.998789  1
  Nd  Nd2  1  0.334769  0.666959  0.501279  1
  Nd  Nd3  1  0.665231  0.332189  0.501279  1
  Nd  Nd4  1  0.750107  0.751880  0.755171  1
  Nd  Nd5  1  0.249893  0.001772  0.755171  1
  Nd  Nd6  1  0.000000  0.248389  0.755350  1
  Nd  Nd7  1  0.248446  0.248059  0.244430  1
  Nd  Nd8  1  0.751554  0.999613  0.244430  1
  Nd  Nd9  1  0.000000  0.751900  0.244383  1
  Cu  Cu10  1  0.000000  0.000172  0.500200  1
  Bi  Bi11  1  0.000000  0.611786  0.747202  1
  Bi  Bi12  1  0.611046  0.610715  0.252830  1
  Bi  Bi13  1  0.388954  0.999668  0.252830  1
  Bi  Bi14  1  0.000000  0.388516  0.252610  1
  P  P15  1  0.000000  0.999871  0.000169  1
  Pb  Pb16  1  0.388646  0.388874  0.747544  1
  Pb  Pb17  1  0.611354  0.000228  0.747544  1
