# generated using pymatgen
data_Nd2Zn5Ga
_symmetry_space_group_name_H-M   'P 1'
_cell_length_a   8.42063012
_cell_length_b   8.42062968
_cell_length_c   8.83849800
_cell_angle_alpha   90.00000000
_cell_angle_beta   90.00000000
_cell_angle_gamma   148.96585506
_symmetry_Int_Tables_number   1
_chemical_formula_structural   Nd2Zn5Ga
_chemical_formula_sum   'Nd4 Zn10 Ga2'
_cell_volume   323.10033823
_cell_formula_units_Z   2
loop_
 _symmetry_equiv_pos_site_id
 _symmetry_equiv_pos_as_xyz
  1  'x, y, z'
loop_
 _atom_site_type_symbol
 _atom_site_label
 _atom_site_symmetry_multiplicity
 _atom_site_fract_x
 _atom_site_fract_y
 _atom_site_fract_z
 _atom_site_occupancy
  Nd  Nd0  1  0.202458  0.797542  0.250000  1
  Nd  Nd1  1  0.797542  0.202458  0.750000  1
  Nd  Nd2  1  0.000000  0.000000  0.500000  1
  Nd  Nd3  1  0.000000  0.000000  0.000000  1
  Zn  Zn4  1  0.814279  0.185721  0.393250  1
  Zn  Zn5  1  0.185721  0.814279  0.606750  1
  Zn  Zn6  1  0.814279  0.185721  0.106750  1
  Zn  Zn7  1  0.185721  0.814279  0.893250  1
  Zn  Zn8  1  0.650573  0.349427  0.478350  1
  Zn  Zn9  1  0.349427  0.650573  0.521650  1
  Zn  Zn10  1  0.650573  0.349427  0.021650  1
  Zn  Zn11  1  0.349427  0.650573  0.978350  1
  Zn  Zn12  1  0.403187  0.596813  0.250000  1
  Zn  Zn13  1  0.596813  0.403187  0.750000  1
  Ga  Ga14  1  0.556178  0.443822  0.250000  1
  Ga  Ga15  1  0.443822  0.556178  0.750000  1
