# generated using pymatgen
data_Tb3YbAl24Pd3Pt5Au
_symmetry_space_group_name_H-M   'P 1'
_cell_length_a   7.55424838
_cell_length_b   7.57461684
_cell_length_c   13.22234300
_cell_angle_alpha   84.59321819
_cell_angle_beta   79.12147903
_cell_angle_gamma   59.95433952
_symmetry_Int_Tables_number   1
_chemical_formula_structural   Tb3YbAl24Pd3Pt5Au
_chemical_formula_sum   'Tb3 Yb1 Al24 Pd3 Pt5 Au1'
_cell_volume   643.15477991
_cell_formula_units_Z   1
loop_
 _symmetry_equiv_pos_site_id
 _symmetry_equiv_pos_as_xyz
  1  'x, y, z'
loop_
 _atom_site_type_symbol
 _atom_site_label
 _atom_site_symmetry_multiplicity
 _atom_site_fract_x
 _atom_site_fract_y
 _atom_site_fract_z
 _atom_site_occupancy
  Tb  Tb0  1  0.605610  0.832302  0.191855  1
  Tb  Tb1  1  0.734214  0.498561  0.808899  1
  Tb  Tb2  1  0.266961  0.500640  0.191116  1
  Yb  Yb3  1  0.392507  0.169315  0.808233  1
  Al  Al4  1  0.683158  0.834745  0.945658  1
  Al  Al5  1  0.315329  0.165854  0.054746  1
  Al  Al6  1  0.146708  0.838922  0.559810  1
  Al  Al7  1  0.853897  0.167272  0.436844  1
  Al  Al8  1  0.487807  0.159534  0.557908  1
  Al  Al9  1  0.520301  0.833815  0.439891  1
  Al  Al10  1  0.217126  0.165270  0.329395  1
  Al  Al11  1  0.777062  0.840282  0.672087  1
  Al  Al12  1  0.441147  0.506042  0.672151  1
  Al  Al13  1  0.563153  0.493487  0.329349  1
  Al  Al14  1  0.109924  0.153744  0.671343  1
  Al  Al15  1  0.890156  0.840142  0.330474  1
  Al  Al16  1  0.352816  0.499044  0.945474  1
  Al  Al17  1  0.647324  0.500355  0.055807  1
  Al  Al18  1  0.015565  0.166833  0.954513  1
  Al  Al19  1  0.984319  0.832783  0.046957  1
  Al  Al20  1  0.188363  0.499184  0.437128  1
  Al  Al21  1  0.806534  0.500563  0.557161  1
  Al  Al22  1  0.734685  0.164107  0.183549  1
  Al  Al23  1  0.266949  0.834499  0.816713  1
  Al  Al24  1  0.058711  0.635432  0.818422  1
  Al  Al25  1  0.938693  0.368809  0.185216  1
  Al  Al26  1  0.855362  0.042973  0.816365  1
  Al  Al27  1  0.144552  0.958420  0.183908  1
  Pd  Pd28  1  0.880063  0.507484  0.361436  1
  Pd  Pd29  1  0.657750  0.171076  0.000434  1
  Pd  Pd30  1  0.342146  0.827945  0.000585  1
  Pt  Pt31  1  0.537705  0.166969  0.361910  1
  Pt  Pt32  1  0.462162  0.832910  0.637098  1
  Pt  Pt33  1  0.780479  0.174409  0.635661  1
  Pt  Pt34  1  0.220957  0.825002  0.363097  1
  Pt  Pt35  1  0.999379  0.500312  0.000777  1
  Au  Au36  1  0.120431  0.490962  0.638040  1
