# generated using pymatgen
data_HfZr4Nb(B2Ru5)2
_symmetry_space_group_name_H-M   'P 1'
_cell_length_a   9.52531900
_cell_length_b   9.52531900
_cell_length_c   3.13298600
_cell_angle_alpha   90.00000000
_cell_angle_beta   90.00000000
_cell_angle_gamma   90.00000000
_symmetry_Int_Tables_number   1
_chemical_formula_structural   HfZr4Nb(B2Ru5)2
_chemical_formula_sum   'Hf1 Zr4 Nb1 B4 Ru10'
_cell_volume   284.26115228
_cell_formula_units_Z   1
loop_
 _symmetry_equiv_pos_site_id
 _symmetry_equiv_pos_as_xyz
  1  'x, y, z'
loop_
 _atom_site_type_symbol
 _atom_site_label
 _atom_site_symmetry_multiplicity
 _atom_site_fract_x
 _atom_site_fract_y
 _atom_site_fract_z
 _atom_site_occupancy
  Hf  Hf0  1  0.500000  0.500000  0.000000  1
  Zr  Zr1  1  0.823969  0.675175  0.000000  1
  Zr  Zr2  1  0.176031  0.324825  0.000000  1
  Zr  Zr3  1  0.324825  0.823969  0.000000  1
  Zr  Zr4  1  0.675175  0.176031  0.000000  1
  Nb  Nb5  1  0.000000  0.000000  0.000000  1
  B  B6  1  0.620957  0.877654  0.000000  1
  B  B7  1  0.379043  0.122346  0.000000  1
  B  B8  1  0.122346  0.620957  0.000000  1
  B  B9  1  0.877654  0.379043  0.000000  1
  Ru  Ru10  1  0.573865  0.721162  0.500000  1
  Ru  Ru11  1  0.426135  0.278838  0.500000  1
  Ru  Ru12  1  0.069150  0.782378  0.500000  1
  Ru  Ru13  1  0.930850  0.217622  0.500000  1
  Ru  Ru14  1  0.278838  0.573865  0.500000  1
  Ru  Ru15  1  0.721162  0.426135  0.500000  1
  Ru  Ru16  1  0.217622  0.069150  0.500000  1
  Ru  Ru17  1  0.782378  0.930850  0.500000  1
  Ru  Ru18  1  0.500000  0.000000  0.500000  1
  Ru  Ru19  1  0.000000  0.500000  0.500000  1
