# generated using pymatgen
data_Ta2Tl3Se11
_symmetry_space_group_name_H-M   'P 1'
_cell_length_a   9.29574100
_cell_length_b   8.12249467
_cell_length_c   26.44960500
_cell_angle_alpha   80.17953166
_cell_angle_beta   90.00000000
_cell_angle_gamma   90.00000000
_symmetry_Int_Tables_number   1
_chemical_formula_structural   Ta2Tl3Se11
_chemical_formula_sum   'Ta8 Tl12 Se44'
_cell_volume   1967.80406058
_cell_formula_units_Z   4
loop_
 _symmetry_equiv_pos_site_id
 _symmetry_equiv_pos_as_xyz
  1  'x, y, z'
loop_
 _atom_site_type_symbol
 _atom_site_label
 _atom_site_symmetry_multiplicity
 _atom_site_fract_x
 _atom_site_fract_y
 _atom_site_fract_z
 _atom_site_occupancy
  Ta  Ta0  1  0.177294  0.225223  0.079028  1
  Ta  Ta1  1  0.677294  0.774777  0.420972  1
  Ta  Ta2  1  0.822706  0.774777  0.920972  1
  Ta  Ta3  1  0.322706  0.225223  0.579028  1
  Ta  Ta4  1  0.453815  0.318817  0.167618  1
  Ta  Ta5  1  0.953815  0.681183  0.332382  1
  Ta  Ta6  1  0.546185  0.681183  0.832382  1
  Ta  Ta7  1  0.046185  0.318817  0.667618  1
  Tl  Tl8  1  0.713054  0.701673  0.177475  1
  Tl  Tl9  1  0.213054  0.298327  0.322525  1
  Tl  Tl10  1  0.286946  0.298327  0.822525  1
  Tl  Tl11  1  0.786946  0.701673  0.677475  1
  Tl  Tl12  1  0.802560  0.158855  0.004632  1
  Tl  Tl13  1  0.302560  0.841145  0.495368  1
  Tl  Tl14  1  0.197440  0.841145  0.995368  1
  Tl  Tl15  1  0.697440  0.158855  0.504632  1
  Tl  Tl16  1  0.692813  0.253784  0.312648  1
  Tl  Tl17  1  0.192813  0.746216  0.187352  1
  Tl  Tl18  1  0.307187  0.746216  0.687352  1
  Tl  Tl19  1  0.807187  0.253784  0.812648  1
  Se  Se20  1  0.457416  0.492652  0.234351  1
  Se  Se21  1  0.957416  0.507348  0.265649  1
  Se  Se22  1  0.542584  0.507348  0.765649  1
  Se  Se23  1  0.042584  0.492652  0.734351  1
  Se  Se24  1  0.602639  0.477119  0.093649  1
  Se  Se25  1  0.102639  0.522881  0.406351  1
  Se  Se26  1  0.397361  0.522881  0.906350  1
  Se  Se27  1  0.897361  0.477119  0.593650  1
  Se  Se28  1  0.020193  0.984031  0.085691  1
  Se  Se29  1  0.520193  0.015969  0.414309  1
  Se  Se30  1  0.979807  0.015969  0.914309  1
  Se  Se31  1  0.479807  0.984031  0.585691  1
  Se  Se32  1  0.683120  0.138740  0.194403  1
  Se  Se33  1  0.183120  0.861260  0.305597  1
  Se  Se34  1  0.316880  0.861260  0.805597  1
  Se  Se35  1  0.816880  0.138740  0.694403  1
  Se  Se36  1  0.456674  0.020594  0.224771  1
  Se  Se37  1  0.956674  0.979406  0.275229  1
  Se  Se38  1  0.543326  0.979406  0.775229  1
  Se  Se39  1  0.043326  0.020594  0.724771  1
  Se  Se40  1  0.032778  0.439205  0.122085  1
  Se  Se41  1  0.532778  0.560795  0.377915  1
  Se  Se42  1  0.967222  0.560795  0.877915  1
  Se  Se43  1  0.467222  0.439205  0.622085  1
  Se  Se44  1  0.378486  0.175199  0.016378  1
  Se  Se45  1  0.878486  0.824801  0.483622  1
  Se  Se46  1  0.621514  0.824801  0.983622  1
  Se  Se47  1  0.121514  0.175199  0.516378  1
  Se  Se48  1  0.090247  0.398679  0.992060  1
  Se  Se49  1  0.590247  0.601321  0.507940  1
  Se  Se50  1  0.909753  0.601321  0.007940  1
  Se  Se51  1  0.409753  0.398679  0.492060  1
  Se  Se52  1  0.345949  0.523725  0.091352  1
  Se  Se53  1  0.845949  0.476275  0.408648  1
  Se  Se54  1  0.654051  0.476275  0.908648  1
  Se  Se55  1  0.154051  0.523725  0.591352  1
  Se  Se56  1  0.172792  0.238493  0.179205  1
  Se  Se57  1  0.672792  0.761507  0.320795  1
  Se  Se58  1  0.827208  0.761507  0.820795  1
  Se  Se59  1  0.327208  0.238493  0.679205  1
  Se  Se60  1  0.414628  0.059505  0.105745  1
  Se  Se61  1  0.914628  0.940495  0.394255  1
  Se  Se62  1  0.585372  0.940495  0.894255  1
  Se  Se63  1  0.085372  0.059505  0.605745  1
