# generated using pymatgen
data_K2Np(SO5)2
_symmetry_space_group_name_H-M   'P 1'
_cell_length_a   8.93981700
_cell_length_b   10.78343325
_cell_length_c   11.75089100
_cell_angle_alpha   110.24968749
_cell_angle_beta   90.00000000
_cell_angle_gamma   90.00000000
_symmetry_Int_Tables_number   1
_chemical_formula_structural   K2Np(SO5)2
_chemical_formula_sum   'K8 Np4 S8 O40'
_cell_volume   1062.79321379
_cell_formula_units_Z   4
loop_
 _symmetry_equiv_pos_site_id
 _symmetry_equiv_pos_as_xyz
  1  'x, y, z'
loop_
 _atom_site_type_symbol
 _atom_site_label
 _atom_site_symmetry_multiplicity
 _atom_site_fract_x
 _atom_site_fract_y
 _atom_site_fract_z
 _atom_site_occupancy
  K  K0  1  0.096440  0.478767  0.203283  1
  K  K1  1  0.596440  0.021233  0.296717  1
  K  K2  1  0.404074  0.715309  0.934105  1
  K  K3  1  0.904074  0.784691  0.565895  1
  K  K4  1  0.903560  0.521233  0.796717  1
  K  K5  1  0.595926  0.284691  0.065895  1
  K  K6  1  0.095926  0.215309  0.434105  1
  K  K7  1  0.403560  0.978767  0.703283  1
  Np  Np8  1  0.515488  0.638192  0.359656  1
  Np  Np9  1  0.984512  0.138192  0.859656  1
  Np  Np10  1  0.015488  0.861808  0.140344  1
  Np  Np11  1  0.484512  0.361808  0.640344  1
  S  S12  1  0.246101  0.586249  0.561598  1
  S  S13  1  0.809527  0.154183  0.632279  1
  S  S14  1  0.753899  0.413751  0.438402  1
  S  S15  1  0.253899  0.086249  0.061598  1
  S  S16  1  0.190473  0.845817  0.367721  1
  S  S17  1  0.309527  0.345817  0.867721  1
  S  S18  1  0.690473  0.654183  0.132279  1
  S  S19  1  0.746101  0.913751  0.938402  1
  O  O20  1  0.632233  0.928101  0.031697  1
  O  O21  1  0.132233  0.571899  0.468303  1
  O  O22  1  0.791510  0.774094  0.173245  1
  O  O23  1  0.803654  0.338403  0.315095  1
  O  O24  1  0.034338  0.797050  0.330170  1
  O  O25  1  0.703681  0.584252  0.002130  1
  O  O26  1  0.227522  0.931262  0.293947  1
  O  O27  1  0.561520  0.521914  0.721770  1
  O  O28  1  0.885444  0.846704  0.966274  1
  O  O29  1  0.592415  0.799120  0.441153  1
  O  O30  1  0.092415  0.700880  0.058847  1
  O  O31  1  0.203681  0.915748  0.497870  1
  O  O32  1  0.534338  0.702950  0.169830  1
  O  O33  1  0.296319  0.415748  0.997870  1
  O  O34  1  0.965662  0.202950  0.669830  1
  O  O35  1  0.796319  0.084252  0.502130  1
  O  O36  1  0.208490  0.225906  0.826755  1
  O  O37  1  0.407585  0.200880  0.558847  1
  O  O38  1  0.272478  0.431262  0.793947  1
  O  O39  1  0.203632  0.947523  0.053778  1
  O  O40  1  0.867767  0.428101  0.531697  1
  O  O41  1  0.703632  0.552477  0.446222  1
  O  O42  1  0.772478  0.068738  0.706053  1
  O  O43  1  0.727522  0.568738  0.206053  1
  O  O44  1  0.696346  0.838403  0.815095  1
  O  O45  1  0.061520  0.978086  0.778230  1
  O  O46  1  0.196346  0.661597  0.684905  1
  O  O47  1  0.614556  0.346704  0.466274  1
  O  O48  1  0.796368  0.052477  0.946222  1
  O  O49  1  0.438480  0.478086  0.278230  1
  O  O50  1  0.303654  0.161597  0.184905  1
  O  O51  1  0.291510  0.725906  0.326755  1
  O  O52  1  0.938480  0.021914  0.221770  1
  O  O53  1  0.114556  0.153296  0.033726  1
  O  O54  1  0.708490  0.274094  0.673245  1
  O  O55  1  0.367767  0.071900  0.968303  1
  O  O56  1  0.385444  0.653296  0.533726  1
  O  O57  1  0.465662  0.297050  0.830170  1
  O  O58  1  0.907585  0.299120  0.941153  1
  O  O59  1  0.296368  0.447523  0.553778  1
