# generated using pymatgen
data_Yb2Tc3Ge4
_symmetry_space_group_name_H-M   'P 1'
_cell_length_a   8.27955400
_cell_length_b   5.65387823
_cell_length_c   7.03929303
_cell_angle_alpha   75.48344940
_cell_angle_beta   90.00000000
_cell_angle_gamma   90.00000000
_symmetry_Int_Tables_number   1
_chemical_formula_structural   Yb2Tc3Ge4
_chemical_formula_sum   'Yb4 Tc6 Ge8'
_cell_volume   319.00064855
_cell_formula_units_Z   2
loop_
 _symmetry_equiv_pos_site_id
 _symmetry_equiv_pos_as_xyz
  1  'x, y, z'
loop_
 _atom_site_type_symbol
 _atom_site_label
 _atom_site_symmetry_multiplicity
 _atom_site_fract_x
 _atom_site_fract_y
 _atom_site_fract_z
 _atom_site_occupancy
  Yb  Yb0  1  0.550952  0.074466  0.246977  1
  Yb  Yb1  1  0.050952  0.425534  0.753023  1
  Yb  Yb2  1  0.449048  0.925534  0.753023  1
  Yb  Yb3  1  0.949048  0.574466  0.246977  1
  Tc  Tc4  1  0.202688  0.112981  0.114707  1
  Tc  Tc5  1  0.702688  0.387019  0.885293  1
  Tc  Tc6  1  0.797312  0.887019  0.885293  1
  Tc  Tc7  1  0.297312  0.612981  0.114707  1
  Tc  Tc8  1  0.000000  0.000000  0.500000  1
  Tc  Tc9  1  0.500000  0.500000  0.500000  1
  Ge  Ge10  1  0.898462  0.120188  0.131342  1
  Ge  Ge11  1  0.398462  0.379812  0.868658  1
  Ge  Ge12  1  0.101538  0.879812  0.868658  1
  Ge  Ge13  1  0.601538  0.620188  0.131342  1
  Ge  Ge14  1  0.747735  0.221588  0.575468  1
  Ge  Ge15  1  0.247735  0.278412  0.424532  1
  Ge  Ge16  1  0.252265  0.778412  0.424532  1
  Ge  Ge17  1  0.752265  0.721588  0.575468  1
