# generated using pymatgen
data_Y16AgHg3Pt4
_symmetry_space_group_name_H-M   'P 1'
_cell_length_a   9.66890760
_cell_length_b   9.67849312
_cell_length_c   9.67849300
_cell_angle_alpha   60.00000384
_cell_angle_beta   59.96720396
_cell_angle_gamma   59.96721081
_symmetry_Int_Tables_number   1
_chemical_formula_structural   Y16AgHg3Pt4
_chemical_formula_sum   'Y16 Ag1 Hg3 Pt4'
_cell_volume   640.12158286
_cell_formula_units_Z   1
loop_
 _symmetry_equiv_pos_site_id
 _symmetry_equiv_pos_as_xyz
  1  'x, y, z'
loop_
 _atom_site_type_symbol
 _atom_site_label
 _atom_site_symmetry_multiplicity
 _atom_site_fract_x
 _atom_site_fract_y
 _atom_site_fract_z
 _atom_site_occupancy
  Y  Y0  1  0.355937  0.354791  0.354791  1
  Y  Y1  1  0.355937  0.354791  0.934482  1
  Y  Y2  1  0.355937  0.934482  0.354791  1
  Y  Y3  1  0.934177  0.355275  0.355275  1
  Y  Y4  1  0.810142  0.189409  0.189409  1
  Y  Y5  1  0.188577  0.811016  0.811016  1
  Y  Y6  1  0.188577  0.811016  0.189392  1
  Y  Y7  1  0.810142  0.189409  0.811041  1
  Y  Y8  1  0.188577  0.189392  0.811016  1
  Y  Y9  1  0.810142  0.811041  0.189409  1
  Y  Y10  1  0.936033  0.564782  0.564782  1
  Y  Y11  1  0.563550  0.935959  0.935959  1
  Y  Y12  1  0.563550  0.935959  0.564532  1
  Y  Y13  1  0.936033  0.564782  0.934402  1
  Y  Y14  1  0.563550  0.564532  0.935959  1
  Y  Y15  1  0.936033  0.934402  0.564782  1
  Ag  Ag16  1  0.251429  0.582856  0.582856  1
  Hg  Hg17  1  0.584715  0.587154  0.587154  1
  Hg  Hg18  1  0.584715  0.587154  0.240978  1
  Hg  Hg19  1  0.584715  0.240978  0.587154  1
  Pt  Pt20  1  0.143471  0.144047  0.144047  1
  Pt  Pt21  1  0.143471  0.144047  0.568436  1
  Pt  Pt22  1  0.143471  0.568436  0.144047  1
  Pt  Pt23  1  0.567123  0.144292  0.144292  1
