# generated using pymatgen
data_Ca3CuAs2H
_symmetry_space_group_name_H-M   'P 1'
_cell_length_a   4.23144300
_cell_length_b   11.39052800
_cell_length_c   11.92627900
_cell_angle_alpha   90.00000000
_cell_angle_beta   90.00000000
_cell_angle_gamma   90.00000000
_symmetry_Int_Tables_number   1
_chemical_formula_structural   Ca3CuAs2H
_chemical_formula_sum   'Ca12 Cu4 As8 H4'
_cell_volume   574.82720763
_cell_formula_units_Z   4
loop_
 _symmetry_equiv_pos_site_id
 _symmetry_equiv_pos_as_xyz
  1  'x, y, z'
loop_
 _atom_site_type_symbol
 _atom_site_label
 _atom_site_symmetry_multiplicity
 _atom_site_fract_x
 _atom_site_fract_y
 _atom_site_fract_z
 _atom_site_occupancy
  Ca  Ca0  1  0.250000  0.062775  0.622251  1
  Ca  Ca1  1  0.250000  0.562775  0.877749  1
  Ca  Ca2  1  0.750000  0.937225  0.377749  1
  Ca  Ca3  1  0.750000  0.437225  0.122251  1
  Ca  Ca4  1  0.250000  0.369158  0.556385  1
  Ca  Ca5  1  0.250000  0.869158  0.943615  1
  Ca  Ca6  1  0.750000  0.630842  0.443615  1
  Ca  Ca7  1  0.750000  0.130842  0.056385  1
  Ca  Ca8  1  0.250000  0.210186  0.296290  1
  Ca  Ca9  1  0.250000  0.710186  0.203710  1
  Ca  Ca10  1  0.750000  0.789814  0.703710  1
  Ca  Ca11  1  0.750000  0.289814  0.796290  1
  Cu  Cu12  1  0.250000  0.131728  0.861896  1
  Cu  Cu13  1  0.250000  0.631728  0.638104  1
  Cu  Cu14  1  0.750000  0.868272  0.138104  1
  Cu  Cu15  1  0.750000  0.368272  0.361896  1
  As  As16  1  0.250000  0.478307  0.321585  1
  As  As17  1  0.250000  0.978307  0.178415  1
  As  As18  1  0.750000  0.521693  0.678415  1
  As  As19  1  0.750000  0.021693  0.821585  1
  As  As20  1  0.250000  0.313186  0.985539  1
  As  As21  1  0.250000  0.813186  0.514461  1
  As  As22  1  0.750000  0.686814  0.014461  1
  As  As23  1  0.750000  0.186814  0.485539  1
  H  H24  1  0.250000  0.237154  0.722159  1
  H  H25  1  0.250000  0.737154  0.777841  1
  H  H26  1  0.750000  0.762846  0.277841  1
  H  H27  1  0.750000  0.262846  0.222159  1
