# generated using pymatgen
data_Pr3Lu5(P7Ir8)2
_symmetry_space_group_name_H-M   'P 1'
_cell_length_a   3.94255100
_cell_length_b   12.77023327
_cell_length_c   13.11378251
_cell_angle_alpha   80.99789396
_cell_angle_beta   90.00000000
_cell_angle_gamma   90.00000000
_symmetry_Int_Tables_number   1
_chemical_formula_structural   Pr3Lu5(P7Ir8)2
_chemical_formula_sum   'Pr3 Lu5 P14 Ir16'
_cell_volume   652.11099889
_cell_formula_units_Z   1
loop_
 _symmetry_equiv_pos_site_id
 _symmetry_equiv_pos_as_xyz
  1  'x, y, z'
loop_
 _atom_site_type_symbol
 _atom_site_label
 _atom_site_symmetry_multiplicity
 _atom_site_fract_x
 _atom_site_fract_y
 _atom_site_fract_z
 _atom_site_occupancy
  Pr  Pr0  1  0.250000  0.105990  0.787152  1
  Pr  Pr1  1  0.750000  0.893739  0.213712  1
  Pr  Pr2  1  0.250000  0.278913  0.100684  1
  Lu  Lu3  1  0.750000  0.793248  0.559132  1
  Lu  Lu4  1  0.250000  0.208168  0.440860  1
  Lu  Lu5  1  0.750000  0.479526  0.706643  1
  Lu  Lu6  1  0.250000  0.521124  0.294559  1
  Lu  Lu7  1  0.750000  0.718601  0.898004  1
  P  P8  1  0.250000  0.906591  0.412924  1
  P  P9  1  0.750000  0.472666  0.129681  1
  P  P10  1  0.250000  0.528580  0.869880  1
  P  P11  1  0.750000  0.094012  0.587070  1
  P  P12  1  0.250000  0.740027  0.079516  1
  P  P13  1  0.750000  0.255564  0.915609  1
  P  P14  1  0.750000  0.160514  0.285266  1
  P  P15  1  0.250000  0.841370  0.716429  1
  P  P16  1  0.250000  0.049447  0.100410  1
  P  P17  1  0.750000  0.942544  0.899761  1
  P  P18  1  0.250000  0.318389  0.685985  1
  P  P19  1  0.750000  0.681719  0.313655  1
  P  P20  1  0.250000  0.609453  0.569438  1
  P  P21  1  0.750000  0.393104  0.433216  1
  Ir  Ir22  1  0.250000  0.991376  0.575978  1
  Ir  Ir23  1  0.750000  0.009076  0.424729  1
  Ir  Ir24  1  0.250000  0.662454  0.731890  1
  Ir  Ir25  1  0.750000  0.341616  0.272719  1
  Ir  Ir26  1  0.250000  0.551960  0.048281  1
  Ir  Ir27  1  0.750000  0.453987  0.947704  1
  Ir  Ir28  1  0.250000  0.066024  0.274348  1
  Ir  Ir29  1  0.750000  0.932957  0.726413  1
  Ir  Ir30  1  0.250000  0.423198  0.520767  1
  Ir  Ir31  1  0.750000  0.579142  0.481294  1
  Ir  Ir32  1  0.250000  0.911693  0.996748  1
  Ir  Ir33  1  0.750000  0.082582  0.001006  1
  Ir  Ir34  1  0.250000  0.727805  0.398671  1
  Ir  Ir35  1  0.750000  0.272713  0.601209  1
  Ir  Ir36  1  0.250000  0.344539  0.855249  1
  Ir  Ir37  1  0.750000  0.655587  0.143409  1
