# generated using pymatgen
data_SmYNi2(SnH)2
_symmetry_space_group_name_H-M   'P 1'
_cell_length_a   4.29362700
_cell_length_b   7.14255412
_cell_length_c   8.35679813
_cell_angle_alpha   90.02095437
_cell_angle_beta   90.00000000
_cell_angle_gamma   90.00000000
_symmetry_Int_Tables_number   1
_chemical_formula_structural   SmYNi2(SnH)2
_chemical_formula_sum   'Sm2 Y2 Ni4 Sn4 H4'
_cell_volume   256.28178242
_cell_formula_units_Z   2
loop_
 _symmetry_equiv_pos_site_id
 _symmetry_equiv_pos_as_xyz
  1  'x, y, z'
loop_
 _atom_site_type_symbol
 _atom_site_label
 _atom_site_symmetry_multiplicity
 _atom_site_fract_x
 _atom_site_fract_y
 _atom_site_fract_z
 _atom_site_occupancy
  Sm  Sm0  1  0.250000  0.485101  0.187740  1
  Sm  Sm1  1  0.750000  0.514899  0.812260  1
  Y  Y2  1  0.750000  0.014704  0.686074  1
  Y  Y3  1  0.250000  0.985296  0.313926  1
  Ni  Ni4  1  0.750000  0.779102  0.108222  1
  Ni  Ni5  1  0.250000  0.220898  0.891778  1
  Ni  Ni6  1  0.250000  0.727601  0.602889  1
  Ni  Ni7  1  0.750000  0.272399  0.397111  1
  Sn  Sn8  1  0.750000  0.657737  0.429889  1
  Sn  Sn9  1  0.250000  0.342263  0.570111  1
  Sn  Sn10  1  0.250000  0.843735  0.929569  1
  Sn  Sn11  1  0.750000  0.156265  0.070431  1
  H  H12  1  0.250000  0.443217  0.919163  1
  H  H13  1  0.750000  0.556783  0.080837  1
  H  H14  1  0.750000  0.050994  0.421645  1
  H  H15  1  0.250000  0.949006  0.578355  1
