# generated using pymatgen
data_KMoOF4
_symmetry_space_group_name_H-M   'P 1'
_cell_length_a   14.24762500
_cell_length_b   5.66013432
_cell_length_c   5.94699436
_cell_angle_alpha   86.45562689
_cell_angle_beta   90.00000000
_cell_angle_gamma   90.00000000
_symmetry_Int_Tables_number   1
_chemical_formula_structural   KMoOF4
_chemical_formula_sum   'K4 Mo4 O4 F16'
_cell_volume   478.66892579
_cell_formula_units_Z   4
loop_
 _symmetry_equiv_pos_site_id
 _symmetry_equiv_pos_as_xyz
  1  'x, y, z'
loop_
 _atom_site_type_symbol
 _atom_site_label
 _atom_site_symmetry_multiplicity
 _atom_site_fract_x
 _atom_site_fract_y
 _atom_site_fract_z
 _atom_site_occupancy
  K  K0  1  0.878977  0.462747  0.713706  1
  K  K1  1  0.621023  0.962747  0.713706  1
  K  K2  1  0.121023  0.537253  0.286294  1
  K  K3  1  0.378977  0.037253  0.286294  1
  Mo  Mo4  1  0.648492  0.439077  0.216357  1
  Mo  Mo5  1  0.851508  0.939077  0.216357  1
  Mo  Mo6  1  0.351508  0.560923  0.783643  1
  Mo  Mo7  1  0.148492  0.060923  0.783643  1
  O  O8  1  0.587737  0.672607  0.308746  1
  O  O9  1  0.412263  0.327393  0.691254  1
  O  O10  1  0.912263  0.172607  0.308746  1
  O  O11  1  0.087737  0.827393  0.691254  1
  F  F12  1  0.390926  0.568607  0.099873  1
  F  F13  1  0.060397  0.321358  0.704884  1
  F  F14  1  0.237462  0.372543  0.911552  1
  F  F15  1  0.778924  0.829822  0.486393  1
  F  F16  1  0.278924  0.670178  0.513607  1
  F  F17  1  0.109074  0.068607  0.099873  1
  F  F18  1  0.262538  0.872543  0.911552  1
  F  F19  1  0.721076  0.329822  0.486393  1
  F  F20  1  0.890926  0.931393  0.900126  1
  F  F21  1  0.439603  0.821358  0.704884  1
  F  F22  1  0.737462  0.127457  0.088448  1
  F  F23  1  0.939603  0.678642  0.295116  1
  F  F24  1  0.560397  0.178642  0.295116  1
  F  F25  1  0.762538  0.627457  0.088448  1
  F  F26  1  0.221076  0.170178  0.513607  1
  F  F27  1  0.609074  0.431393  0.900126  1
