# generated using pymatgen
data_Ca3U(Re2Si)8
_symmetry_space_group_name_H-M   'P 1'
_cell_length_a   4.14607700
_cell_length_b   7.27029051
_cell_length_c   15.47208401
_cell_angle_alpha   90.18386691
_cell_angle_beta   90.00000000
_cell_angle_gamma   90.00000000
_symmetry_Int_Tables_number   1
_chemical_formula_structural   Ca3U(Re2Si)8
_chemical_formula_sum   'Ca3 U1 Re16 Si8'
_cell_volume   466.37547800
_cell_formula_units_Z   1
loop_
 _symmetry_equiv_pos_site_id
 _symmetry_equiv_pos_as_xyz
  1  'x, y, z'
loop_
 _atom_site_type_symbol
 _atom_site_label
 _atom_site_symmetry_multiplicity
 _atom_site_fract_x
 _atom_site_fract_y
 _atom_site_fract_z
 _atom_site_occupancy
  Ca  Ca0  1  0.000000  0.576207  0.119298  1
  Ca  Ca1  1  0.000000  0.421671  0.881756  1
  Ca  Ca2  1  0.500000  0.075755  0.379145  1
  U  U3  1  0.500000  0.917371  0.617053  1
  Re  Re4  1  0.000000  0.139286  0.051662  1
  Re  Re5  1  0.000000  0.861333  0.947761  1
  Re  Re6  1  0.500000  0.645003  0.452423  1
  Re  Re7  1  0.500000  0.355820  0.551654  1
  Re  Re8  1  0.000000  0.732757  0.321236  1
  Re  Re9  1  0.000000  0.260943  0.676423  1
  Re  Re10  1  0.500000  0.233926  0.180040  1
  Re  Re11  1  0.500000  0.769817  0.820134  1
  Re  Re12  1  0.000000  0.433226  0.419612  1
  Re  Re13  1  0.000000  0.578869  0.582170  1
  Re  Re14  1  0.500000  0.934097  0.081505  1
  Re  Re15  1  0.500000  0.068340  0.918106  1
  Re  Re16  1  0.000000  0.987570  0.206242  1
  Re  Re17  1  0.000000  0.010398  0.792849  1
  Re  Re18  1  0.500000  0.489515  0.295661  1
  Re  Re19  1  0.500000  0.512436  0.704206  1
  Si  Si20  1  0.000000  0.836701  0.475355  1
  Si  Si21  1  0.000000  0.165228  0.521840  1
  Si  Si22  1  0.500000  0.332971  0.024225  1
  Si  Si23  1  0.500000  0.668351  0.976412  1
  Si  Si24  1  0.000000  0.287107  0.276101  1
  Si  Si25  1  0.000000  0.705959  0.728362  1
  Si  Si26  1  0.500000  0.786942  0.224369  1
  Si  Si27  1  0.500000  0.212396  0.774398  1
