# generated using pymatgen
data_Y6Er14Cd6OsRu
_symmetry_space_group_name_H-M   'P 1'
_cell_length_a   9.55835400
_cell_length_b   9.55844575
_cell_length_c   9.79590800
_cell_angle_alpha   90.00000000
_cell_angle_beta   90.00000000
_cell_angle_gamma   120.00009394
_symmetry_Int_Tables_number   1
_chemical_formula_structural   Y6Er14Cd6OsRu
_chemical_formula_sum   'Y6 Er14 Cd6 Os1 Ru1'
_cell_volume   775.07781905
_cell_formula_units_Z   1
loop_
 _symmetry_equiv_pos_site_id
 _symmetry_equiv_pos_as_xyz
  1  'x, y, z'
loop_
 _atom_site_type_symbol
 _atom_site_label
 _atom_site_symmetry_multiplicity
 _atom_site_fract_x
 _atom_site_fract_y
 _atom_site_fract_z
 _atom_site_occupancy
  Y  Y0  1  0.539731  0.460275  0.250000  1
  Y  Y1  1  0.539727  0.079455  0.250000  1
  Y  Y2  1  0.920540  0.460271  0.250000  1
  Y  Y3  1  0.459028  0.540968  0.750000  1
  Y  Y4  1  0.459033  0.918064  0.750000  1
  Y  Y5  1  0.081942  0.540971  0.750000  1
  Er  Er6  1  0.000001  0.000000  0.499713  1
  Er  Er7  1  0.000001  0.000000  0.000287  1
  Er  Er8  1  0.209863  0.790136  0.440560  1
  Er  Er9  1  0.209864  0.419730  0.440561  1
  Er  Er10  1  0.580270  0.790136  0.440561  1
  Er  Er11  1  0.790037  0.209962  0.559916  1
  Er  Er12  1  0.790036  0.580072  0.559915  1
  Er  Er13  1  0.419928  0.209964  0.559913  1
  Er  Er14  1  0.790037  0.209962  0.940084  1
  Er  Er15  1  0.790036  0.580072  0.940085  1
  Er  Er16  1  0.419928  0.209964  0.940087  1
  Er  Er17  1  0.209863  0.790136  0.059440  1
  Er  Er18  1  0.209864  0.419730  0.059439  1
  Er  Er19  1  0.580270  0.790136  0.059439  1
  Cd  Cd20  1  0.885548  0.114445  0.250000  1
  Cd  Cd21  1  0.885553  0.771104  0.250000  1
  Cd  Cd22  1  0.228898  0.114448  0.250000  1
  Cd  Cd23  1  0.114489  0.885517  0.750000  1
  Cd  Cd24  1  0.114490  0.228971  0.750000  1
  Cd  Cd25  1  0.771024  0.885509  0.750000  1
  Os  Os26  1  0.333332  0.666668  0.250000  1
  Ru  Ru27  1  0.666669  0.333331  0.750000  1
