# generated using pymatgen
data_Y5Cr3(P3Rh4)4
_symmetry_space_group_name_H-M   'P 1'
_cell_length_a   12.72871400
_cell_length_b   12.72871341
_cell_length_c   3.90364700
_cell_angle_alpha   90.00000000
_cell_angle_beta   90.00000000
_cell_angle_gamma   120.00000153
_symmetry_Int_Tables_number   1
_chemical_formula_structural   Y5Cr3(P3Rh4)4
_chemical_formula_sum   'Y5 Cr3 P12 Rh16'
_cell_volume   547.73463055
_cell_formula_units_Z   1
loop_
 _symmetry_equiv_pos_site_id
 _symmetry_equiv_pos_as_xyz
  1  'x, y, z'
loop_
 _atom_site_type_symbol
 _atom_site_label
 _atom_site_symmetry_multiplicity
 _atom_site_fract_x
 _atom_site_fract_y
 _atom_site_fract_z
 _atom_site_occupancy
  Y  Y0  1  0.188992  0.188992  0.500000  1
  Y  Y1  1  0.811008  0.000000  0.500000  1
  Y  Y2  1  0.000000  0.811008  0.500000  1
  Y  Y3  1  0.333333  0.666667  0.000000  1
  Y  Y4  1  0.666667  0.333333  0.000000  1
  Cr  Cr5  1  0.549477  0.549477  0.000000  1
  Cr  Cr6  1  0.450523  0.000000  0.000000  1
  Cr  Cr7  1  0.000000  0.450523  0.000000  1
  P  P8  1  0.822516  0.822516  0.000000  1
  P  P9  1  0.177484  0.000000  0.000000  1
  P  P10  1  0.000000  0.177484  0.000000  1
  P  P11  1  0.166095  0.482592  0.500000  1
  P  P12  1  0.517408  0.683502  0.500000  1
  P  P13  1  0.316498  0.833905  0.500000  1
  P  P14  1  0.683502  0.517408  0.500000  1
  P  P15  1  0.833905  0.316498  0.500000  1
  P  P16  1  0.482592  0.166095  0.500000  1
  P  P17  1  0.363247  0.363247  0.000000  1
  P  P18  1  0.636753  0.000000  0.000000  1
  P  P19  1  0.000000  0.636753  0.000000  1
  Rh  Rh20  1  0.716950  0.716950  0.500000  1
  Rh  Rh21  1  0.283050  0.000000  0.500000  1
  Rh  Rh22  1  0.000000  0.283050  0.500000  1
  Rh  Rh23  1  0.177998  0.376226  0.000000  1
  Rh  Rh24  1  0.623774  0.801771  0.000000  1
  Rh  Rh25  1  0.198229  0.822002  0.000000  1
  Rh  Rh26  1  0.801771  0.623774  0.000000  1
  Rh  Rh27  1  0.822002  0.198229  0.000000  1
  Rh  Rh28  1  0.376226  0.177998  0.000000  1
  Rh  Rh29  1  0.358447  0.488117  0.500000  1
  Rh  Rh30  1  0.511883  0.870331  0.500000  1
  Rh  Rh31  1  0.129669  0.641553  0.500000  1
  Rh  Rh32  1  0.870331  0.511883  0.500000  1
  Rh  Rh33  1  0.641553  0.129669  0.500000  1
  Rh  Rh34  1  0.488117  0.358447  0.500000  1
  Rh  Rh35  1  0.000000  0.000000  0.000000  1
