# generated using pymatgen
data_Sc8Co2BiTe3
_symmetry_space_group_name_H-M   'P 1'
_cell_length_a   8.23694382
_cell_length_b   8.23694332
_cell_length_c   8.20949708
_cell_angle_alpha   96.35720793
_cell_angle_beta   96.35720348
_cell_angle_gamma   141.19510160
_symmetry_Int_Tables_number   1
_chemical_formula_structural   Sc8Co2BiTe3
_chemical_formula_sum   'Sc8 Co2 Bi1 Te3'
_cell_volume   329.09038364
_cell_formula_units_Z   1
loop_
 _symmetry_equiv_pos_site_id
 _symmetry_equiv_pos_as_xyz
  1  'x, y, z'
loop_
 _atom_site_type_symbol
 _atom_site_label
 _atom_site_symmetry_multiplicity
 _atom_site_fract_x
 _atom_site_fract_y
 _atom_site_fract_z
 _atom_site_occupancy
  Sc  Sc0  1  0.690041  0.577742  0.267783  1
  Sc  Sc1  1  0.578843  0.309463  0.888306  1
  Sc  Sc2  1  0.077742  0.190041  0.267783  1
  Sc  Sc3  1  0.921076  0.807869  0.728945  1
  Sc  Sc4  1  0.190813  0.920010  0.110823  1
  Sc  Sc5  1  0.809463  0.078843  0.888306  1
  Sc  Sc6  1  0.307869  0.421076  0.728945  1
  Sc  Sc7  1  0.420010  0.690813  0.110823  1
  Co  Co8  1  0.248590  0.248590  0.997180  1
  Co  Co9  1  0.748590  0.748590  0.997180  1
  Bi  Bi10  1  0.860124  0.360124  0.220247  1
  Te  Te11  1  0.146556  0.646556  0.793115  1
  Te  Te12  1  0.351061  0.149222  0.500283  1
  Te  Te13  1  0.649222  0.851061  0.500283  1
