# generated using pymatgen
data_CsInH2
_symmetry_space_group_name_H-M   'P 1'
_cell_length_a   5.09643200
_cell_length_b   8.19038000
_cell_length_c   10.46963700
_cell_angle_alpha   90.00000000
_cell_angle_beta   90.00000000
_cell_angle_gamma   90.00000000
_symmetry_Int_Tables_number   1
_chemical_formula_structural   CsInH2
_chemical_formula_sum   'Cs4 In4 H8'
_cell_volume   437.02060092
_cell_formula_units_Z   4
loop_
 _symmetry_equiv_pos_site_id
 _symmetry_equiv_pos_as_xyz
  1  'x, y, z'
loop_
 _atom_site_type_symbol
 _atom_site_label
 _atom_site_symmetry_multiplicity
 _atom_site_fract_x
 _atom_site_fract_y
 _atom_site_fract_z
 _atom_site_occupancy
  Cs  Cs0  1  0.750000  0.381167  0.672881  1
  Cs  Cs1  1  0.750000  0.881167  0.827119  1
  Cs  Cs2  1  0.250000  0.118833  0.172881  1
  Cs  Cs3  1  0.250000  0.618833  0.327119  1
  In  In4  1  0.250000  0.064987  0.535282  1
  In  In5  1  0.250000  0.564987  0.964718  1
  In  In6  1  0.750000  0.435013  0.035282  1
  In  In7  1  0.750000  0.935013  0.464718  1
  H  H8  1  0.750000  0.717677  0.517870  1
  H  H9  1  0.250000  0.104567  0.708631  1
  H  H10  1  0.250000  0.604567  0.791369  1
  H  H11  1  0.750000  0.217677  0.982130  1
  H  H12  1  0.250000  0.782323  0.017870  1
  H  H13  1  0.750000  0.395433  0.208631  1
  H  H14  1  0.750000  0.895433  0.291369  1
  H  H15  1  0.250000  0.282323  0.482130  1
