# generated using pymatgen
data_Lu12Si12OsRh3
_symmetry_space_group_name_H-M   'P 1'
_cell_length_a   4.17196500
_cell_length_b   10.48936826
_cell_length_c   12.07397317
_cell_angle_alpha   90.05767308
_cell_angle_beta   90.00000000
_cell_angle_gamma   90.00000000
_symmetry_Int_Tables_number   1
_chemical_formula_structural   Lu12Si12OsRh3
_chemical_formula_sum   'Lu12 Si12 Os1 Rh3'
_cell_volume   528.37222000
_cell_formula_units_Z   1
loop_
 _symmetry_equiv_pos_site_id
 _symmetry_equiv_pos_as_xyz
  1  'x, y, z'
loop_
 _atom_site_type_symbol
 _atom_site_label
 _atom_site_symmetry_multiplicity
 _atom_site_fract_x
 _atom_site_fract_y
 _atom_site_fract_z
 _atom_site_occupancy
  Lu  Lu0  1  0.250000  0.878171  0.020186  1
  Lu  Lu1  1  0.250000  0.619610  0.521579  1
  Lu  Lu2  1  0.750000  0.120287  0.978938  1
  Lu  Lu3  1  0.750000  0.378994  0.480575  1
  Lu  Lu4  1  0.250000  0.920981  0.603143  1
  Lu  Lu5  1  0.250000  0.579652  0.103986  1
  Lu  Lu6  1  0.750000  0.079201  0.396499  1
  Lu  Lu7  1  0.750000  0.420914  0.896307  1
  Lu  Lu8  1  0.250000  0.661394  0.799129  1
  Lu  Lu9  1  0.250000  0.838776  0.300186  1
  Lu  Lu10  1  0.750000  0.340242  0.199405  1
  Lu  Lu11  1  0.750000  0.160266  0.700096  1
  Si  Si12  1  0.250000  0.014400  0.822090  1
  Si  Si13  1  0.250000  0.485852  0.321729  1
  Si  Si14  1  0.750000  0.985140  0.178034  1
  Si  Si15  1  0.750000  0.511485  0.680012  1
  Si  Si16  1  0.250000  0.249816  0.840193  1
  Si  Si17  1  0.250000  0.251328  0.342035  1
  Si  Si18  1  0.750000  0.750745  0.158193  1
  Si  Si19  1  0.750000  0.749704  0.657624  1
  Si  Si20  1  0.250000  0.200498  0.545312  1
  Si  Si21  1  0.250000  0.301948  0.042722  1
  Si  Si22  1  0.750000  0.802724  0.456642  1
  Si  Si23  1  0.750000  0.696277  0.956088  1
  Os  Os24  1  0.250000  0.391985  0.678568  1
  Rh  Rh25  1  0.250000  0.108620  0.180053  1
  Rh  Rh26  1  0.750000  0.609661  0.320997  1
  Rh  Rh27  1  0.750000  0.891328  0.819681  1
