# generated using pymatgen
data_Li2CaTbPd2
_symmetry_space_group_name_H-M   'P 1'
_cell_length_a   4.10457900
_cell_length_b   7.19650721
_cell_length_c   8.53026248
_cell_angle_alpha   90.76291190
_cell_angle_beta   90.00000000
_cell_angle_gamma   90.00000000
_symmetry_Int_Tables_number   1
_chemical_formula_structural   Li2CaTbPd2
_chemical_formula_sum   'Li4 Ca2 Tb2 Pd4'
_cell_volume   251.94995080
_cell_formula_units_Z   2
loop_
 _symmetry_equiv_pos_site_id
 _symmetry_equiv_pos_as_xyz
  1  'x, y, z'
loop_
 _atom_site_type_symbol
 _atom_site_label
 _atom_site_symmetry_multiplicity
 _atom_site_fract_x
 _atom_site_fract_y
 _atom_site_fract_z
 _atom_site_occupancy
  Li  Li0  1  0.250000  0.629336  0.439709  1
  Li  Li1  1  0.750000  0.370664  0.560291  1
  Li  Li2  1  0.250000  0.132274  0.054559  1
  Li  Li3  1  0.750000  0.867726  0.945441  1
  Ca  Ca4  1  0.250000  0.540463  0.817735  1
  Ca  Ca5  1  0.750000  0.459537  0.182265  1
  Tb  Tb6  1  0.250000  0.038064  0.680091  1
  Tb  Tb7  1  0.750000  0.961936  0.319909  1
  Pd  Pd8  1  0.750000  0.760162  0.614543  1
  Pd  Pd9  1  0.250000  0.239838  0.385457  1
  Pd  Pd10  1  0.750000  0.234207  0.867625  1
  Pd  Pd11  1  0.250000  0.765793  0.132375  1
