# generated using pymatgen
data_Er3MgCd2C
_symmetry_space_group_name_H-M   'P 1'
_cell_length_a   9.43893604
_cell_length_b   9.43893247
_cell_length_c   9.43893000
_cell_angle_alpha   59.99984043
_cell_angle_beta   59.99969172
_cell_angle_gamma   59.99976343
_symmetry_Int_Tables_number   1
_chemical_formula_structural   Er3MgCd2C
_chemical_formula_sum   'Er12 Mg4 Cd8 C4'
_cell_volume   594.63624520
_cell_formula_units_Z   4
loop_
 _symmetry_equiv_pos_site_id
 _symmetry_equiv_pos_as_xyz
  1  'x, y, z'
loop_
 _atom_site_type_symbol
 _atom_site_label
 _atom_site_symmetry_multiplicity
 _atom_site_fract_x
 _atom_site_fract_y
 _atom_site_fract_z
 _atom_site_occupancy
  Er  Er0  1  0.437933  0.437930  0.062063  1
  Er  Er1  1  0.062066  0.437898  0.062104  1
  Er  Er2  1  0.437900  0.062075  0.062087  1
  Er  Er3  1  0.062063  0.062089  0.437900  1
  Er  Er4  1  0.437941  0.062079  0.437923  1
  Er  Er5  1  0.062064  0.437935  0.437941  1
  Er  Er6  1  0.812070  0.812059  0.187930  1
  Er  Er7  1  0.187914  0.812118  0.187879  1
  Er  Er8  1  0.812108  0.187903  0.187929  1
  Er  Er9  1  0.187943  0.187930  0.812098  1
  Er  Er10  1  0.812086  0.187922  0.812088  1
  Er  Er11  1  0.187953  0.812057  0.812058  1
  Mg  Mg12  1  0.624907  0.624881  0.125024  1
  Mg  Mg13  1  0.624989  0.124981  0.625143  1
  Mg  Mg14  1  0.124937  0.625082  0.624984  1
  Mg  Mg15  1  0.625093  0.625114  0.624785  1
  Cd  Cd16  1  0.832224  0.832256  0.503267  1
  Cd  Cd17  1  0.832201  0.503297  0.832233  1
  Cd  Cd18  1  0.503264  0.832209  0.832267  1
  Cd  Cd19  1  0.832225  0.832255  0.832278  1
  Cd  Cd20  1  0.417774  0.417769  0.746727  1
  Cd  Cd21  1  0.417808  0.746698  0.417766  1
  Cd  Cd22  1  0.746756  0.417787  0.417737  1
  Cd  Cd23  1  0.417758  0.417692  0.417778  1
  C  C24  1  0.125006  0.124987  0.625007  1
  C  C25  1  0.125007  0.625007  0.125002  1
  C  C26  1  0.625010  0.124998  0.125001  1
  C  C27  1  0.125003  0.124994  0.125000  1
