# generated using pymatgen
data_Tb10Ho2Ga9Si9Ge2
_symmetry_space_group_name_H-M   'P 1'
_cell_length_a   5.99316901
_cell_length_b   5.99317628
_cell_length_c   18.70423800
_cell_angle_alpha   90.00000000
_cell_angle_beta   90.00000000
_cell_angle_gamma   102.78730915
_symmetry_Int_Tables_number   1
_chemical_formula_structural   Tb10Ho2Ga9Si9Ge2
_chemical_formula_sum   'Tb10 Ho2 Ga9 Si9 Ge2'
_cell_volume   655.15880040
_cell_formula_units_Z   1
loop_
 _symmetry_equiv_pos_site_id
 _symmetry_equiv_pos_as_xyz
  1  'x, y, z'
loop_
 _atom_site_type_symbol
 _atom_site_label
 _atom_site_symmetry_multiplicity
 _atom_site_fract_x
 _atom_site_fract_y
 _atom_site_fract_z
 _atom_site_occupancy
  Tb  Tb0  1  0.339034  0.339033  0.250423  1
  Tb  Tb1  1  0.339034  0.339033  0.749577  1
  Tb  Tb2  1  0.201121  0.801426  0.128216  1
  Tb  Tb3  1  0.199378  0.801392  0.624927  1
  Tb  Tb4  1  0.201121  0.801426  0.871784  1
  Tb  Tb5  1  0.199378  0.801392  0.375073  1
  Tb  Tb6  1  0.801426  0.201121  0.128216  1
  Tb  Tb7  1  0.801392  0.199380  0.624927  1
  Tb  Tb8  1  0.801392  0.199380  0.375073  1
  Tb  Tb9  1  0.801426  0.201121  0.871784  1
  Ho  Ho10  1  0.653842  0.653839  0.000000  1
  Ho  Ho11  1  0.663135  0.663138  0.500000  1
  Ga  Ga12  1  0.317667  0.317667  0.902913  1
  Ga  Ga13  1  0.323899  0.323900  0.402789  1
  Ga  Ga14  1  0.677804  0.677804  0.348278  1
  Ga  Ga15  1  0.677811  0.677812  0.847912  1
  Ga  Ga16  1  0.317667  0.317667  0.097087  1
  Ga  Ga17  1  0.323899  0.323900  0.597211  1
  Ga  Ga18  1  0.677811  0.677812  0.152088  1
  Ga  Ga19  1  0.677804  0.677804  0.651722  1
  Ga  Ga20  1  0.038900  0.038900  0.000000  1
  Si  Si21  1  0.482280  0.088387  0.500000  1
  Si  Si22  1  0.911333  0.519962  0.250689  1
  Si  Si23  1  0.911333  0.519962  0.749311  1
  Si  Si24  1  0.519962  0.911332  0.250689  1
  Si  Si25  1  0.519962  0.911332  0.749311  1
  Si  Si26  1  0.088385  0.482282  0.500000  1
  Si  Si27  1  0.053732  0.053734  0.500000  1
  Si  Si28  1  0.947316  0.947317  0.250971  1
  Si  Si29  1  0.947316  0.947317  0.749029  1
  Ge  Ge30  1  0.497035  0.086400  0.000000  1
  Ge  Ge31  1  0.086411  0.497033  0.000000  1
