# generated using pymatgen
data_BaFe2(Sb6Rh)2
_symmetry_space_group_name_H-M   'P 1'
_cell_length_a   8.06898544
_cell_length_b   8.10304279
_cell_length_c   8.06898623
_cell_angle_alpha   109.44352756
_cell_angle_beta   109.35394003
_cell_angle_gamma   109.44547095
_symmetry_Int_Tables_number   1
_chemical_formula_structural   BaFe2(Sb6Rh)2
_chemical_formula_sum   'Ba1 Fe2 Sb12 Rh2'
_cell_volume   406.98232869
_cell_formula_units_Z   1
loop_
 _symmetry_equiv_pos_site_id
 _symmetry_equiv_pos_as_xyz
  1  'x, y, z'
loop_
 _atom_site_type_symbol
 _atom_site_label
 _atom_site_symmetry_multiplicity
 _atom_site_fract_x
 _atom_site_fract_y
 _atom_site_fract_z
 _atom_site_occupancy
  Ba  Ba0  1  0.000000  0.000000  0.000000  1
  Fe  Fe1  1  0.000000  0.500000  0.000000  1
  Fe  Fe2  1  0.500000  0.500000  0.500000  1
  Sb  Sb3  1  0.345844  0.189228  0.843383  1
  Sb  Sb4  1  0.654156  0.810772  0.156617  1
  Sb  Sb5  1  0.664886  0.501070  0.836184  1
  Sb  Sb6  1  0.335114  0.498930  0.163816  1
  Sb  Sb7  1  0.179615  0.832533  0.333249  1
  Sb  Sb8  1  0.820385  0.167467  0.666751  1
  Sb  Sb9  1  0.499285  0.832533  0.652919  1
  Sb  Sb10  1  0.500715  0.167467  0.347081  1
  Sb  Sb11  1  0.846245  0.347341  0.179595  1
  Sb  Sb12  1  0.153755  0.652659  0.820405  1
  Sb  Sb13  1  0.832253  0.652659  0.498904  1
  Sb  Sb14  1  0.167747  0.347341  0.501096  1
  Rh  Rh15  1  0.000000  0.000000  0.500000  1
  Rh  Rh16  1  0.500000  0.000000  0.000000  1
