# generated using pymatgen
data_YbTl2Rh4PbO14
_symmetry_space_group_name_H-M   'P 1'
_cell_length_a   7.32455858
_cell_length_b   7.23007735
_cell_length_c   7.28093500
_cell_angle_alpha   60.23079079
_cell_angle_beta   60.72634528
_cell_angle_gamma   60.42578550
_symmetry_Int_Tables_number   1
_chemical_formula_structural   YbTl2Rh4PbO14
_chemical_formula_sum   'Yb1 Tl2 Rh4 Pb1 O14'
_cell_volume   275.47517852
_cell_formula_units_Z   1
loop_
 _symmetry_equiv_pos_site_id
 _symmetry_equiv_pos_as_xyz
  1  'x, y, z'
loop_
 _atom_site_type_symbol
 _atom_site_label
 _atom_site_symmetry_multiplicity
 _atom_site_fract_x
 _atom_site_fract_y
 _atom_site_fract_z
 _atom_site_occupancy
  Yb  Yb0  1  0.625000  0.125000  0.125000  1
  Tl  Tl1  1  0.125000  0.625000  0.125000  1
  Tl  Tl2  1  0.125000  0.125000  0.125000  1
  Rh  Rh3  1  0.125000  0.625000  0.625000  1
  Rh  Rh4  1  0.625000  0.125000  0.625000  1
  Rh  Rh5  1  0.625000  0.625000  0.125000  1
  Rh  Rh6  1  0.625000  0.625000  0.625000  1
  Pb  Pb7  1  0.125000  0.125000  0.625000  1
  O  O8  1  0.705989  0.699974  0.297918  1
  O  O9  1  0.295404  0.294875  0.701307  1
  O  O10  1  0.710735  0.294352  0.700562  1
  O  O11  1  0.298140  0.701025  0.299810  1
  O  O12  1  0.295404  0.708416  0.701307  1
  O  O13  1  0.705989  0.296120  0.297918  1
  O  O14  1  0.544011  0.550026  0.952082  1
  O  O15  1  0.954596  0.955125  0.548693  1
  O  O16  1  0.539265  0.955648  0.549438  1
  O  O17  1  0.951860  0.548975  0.950190  1
  O  O18  1  0.954596  0.541584  0.548693  1
  O  O19  1  0.544011  0.953880  0.952082  1
  O  O20  1  0.246468  0.254926  0.243677  1
  O  O21  1  0.003532  0.995074  0.006323  1
