# generated using pymatgen
data_Eu2NbN3
_symmetry_space_group_name_H-M   'P 1'
_cell_length_a   6.40185869
_cell_length_b   6.40185762
_cell_length_c   12.16661900
_cell_angle_alpha   90.00000000
_cell_angle_beta   90.00000000
_cell_angle_gamma   125.52308270
_symmetry_Int_Tables_number   1
_chemical_formula_structural   Eu2NbN3
_chemical_formula_sum   'Eu8 Nb4 N12'
_cell_volume   405.82909755
_cell_formula_units_Z   4
loop_
 _symmetry_equiv_pos_site_id
 _symmetry_equiv_pos_as_xyz
  1  'x, y, z'
loop_
 _atom_site_type_symbol
 _atom_site_label
 _atom_site_symmetry_multiplicity
 _atom_site_fract_x
 _atom_site_fract_y
 _atom_site_fract_z
 _atom_site_occupancy
  Eu  Eu0  1  0.540059  0.459941  0.645392  1
  Eu  Eu1  1  0.459941  0.540059  0.354608  1
  Eu  Eu2  1  0.959941  0.040059  0.145392  1
  Eu  Eu3  1  0.040059  0.959941  0.854608  1
  Eu  Eu4  1  0.869515  0.130485  0.579852  1
  Eu  Eu5  1  0.130485  0.869515  0.420148  1
  Eu  Eu6  1  0.630485  0.369515  0.079852  1
  Eu  Eu7  1  0.369515  0.630485  0.920148  1
  Nb  Nb8  1  0.752369  0.247631  0.839262  1
  Nb  Nb9  1  0.247631  0.752369  0.160738  1
  Nb  Nb10  1  0.747631  0.252369  0.339262  1
  Nb  Nb11  1  0.252369  0.747631  0.660738  1
  N  N12  1  0.842182  0.157818  0.973850  1
  N  N13  1  0.157818  0.842182  0.026150  1
  N  N14  1  0.657818  0.342182  0.473850  1
  N  N15  1  0.342182  0.657818  0.526150  1
  N  N16  1  0.581393  0.418607  0.865288  1
  N  N17  1  0.418607  0.581393  0.134712  1
  N  N18  1  0.918607  0.081393  0.365288  1
  N  N19  1  0.081393  0.918607  0.634712  1
  N  N20  1  0.572620  0.927380  0.750000  1
  N  N21  1  0.927380  0.572620  0.250000  1
  N  N22  1  0.427380  0.072620  0.250000  1
  N  N23  1  0.072620  0.427380  0.750000  1
