# generated using pymatgen
data_YLu3(CrB4)4
_symmetry_space_group_name_H-M   'P 1'
_cell_length_a   3.40664400
_cell_length_b   5.89932556
_cell_length_c   11.39399108
_cell_angle_alpha   89.95008656
_cell_angle_beta   90.00000000
_cell_angle_gamma   90.00000000
_symmetry_Int_Tables_number   1
_chemical_formula_structural   YLu3(CrB4)4
_chemical_formula_sum   'Y1 Lu3 Cr4 B16'
_cell_volume   228.98383550
_cell_formula_units_Z   1
loop_
 _symmetry_equiv_pos_site_id
 _symmetry_equiv_pos_as_xyz
  1  'x, y, z'
loop_
 _atom_site_type_symbol
 _atom_site_label
 _atom_site_symmetry_multiplicity
 _atom_site_fract_x
 _atom_site_fract_y
 _atom_site_fract_z
 _atom_site_occupancy
  Y  Y0  1  0.000000  0.624995  0.349153  1
  Lu  Lu1  1  0.000000  0.374847  0.650929  1
  Lu  Lu2  1  0.000000  0.125249  0.150209  1
  Lu  Lu3  1  0.000000  0.874859  0.849293  1
  Cr  Cr4  1  0.000000  0.625108  0.080377  1
  Cr  Cr5  1  0.000000  0.374609  0.918162  1
  Cr  Cr6  1  0.000000  0.125257  0.419273  1
  Cr  Cr7  1  0.000000  0.875189  0.582325  1
  B  B8  1  0.500000  0.784046  0.183462  1
  B  B9  1  0.500000  0.216554  0.815158  1
  B  B10  1  0.500000  0.281313  0.315053  1
  B  B11  1  0.500000  0.716663  0.685294  1
  B  B12  1  0.500000  0.864471  0.031531  1
  B  B13  1  0.500000  0.135674  0.967381  1
  B  B14  1  0.500000  0.363407  0.468848  1
  B  B15  1  0.500000  0.636294  0.533547  1
  B  B16  1  0.500000  0.887812  0.453748  1
  B  B17  1  0.500000  0.114600  0.548390  1
  B  B18  1  0.500000  0.385347  0.046780  1
  B  B19  1  0.500000  0.614051  0.952095  1
  B  B20  1  0.500000  0.976954  0.307412  1
  B  B21  1  0.500000  0.024242  0.693177  1
  B  B22  1  0.500000  0.474224  0.191236  1
  B  B23  1  0.500000  0.524235  0.807165  1
