# generated using pymatgen
data_SmHoTcC2
_symmetry_space_group_name_H-M   'P 1'
_cell_length_a   5.16255800
_cell_length_b   6.62978500
_cell_length_c   9.92410700
_cell_angle_alpha   90.00000000
_cell_angle_beta   90.00000000
_cell_angle_gamma   90.00000000
_symmetry_Int_Tables_number   1
_chemical_formula_structural   SmHoTcC2
_chemical_formula_sum   'Sm4 Ho4 Tc4 C8'
_cell_volume   339.66893278
_cell_formula_units_Z   4
loop_
 _symmetry_equiv_pos_site_id
 _symmetry_equiv_pos_as_xyz
  1  'x, y, z'
loop_
 _atom_site_type_symbol
 _atom_site_label
 _atom_site_symmetry_multiplicity
 _atom_site_fract_x
 _atom_site_fract_y
 _atom_site_fract_z
 _atom_site_occupancy
  Sm  Sm0  1  0.250000  0.467747  0.787225  1
  Sm  Sm1  1  0.750000  0.032253  0.287225  1
  Sm  Sm2  1  0.250000  0.967747  0.712775  1
  Sm  Sm3  1  0.750000  0.532253  0.212775  1
  Ho  Ho4  1  0.250000  0.826132  0.057384  1
  Ho  Ho5  1  0.750000  0.673868  0.557384  1
  Ho  Ho6  1  0.250000  0.326132  0.442616  1
  Ho  Ho7  1  0.750000  0.173868  0.942616  1
  Tc  Tc8  1  0.250000  0.278681  0.136387  1
  Tc  Tc9  1  0.750000  0.221319  0.636387  1
  Tc  Tc10  1  0.250000  0.778681  0.363613  1
  Tc  Tc11  1  0.750000  0.721319  0.863613  1
  C  C12  1  0.250000  0.175561  0.955853  1
  C  C13  1  0.750000  0.824439  0.044147  1
  C  C14  1  0.250000  0.675561  0.544147  1
  C  C15  1  0.750000  0.324439  0.455853  1
  C  C16  1  0.250000  0.047177  0.259695  1
  C  C17  1  0.750000  0.452823  0.759695  1
  C  C18  1  0.250000  0.547177  0.240305  1
  C  C19  1  0.750000  0.952823  0.740305  1
