# generated using pymatgen
data_Er2Lu10GaCo5
_symmetry_space_group_name_H-M   'P 1'
_cell_length_a   8.06033035
_cell_length_b   8.05295874
_cell_length_c   8.06033179
_cell_angle_alpha   110.81475671
_cell_angle_beta   111.04180137
_cell_angle_gamma   106.62999201
_symmetry_Int_Tables_number   1
_chemical_formula_structural   Er2Lu10GaCo5
_chemical_formula_sum   'Er2 Lu10 Ga1 Co5'
_cell_volume   401.83023955
_cell_formula_units_Z   1
loop_
 _symmetry_equiv_pos_site_id
 _symmetry_equiv_pos_as_xyz
  1  'x, y, z'
loop_
 _atom_site_type_symbol
 _atom_site_label
 _atom_site_symmetry_multiplicity
 _atom_site_fract_x
 _atom_site_fract_y
 _atom_site_fract_z
 _atom_site_occupancy
  Er  Er0  1  0.218572  0.026990  0.808418  1
  Er  Er1  1  0.781428  0.973010  0.191582  1
  Lu  Lu2  1  0.287548  0.185533  0.471826  1
  Lu  Lu3  1  0.712452  0.814467  0.528174  1
  Lu  Lu4  1  0.286292  0.814467  0.102015  1
  Lu  Lu5  1  0.713708  0.185533  0.897985  1
  Lu  Lu6  1  0.619362  0.317863  0.303878  1
  Lu  Lu7  1  0.380638  0.682137  0.696122  1
  Lu  Lu8  1  0.013987  0.317863  0.698502  1
  Lu  Lu9  1  0.986013  0.682137  0.301498  1
  Lu  Lu10  1  0.218491  0.410890  0.192398  1
  Lu  Lu11  1  0.781509  0.589110  0.807602  1
  Ga  Ga12  1  0.500000  0.500000  0.000000  1
  Co  Co13  1  0.000728  0.374611  0.373883  1
  Co  Co14  1  0.999272  0.625389  0.626117  1
  Co  Co15  1  0.385133  0.884243  0.499110  1
  Co  Co16  1  0.614867  0.115757  0.500890  1
  Co  Co17  1  0.000000  0.000000  0.000000  1
