# generated using pymatgen
data_Eu3MgCd2Pt3
_symmetry_space_group_name_H-M   'P 1'
_cell_length_a   7.54841800
_cell_length_b   7.64405243
_cell_length_c   4.27056300
_cell_angle_alpha   90.00000000
_cell_angle_beta   90.00000000
_cell_angle_gamma   119.58700522
_symmetry_Int_Tables_number   1
_chemical_formula_structural   Eu3MgCd2Pt3
_chemical_formula_sum   'Eu3 Mg1 Cd2 Pt3'
_cell_volume   214.28300399
_cell_formula_units_Z   1
loop_
 _symmetry_equiv_pos_site_id
 _symmetry_equiv_pos_as_xyz
  1  'x, y, z'
loop_
 _atom_site_type_symbol
 _atom_site_label
 _atom_site_symmetry_multiplicity
 _atom_site_fract_x
 _atom_site_fract_y
 _atom_site_fract_z
 _atom_site_occupancy
  Eu  Eu0  1  0.410137  0.413599  0.000000  1
  Eu  Eu1  1  0.593818  0.000000  0.000000  1
  Eu  Eu2  1  0.996538  0.586401  0.000000  1
  Mg  Mg3  1  0.245058  0.000000  0.500000  1
  Cd  Cd4  1  0.001907  0.249338  0.500000  1
  Cd  Cd5  1  0.752569  0.750662  0.500000  1
  Pt  Pt6  1  0.015092  0.000000  0.000000  1
  Pt  Pt7  1  0.654256  0.323633  0.500000  1
  Pt  Pt8  1  0.330623  0.676367  0.500000  1
