# generated using pymatgen
data_KLa4Tb2CoI12
_symmetry_space_group_name_H-M   'P 1'
_cell_length_a   10.18029791
_cell_length_b   10.20353239
_cell_length_c   9.93023244
_cell_angle_alpha   105.90639121
_cell_angle_beta   105.11828849
_cell_angle_gamma   105.75796479
_symmetry_Int_Tables_number   1
_chemical_formula_structural   KLa4Tb2CoI12
_chemical_formula_sum   'K1 La4 Tb2 Co1 I12'
_cell_volume   889.89917750
_cell_formula_units_Z   1
loop_
 _symmetry_equiv_pos_site_id
 _symmetry_equiv_pos_as_xyz
  1  'x, y, z'
loop_
 _atom_site_type_symbol
 _atom_site_label
 _atom_site_symmetry_multiplicity
 _atom_site_fract_x
 _atom_site_fract_y
 _atom_site_fract_z
 _atom_site_occupancy
  K  K0  1  0.498653  0.501823  0.503369  1
  La  La1  1  0.018152  0.082627  0.268162  1
  La  La2  1  0.096196  0.313375  0.015985  1
  La  La3  1  0.315098  0.021576  0.100193  1
  La  La4  1  0.984546  0.912382  0.732769  1
  Tb  Tb5  1  0.899191  0.703229  0.980332  1
  Tb  Tb6  1  0.703993  0.979856  0.903499  1
  Co  Co7  1  0.999290  0.997842  0.998690  1
  I  I8  1  0.122047  0.434961  0.358111  1
  I  I9  1  0.437103  0.355908  0.117996  1
  I  I10  1  0.356872  0.125513  0.443483  1
  I  I11  1  0.873829  0.561934  0.654697  1
  I  I12  1  0.571061  0.657882  0.887810  1
  I  I13  1  0.646939  0.879488  0.569777  1
  I  I14  1  0.681787  0.075916  0.217907  1
  I  I15  1  0.069399  0.216272  0.670152  1
  I  I16  1  0.208776  0.676967  0.071576  1
  I  I17  1  0.327134  0.921074  0.772146  1
  I  I18  1  0.922231  0.769056  0.310005  1
  I  I19  1  0.767703  0.312321  0.923339  1
