# generated using pymatgen
data_Dy5Al2Ru3
_symmetry_space_group_name_H-M   'P 1'
_cell_length_a   8.34091304
_cell_length_b   8.34091288
_cell_length_c   8.34091300
_cell_angle_alpha   109.47122579
_cell_angle_beta   109.47122539
_cell_angle_gamma   109.47122315
_symmetry_Int_Tables_number   1
_chemical_formula_structural   Dy5Al2Ru3
_chemical_formula_sum   'Dy10 Al4 Ru6'
_cell_volume   446.70294147
_cell_formula_units_Z   2
loop_
 _symmetry_equiv_pos_site_id
 _symmetry_equiv_pos_as_xyz
  1  'x, y, z'
loop_
 _atom_site_type_symbol
 _atom_site_label
 _atom_site_symmetry_multiplicity
 _atom_site_fract_x
 _atom_site_fract_y
 _atom_site_fract_z
 _atom_site_occupancy
  Dy  Dy0  1  0.785434  0.785434  0.785434  1
  Dy  Dy1  1  0.318504  0.568504  0.750000  1
  Dy  Dy2  1  0.750000  0.318504  0.568504  1
  Dy  Dy3  1  0.568504  0.750000  0.318504  1
  Dy  Dy4  1  0.714566  0.500000  0.000000  1
  Dy  Dy5  1  0.000000  0.714566  0.500000  1
  Dy  Dy6  1  0.500000  0.000000  0.714566  1
  Dy  Dy7  1  0.250000  0.181496  0.931496  1
  Dy  Dy8  1  0.931496  0.250000  0.181496  1
  Dy  Dy9  1  0.181496  0.931496  0.250000  1
  Al  Al10  1  0.410478  0.410478  0.410478  1
  Al  Al11  1  0.089522  0.500000  0.000000  1
  Al  Al12  1  0.000000  0.089522  0.500000  1
  Al  Al13  1  0.500000  0.000000  0.089522  1
  Ru  Ru14  1  0.876823  0.126823  0.750000  1
  Ru  Ru15  1  0.750000  0.876823  0.126823  1
  Ru  Ru16  1  0.126823  0.750000  0.876823  1
  Ru  Ru17  1  0.250000  0.623177  0.373177  1
  Ru  Ru18  1  0.373177  0.250000  0.623177  1
  Ru  Ru19  1  0.623177  0.373177  0.250000  1
