# generated using pymatgen
data_Nd4Zn10SiSn
_symmetry_space_group_name_H-M   'P 1'
_cell_length_a   8.44035638
_cell_length_b   8.44035593
_cell_length_c   8.94363100
_cell_angle_alpha   90.00000000
_cell_angle_beta   90.00000000
_cell_angle_gamma   149.35597356
_symmetry_Int_Tables_number   1
_chemical_formula_structural   Nd4Zn10SiSn
_chemical_formula_sum   'Nd4 Zn10 Si1 Sn1'
_cell_volume   324.75236477
_cell_formula_units_Z   1
loop_
 _symmetry_equiv_pos_site_id
 _symmetry_equiv_pos_as_xyz
  1  'x, y, z'
loop_
 _atom_site_type_symbol
 _atom_site_label
 _atom_site_symmetry_multiplicity
 _atom_site_fract_x
 _atom_site_fract_y
 _atom_site_fract_z
 _atom_site_occupancy
  Nd  Nd0  1  0.203137  0.796863  0.250000  1
  Nd  Nd1  1  0.794579  0.205421  0.750000  1
  Nd  Nd2  1  0.000382  0.999618  0.486357  1
  Nd  Nd3  1  0.000382  0.999618  0.013643  1
  Zn  Zn4  1  0.813424  0.186576  0.391230  1
  Zn  Zn5  1  0.185427  0.814573  0.606599  1
  Zn  Zn6  1  0.813424  0.186576  0.108770  1
  Zn  Zn7  1  0.185427  0.814573  0.893401  1
  Zn  Zn8  1  0.649798  0.350202  0.475128  1
  Zn  Zn9  1  0.344825  0.655175  0.514542  1
  Zn  Zn10  1  0.649798  0.350202  0.024872  1
  Zn  Zn11  1  0.344825  0.655175  0.985458  1
  Zn  Zn12  1  0.405659  0.594341  0.250000  1
  Zn  Zn13  1  0.605440  0.394560  0.750000  1
  Si  Si14  1  0.558075  0.441925  0.250000  1
  Sn  Sn15  1  0.445395  0.554605  0.750000  1
