# generated using pymatgen
data_LiHo8Sc11Si15Sn
_symmetry_space_group_name_H-M   'P 1'
_cell_length_a   7.07534371
_cell_length_b   7.41706722
_cell_length_c   14.04227511
_cell_angle_alpha   90.01531686
_cell_angle_beta   89.59446421
_cell_angle_gamma   89.98230290
_symmetry_Int_Tables_number   1
_chemical_formula_structural   LiHo8Sc11Si15Sn
_chemical_formula_sum   'Li1 Ho8 Sc11 Si15 Sn1'
_cell_volume   736.89620345
_cell_formula_units_Z   1
loop_
 _symmetry_equiv_pos_site_id
 _symmetry_equiv_pos_as_xyz
  1  'x, y, z'
loop_
 _atom_site_type_symbol
 _atom_site_label
 _atom_site_symmetry_multiplicity
 _atom_site_fract_x
 _atom_site_fract_y
 _atom_site_fract_z
 _atom_site_occupancy
  Li  Li0  1  0.162298  0.504729  0.752436  1
  Ho  Ho1  1  0.011396  0.176575  0.096123  1
  Ho  Ho2  1  0.989376  0.814724  0.902071  1
  Ho  Ho3  1  0.483906  0.674324  0.902623  1
  Ho  Ho4  1  0.988986  0.823902  0.599860  1
  Ho  Ho5  1  0.510037  0.323695  0.096616  1
  Ho  Ho6  1  0.005955  0.170361  0.399690  1
  Ho  Ho7  1  0.512922  0.320033  0.399348  1
  Ho  Ho8  1  0.497633  0.683975  0.600828  1
  Sc  Sc9  1  0.836355  0.497657  0.249098  1
  Sc  Sc10  1  0.337499  0.003558  0.249311  1
  Sc  Sc11  1  0.662056  0.996531  0.751850  1
  Sc  Sc12  1  0.339666  0.167245  0.631690  1
  Sc  Sc13  1  0.666398  0.825884  0.372968  1
  Sc  Sc14  1  0.164855  0.685319  0.369078  1
  Sc  Sc15  1  0.669743  0.823660  0.123861  1
  Sc  Sc16  1  0.826612  0.324476  0.627851  1
  Sc  Sc17  1  0.326946  0.181316  0.874706  1
  Sc  Sc18  1  0.837324  0.326398  0.874318  1
  Sc  Sc19  1  0.170258  0.678110  0.125034  1
  Si  Si20  1  0.032398  0.104616  0.751976  1
  Si  Si21  1  0.965521  0.888207  0.246587  1
  Si  Si22  1  0.466081  0.615861  0.248642  1
  Si  Si23  1  0.535619  0.387431  0.752399  1
  Si  Si24  1  0.287767  0.878310  0.752535  1
  Si  Si25  1  0.711560  0.127936  0.247484  1
  Si  Si26  1  0.210406  0.372348  0.249342  1
  Si  Si27  1  0.781388  0.627162  0.751497  1
  Si  Si28  1  0.830683  0.539523  0.460146  1
  Si  Si29  1  0.340029  0.964829  0.462153  1
  Si  Si30  1  0.842897  0.534458  0.038345  1
  Si  Si31  1  0.661194  0.036532  0.538800  1
  Si  Si32  1  0.159963  0.461479  0.966567  1
  Si  Si33  1  0.657019  0.034076  0.959361  1
  Si  Si34  1  0.344610  0.966283  0.038185  1
  Sn  Sn35  1  0.172646  0.458480  0.536620  1
