# generated using pymatgen
data_Th8Si12Pd3Pt
_symmetry_space_group_name_H-M   'P 1'
_cell_length_a   8.25343000
_cell_length_b   8.25343082
_cell_length_c   8.54603900
_cell_angle_alpha   90.00000000
_cell_angle_beta   90.00000000
_cell_angle_gamma   119.99999670
_symmetry_Int_Tables_number   1
_chemical_formula_structural   Th8Si12Pd3Pt
_chemical_formula_sum   'Th8 Si12 Pd3 Pt1'
_cell_volume   504.15549419
_cell_formula_units_Z   1
loop_
 _symmetry_equiv_pos_site_id
 _symmetry_equiv_pos_as_xyz
  1  'x, y, z'
loop_
 _atom_site_type_symbol
 _atom_site_label
 _atom_site_symmetry_multiplicity
 _atom_site_fract_x
 _atom_site_fract_y
 _atom_site_fract_z
 _atom_site_occupancy
  Th  Th0  1  0.499944  0.500056  0.749902  1
  Th  Th1  1  0.501019  0.498981  0.250150  1
  Th  Th2  1  0.000112  0.500056  0.749902  1
  Th  Th3  1  0.997960  0.498981  0.250150  1
  Th  Th4  1  0.499944  0.999888  0.749902  1
  Th  Th5  1  0.501019  0.002040  0.250150  1
  Th  Th6  1  0.000000  0.000000  0.749442  1
  Th  Th7  1  0.000000  0.000000  0.250459  1
  Si  Si8  1  0.834460  0.165540  0.998819  1
  Si  Si9  1  0.165837  0.834163  0.001005  1
  Si  Si10  1  0.331079  0.165540  0.998819  1
  Si  Si11  1  0.165911  0.834089  0.499287  1
  Si  Si12  1  0.668327  0.834163  0.001005  1
  Si  Si13  1  0.834249  0.165751  0.500675  1
  Si  Si14  1  0.834460  0.668921  0.998819  1
  Si  Si15  1  0.668179  0.834089  0.499287  1
  Si  Si16  1  0.165837  0.331673  0.001005  1
  Si  Si17  1  0.331501  0.165751  0.500675  1
  Si  Si18  1  0.165911  0.331821  0.499287  1
  Si  Si19  1  0.834249  0.668499  0.500675  1
  Pd  Pd20  1  0.333333  0.666667  0.001507  1
  Pd  Pd21  1  0.333333  0.666667  0.498021  1
  Pd  Pd22  1  0.666667  0.333333  0.501468  1
  Pt  Pt23  1  0.666667  0.333333  0.999589  1
