# generated using pymatgen
data_Nb12Zn11GaN4
_symmetry_space_group_name_H-M   'P 1'
_cell_length_a   8.29659335
_cell_length_b   8.29659287
_cell_length_c   8.30300624
_cell_angle_alpha   60.02554424
_cell_angle_beta   60.02554619
_cell_angle_gamma   60.00000397
_symmetry_Int_Tables_number   1
_chemical_formula_structural   Nb12Zn11GaN4
_chemical_formula_sum   'Nb12 Zn11 Ga1 N4'
_cell_volume   404.28492034
_cell_formula_units_Z   1
loop_
 _symmetry_equiv_pos_site_id
 _symmetry_equiv_pos_as_xyz
  1  'x, y, z'
loop_
 _atom_site_type_symbol
 _atom_site_label
 _atom_site_symmetry_multiplicity
 _atom_site_fract_x
 _atom_site_fract_y
 _atom_site_fract_z
 _atom_site_occupancy
  Nb  Nb0  1  0.431622  0.431622  0.067743  1
  Nb  Nb1  1  0.069013  0.431622  0.067743  1
  Nb  Nb2  1  0.431622  0.069013  0.067743  1
  Nb  Nb3  1  0.067509  0.067509  0.432449  1
  Nb  Nb4  1  0.432534  0.067509  0.432449  1
  Nb  Nb5  1  0.067509  0.432534  0.432449  1
  Nb  Nb6  1  0.817974  0.817974  0.182289  1
  Nb  Nb7  1  0.181764  0.817974  0.182289  1
  Nb  Nb8  1  0.817974  0.181764  0.182289  1
  Nb  Nb9  1  0.181834  0.181834  0.817572  1
  Nb  Nb10  1  0.818761  0.181834  0.817572  1
  Nb  Nb11  1  0.181834  0.818761  0.817572  1
  Zn  Zn12  1  0.832498  0.501356  0.833649  1
  Zn  Zn13  1  0.501356  0.832498  0.833649  1
  Zn  Zn14  1  0.832498  0.832498  0.833649  1
  Zn  Zn15  1  0.417472  0.417472  0.747582  1
  Zn  Zn16  1  0.417612  0.747548  0.417227  1
  Zn  Zn17  1  0.747548  0.417612  0.417227  1
  Zn  Zn18  1  0.417612  0.417612  0.417227  1
  Zn  Zn19  1  0.624952  0.624952  0.125145  1
  Zn  Zn20  1  0.623586  0.126719  0.626110  1
  Zn  Zn21  1  0.126719  0.623586  0.626110  1
  Zn  Zn22  1  0.623586  0.623586  0.626110  1
  Ga  Ga23  1  0.833646  0.833646  0.499063  1
  N  N24  1  0.125406  0.125406  0.623782  1
  N  N25  1  0.125344  0.624874  0.124438  1
  N  N26  1  0.624874  0.125344  0.124438  1
  N  N27  1  0.125344  0.125344  0.124438  1
