# generated using pymatgen
data_YPaInIr2
_symmetry_space_group_name_H-M   'P 1'
_cell_length_a   7.74206271
_cell_length_b   7.74206216
_cell_length_c   3.64130600
_cell_angle_alpha   90.00000000
_cell_angle_beta   90.00000000
_cell_angle_gamma   85.71851959
_symmetry_Int_Tables_number   1
_chemical_formula_structural   YPaInIr2
_chemical_formula_sum   'Y2 Pa2 In2 Ir4'
_cell_volume   217.64908341
_cell_formula_units_Z   2
loop_
 _symmetry_equiv_pos_site_id
 _symmetry_equiv_pos_as_xyz
  1  'x, y, z'
loop_
 _atom_site_type_symbol
 _atom_site_label
 _atom_site_symmetry_multiplicity
 _atom_site_fract_x
 _atom_site_fract_y
 _atom_site_fract_z
 _atom_site_occupancy
  Y  Y0  1  0.669701  0.169701  0.500000  1
  Y  Y1  1  0.330299  0.830299  0.500000  1
  Pa  Pa2  1  0.168784  0.331216  0.500000  1
  Pa  Pa3  1  0.831216  0.668784  0.500000  1
  In  In4  1  0.500000  0.500000  0.000000  1
  In  In5  1  0.000000  0.000000  0.000000  1
  Ir  Ir6  1  0.124383  0.624383  0.000000  1
  Ir  Ir7  1  0.875617  0.375617  0.000000  1
  Ir  Ir8  1  0.642583  0.857417  0.000000  1
  Ir  Ir9  1  0.357417  0.142583  0.000000  1
