# generated using pymatgen
data_Tm4Co2(OsRu)3
_symmetry_space_group_name_H-M   'P 1'
_cell_length_a   5.14886488
_cell_length_b   5.17609267
_cell_length_c   8.75776300
_cell_angle_alpha   90.00000000
_cell_angle_beta   90.00000000
_cell_angle_gamma   119.40544175
_symmetry_Int_Tables_number   1
_chemical_formula_structural   Tm4Co2(OsRu)3
_chemical_formula_sum   'Tm4 Co2 Os3 Ru3'
_cell_volume   203.33317102
_cell_formula_units_Z   1
loop_
 _symmetry_equiv_pos_site_id
 _symmetry_equiv_pos_as_xyz
  1  'x, y, z'
loop_
 _atom_site_type_symbol
 _atom_site_label
 _atom_site_symmetry_multiplicity
 _atom_site_fract_x
 _atom_site_fract_y
 _atom_site_fract_z
 _atom_site_occupancy
  Tm  Tm0  1  0.666282  0.333701  0.565876  1
  Tm  Tm1  1  0.331249  0.665877  0.433860  1
  Tm  Tm2  1  0.331249  0.665877  0.066140  1
  Tm  Tm3  1  0.666282  0.333701  0.934124  1
  Co  Co4  1  0.169775  0.340115  0.750000  1
  Co  Co5  1  0.834256  0.662142  0.250000  1
  Os  Os6  1  0.174764  0.832259  0.750000  1
  Os  Os7  1  0.658595  0.832801  0.750000  1
  Os  Os8  1  0.829485  0.168299  0.250000  1
  Ru  Ru9  1  0.995192  0.997896  0.499327  1
  Ru  Ru10  1  0.995192  0.997896  0.000673  1
  Ru  Ru11  1  0.347678  0.169431  0.250000  1
