# generated using pymatgen
data_PrNd3Al15(GaIr2)3
_symmetry_space_group_name_H-M   'P 1'
_cell_length_a   7.60375611
_cell_length_b   7.60348230
_cell_length_c   9.68160100
_cell_angle_alpha   90.00000000
_cell_angle_beta   90.00000000
_cell_angle_gamma   119.35327052
_symmetry_Int_Tables_number   1
_chemical_formula_structural   PrNd3Al15(GaIr2)3
_chemical_formula_sum   'Pr1 Nd3 Al15 Ga3 Ir6'
_cell_volume   487.87890764
_cell_formula_units_Z   1
loop_
 _symmetry_equiv_pos_site_id
 _symmetry_equiv_pos_as_xyz
  1  'x, y, z'
loop_
 _atom_site_type_symbol
 _atom_site_label
 _atom_site_symmetry_multiplicity
 _atom_site_fract_x
 _atom_site_fract_y
 _atom_site_fract_z
 _atom_site_occupancy
  Pr  Pr0  1  0.998217  0.674335  0.250000  1
  Nd  Nd1  1  0.005627  0.326091  0.750000  1
  Nd  Nd2  1  0.669237  0.990722  0.250000  1
  Nd  Nd3  1  0.325529  0.004068  0.750000  1
  Al  Al4  1  0.002505  0.334995  0.070284  1
  Al  Al5  1  0.997249  0.663899  0.928215  1
  Al  Al6  1  0.997249  0.663899  0.571785  1
  Al  Al7  1  0.336624  0.005099  0.429363  1
  Al  Al8  1  0.002505  0.334995  0.429716  1
  Al  Al9  1  0.664164  0.997898  0.571413  1
  Al  Al10  1  0.664164  0.997898  0.928587  1
  Al  Al11  1  0.336624  0.005099  0.070637  1
  Al  Al12  1  0.335221  0.335398  0.551829  1
  Al  Al13  1  0.665472  0.665108  0.453605  1
  Al  Al14  1  0.665472  0.665108  0.046395  1
  Al  Al15  1  0.335221  0.335398  0.948171  1
  Al  Al16  1  0.662672  0.452716  0.750000  1
  Al  Al17  1  0.547621  0.339313  0.250000  1
  Al  Al18  1  0.452904  0.662324  0.750000  1
  Ga  Ga19  1  0.133059  0.134179  0.250000  1
  Ga  Ga20  1  0.863490  0.863315  0.750000  1
  Ga  Ga21  1  0.338695  0.543287  0.250000  1
  Ir  Ir22  1  0.670525  0.329968  0.000128  1
  Ir  Ir23  1  0.329582  0.671902  0.997700  1
  Ir  Ir24  1  0.329582  0.671902  0.502300  1
  Ir  Ir25  1  0.670525  0.329968  0.499872  1
  Ir  Ir26  1  0.000132  0.000560  0.999677  1
  Ir  Ir27  1  0.000132  0.000560  0.500323  1
