# generated using pymatgen
data_Sm2Tm3GaSn3
_symmetry_space_group_name_H-M   'P 1'
_cell_length_a   7.76605200
_cell_length_b   8.18533800
_cell_length_c   15.41005200
_cell_angle_alpha   90.00000000
_cell_angle_beta   90.00000000
_cell_angle_gamma   90.00000000
_symmetry_Int_Tables_number   1
_chemical_formula_structural   Sm2Tm3GaSn3
_chemical_formula_sum   'Sm8 Tm12 Ga4 Sn12'
_cell_volume   979.58249553
_cell_formula_units_Z   4
loop_
 _symmetry_equiv_pos_site_id
 _symmetry_equiv_pos_as_xyz
  1  'x, y, z'
loop_
 _atom_site_type_symbol
 _atom_site_label
 _atom_site_symmetry_multiplicity
 _atom_site_fract_x
 _atom_site_fract_y
 _atom_site_fract_z
 _atom_site_occupancy
  Sm  Sm0  1  0.509902  0.321546  0.903528  1
  Sm  Sm1  1  0.009902  0.178454  0.596472  1
  Sm  Sm2  1  0.490098  0.678454  0.403528  1
  Sm  Sm3  1  0.990098  0.821546  0.096472  1
  Sm  Sm4  1  0.490098  0.678454  0.096472  1
  Sm  Sm5  1  0.990098  0.821546  0.403528  1
  Sm  Sm6  1  0.509902  0.321546  0.596472  1
  Sm  Sm7  1  0.009902  0.178454  0.903528  1
  Tm  Tm8  1  0.352959  0.827302  0.872030  1
  Tm  Tm9  1  0.852959  0.672698  0.627970  1
  Tm  Tm10  1  0.647041  0.172698  0.372030  1
  Tm  Tm11  1  0.147041  0.327302  0.127970  1
  Tm  Tm12  1  0.647041  0.172698  0.127970  1
  Tm  Tm13  1  0.147041  0.327302  0.372030  1
  Tm  Tm14  1  0.352959  0.827302  0.627970  1
  Tm  Tm15  1  0.852959  0.672698  0.872030  1
  Tm  Tm16  1  0.200692  0.505266  0.750000  1
  Tm  Tm17  1  0.700692  0.994734  0.750000  1
  Tm  Tm18  1  0.799308  0.494734  0.250000  1
  Tm  Tm19  1  0.299308  0.005266  0.250000  1
  Ga  Ga20  1  0.556414  0.623615  0.750000  1
  Ga  Ga21  1  0.056414  0.876385  0.750000  1
  Ga  Ga22  1  0.443586  0.376385  0.250000  1
  Ga  Ga23  1  0.943586  0.123615  0.250000  1
  Sn  Sn24  1  0.311551  0.037285  0.038565  1
  Sn  Sn25  1  0.811551  0.462715  0.461435  1
  Sn  Sn26  1  0.688449  0.962715  0.538565  1
  Sn  Sn27  1  0.188449  0.537285  0.961435  1
  Sn  Sn28  1  0.688449  0.962715  0.961435  1
  Sn  Sn29  1  0.188449  0.537285  0.538565  1
  Sn  Sn30  1  0.311551  0.037285  0.461435  1
  Sn  Sn31  1  0.811551  0.462715  0.038565  1
  Sn  Sn32  1  0.311530  0.135373  0.750000  1
  Sn  Sn33  1  0.811530  0.364627  0.750000  1
  Sn  Sn34  1  0.688470  0.864627  0.250000  1
  Sn  Sn35  1  0.188470  0.635373  0.250000  1
