# generated using pymatgen
data_Th5Nb3(P3Ir4)4
_symmetry_space_group_name_H-M   'P 1'
_cell_length_a   12.83458600
_cell_length_b   12.83458591
_cell_length_c   4.04077600
_cell_angle_alpha   90.00000000
_cell_angle_beta   90.00000000
_cell_angle_gamma   119.99999507
_symmetry_Int_Tables_number   1
_chemical_formula_structural   Th5Nb3(P3Ir4)4
_chemical_formula_sum   'Th5 Nb3 P12 Ir16'
_cell_volume   576.44669709
_cell_formula_units_Z   1
loop_
 _symmetry_equiv_pos_site_id
 _symmetry_equiv_pos_as_xyz
  1  'x, y, z'
loop_
 _atom_site_type_symbol
 _atom_site_label
 _atom_site_symmetry_multiplicity
 _atom_site_fract_x
 _atom_site_fract_y
 _atom_site_fract_z
 _atom_site_occupancy
  Th  Th0  1  0.333333  0.666667  0.500000  1
  Th  Th1  1  0.666667  0.333333  0.500000  1
  Th  Th2  1  0.000000  0.814570  0.000000  1
  Th  Th3  1  0.185430  0.185430  0.000000  1
  Th  Th4  1  0.814570  0.000000  0.000000  1
  Nb  Nb5  1  0.000000  0.452498  0.500000  1
  Nb  Nb6  1  0.547502  0.547502  0.500000  1
  Nb  Nb7  1  0.452498  0.000000  0.500000  1
  P  P8  1  0.000000  0.637454  0.500000  1
  P  P9  1  0.362546  0.362546  0.500000  1
  P  P10  1  0.637454  0.000000  0.500000  1
  P  P11  1  0.518933  0.683915  0.000000  1
  P  P12  1  0.316085  0.835019  0.000000  1
  P  P13  1  0.164981  0.481067  0.000000  1
  P  P14  1  0.481067  0.164981  0.000000  1
  P  P15  1  0.683915  0.518933  0.000000  1
  P  P16  1  0.835019  0.316085  0.000000  1
  P  P17  1  0.000000  0.178181  0.500000  1
  P  P18  1  0.821819  0.821819  0.500000  1
  P  P19  1  0.178181  0.000000  0.500000  1
  Ir  Ir20  1  0.509615  0.866399  0.000000  1
  Ir  Ir21  1  0.133601  0.643218  0.000000  1
  Ir  Ir22  1  0.356782  0.490385  0.000000  1
  Ir  Ir23  1  0.490385  0.356782  0.000000  1
  Ir  Ir24  1  0.866399  0.509615  0.000000  1
  Ir  Ir25  1  0.643218  0.133601  0.000000  1
  Ir  Ir26  1  0.000000  0.285491  0.000000  1
  Ir  Ir27  1  0.714509  0.714509  0.000000  1
  Ir  Ir28  1  0.285491  0.000000  0.000000  1
  Ir  Ir29  1  0.626759  0.804898  0.500000  1
  Ir  Ir30  1  0.195102  0.821860  0.500000  1
  Ir  Ir31  1  0.178140  0.373241  0.500000  1
  Ir  Ir32  1  0.373241  0.178140  0.500000  1
  Ir  Ir33  1  0.804898  0.626759  0.500000  1
  Ir  Ir34  1  0.821860  0.195102  0.500000  1
  Ir  Ir35  1  0.000000  0.000000  0.500000  1
