# generated using pymatgen
data_SmEuHo5PtI12
_symmetry_space_group_name_H-M   'P 1'
_cell_length_a   9.81036822
_cell_length_b   9.80763661
_cell_length_c   9.83118801
_cell_angle_alpha   106.40712966
_cell_angle_beta   106.71322377
_cell_angle_gamma   106.37351183
_symmetry_Int_Tables_number   1
_chemical_formula_structural   SmEuHo5PtI12
_chemical_formula_sum   'Sm1 Eu1 Ho5 Pt1 I12'
_cell_volume   798.30996575
_cell_formula_units_Z   1
loop_
 _symmetry_equiv_pos_site_id
 _symmetry_equiv_pos_as_xyz
  1  'x, y, z'
loop_
 _atom_site_type_symbol
 _atom_site_label
 _atom_site_symmetry_multiplicity
 _atom_site_fract_x
 _atom_site_fract_y
 _atom_site_fract_z
 _atom_site_occupancy
  Sm  Sm0  1  0.402385  0.478275  0.195440  1
  Eu  Eu1  1  0.000253  0.999280  0.000900  1
  Ho  Ho2  1  0.201819  0.404457  0.475824  1
  Ho  Ho3  1  0.477923  0.203170  0.406046  1
  Ho  Ho4  1  0.595871  0.522271  0.796393  1
  Ho  Ho5  1  0.798214  0.595660  0.523336  1
  Ho  Ho6  1  0.522972  0.798036  0.597211  1
  Pt  Pt7  1  0.500295  0.500640  0.500066  1
  I  I8  1  0.041385  0.356391  0.127062  1
  I  I9  1  0.128220  0.049571  0.361046  1
  I  I10  1  0.359956  0.123136  0.049286  1
  I  I11  1  0.952003  0.639642  0.872259  1
  I  I12  1  0.871942  0.950895  0.640658  1
  I  I13  1  0.639898  0.870937  0.951856  1
  I  I14  1  0.729148  0.575857  0.176633  1
  I  I15  1  0.175586  0.721863  0.573872  1
  I  I16  1  0.573876  0.176135  0.723537  1
  I  I17  1  0.275556  0.424163  0.818186  1
  I  I18  1  0.824525  0.278536  0.427643  1
  I  I19  1  0.428175  0.831083  0.282746  1
