# generated using pymatgen
data_Ho10In3Re
_symmetry_space_group_name_H-M   'P 1'
_cell_length_a   9.64889200
_cell_length_b   9.64889235
_cell_length_c   9.81522000
_cell_angle_alpha   90.00000000
_cell_angle_beta   90.00000000
_cell_angle_gamma   119.99999878
_symmetry_Int_Tables_number   1
_chemical_formula_structural   Ho10In3Re
_chemical_formula_sum   'Ho20 In6 Re2'
_cell_volume   791.38093240
_cell_formula_units_Z   2
loop_
 _symmetry_equiv_pos_site_id
 _symmetry_equiv_pos_as_xyz
  1  'x, y, z'
loop_
 _atom_site_type_symbol
 _atom_site_label
 _atom_site_symmetry_multiplicity
 _atom_site_fract_x
 _atom_site_fract_y
 _atom_site_fract_z
 _atom_site_occupancy
  Ho  Ho0  1  0.000000  0.000000  0.500000  1
  Ho  Ho1  1  0.000000  0.000000  0.000000  1
  Ho  Ho2  1  0.209239  0.790761  0.440882  1
  Ho  Ho3  1  0.209239  0.418479  0.440882  1
  Ho  Ho4  1  0.581521  0.790761  0.440882  1
  Ho  Ho5  1  0.790761  0.209239  0.559118  1
  Ho  Ho6  1  0.790761  0.581521  0.559118  1
  Ho  Ho7  1  0.418479  0.209239  0.559118  1
  Ho  Ho8  1  0.790761  0.209239  0.940882  1
  Ho  Ho9  1  0.790761  0.581521  0.940882  1
  Ho  Ho10  1  0.418479  0.209239  0.940882  1
  Ho  Ho11  1  0.209239  0.790761  0.059118  1
  Ho  Ho12  1  0.209239  0.418479  0.059118  1
  Ho  Ho13  1  0.581521  0.790761  0.059118  1
  Ho  Ho14  1  0.535325  0.464675  0.250000  1
  Ho  Ho15  1  0.535325  0.070647  0.250000  1
  Ho  Ho16  1  0.929353  0.464675  0.250000  1
  Ho  Ho17  1  0.464675  0.535325  0.750000  1
  Ho  Ho18  1  0.464675  0.929353  0.750000  1
  Ho  Ho19  1  0.070647  0.535325  0.750000  1
  In  In20  1  0.885397  0.114603  0.250000  1
  In  In21  1  0.885397  0.770797  0.250000  1
  In  In22  1  0.229203  0.114603  0.250000  1
  In  In23  1  0.114603  0.885397  0.750000  1
  In  In24  1  0.114603  0.229203  0.750000  1
  In  In25  1  0.770797  0.885397  0.750000  1
  Re  Re26  1  0.333333  0.666667  0.250000  1
  Re  Re27  1  0.666667  0.333333  0.750000  1
