# generated using pymatgen
data_Tb5HoNiI10
_symmetry_space_group_name_H-M   'P 1'
_cell_length_a   7.74973296
_cell_length_b   9.73765975
_cell_length_c   9.78018719
_cell_angle_alpha   106.81388458
_cell_angle_beta   96.62113957
_cell_angle_gamma   104.20196364
_symmetry_Int_Tables_number   1
_chemical_formula_structural   Tb5HoNiI10
_chemical_formula_sum   'Tb5 Ho1 Ni1 I10'
_cell_volume   670.96988986
_cell_formula_units_Z   1
loop_
 _symmetry_equiv_pos_site_id
 _symmetry_equiv_pos_as_xyz
  1  'x, y, z'
loop_
 _atom_site_type_symbol
 _atom_site_label
 _atom_site_symmetry_multiplicity
 _atom_site_fract_x
 _atom_site_fract_y
 _atom_site_fract_z
 _atom_site_occupancy
  Tb  Tb0  1  0.886763  0.958254  0.234765  1
  Tb  Tb1  1  0.114876  0.042485  0.765820  1
  Tb  Tb2  1  0.035087  0.722478  0.918070  1
  Tb  Tb3  1  0.965912  0.277817  0.082575  1
  Tb  Tb4  1  0.662663  0.881626  0.839806  1
  Ho  Ho5  1  0.334379  0.117384  0.158780  1
  Ni  Ni6  1  0.000221  0.000062  0.999710  1
  I  I7  1  0.655781  0.554168  0.731304  1
  I  I8  1  0.345596  0.443716  0.269216  1
  I  I9  1  0.747107  0.915875  0.541599  1
  I  I10  1  0.255148  0.085263  0.457470  1
  I  I11  1  0.085318  0.372067  0.821094  1
  I  I12  1  0.915731  0.628366  0.179656  1
  I  I13  1  0.455766  0.816735  0.093207  1
  I  I14  1  0.543859  0.185156  0.909025  1
  I  I15  1  0.231242  0.748219  0.659741  1
  I  I16  1  0.764551  0.250330  0.338163  1
