# generated using pymatgen
data_Er5Al3Si4Pd3
_symmetry_space_group_name_H-M   'P 1'
_cell_length_a   4.23583700
_cell_length_b   19.32577500
_cell_length_c   6.90070800
_cell_angle_alpha   90.00000000
_cell_angle_beta   90.00000000
_cell_angle_gamma   90.00000000
_symmetry_Int_Tables_number   1
_chemical_formula_structural   Er5Al3Si4Pd3
_chemical_formula_sum   'Er10 Al6 Si8 Pd6'
_cell_volume   564.89770378
_cell_formula_units_Z   2
loop_
 _symmetry_equiv_pos_site_id
 _symmetry_equiv_pos_as_xyz
  1  'x, y, z'
loop_
 _atom_site_type_symbol
 _atom_site_label
 _atom_site_symmetry_multiplicity
 _atom_site_fract_x
 _atom_site_fract_y
 _atom_site_fract_z
 _atom_site_occupancy
  Er  Er0  1  0.750000  0.120282  0.005870  1
  Er  Er1  1  0.750000  0.379718  0.005870  1
  Er  Er2  1  0.750000  0.250000  0.376749  1
  Er  Er3  1  0.750000  0.072548  0.494382  1
  Er  Er4  1  0.750000  0.427451  0.494382  1
  Er  Er5  1  0.250001  0.572548  0.505618  1
  Er  Er6  1  0.250001  0.927452  0.505618  1
  Er  Er7  1  0.250001  0.750000  0.623251  1
  Er  Er8  1  0.250001  0.620282  0.994130  1
  Er  Er9  1  0.250001  0.879718  0.994130  1
  Al  Al10  1  0.250001  0.250000  0.034964  1
  Al  Al11  1  0.750000  0.674701  0.322018  1
  Al  Al12  1  0.750000  0.825299  0.322018  1
  Al  Al13  1  0.250001  0.174701  0.677982  1
  Al  Al14  1  0.250001  0.325299  0.677982  1
  Al  Al15  1  0.750000  0.750000  0.965036  1
  Si  Si16  1  0.750000  0.543901  0.215344  1
  Si  Si17  1  0.750000  0.956099  0.215344  1
  Si  Si18  1  0.250001  0.147944  0.290929  1
  Si  Si19  1  0.250001  0.352056  0.290929  1
  Si  Si20  1  0.750000  0.647944  0.709071  1
  Si  Si21  1  0.750000  0.852056  0.709071  1
  Si  Si22  1  0.250001  0.043902  0.784656  1
  Si  Si23  1  0.250001  0.456098  0.784656  1
  Pd  Pd24  1  0.250001  0.025522  0.164296  1
  Pd  Pd25  1  0.250001  0.474478  0.164296  1
  Pd  Pd26  1  0.250001  0.750000  0.206591  1
  Pd  Pd27  1  0.750000  0.250000  0.793409  1
  Pd  Pd28  1  0.750000  0.525522  0.835704  1
  Pd  Pd29  1  0.750000  0.974478  0.835704  1
