# generated using pymatgen
data_Ca3(HoPb2)2
_symmetry_space_group_name_H-M   'P 1'
_cell_length_a   7.99105900
_cell_length_b   8.58027900
_cell_length_c   16.27844000
_cell_angle_alpha   90.00000000
_cell_angle_beta   90.00000000
_cell_angle_gamma   90.00000000
_symmetry_Int_Tables_number   1
_chemical_formula_structural   Ca3(HoPb2)2
_chemical_formula_sum   'Ca12 Ho8 Pb16'
_cell_volume   1116.13963381
_cell_formula_units_Z   4
loop_
 _symmetry_equiv_pos_site_id
 _symmetry_equiv_pos_as_xyz
  1  'x, y, z'
loop_
 _atom_site_type_symbol
 _atom_site_label
 _atom_site_symmetry_multiplicity
 _atom_site_fract_x
 _atom_site_fract_y
 _atom_site_fract_z
 _atom_site_occupancy
  Ca  Ca0  1  0.500445  0.685188  0.592311  1
  Ca  Ca1  1  0.000445  0.814812  0.907689  1
  Ca  Ca2  1  0.499555  0.314812  0.092311  1
  Ca  Ca3  1  0.999555  0.185188  0.407689  1
  Ca  Ca4  1  0.499555  0.314812  0.407689  1
  Ca  Ca5  1  0.999555  0.185188  0.092311  1
  Ca  Ca6  1  0.500445  0.685188  0.907689  1
  Ca  Ca7  1  0.000445  0.814812  0.592311  1
  Ca  Ca8  1  0.829259  0.510247  0.750000  1
  Ca  Ca9  1  0.329259  0.989753  0.750000  1
  Ca  Ca10  1  0.170741  0.489753  0.250000  1
  Ca  Ca11  1  0.670741  0.010247  0.250000  1
  Ho  Ho12  1  0.669487  0.164969  0.621684  1
  Ho  Ho13  1  0.169487  0.335031  0.878316  1
  Ho  Ho14  1  0.330513  0.835031  0.121684  1
  Ho  Ho15  1  0.830513  0.664969  0.378316  1
  Ho  Ho16  1  0.330513  0.835031  0.378316  1
  Ho  Ho17  1  0.830513  0.664969  0.121684  1
  Ho  Ho18  1  0.669487  0.164969  0.878316  1
  Ho  Ho19  1  0.169487  0.335031  0.621684  1
  Pb  Pb20  1  0.675701  0.961967  0.458836  1
  Pb  Pb21  1  0.175701  0.538033  0.041164  1
  Pb  Pb22  1  0.324299  0.038033  0.958836  1
  Pb  Pb23  1  0.824299  0.461967  0.541164  1
  Pb  Pb24  1  0.324299  0.038033  0.541164  1
  Pb  Pb25  1  0.824299  0.461967  0.958836  1
  Pb  Pb26  1  0.675701  0.961967  0.041164  1
  Pb  Pb27  1  0.175701  0.538033  0.458836  1
  Pb  Pb28  1  0.467942  0.371502  0.750000  1
  Pb  Pb29  1  0.967942  0.128498  0.750000  1
  Pb  Pb30  1  0.532058  0.628498  0.250000  1
  Pb  Pb31  1  0.032058  0.871502  0.250000  1
  Pb  Pb32  1  0.704307  0.870177  0.750000  1
  Pb  Pb33  1  0.204307  0.629823  0.750000  1
  Pb  Pb34  1  0.295693  0.129823  0.250000  1
  Pb  Pb35  1  0.795693  0.370177  0.250000  1
