# generated using pymatgen
data_La7NdZn7GaRh8
_symmetry_space_group_name_H-M   'P 1'
_cell_length_a   4.04389900
_cell_length_b   7.48247324
_cell_length_c   16.66837405
_cell_angle_alpha   90.17789337
_cell_angle_beta   90.00000000
_cell_angle_gamma   90.00000000
_symmetry_Int_Tables_number   1
_chemical_formula_structural   La7NdZn7GaRh8
_chemical_formula_sum   'La7 Nd1 Zn7 Ga1 Rh8'
_cell_volume   504.35533284
_cell_formula_units_Z   1
loop_
 _symmetry_equiv_pos_site_id
 _symmetry_equiv_pos_as_xyz
  1  'x, y, z'
loop_
 _atom_site_type_symbol
 _atom_site_label
 _atom_site_symmetry_multiplicity
 _atom_site_fract_x
 _atom_site_fract_y
 _atom_site_fract_z
 _atom_site_occupancy
  La  La0  1  0.250000  0.173156  0.939630  1
  La  La1  1  0.250000  0.672798  0.560668  1
  La  La2  1  0.750000  0.326958  0.439534  1
  La  La3  1  0.750000  0.949118  0.282581  1
  La  La4  1  0.750000  0.828030  0.059478  1
  La  La5  1  0.750000  0.451485  0.216789  1
  La  La6  1  0.250000  0.049107  0.717888  1
  Nd  Nd7  1  0.250000  0.548978  0.784747  1
  Zn  Zn8  1  0.250000  0.626571  0.350807  1
  Zn  Zn9  1  0.750000  0.380396  0.653507  1
  Zn  Zn10  1  0.250000  0.497180  0.058642  1
  Zn  Zn11  1  0.750000  0.502972  0.939292  1
  Zn  Zn12  1  0.250000  0.995937  0.438140  1
  Zn  Zn13  1  0.250000  0.126720  0.149626  1
  Zn  Zn14  1  0.750000  0.870067  0.850037  1
  Ga  Ga15  1  0.750000  0.003172  0.560408  1
  Rh  Rh16  1  0.750000  0.760082  0.435019  1
  Rh  Rh17  1  0.250000  0.245287  0.315061  1
  Rh  Rh18  1  0.750000  0.253244  0.814011  1
  Rh  Rh19  1  0.750000  0.759746  0.681946  1
  Rh  Rh20  1  0.250000  0.233785  0.566239  1
  Rh  Rh21  1  0.250000  0.744390  0.185139  1
  Rh  Rh22  1  0.750000  0.258210  0.065477  1
  Rh  Rh23  1  0.250000  0.742608  0.935336  1
