# generated using pymatgen
data_Tb6ErIrI12
_symmetry_space_group_name_H-M   'P 1'
_cell_length_a   9.80714292
_cell_length_b   9.80714288
_cell_length_c   9.80714231
_cell_angle_alpha   106.93480346
_cell_angle_beta   106.93479999
_cell_angle_gamma   106.93479768
_symmetry_Int_Tables_number   1
_chemical_formula_structural   Tb6ErIrI12
_chemical_formula_sum   'Tb6 Er1 Ir1 I12'
_cell_volume   786.94181479
_cell_formula_units_Z   1
loop_
 _symmetry_equiv_pos_site_id
 _symmetry_equiv_pos_as_xyz
  1  'x, y, z'
loop_
 _atom_site_type_symbol
 _atom_site_label
 _atom_site_symmetry_multiplicity
 _atom_site_fract_x
 _atom_site_fract_y
 _atom_site_fract_z
 _atom_site_occupancy
  Tb  Tb0  1  0.094523  0.022807  0.297085  1
  Tb  Tb1  1  0.297085  0.094523  0.022807  1
  Tb  Tb2  1  0.022807  0.297085  0.094523  1
  Tb  Tb3  1  0.905477  0.977193  0.702915  1
  Tb  Tb4  1  0.702915  0.905477  0.977193  1
  Tb  Tb5  1  0.977193  0.702915  0.905477  1
  Er  Er6  1  0.500000  0.500000  0.500000  1
  Ir  Ir7  1  0.000000  0.000000  0.000000  1
  I  I8  1  0.069604  0.675364  0.224775  1
  I  I9  1  0.224775  0.069604  0.675364  1
  I  I10  1  0.675364  0.224775  0.069604  1
  I  I11  1  0.930396  0.324636  0.775225  1
  I  I12  1  0.775225  0.930396  0.324636  1
  I  I13  1  0.324636  0.775225  0.930396  1
  I  I14  1  0.464787  0.164868  0.388611  1
  I  I15  1  0.388611  0.464787  0.164868  1
  I  I16  1  0.164868  0.388611  0.464787  1
  I  I17  1  0.535213  0.835132  0.611389  1
  I  I18  1  0.611389  0.535213  0.835132  1
  I  I19  1  0.835132  0.611389  0.535213  1
