# generated using pymatgen
data_Sm8Fe(Si4Pt)3
_symmetry_space_group_name_H-M   'P 1'
_cell_length_a   8.20321600
_cell_length_b   8.20321611
_cell_length_c   8.39038800
_cell_angle_alpha   90.00000000
_cell_angle_beta   90.00000000
_cell_angle_gamma   120.00000762
_symmetry_Int_Tables_number   1
_chemical_formula_structural   Sm8Fe(Si4Pt)3
_chemical_formula_sum   'Sm8 Fe1 Si12 Pt3'
_cell_volume   488.96856862
_cell_formula_units_Z   1
loop_
 _symmetry_equiv_pos_site_id
 _symmetry_equiv_pos_as_xyz
  1  'x, y, z'
loop_
 _atom_site_type_symbol
 _atom_site_label
 _atom_site_symmetry_multiplicity
 _atom_site_fract_x
 _atom_site_fract_y
 _atom_site_fract_z
 _atom_site_occupancy
  Sm  Sm0  1  0.000000  0.000000  0.249986  1
  Sm  Sm1  1  0.000000  0.000000  0.749689  1
  Sm  Sm2  1  0.996603  0.498300  0.254022  1
  Sm  Sm3  1  0.501700  0.498300  0.254022  1
  Sm  Sm4  1  0.502295  0.004591  0.746212  1
  Sm  Sm5  1  0.501700  0.003397  0.254022  1
  Sm  Sm6  1  0.502295  0.497705  0.746212  1
  Sm  Sm7  1  0.995409  0.497705  0.746212  1
  Fe  Fe8  1  0.666667  0.333333  0.497391  1
  Si  Si9  1  0.166082  0.332165  0.000946  1
  Si  Si10  1  0.667835  0.833918  0.000946  1
  Si  Si11  1  0.164594  0.329187  0.499821  1
  Si  Si12  1  0.330136  0.165068  0.998888  1
  Si  Si13  1  0.166082  0.833918  0.000946  1
  Si  Si14  1  0.670813  0.835406  0.499821  1
  Si  Si15  1  0.834932  0.669864  0.998888  1
  Si  Si16  1  0.344355  0.172177  0.500332  1
  Si  Si17  1  0.164594  0.835406  0.499821  1
  Si  Si18  1  0.827823  0.655645  0.500332  1
  Si  Si19  1  0.834932  0.165068  0.998888  1
  Si  Si20  1  0.827823  0.172177  0.500332  1
  Pt  Pt21  1  0.333333  0.666667  0.998884  1
  Pt  Pt22  1  0.333333  0.666667  0.501658  1
  Pt  Pt23  1  0.666667  0.333333  0.001724  1
