# generated using pymatgen
data_YbDyZn14Cu3
_symmetry_space_group_name_H-M   'P 1'
_cell_length_a   8.87850600
_cell_length_b   8.87850586
_cell_length_c   8.69733500
_cell_angle_alpha   90.00000000
_cell_angle_beta   90.00000000
_cell_angle_gamma   120.00000799
_symmetry_Int_Tables_number   1
_chemical_formula_structural   YbDyZn14Cu3
_chemical_formula_sum   'Yb2 Dy2 Zn28 Cu6'
_cell_volume   593.74036222
_cell_formula_units_Z   2
loop_
 _symmetry_equiv_pos_site_id
 _symmetry_equiv_pos_as_xyz
  1  'x, y, z'
loop_
 _atom_site_type_symbol
 _atom_site_label
 _atom_site_symmetry_multiplicity
 _atom_site_fract_x
 _atom_site_fract_y
 _atom_site_fract_z
 _atom_site_occupancy
  Yb  Yb0  1  0.000000  0.000000  0.250000  1
  Yb  Yb1  1  0.000000  0.000000  0.750000  1
  Dy  Dy2  1  0.333333  0.666667  0.750000  1
  Dy  Dy3  1  0.666667  0.333333  0.250000  1
  Zn  Zn4  1  0.333333  0.666667  0.404413  1
  Zn  Zn5  1  0.666667  0.333333  0.595587  1
  Zn  Zn6  1  0.666667  0.333333  0.904413  1
  Zn  Zn7  1  0.333333  0.666667  0.095587  1
  Zn  Zn8  1  0.332407  0.368467  0.250000  1
  Zn  Zn9  1  0.631533  0.963940  0.250000  1
  Zn  Zn10  1  0.036060  0.667593  0.250000  1
  Zn  Zn11  1  0.631533  0.667593  0.250000  1
  Zn  Zn12  1  0.036060  0.368467  0.250000  1
  Zn  Zn13  1  0.332407  0.963940  0.250000  1
  Zn  Zn14  1  0.667593  0.631533  0.750000  1
  Zn  Zn15  1  0.368467  0.036060  0.750000  1
  Zn  Zn16  1  0.963940  0.332407  0.750000  1
  Zn  Zn17  1  0.368467  0.332407  0.750000  1
  Zn  Zn18  1  0.963940  0.631533  0.750000  1
  Zn  Zn19  1  0.667593  0.036060  0.750000  1
  Zn  Zn20  1  0.167316  0.832684  0.521422  1
  Zn  Zn21  1  0.167316  0.334632  0.521422  1
  Zn  Zn22  1  0.665368  0.832684  0.521422  1
  Zn  Zn23  1  0.832684  0.167316  0.478578  1
  Zn  Zn24  1  0.832684  0.665368  0.478578  1
  Zn  Zn25  1  0.334632  0.167316  0.478578  1
  Zn  Zn26  1  0.832684  0.167316  0.021422  1
  Zn  Zn27  1  0.832684  0.665368  0.021422  1
  Zn  Zn28  1  0.334632  0.167316  0.021422  1
  Zn  Zn29  1  0.167316  0.832684  0.978578  1
  Zn  Zn30  1  0.167316  0.334632  0.978578  1
  Zn  Zn31  1  0.665368  0.832684  0.978578  1
  Cu  Cu32  1  0.500000  0.500000  0.500000  1
  Cu  Cu33  1  0.500000  0.000000  0.500000  1
  Cu  Cu34  1  0.000000  0.500000  0.500000  1
  Cu  Cu35  1  0.500000  0.500000  0.000000  1
  Cu  Cu36  1  0.500000  0.000000  0.000000  1
  Cu  Cu37  1  0.000000  0.500000  0.000000  1
