# generated using pymatgen
data_YPu(CBr)2
_symmetry_space_group_name_H-M   'P 1'
_cell_length_a   4.01131692
_cell_length_b   4.01131668
_cell_length_c   10.35026964
_cell_angle_alpha   81.36909954
_cell_angle_beta   81.36909815
_cell_angle_gamma   56.68750017
_symmetry_Int_Tables_number   1
_chemical_formula_structural   YPu(CBr)2
_chemical_formula_sum   'Y1 Pu1 C2 Br2'
_cell_volume   137.13953019
_cell_formula_units_Z   1
loop_
 _symmetry_equiv_pos_site_id
 _symmetry_equiv_pos_as_xyz
  1  'x, y, z'
loop_
 _atom_site_type_symbol
 _atom_site_label
 _atom_site_symmetry_multiplicity
 _atom_site_fract_x
 _atom_site_fract_y
 _atom_site_fract_z
 _atom_site_occupancy
  Y  Y0  1  0.591823  0.591823  0.143001  1
  Pu  Pu1  1  0.410267  0.410267  0.855360  1
  C  C2  1  0.089536  0.089536  0.967006  1
  C  C3  1  0.913471  0.913471  0.039519  1
  Br  Br4  1  0.792006  0.792006  0.666965  1
  Br  Br5  1  0.202898  0.202898  0.328149  1
