# generated using pymatgen
data_Er4AlRe3B16
_symmetry_space_group_name_H-M   'P 1'
_cell_length_a   3.58851300
_cell_length_b   5.95435833
_cell_length_c   11.49492901
_cell_angle_alpha   89.88159228
_cell_angle_beta   90.00000000
_cell_angle_gamma   90.00000000
_symmetry_Int_Tables_number   1
_chemical_formula_structural   Er4AlRe3B16
_chemical_formula_sum   'Er4 Al1 Re3 B16'
_cell_volume   245.61498339
_cell_formula_units_Z   1
loop_
 _symmetry_equiv_pos_site_id
 _symmetry_equiv_pos_as_xyz
  1  'x, y, z'
loop_
 _atom_site_type_symbol
 _atom_site_label
 _atom_site_symmetry_multiplicity
 _atom_site_fract_x
 _atom_site_fract_y
 _atom_site_fract_z
 _atom_site_occupancy
  Er  Er0  1  0.500000  0.125465  0.851660  1
  Er  Er1  1  0.500000  0.874606  0.146586  1
  Er  Er2  1  0.500000  0.628436  0.653583  1
  Er  Er3  1  0.500000  0.373727  0.348945  1
  Al  Al4  1  0.500000  0.363811  0.088141  1
  Re  Re5  1  0.500000  0.134761  0.585555  1
  Re  Re6  1  0.500000  0.863346  0.413785  1
  Re  Re7  1  0.500000  0.627292  0.914246  1
  B  B8  1  0.000000  0.285981  0.686160  1
  B  B9  1  0.000000  0.712356  0.313461  1
  B  B10  1  0.000000  0.788197  0.815399  1
  B  B11  1  0.000000  0.212532  0.185598  1
  B  B12  1  0.000000  0.365095  0.531371  1
  B  B13  1  0.000000  0.635018  0.468523  1
  B  B14  1  0.000000  0.865574  0.968741  1
  B  B15  1  0.000000  0.134927  0.031899  1
  B  B16  1  0.000000  0.024783  0.306169  1
  B  B17  1  0.000000  0.976686  0.692954  1
  B  B18  1  0.000000  0.524227  0.193169  1
  B  B19  1  0.000000  0.477060  0.807442  1
  B  B20  1  0.000000  0.114766  0.451864  1
  B  B21  1  0.000000  0.886455  0.547554  1
  B  B22  1  0.000000  0.617955  0.046415  1
  B  B23  1  0.000000  0.386943  0.950783  1
