# generated using pymatgen
data_Mg3GaP7N12
_symmetry_space_group_name_H-M   'P 1'
_cell_length_a   7.21325662
_cell_length_b   7.21325780
_cell_length_c   7.21325723
_cell_angle_alpha   109.52541209
_cell_angle_beta   109.52542196
_cell_angle_gamma   109.52539950
_symmetry_Int_Tables_number   1
_chemical_formula_structural   Mg3GaP7N12
_chemical_formula_sum   'Mg3 Ga1 P7 N12'
_cell_volume   288.33538908
_cell_formula_units_Z   1
loop_
 _symmetry_equiv_pos_site_id
 _symmetry_equiv_pos_as_xyz
  1  'x, y, z'
loop_
 _atom_site_type_symbol
 _atom_site_label
 _atom_site_symmetry_multiplicity
 _atom_site_fract_x
 _atom_site_fract_y
 _atom_site_fract_z
 _atom_site_occupancy
  Mg  Mg0  1  0.001636  0.663303  0.001636  1
  Mg  Mg1  1  0.663303  0.001636  0.001636  1
  Mg  Mg2  1  0.001636  0.001636  0.663303  1
  Ga  Ga3  1  0.335599  0.335599  0.335599  1
  P  P4  1  0.497325  0.249271  0.748974  1
  P  P5  1  0.497325  0.748974  0.249271  1
  P  P6  1  0.748974  0.249271  0.497325  1
  P  P7  1  0.249271  0.497325  0.748974  1
  P  P8  1  0.748974  0.497325  0.249271  1
  P  P9  1  0.249271  0.748974  0.497325  1
  P  P10  1  0.019149  0.019149  0.019149  1
  N  N11  1  0.999403  0.722502  0.440392  1
  N  N12  1  0.272231  0.710615  0.272231  1
  N  N13  1  0.291449  0.558208  0.558208  1
  N  N14  1  0.558208  0.558208  0.291449  1
  N  N15  1  0.558208  0.291449  0.558208  1
  N  N16  1  0.722502  0.999403  0.440392  1
  N  N17  1  0.440392  0.999403  0.722502  1
  N  N18  1  0.722502  0.440392  0.999403  1
  N  N19  1  0.272231  0.272231  0.710615  1
  N  N20  1  0.710615  0.272231  0.272231  1
  N  N21  1  0.999403  0.440392  0.722502  1
  N  N22  1  0.440392  0.722502  0.999403  1
