# generated using pymatgen
data_AcPrZn5Cd
_symmetry_space_group_name_H-M   'P 1'
_cell_length_a   8.79346803
_cell_length_b   8.79346995
_cell_length_c   9.23996100
_cell_angle_alpha   90.00000000
_cell_angle_beta   90.00000000
_cell_angle_gamma   149.93547120
_symmetry_Int_Tables_number   1
_chemical_formula_structural   AcPrZn5Cd
_chemical_formula_sum   'Ac2 Pr2 Zn10 Cd2'
_cell_volume   357.93708398
_cell_formula_units_Z   2
loop_
 _symmetry_equiv_pos_site_id
 _symmetry_equiv_pos_as_xyz
  1  'x, y, z'
loop_
 _atom_site_type_symbol
 _atom_site_label
 _atom_site_symmetry_multiplicity
 _atom_site_fract_x
 _atom_site_fract_y
 _atom_site_fract_z
 _atom_site_occupancy
  Ac  Ac0  1  0.000000  0.000000  0.500000  1
  Ac  Ac1  1  0.000000  0.000000  0.000000  1
  Pr  Pr2  1  0.204468  0.795532  0.250000  1
  Pr  Pr3  1  0.795532  0.204468  0.750000  1
  Zn  Zn4  1  0.812110  0.187890  0.391938  1
  Zn  Zn5  1  0.187890  0.812110  0.608062  1
  Zn  Zn6  1  0.812110  0.187890  0.108062  1
  Zn  Zn7  1  0.187890  0.812110  0.891938  1
  Zn  Zn8  1  0.658983  0.341017  0.475526  1
  Zn  Zn9  1  0.341017  0.658983  0.524474  1
  Zn  Zn10  1  0.658983  0.341017  0.024474  1
  Zn  Zn11  1  0.341017  0.658983  0.975526  1
  Zn  Zn12  1  0.567444  0.432556  0.250000  1
  Zn  Zn13  1  0.432556  0.567444  0.750000  1
  Cd  Cd14  1  0.404946  0.595054  0.250000  1
  Cd  Cd15  1  0.595054  0.404946  0.750000  1
