# generated using pymatgen
data_Y4AlI6
_symmetry_space_group_name_H-M   'P 1'
_cell_length_a   4.18617200
_cell_length_b   14.31232300
_cell_length_c   15.02893600
_cell_angle_alpha   90.00000000
_cell_angle_beta   90.00000000
_cell_angle_gamma   90.00000000
_symmetry_Int_Tables_number   1
_chemical_formula_structural   Y4AlI6
_chemical_formula_sum   'Y8 Al2 I12'
_cell_volume   900.44135401
_cell_formula_units_Z   2
loop_
 _symmetry_equiv_pos_site_id
 _symmetry_equiv_pos_as_xyz
  1  'x, y, z'
loop_
 _atom_site_type_symbol
 _atom_site_label
 _atom_site_symmetry_multiplicity
 _atom_site_fract_x
 _atom_site_fract_y
 _atom_site_fract_z
 _atom_site_occupancy
  Y  Y0  1  0.500000  0.115764  0.344713  1
  Y  Y1  1  0.500000  0.884236  0.655287  1
  Y  Y2  1  0.500000  0.615764  0.155287  1
  Y  Y3  1  0.500000  0.384236  0.844713  1
  Y  Y4  1  0.000000  0.117671  0.579083  1
  Y  Y5  1  0.000000  0.882329  0.420917  1
  Y  Y6  1  0.000000  0.617671  0.920917  1
  Y  Y7  1  0.000000  0.382329  0.079083  1
  Al  Al8  1  0.500000  0.000000  0.500000  1
  Al  Al9  1  0.500000  0.500000  0.000000  1
  I  I10  1  0.500000  0.245340  0.165121  1
  I  I11  1  0.500000  0.754660  0.834879  1
  I  I12  1  0.500000  0.745340  0.334879  1
  I  I13  1  0.500000  0.254660  0.665121  1
  I  I14  1  0.000000  0.258419  0.414623  1
  I  I15  1  0.000000  0.741581  0.585377  1
  I  I16  1  0.000000  0.758419  0.085377  1
  I  I17  1  0.000000  0.241581  0.914623  1
  I  I18  1  0.000000  0.998746  0.239945  1
  I  I19  1  0.000000  0.001254  0.760055  1
  I  I20  1  0.000000  0.498746  0.260055  1
  I  I21  1  0.000000  0.501254  0.739945  1
