# generated using pymatgen
data_Tm3Sc5In3Fe
_symmetry_space_group_name_H-M   'P 1'
_cell_length_a   9.86475901
_cell_length_b   9.86336584
_cell_length_c   6.74702500
_cell_angle_alpha   90.00000000
_cell_angle_beta   90.00000000
_cell_angle_gamma   120.01346737
_symmetry_Int_Tables_number   1
_chemical_formula_structural   Tm3Sc5In3Fe
_chemical_formula_sum   'Tm6 Sc10 In6 Fe2'
_cell_volume   568.45438445
_cell_formula_units_Z   2
loop_
 _symmetry_equiv_pos_site_id
 _symmetry_equiv_pos_as_xyz
  1  'x, y, z'
loop_
 _atom_site_type_symbol
 _atom_site_label
 _atom_site_symmetry_multiplicity
 _atom_site_fract_x
 _atom_site_fract_y
 _atom_site_fract_z
 _atom_site_occupancy
  Tm  Tm0  1  0.533596  0.067094  0.520094  1
  Tm  Tm1  1  0.932595  0.466287  0.519923  1
  Tm  Tm2  1  0.533642  0.466464  0.520105  1
  Tm  Tm3  1  0.466404  0.932906  0.020094  1
  Tm  Tm4  1  0.067405  0.533713  0.019923  1
  Tm  Tm5  1  0.466358  0.533536  0.020105  1
  Sc  Sc6  1  0.178176  0.356382  0.725493  1
  Sc  Sc7  1  0.643380  0.821701  0.725373  1
  Sc  Sc8  1  0.178206  0.821775  0.725533  1
  Sc  Sc9  1  0.821824  0.643618  0.225493  1
  Sc  Sc10  1  0.356620  0.178299  0.225373  1
  Sc  Sc11  1  0.821794  0.178225  0.225533  1
  Sc  Sc12  1  0.666702  0.333291  0.919152  1
  Sc  Sc13  1  0.333298  0.666709  0.419152  1
  Sc  Sc14  1  0.000034  0.000012  0.512048  1
  Sc  Sc15  1  0.999966  0.999988  0.012048  1
  In  In16  1  0.839202  0.678443  0.776065  1
  In  In17  1  0.321576  0.160793  0.776209  1
  In  In18  1  0.839211  0.160807  0.776129  1
  In  In19  1  0.160798  0.321557  0.276065  1
  In  In20  1  0.678424  0.839207  0.276209  1
  In  In21  1  0.160789  0.839193  0.276129  1
  Fe  Fe22  1  0.666696  0.333215  0.281716  1
  Fe  Fe23  1  0.333304  0.666785  0.781716  1
