# generated using pymatgen
data_Ho3Lu(Al8Pt3)3
_symmetry_space_group_name_H-M   'P 1'
_cell_length_a   7.51937217
_cell_length_b   7.54014022
_cell_length_c   13.15128882
_cell_angle_alpha   84.59306228
_cell_angle_beta   79.11486057
_cell_angle_gamma   59.98691260
_symmetry_Int_Tables_number   1
_chemical_formula_structural   Ho3Lu(Al8Pt3)3
_chemical_formula_sum   'Ho3 Lu1 Al24 Pt9'
_cell_volume   634.04130260
_cell_formula_units_Z   1
loop_
 _symmetry_equiv_pos_site_id
 _symmetry_equiv_pos_as_xyz
  1  'x, y, z'
loop_
 _atom_site_type_symbol
 _atom_site_label
 _atom_site_symmetry_multiplicity
 _atom_site_fract_x
 _atom_site_fract_y
 _atom_site_fract_z
 _atom_site_occupancy
  Ho  Ho0  1  0.393634  0.168865  0.807769  1
  Ho  Ho1  1  0.606448  0.831209  0.192233  1
  Ho  Ho2  1  0.734066  0.498598  0.807644  1
  Lu  Lu3  1  0.265406  0.501371  0.193264  1
  Al  Al4  1  0.684194  0.833850  0.944287  1
  Al  Al5  1  0.315662  0.166931  0.056160  1
  Al  Al6  1  0.146499  0.832424  0.561577  1
  Al  Al7  1  0.853574  0.167522  0.438261  1
  Al  Al8  1  0.479373  0.166820  0.558641  1
  Al  Al9  1  0.520592  0.833246  0.441212  1
  Al  Al10  1  0.217643  0.165715  0.328676  1
  Al  Al11  1  0.782587  0.834622  0.670825  1
  Al  Al12  1  0.437188  0.506450  0.670953  1
  Al  Al13  1  0.562554  0.493526  0.328585  1
  Al  Al14  1  0.109436  0.159738  0.669792  1
  Al  Al15  1  0.891190  0.839861  0.329682  1
  Al  Al16  1  0.352973  0.499386  0.944810  1
  Al  Al17  1  0.645913  0.500670  0.056107  1
  Al  Al18  1  0.015793  0.167689  0.952435  1
  Al  Al19  1  0.984723  0.831664  0.048085  1
  Al  Al20  1  0.186958  0.499293  0.441180  1
  Al  Al21  1  0.813174  0.500701  0.558591  1
  Al  Al22  1  0.733293  0.164765  0.183328  1
  Al  Al23  1  0.266037  0.835889  0.816642  1
  Al  Al24  1  0.061700  0.631299  0.815554  1
  Al  Al25  1  0.939063  0.368667  0.184400  1
  Al  Al26  1  0.855500  0.041650  0.816097  1
  Al  Al27  1  0.144552  0.957503  0.183846  1
  Pt  Pt28  1  0.119802  0.491571  0.639158  1
  Pt  Pt29  1  0.880664  0.508479  0.360570  1
  Pt  Pt30  1  0.657164  0.171382  0.999825  1
  Pt  Pt31  1  0.342779  0.828663  0.000298  1
  Pt  Pt32  1  0.537502  0.167155  0.360684  1
  Pt  Pt33  1  0.462202  0.833196  0.639031  1
  Pt  Pt34  1  0.778356  0.175118  0.637461  1
  Pt  Pt35  1  0.221837  0.824468  0.362254  1
  Pt  Pt36  1  0.999969  0.500045  0.000085  1
