# generated using pymatgen
data_YbPu3(SiPd)4
_symmetry_space_group_name_H-M   'P 1'
_cell_length_a   4.38437000
_cell_length_b   7.01316476
_cell_length_c   7.38896629
_cell_angle_alpha   89.64765404
_cell_angle_beta   90.00000000
_cell_angle_gamma   90.00000000
_symmetry_Int_Tables_number   1
_chemical_formula_structural   YbPu3(SiPd)4
_chemical_formula_sum   'Yb1 Pu3 Si4 Pd4'
_cell_volume   227.19392384
_cell_formula_units_Z   1
loop_
 _symmetry_equiv_pos_site_id
 _symmetry_equiv_pos_as_xyz
  1  'x, y, z'
loop_
 _atom_site_type_symbol
 _atom_site_label
 _atom_site_symmetry_multiplicity
 _atom_site_fract_x
 _atom_site_fract_y
 _atom_site_fract_z
 _atom_site_occupancy
  Yb  Yb0  1  0.250000  0.994436  0.300946  1
  Pu  Pu1  1  0.250000  0.495158  0.197892  1
  Pu  Pu2  1  0.750000  0.511299  0.805861  1
  Pu  Pu3  1  0.750000  0.005178  0.700640  1
  Si  Si4  1  0.250000  0.805435  0.907787  1
  Si  Si5  1  0.750000  0.202909  0.085762  1
  Si  Si6  1  0.750000  0.686752  0.412176  1
  Si  Si7  1  0.250000  0.304847  0.590976  1
  Pd  Pd8  1  0.250000  0.692578  0.579319  1
  Pd  Pd9  1  0.750000  0.295826  0.416926  1
  Pd  Pd10  1  0.750000  0.819947  0.087310  1
  Pd  Pd11  1  0.250000  0.185636  0.914405  1
