# generated using pymatgen
data_Ho2Mn5P7Ir6W
_symmetry_space_group_name_H-M   'P 1'
_cell_length_a   9.43515091
_cell_length_b   9.39493482
_cell_length_c   3.85402100
_cell_angle_alpha   90.00000000
_cell_angle_beta   90.00000000
_cell_angle_gamma   120.23131843
_symmetry_Int_Tables_number   1
_chemical_formula_structural   Ho2Mn5P7Ir6W
_chemical_formula_sum   'Ho2 Mn5 P7 Ir6 W1'
_cell_volume   295.16869781
_cell_formula_units_Z   1
loop_
 _symmetry_equiv_pos_site_id
 _symmetry_equiv_pos_as_xyz
  1  'x, y, z'
loop_
 _atom_site_type_symbol
 _atom_site_label
 _atom_site_symmetry_multiplicity
 _atom_site_fract_x
 _atom_site_fract_y
 _atom_site_fract_z
 _atom_site_occupancy
  Ho  Ho0  1  0.667810  0.334540  0.000000  1
  Ho  Ho1  1  0.332659  0.665233  0.500000  1
  Mn  Mn2  1  0.269826  0.157374  0.000000  1
  Mn  Mn3  1  0.838026  0.108998  0.000000  1
  Mn  Mn4  1  0.888050  0.731659  0.000000  1
  Mn  Mn5  1  0.785995  0.883531  0.500000  1
  Mn  Mn6  1  0.120146  0.906934  0.500000  1
  P  P7  1  0.297691  0.407108  0.000000  1
  P  P8  1  0.588036  0.887797  0.000000  1
  P  P9  1  0.109955  0.701885  0.000000  1
  P  P10  1  0.397879  0.118889  0.500000  1
  P  P11  1  0.879999  0.278759  0.500000  1
  P  P12  1  0.723785  0.604546  0.500000  1
  P  P13  1  0.000553  0.001267  0.000000  1
  Ir  Ir14  1  0.068473  0.430986  0.000000  1
  Ir  Ir15  1  0.571229  0.636854  0.000000  1
  Ir  Ir16  1  0.362524  0.935201  0.000000  1
  Ir  Ir17  1  0.446672  0.386644  0.500000  1
  Ir  Ir18  1  0.612441  0.055014  0.500000  1
  Ir  Ir19  1  0.945410  0.559726  0.500000  1
  W  W20  1  0.092841  0.207054  0.500000  1
