# generated using pymatgen
data_Sc4VRe6W
_symmetry_space_group_name_H-M   'P 1'
_cell_length_a   5.29213324
_cell_length_b   5.28365525
_cell_length_c   8.64147400
_cell_angle_alpha   90.00000000
_cell_angle_beta   90.00000000
_cell_angle_gamma   119.94702875
_symmetry_Int_Tables_number   1
_chemical_formula_structural   Sc4VRe6W
_chemical_formula_sum   'Sc4 V1 Re6 W1'
_cell_volume   209.37039357
_cell_formula_units_Z   1
loop_
 _symmetry_equiv_pos_site_id
 _symmetry_equiv_pos_as_xyz
  1  'x, y, z'
loop_
 _atom_site_type_symbol
 _atom_site_label
 _atom_site_symmetry_multiplicity
 _atom_site_fract_x
 _atom_site_fract_y
 _atom_site_fract_z
 _atom_site_occupancy
  Sc  Sc0  1  0.332273  0.666137  0.438842  1
  Sc  Sc1  1  0.668052  0.334026  0.938986  1
  Sc  Sc2  1  0.668052  0.334026  0.561014  1
  Sc  Sc3  1  0.332273  0.666137  0.061158  1
  V  V4  1  0.661091  0.830545  0.750000  1
  Re  Re5  1  0.827429  0.170546  0.250000  1
  Re  Re6  1  0.174228  0.346956  0.750000  1
  Re  Re7  1  0.174228  0.827272  0.750000  1
  Re  Re8  1  0.827429  0.656883  0.250000  1
  Re  Re9  1  0.998931  0.999466  0.505051  1
  Re  Re10  1  0.998931  0.999466  0.994949  1
  W  W11  1  0.337085  0.168542  0.250000  1
