# generated using pymatgen
data_Ac6Cr5S16
_symmetry_space_group_name_H-M   'P 1'
_cell_length_a   9.37212666
_cell_length_b   9.37212665
_cell_length_c   11.30403881
_cell_angle_alpha   88.25491177
_cell_angle_beta   88.25491140
_cell_angle_gamma   142.12621135
_symmetry_Int_Tables_number   1
_chemical_formula_structural   Ac6Cr5S16
_chemical_formula_sum   'Ac6 Cr5 S16'
_cell_volume   606.88177249
_cell_formula_units_Z   1
loop_
 _symmetry_equiv_pos_site_id
 _symmetry_equiv_pos_as_xyz
  1  'x, y, z'
loop_
 _atom_site_type_symbol
 _atom_site_label
 _atom_site_symmetry_multiplicity
 _atom_site_fract_x
 _atom_site_fract_y
 _atom_site_fract_z
 _atom_site_occupancy
  Ac  Ac0  1  0.073876  0.406618  0.822476  1
  Ac  Ac1  1  0.406618  0.073876  0.822476  1
  Ac  Ac2  1  0.767680  0.767680  0.817688  1
  Ac  Ac3  1  0.844762  0.510889  0.151759  1
  Ac  Ac4  1  0.510889  0.844762  0.151759  1
  Ac  Ac5  1  0.205627  0.205627  0.153818  1
  Cr  Cr6  1  0.613903  0.813892  0.486961  1
  Cr  Cr7  1  0.813892  0.613903  0.486961  1
  Cr  Cr8  1  0.012886  0.411597  0.484406  1
  Cr  Cr9  1  0.411597  0.012886  0.484406  1
  Cr  Cr10  1  0.213795  0.213795  0.490273  1
  S  S11  1  0.929079  0.125360  0.606916  1
  S  S12  1  0.125360  0.929079  0.606916  1
  S  S13  1  0.529410  0.529410  0.599752  1
  S  S14  1  0.325390  0.728308  0.599207  1
  S  S15  1  0.728308  0.325390  0.599207  1
  S  S16  1  0.248414  0.248414  0.883160  1
  S  S17  1  0.027279  0.359798  0.091164  1
  S  S18  1  0.359798  0.027279  0.091164  1
  S  S19  1  0.696137  0.101426  0.370545  1
  S  S20  1  0.101426  0.696137  0.370545  1
  S  S21  1  0.901580  0.901580  0.376048  1
  S  S22  1  0.300045  0.497798  0.368122  1
  S  S23  1  0.497798  0.300045  0.368122  1
  S  S24  1  0.900863  0.566881  0.881891  1
  S  S25  1  0.566881  0.900863  0.881891  1
  S  S26  1  0.709308  0.709308  0.090371  1
