# generated using pymatgen
data_TbThTc3Os
_symmetry_space_group_name_H-M   'P 1'
_cell_length_a   5.27028900
_cell_length_b   5.27028861
_cell_length_c   9.48716300
_cell_angle_alpha   90.00000000
_cell_angle_beta   90.00000000
_cell_angle_gamma   119.99999616
_symmetry_Int_Tables_number   1
_chemical_formula_structural   TbThTc3Os
_chemical_formula_sum   'Tb2 Th2 Tc6 Os2'
_cell_volume   228.21061443
_cell_formula_units_Z   2
loop_
 _symmetry_equiv_pos_site_id
 _symmetry_equiv_pos_as_xyz
  1  'x, y, z'
loop_
 _atom_site_type_symbol
 _atom_site_label
 _atom_site_symmetry_multiplicity
 _atom_site_fract_x
 _atom_site_fract_y
 _atom_site_fract_z
 _atom_site_occupancy
  Tb  Tb0  1  0.666667  0.333333  0.937116  1
  Tb  Tb1  1  0.333333  0.666667  0.062884  1
  Th  Th2  1  0.333333  0.666667  0.434694  1
  Th  Th3  1  0.666667  0.333333  0.565306  1
  Tc  Tc4  1  0.830243  0.169757  0.244506  1
  Tc  Tc5  1  0.830243  0.660486  0.244506  1
  Tc  Tc6  1  0.339514  0.169757  0.244506  1
  Tc  Tc7  1  0.169757  0.830243  0.755494  1
  Tc  Tc8  1  0.169757  0.339514  0.755494  1
  Tc  Tc9  1  0.660486  0.830243  0.755494  1
  Os  Os10  1  0.000000  0.000000  0.500000  1
  Os  Os11  1  0.000000  0.000000  0.000000  1
