# generated using pymatgen
data_YbScFeB6
_symmetry_space_group_name_H-M   'P 1'
_cell_length_a   3.40377800
_cell_length_b   8.92434800
_cell_length_c   11.30534600
_cell_angle_alpha   90.00000000
_cell_angle_beta   90.00000000
_cell_angle_gamma   90.00000000
_symmetry_Int_Tables_number   1
_chemical_formula_structural   YbScFeB6
_chemical_formula_sum   'Yb4 Sc4 Fe4 B24'
_cell_volume   343.41683584
_cell_formula_units_Z   4
loop_
 _symmetry_equiv_pos_site_id
 _symmetry_equiv_pos_as_xyz
  1  'x, y, z'
loop_
 _atom_site_type_symbol
 _atom_site_label
 _atom_site_symmetry_multiplicity
 _atom_site_fract_x
 _atom_site_fract_y
 _atom_site_fract_z
 _atom_site_occupancy
  Yb  Yb0  1  0.000000  0.824149  0.084573  1
  Yb  Yb1  1  0.000000  0.175851  0.915427  1
  Yb  Yb2  1  0.000000  0.324149  0.415427  1
  Yb  Yb3  1  0.000000  0.675851  0.584573  1
  Sc  Sc4  1  0.000000  0.442636  0.132906  1
  Sc  Sc5  1  0.000000  0.557364  0.867094  1
  Sc  Sc6  1  0.000000  0.942636  0.367094  1
  Sc  Sc7  1  0.000000  0.057364  0.632906  1
  Fe  Fe8  1  0.000000  0.141813  0.183430  1
  Fe  Fe9  1  0.000000  0.858187  0.816570  1
  Fe  Fe10  1  0.000000  0.641813  0.316570  1
  Fe  Fe11  1  0.000000  0.358187  0.683430  1
  B  B12  1  0.500000  0.055908  0.069246  1
  B  B13  1  0.500000  0.944092  0.930754  1
  B  B14  1  0.500000  0.555908  0.430754  1
  B  B15  1  0.500000  0.444092  0.569246  1
  B  B16  1  0.500000  0.250578  0.084751  1
  B  B17  1  0.500000  0.749422  0.915249  1
  B  B18  1  0.500000  0.750578  0.415249  1
  B  B19  1  0.500000  0.249422  0.584751  1
  B  B20  1  0.500000  0.292897  0.235745  1
  B  B21  1  0.500000  0.707103  0.764255  1
  B  B22  1  0.500000  0.792897  0.264255  1
  B  B23  1  0.500000  0.207103  0.735745  1
  B  B24  1  0.500000  0.130633  0.315515  1
  B  B25  1  0.500000  0.869367  0.684485  1
  B  B26  1  0.500000  0.630633  0.184485  1
  B  B27  1  0.500000  0.369367  0.815515  1
  B  B28  1  0.500000  0.485416  0.287749  1
  B  B29  1  0.500000  0.514584  0.712251  1
  B  B30  1  0.500000  0.985416  0.212251  1
  B  B31  1  0.500000  0.014584  0.787749  1
  B  B32  1  0.500000  0.094858  0.474652  1
  B  B33  1  0.500000  0.905142  0.525348  1
  B  B34  1  0.500000  0.594858  0.025348  1
  B  B35  1  0.500000  0.405142  0.974652  1
