# generated using pymatgen
data_U4Re3TcC8
_symmetry_space_group_name_H-M   'P 1'
_cell_length_a   3.19111600
_cell_length_b   5.60179973
_cell_length_c   11.03995538
_cell_angle_alpha   89.91012515
_cell_angle_beta   90.00000000
_cell_angle_gamma   90.00000000
_symmetry_Int_Tables_number   1
_chemical_formula_structural   U4Re3TcC8
_chemical_formula_sum   'U4 Re3 Tc1 C8'
_cell_volume   197.34991954
_cell_formula_units_Z   1
loop_
 _symmetry_equiv_pos_site_id
 _symmetry_equiv_pos_as_xyz
  1  'x, y, z'
loop_
 _atom_site_type_symbol
 _atom_site_label
 _atom_site_symmetry_multiplicity
 _atom_site_fract_x
 _atom_site_fract_y
 _atom_site_fract_z
 _atom_site_occupancy
  U  U0  1  0.250000  0.083653  0.857946  1
  U  U1  1  0.250000  0.582460  0.640792  1
  U  U2  1  0.750000  0.916974  0.140779  1
  U  U3  1  0.750000  0.415191  0.359062  1
  Re  Re4  1  0.250000  0.420194  0.104578  1
  Re  Re5  1  0.250000  0.918373  0.395439  1
  Re  Re6  1  0.750000  0.580648  0.896692  1
  Tc  Tc7  1  0.750000  0.081395  0.604404  1
  C  C8  1  0.250000  0.160373  0.243640  1
  C  C9  1  0.250000  0.660100  0.256450  1
  C  C10  1  0.750000  0.838639  0.756985  1
  C  C11  1  0.750000  0.341817  0.744660  1
  C  C12  1  0.250000  0.744365  0.992918  1
  C  C13  1  0.250000  0.242314  0.506349  1
  C  C14  1  0.750000  0.256140  0.007092  1
  C  C15  1  0.750000  0.757365  0.492214  1
