# generated using pymatgen
data_Er8P14Ir15Rh
_symmetry_space_group_name_H-M   'P 1'
_cell_length_a   3.94045300
_cell_length_b   12.61608810
_cell_length_c   13.10382167
_cell_angle_alpha   80.70730365
_cell_angle_beta   90.00000000
_cell_angle_gamma   90.00000000
_symmetry_Int_Tables_number   1
_chemical_formula_structural   Er8P14Ir15Rh
_chemical_formula_sum   'Er8 P14 Ir15 Rh1'
_cell_volume   642.88243826
_cell_formula_units_Z   1
loop_
 _symmetry_equiv_pos_site_id
 _symmetry_equiv_pos_as_xyz
  1  'x, y, z'
loop_
 _atom_site_type_symbol
 _atom_site_label
 _atom_site_symmetry_multiplicity
 _atom_site_fract_x
 _atom_site_fract_y
 _atom_site_fract_z
 _atom_site_occupancy
  Er  Er0  1  0.750000  0.790800  0.562262  1
  Er  Er1  1  0.250000  0.209132  0.437737  1
  Er  Er2  1  0.750000  0.479403  0.706743  1
  Er  Er3  1  0.250000  0.520491  0.293214  1
  Er  Er4  1  0.750000  0.720063  0.899290  1
  Er  Er5  1  0.250000  0.101836  0.789476  1
  Er  Er6  1  0.750000  0.898277  0.210687  1
  Er  Er7  1  0.250000  0.279951  0.100736  1
  P  P8  1  0.250000  0.906809  0.412633  1
  P  P9  1  0.750000  0.471063  0.129644  1
  P  P10  1  0.250000  0.528889  0.870420  1
  P  P11  1  0.750000  0.092779  0.587249  1
  P  P12  1  0.250000  0.741510  0.079374  1
  P  P13  1  0.750000  0.258498  0.920589  1
  P  P14  1  0.750000  0.157499  0.281187  1
  P  P15  1  0.250000  0.842699  0.718739  1
  P  P16  1  0.250000  0.051769  0.100986  1
  P  P17  1  0.750000  0.948185  0.898864  1
  P  P18  1  0.250000  0.311640  0.690170  1
  P  P19  1  0.750000  0.688339  0.309925  1
  P  P20  1  0.250000  0.608262  0.566535  1
  P  P21  1  0.750000  0.391808  0.433483  1
  Ir  Ir22  1  0.750000  0.009247  0.424598  1
  Ir  Ir23  1  0.250000  0.661610  0.728979  1
  Ir  Ir24  1  0.750000  0.338261  0.271091  1
  Ir  Ir25  1  0.250000  0.553704  0.045879  1
  Ir  Ir26  1  0.750000  0.446344  0.954097  1
  Ir  Ir27  1  0.250000  0.060801  0.273496  1
  Ir  Ir28  1  0.750000  0.939684  0.726069  1
  Ir  Ir29  1  0.250000  0.421121  0.523426  1
  Ir  Ir30  1  0.750000  0.578776  0.476589  1
  Ir  Ir31  1  0.250000  0.915113  0.997646  1
  Ir  Ir32  1  0.750000  0.084901  0.002316  1
  Ir  Ir33  1  0.250000  0.729446  0.394247  1
  Ir  Ir34  1  0.750000  0.270499  0.605630  1
  Ir  Ir35  1  0.250000  0.341931  0.858227  1
  Ir  Ir36  1  0.750000  0.658116  0.141796  1
  Rh  Rh37  1  0.250000  0.990742  0.575969  1
