# generated using pymatgen
data_PrHoFe4(CoB2)4
_symmetry_space_group_name_H-M   'P 1'
_cell_length_a   7.01878994
_cell_length_b   6.99434994
_cell_length_c   3.81387400
_cell_angle_alpha   90.00000000
_cell_angle_beta   90.00000000
_cell_angle_gamma   90.08524997
_symmetry_Int_Tables_number   1
_chemical_formula_structural   PrHoFe4(CoB2)4
_chemical_formula_sum   'Pr1 Ho1 Fe4 Co4 B8'
_cell_volume   187.23001072
_cell_formula_units_Z   1
loop_
 _symmetry_equiv_pos_site_id
 _symmetry_equiv_pos_as_xyz
  1  'x, y, z'
loop_
 _atom_site_type_symbol
 _atom_site_label
 _atom_site_symmetry_multiplicity
 _atom_site_fract_x
 _atom_site_fract_y
 _atom_site_fract_z
 _atom_site_occupancy
  Pr  Pr0  1  0.500000  0.500000  0.495366  1
  Ho  Ho1  1  0.000000  0.000000  0.996072  1
  Fe  Fe2  1  0.869139  0.384128  0.107434  1
  Fe  Fe3  1  0.130861  0.615872  0.107434  1
  Fe  Fe4  1  0.887174  0.634693  0.606948  1
  Fe  Fe5  1  0.112826  0.365307  0.606948  1
  Co  Co6  1  0.642118  0.113484  0.391682  1
  Co  Co7  1  0.357882  0.886516  0.391682  1
  Co  Co8  1  0.617696  0.864092  0.891772  1
  Co  Co9  1  0.382304  0.135908  0.891772  1
  B  B10  1  0.334057  0.802638  0.897243  1
  B  B11  1  0.665943  0.197362  0.897243  1
  B  B12  1  0.289880  0.161140  0.395484  1
  B  B13  1  0.710120  0.838860  0.395484  1
  B  B14  1  0.162966  0.703823  0.608368  1
  B  B15  1  0.837034  0.296177  0.608368  1
  B  B16  1  0.193439  0.332598  0.105349  1
  B  B17  1  0.806561  0.667402  0.105349  1
