# generated using pymatgen
data_Y10CoRh5
_symmetry_space_group_name_H-M   'P 1'
_cell_length_a   10.92829453
_cell_length_b   10.90903968
_cell_length_c   6.35533711
_cell_angle_alpha   89.88725591
_cell_angle_beta   89.89492199
_cell_angle_gamma   89.80915469
_symmetry_Int_Tables_number   1
_chemical_formula_structural   Y10CoRh5
_chemical_formula_sum   'Y20 Co2 Rh10'
_cell_volume   757.65855132
_cell_formula_units_Z   2
loop_
 _symmetry_equiv_pos_site_id
 _symmetry_equiv_pos_as_xyz
  1  'x, y, z'
loop_
 _atom_site_type_symbol
 _atom_site_label
 _atom_site_symmetry_multiplicity
 _atom_site_fract_x
 _atom_site_fract_y
 _atom_site_fract_z
 _atom_site_occupancy
  Y  Y0  1  0.290547  0.088346  0.378783  1
  Y  Y1  1  0.290990  0.906146  0.878482  1
  Y  Y2  1  0.709359  0.089580  0.878420  1
  Y  Y3  1  0.708502  0.910800  0.378775  1
  Y  Y4  1  0.588233  0.789449  0.878477  1
  Y  Y5  1  0.588309  0.210466  0.379415  1
  Y  Y6  1  0.409848  0.788486  0.384727  1
  Y  Y7  1  0.409426  0.209501  0.878209  1
  Y  Y8  1  0.207390  0.414014  0.616124  1
  Y  Y9  1  0.209343  0.589247  0.117946  1
  Y  Y10  1  0.791815  0.412579  0.123143  1
  Y  Y11  1  0.793875  0.588138  0.616564  1
  Y  Y12  1  0.912838  0.706938  0.124024  1
  Y  Y13  1  0.912856  0.293949  0.616091  1
  Y  Y14  1  0.091143  0.705452  0.616108  1
  Y  Y15  1  0.088211  0.293996  0.123958  1
  Y  Y16  1  0.999443  0.999341  0.501977  1
  Y  Y17  1  0.000637  0.000506  0.001049  1
  Y  Y18  1  0.497685  0.501914  0.999681  1
  Y  Y19  1  0.498301  0.502347  0.503816  1
  Co  Co20  1  0.348107  0.652221  0.750547  1
  Co  Co21  1  0.000073  0.500451  0.371308  1
  Rh  Rh22  1  0.845484  0.153905  0.250245  1
  Rh  Rh23  1  0.845463  0.845599  0.751497  1
  Rh  Rh24  1  0.153930  0.155025  0.750036  1
  Rh  Rh25  1  0.154310  0.845997  0.250196  1
  Rh  Rh26  1  0.654082  0.346144  0.750953  1
  Rh  Rh27  1  0.654538  0.654579  0.250155  1
  Rh  Rh28  1  0.345842  0.345039  0.250127  1
  Rh  Rh29  1  0.499459  0.999793  0.128427  1
  Rh  Rh30  1  0.499715  0.999838  0.628252  1
  Rh  Rh31  1  0.000249  0.500217  0.872487  1
