# generated using pymatgen
data_CoTc3O8
_symmetry_space_group_name_H-M   'P 1'
_cell_length_a   4.76295549
_cell_length_b   5.55466136
_cell_length_c   5.55552011
_cell_angle_alpha   62.71957363
_cell_angle_beta   89.03286041
_cell_angle_gamma   88.99335893
_symmetry_Int_Tables_number   1
_chemical_formula_structural   CoTc3O8
_chemical_formula_sum   'Co1 Tc3 O8'
_cell_volume   130.60555658
_cell_formula_units_Z   1
loop_
 _symmetry_equiv_pos_site_id
 _symmetry_equiv_pos_as_xyz
  1  'x, y, z'
loop_
 _atom_site_type_symbol
 _atom_site_label
 _atom_site_symmetry_multiplicity
 _atom_site_fract_x
 _atom_site_fract_y
 _atom_site_fract_z
 _atom_site_occupancy
  Co  Co0  1  0.509307  0.762734  0.764382  1
  Tc  Tc1  1  0.000346  0.274919  0.723837  1
  Tc  Tc2  1  0.493199  0.239868  0.237599  1
  Tc  Tc3  1  0.999579  0.725835  0.274358  1
  O  O4  1  0.206695  0.613891  0.614461  1
  O  O5  1  0.200560  0.092925  0.092300  1
  O  O6  1  0.822323  0.907673  0.907605  1
  O  O7  1  0.705928  0.900437  0.389359  1
  O  O8  1  0.288478  0.126648  0.580172  1
  O  O9  1  0.287032  0.579371  0.128621  1
  O  O10  1  0.707172  0.387046  0.900285  1
  O  O11  1  0.779381  0.388653  0.387021  1
