# generated using pymatgen
data_Hf10ZnSnSb4
_symmetry_space_group_name_H-M   'P 1'
_cell_length_a   5.56901358
_cell_length_b   8.29458881
_cell_length_c   8.29458870
_cell_angle_alpha   96.47073059
_cell_angle_beta   109.61520900
_cell_angle_gamma   70.38478395
_symmetry_Int_Tables_number   1
_chemical_formula_structural   Hf10ZnSnSb4
_chemical_formula_sum   'Hf10 Zn1 Sn1 Sb4'
_cell_volume   339.97001925
_cell_formula_units_Z   1
loop_
 _symmetry_equiv_pos_site_id
 _symmetry_equiv_pos_as_xyz
  1  'x, y, z'
loop_
 _atom_site_type_symbol
 _atom_site_label
 _atom_site_symmetry_multiplicity
 _atom_site_fract_x
 _atom_site_fract_y
 _atom_site_fract_z
 _atom_site_occupancy
  Hf  Hf0  1  0.430292  0.857428  0.704458  1
  Hf  Hf1  1  0.583262  0.142572  0.295542  1
  Hf  Hf2  1  0.916738  0.295542  0.142572  1
  Hf  Hf3  1  0.069708  0.704458  0.857428  1
  Hf  Hf4  1  0.725833  0.704458  0.142572  1
  Hf  Hf5  1  0.287720  0.295542  0.857428  1
  Hf  Hf6  1  0.774167  0.142572  0.704458  1
  Hf  Hf7  1  0.212280  0.857428  0.295542  1
  Hf  Hf8  1  0.250000  0.500000  0.500000  1
  Hf  Hf9  1  0.750000  0.500000  0.500000  1
  Zn  Zn10  1  0.750000  0.000000  0.000000  1
  Sn  Sn11  1  0.250000  0.000000  0.000000  1
  Sb  Sb12  1  0.336031  0.500000  0.172064  1
  Sb  Sb13  1  0.663969  0.500000  0.827936  1
  Sb  Sb14  1  0.836031  0.827936  0.500000  1
  Sb  Sb15  1  0.163969  0.172064  0.500000  1
