# generated using pymatgen
data_Ce3Tm2P12Ru19
_symmetry_space_group_name_H-M   'P 1'
_cell_length_a   12.58714900
_cell_length_b   12.58714993
_cell_length_c   3.97835200
_cell_angle_alpha   90.00000000
_cell_angle_beta   90.00000000
_cell_angle_gamma   120.00000545
_symmetry_Int_Tables_number   1
_chemical_formula_structural   Ce3Tm2P12Ru19
_chemical_formula_sum   'Ce3 Tm2 P12 Ru19'
_cell_volume   545.86920265
_cell_formula_units_Z   1
loop_
 _symmetry_equiv_pos_site_id
 _symmetry_equiv_pos_as_xyz
  1  'x, y, z'
loop_
 _atom_site_type_symbol
 _atom_site_label
 _atom_site_symmetry_multiplicity
 _atom_site_fract_x
 _atom_site_fract_y
 _atom_site_fract_z
 _atom_site_occupancy
  Ce  Ce0  1  0.184785  0.184785  0.500000  1
  Ce  Ce1  1  0.815215  0.000000  0.500000  1
  Ce  Ce2  1  0.000000  0.815215  0.500000  1
  Tm  Tm3  1  0.333333  0.666667  0.000000  1
  Tm  Tm4  1  0.666667  0.333333  0.000000  1
  P  P5  1  0.812804  0.812804  0.000000  1
  P  P6  1  0.187196  0.000000  0.000000  1
  P  P7  1  0.000000  0.187196  0.000000  1
  P  P8  1  0.173613  0.479379  0.500000  1
  P  P9  1  0.520621  0.694233  0.500000  1
  P  P10  1  0.305767  0.826387  0.500000  1
  P  P11  1  0.694233  0.520621  0.500000  1
  P  P12  1  0.826387  0.305767  0.500000  1
  P  P13  1  0.479379  0.173613  0.500000  1
  P  P14  1  0.374918  0.374918  0.000000  1
  P  P15  1  0.625082  0.000000  0.000000  1
  P  P16  1  0.000000  0.625082  0.000000  1
  Ru  Ru17  1  0.555349  0.555349  0.000000  1
  Ru  Ru18  1  0.444651  0.000000  0.000000  1
  Ru  Ru19  1  0.000000  0.444651  0.000000  1
  Ru  Ru20  1  0.714574  0.714574  0.500000  1
  Ru  Ru21  1  0.285426  0.000000  0.500000  1
  Ru  Ru22  1  0.000000  0.285426  0.500000  1
  Ru  Ru23  1  0.185240  0.378088  0.000000  1
  Ru  Ru24  1  0.621912  0.807153  0.000000  1
  Ru  Ru25  1  0.192847  0.814760  0.000000  1
  Ru  Ru26  1  0.807153  0.621912  0.000000  1
  Ru  Ru27  1  0.814760  0.192847  0.000000  1
  Ru  Ru28  1  0.378088  0.185240  0.000000  1
  Ru  Ru29  1  0.366558  0.493050  0.500000  1
  Ru  Ru30  1  0.506950  0.873507  0.500000  1
  Ru  Ru31  1  0.126493  0.633442  0.500000  1
  Ru  Ru32  1  0.873507  0.506950  0.500000  1
  Ru  Ru33  1  0.633442  0.126493  0.500000  1
  Ru  Ru34  1  0.493050  0.366558  0.500000  1
  Ru  Ru35  1  0.000000  0.000000  0.000000  1
