# generated using pymatgen
data_Zr7Sc3(Sn2Sb)2
_symmetry_space_group_name_H-M   'P 1'
_cell_length_a   8.52590734
_cell_length_b   8.52671170
_cell_length_c   5.85045600
_cell_angle_alpha   90.00000000
_cell_angle_beta   90.00000000
_cell_angle_gamma   119.90883298
_symmetry_Int_Tables_number   1
_chemical_formula_structural   Zr7Sc3(Sn2Sb)2
_chemical_formula_sum   'Zr7 Sc3 Sn4 Sb2'
_cell_volume   368.67252467
_cell_formula_units_Z   1
loop_
 _symmetry_equiv_pos_site_id
 _symmetry_equiv_pos_as_xyz
  1  'x, y, z'
loop_
 _atom_site_type_symbol
 _atom_site_label
 _atom_site_symmetry_multiplicity
 _atom_site_fract_x
 _atom_site_fract_y
 _atom_site_fract_z
 _atom_site_occupancy
  Zr  Zr0  1  0.333838  0.667195  0.500599  1
  Zr  Zr1  1  0.664218  0.331965  0.999393  1
  Zr  Zr2  1  0.664218  0.331965  0.500607  1
  Zr  Zr3  1  0.333838  0.667195  0.999401  1
  Zr  Zr4  1  0.755200  0.001568  0.750000  1
  Zr  Zr5  1  0.248156  0.248823  0.750000  1
  Zr  Zr6  1  0.000664  0.754769  0.750000  1
  Sc  Sc7  1  0.753429  0.752408  0.250000  1
  Sc  Sc8  1  0.248048  0.998696  0.250000  1
  Sc  Sc9  1  0.999510  0.246502  0.250000  1
  Sn  Sn10  1  0.999109  0.607506  0.250000  1
  Sn  Sn11  1  0.999445  0.391929  0.750000  1
  Sn  Sn12  1  0.611231  0.611222  0.750000  1
  Sn  Sn13  1  0.611030  0.999715  0.250000  1
  Sb  Sb14  1  0.389547  0.999249  0.750000  1
  Sb  Sb15  1  0.388520  0.389293  0.250000  1
