# generated using pymatgen
data_HfTa11(Zn6N)2
_symmetry_space_group_name_H-M   'P 1'
_cell_length_a   8.19664838
_cell_length_b   8.19364287
_cell_length_c   8.19664856
_cell_angle_alpha   60.01213353
_cell_angle_beta   59.97533239
_cell_angle_gamma   60.01213735
_symmetry_Int_Tables_number   1
_chemical_formula_structural   HfTa11(Zn6N)2
_chemical_formula_sum   'Hf1 Ta11 Zn12 N2'
_cell_volume   389.25413224
_cell_formula_units_Z   1
loop_
 _symmetry_equiv_pos_site_id
 _symmetry_equiv_pos_as_xyz
  1  'x, y, z'
loop_
 _atom_site_type_symbol
 _atom_site_label
 _atom_site_symmetry_multiplicity
 _atom_site_fract_x
 _atom_site_fract_y
 _atom_site_fract_z
 _atom_site_occupancy
  Hf  Hf0  1  0.189979  0.810021  0.189979  1
  Ta  Ta1  1  0.439231  0.060769  0.439231  1
  Ta  Ta2  1  0.442388  0.062427  0.061006  1
  Ta  Ta3  1  0.442388  0.434180  0.061006  1
  Ta  Ta4  1  0.188232  0.813168  0.808764  1
  Ta  Ta5  1  0.062477  0.437523  0.062477  1
  Ta  Ta6  1  0.808764  0.813168  0.188232  1
  Ta  Ta7  1  0.061006  0.434180  0.442388  1
  Ta  Ta8  1  0.188232  0.189836  0.808764  1
  Ta  Ta9  1  0.808764  0.189836  0.188232  1
  Ta  Ta10  1  0.809238  0.190762  0.809238  1
  Ta  Ta11  1  0.061006  0.062427  0.442388  1
  Zn  Zn12  1  0.833257  0.500131  0.833257  1
  Zn  Zn13  1  0.415706  0.417358  0.749576  1
  Zn  Zn14  1  0.749576  0.417358  0.415706  1
  Zn  Zn15  1  0.417025  0.415903  0.417025  1
  Zn  Zn16  1  0.832901  0.833359  0.500383  1
  Zn  Zn17  1  0.417025  0.750044  0.417025  1
  Zn  Zn18  1  0.833257  0.833357  0.833257  1
  Zn  Zn19  1  0.500383  0.833359  0.832901  1
  Zn  Zn20  1  0.624658  0.125534  0.624658  1
  Zn  Zn21  1  0.627291  0.624158  0.124393  1
  Zn  Zn22  1  0.124393  0.624158  0.627291  1
  Zn  Zn23  1  0.624658  0.625150  0.624658  1
  N  N24  1  0.997224  0.002776  0.997224  1
  N  N25  1  0.250943  0.249057  0.250943  1
