# generated using pymatgen
data_Ta2TcB2Os
_symmetry_space_group_name_H-M   'P 1'
_cell_length_a   3.15977100
_cell_length_b   9.06767399
_cell_length_c   15.69080210
_cell_angle_alpha   90.11034604
_cell_angle_beta   90.00000000
_cell_angle_gamma   90.00000000
_symmetry_Int_Tables_number   1
_chemical_formula_structural   Ta2TcB2Os
_chemical_formula_sum   'Ta12 Tc6 B12 Os6'
_cell_volume   449.56847105
_cell_formula_units_Z   6
loop_
 _symmetry_equiv_pos_site_id
 _symmetry_equiv_pos_as_xyz
  1  'x, y, z'
loop_
 _atom_site_type_symbol
 _atom_site_label
 _atom_site_symmetry_multiplicity
 _atom_site_fract_x
 _atom_site_fract_y
 _atom_site_fract_z
 _atom_site_occupancy
  Ta  Ta0  1  0.000000  0.799536  0.494247  1
  Ta  Ta1  1  0.000000  0.200464  0.505753  1
  Ta  Ta2  1  0.000000  0.303316  0.006066  1
  Ta  Ta3  1  0.000000  0.696684  0.993934  1
  Ta  Ta4  1  0.000000  0.514889  0.594430  1
  Ta  Ta5  1  0.000000  0.485111  0.405570  1
  Ta  Ta6  1  0.000000  0.015266  0.905794  1
  Ta  Ta7  1  0.000000  0.984734  0.094206  1
  Ta  Ta8  1  0.000000  0.681338  0.204397  1
  Ta  Ta9  1  0.000000  0.318662  0.795603  1
  Ta  Ta10  1  0.000000  0.183983  0.292889  1
  Ta  Ta11  1  0.000000  0.816017  0.707111  1
  Tc  Tc12  1  0.500000  0.718081  0.358434  1
  Tc  Tc13  1  0.500000  0.281919  0.641566  1
  Tc  Tc14  1  0.500000  0.217161  0.142756  1
  Tc  Tc15  1  0.500000  0.782839  0.857244  1
  Tc  Tc16  1  0.500000  0.519386  0.095809  1
  Tc  Tc17  1  0.500000  0.480614  0.904191  1
  B  B18  1  0.500000  0.604596  0.496069  1
  B  B19  1  0.500000  0.395404  0.503931  1
  B  B20  1  0.500000  0.104765  0.004393  1
  B  B21  1  0.500000  0.895235  0.995607  1
  B  B22  1  0.000000  0.610524  0.834472  1
  B  B23  1  0.000000  0.389476  0.165528  1
  B  B24  1  0.000000  0.112861  0.667026  1
  B  B25  1  0.000000  0.887139  0.332974  1
  B  B26  1  0.500000  0.714496  0.600598  1
  B  B27  1  0.500000  0.285504  0.399402  1
  B  B28  1  0.500000  0.214881  0.899208  1
  B  B29  1  0.500000  0.785119  0.100792  1
  Os  Os30  1  0.500000  0.019645  0.405304  1
  Os  Os31  1  0.500000  0.980355  0.594696  1
  Os  Os32  1  0.500000  0.568450  0.731804  1
  Os  Os33  1  0.500000  0.431550  0.268196  1
  Os  Os34  1  0.500000  0.067272  0.766301  1
  Os  Os35  1  0.500000  0.932728  0.233699  1
