# generated using pymatgen
data_Pr12PdRuRh2
_symmetry_space_group_name_H-M   'P 1'
_cell_length_a   6.54333945
_cell_length_b   7.44987518
_cell_length_c   10.06121400
_cell_angle_alpha   90.00000000
_cell_angle_beta   90.00000000
_cell_angle_gamma   90.30697522
_symmetry_Int_Tables_number   1
_chemical_formula_structural   Pr12PdRuRh2
_chemical_formula_sum   'Pr12 Pd1 Ru1 Rh2'
_cell_volume   490.44758498
_cell_formula_units_Z   1
loop_
 _symmetry_equiv_pos_site_id
 _symmetry_equiv_pos_as_xyz
  1  'x, y, z'
loop_
 _atom_site_type_symbol
 _atom_site_label
 _atom_site_symmetry_multiplicity
 _atom_site_fract_x
 _atom_site_fract_y
 _atom_site_fract_z
 _atom_site_occupancy
  Pr  Pr0  1  0.337721  0.671004  0.065996  1
  Pr  Pr1  1  0.170264  0.183032  0.436535  1
  Pr  Pr2  1  0.669149  0.323481  0.565551  1
  Pr  Pr3  1  0.834185  0.824446  0.932199  1
  Pr  Pr4  1  0.669149  0.323481  0.934449  1
  Pr  Pr5  1  0.834185  0.824446  0.567801  1
  Pr  Pr6  1  0.337721  0.671004  0.434004  1
  Pr  Pr7  1  0.170264  0.183032  0.063465  1
  Pr  Pr8  1  0.849888  0.525127  0.250000  1
  Pr  Pr9  1  0.632952  0.039808  0.250000  1
  Pr  Pr10  1  0.143853  0.465479  0.750000  1
  Pr  Pr11  1  0.355651  0.962546  0.750000  1
  Pd  Pd12  1  0.068784  0.884034  0.250000  1
  Ru  Ru13  1  0.426957  0.380593  0.250000  1
  Rh  Rh14  1  0.929408  0.119650  0.750000  1
  Rh  Rh15  1  0.569867  0.618838  0.750000  1
