# generated using pymatgen
data_Cs(RhS2)2
_symmetry_space_group_name_H-M   'P 1'
_cell_length_a   6.23283100
_cell_length_b   7.21916000
_cell_length_c   16.00385900
_cell_angle_alpha   90.00000000
_cell_angle_beta   90.00000000
_cell_angle_gamma   90.00000000
_symmetry_Int_Tables_number   1
_chemical_formula_structural   Cs(RhS2)2
_chemical_formula_sum   'Cs4 Rh8 S16'
_cell_volume   720.10650668
_cell_formula_units_Z   4
loop_
 _symmetry_equiv_pos_site_id
 _symmetry_equiv_pos_as_xyz
  1  'x, y, z'
loop_
 _atom_site_type_symbol
 _atom_site_label
 _atom_site_symmetry_multiplicity
 _atom_site_fract_x
 _atom_site_fract_y
 _atom_site_fract_z
 _atom_site_occupancy
  Cs  Cs0  1  0.352635  0.000000  0.000000  1
  Cs  Cs1  1  0.647365  0.500000  0.500000  1
  Cs  Cs2  1  0.035526  0.000000  0.500000  1
  Cs  Cs3  1  0.964474  0.500000  0.000000  1
  Rh  Rh4  1  0.003908  0.000000  0.249553  1
  Rh  Rh5  1  0.003908  0.000000  0.750447  1
  Rh  Rh6  1  0.996092  0.500000  0.250447  1
  Rh  Rh7  1  0.996092  0.500000  0.749553  1
  Rh  Rh8  1  0.500000  0.250000  0.250000  1
  Rh  Rh9  1  0.500000  0.750000  0.750000  1
  Rh  Rh10  1  0.500000  0.750000  0.250000  1
  Rh  Rh11  1  0.500000  0.250000  0.750000  1
  S  S12  1  0.834535  0.249122  0.324661  1
  S  S13  1  0.834535  0.750878  0.675339  1
  S  S14  1  0.165465  0.749122  0.175339  1
  S  S15  1  0.165465  0.250878  0.824661  1
  S  S16  1  0.165465  0.250878  0.175339  1
  S  S17  1  0.165465  0.749122  0.824661  1
  S  S18  1  0.834535  0.750878  0.324661  1
  S  S19  1  0.834535  0.249122  0.675339  1
  S  S20  1  0.669719  0.000000  0.176183  1
  S  S21  1  0.669719  0.000000  0.823817  1
  S  S22  1  0.330281  0.500000  0.323817  1
  S  S23  1  0.330281  0.500000  0.676183  1
  S  S24  1  0.337370  0.000000  0.323768  1
  S  S25  1  0.337370  0.000000  0.676232  1
  S  S26  1  0.662630  0.500000  0.176232  1
  S  S27  1  0.662630  0.500000  0.823768  1
