# generated using pymatgen
data_Er3Lu3Ga10
_symmetry_space_group_name_H-M   'P 1'
_cell_length_a   11.37096712
_cell_length_b   9.56281510
_cell_length_c   6.02058300
_cell_angle_alpha   90.00000000
_cell_angle_beta   90.00000000
_cell_angle_gamma   89.98355091
_symmetry_Int_Tables_number   1
_chemical_formula_structural   Er3Lu3Ga10
_chemical_formula_sum   'Er6 Lu6 Ga20'
_cell_volume   654.66887286
_cell_formula_units_Z   2
loop_
 _symmetry_equiv_pos_site_id
 _symmetry_equiv_pos_as_xyz
  1  'x, y, z'
loop_
 _atom_site_type_symbol
 _atom_site_label
 _atom_site_symmetry_multiplicity
 _atom_site_fract_x
 _atom_site_fract_y
 _atom_site_fract_z
 _atom_site_occupancy
  Er  Er0  1  0.852212  0.490844  0.390504  1
  Er  Er1  1  0.647788  0.509156  0.890504  1
  Er  Er2  1  0.647514  0.990794  0.890505  1
  Er  Er3  1  0.852486  0.009204  0.390505  1
  Er  Er4  1  0.147847  0.509172  0.609563  1
  Er  Er5  1  0.352153  0.490828  0.109563  1
  Lu  Lu6  1  0.427464  0.750034  0.652557  1
  Lu  Lu7  1  0.072536  0.249964  0.152559  1
  Lu  Lu8  1  0.572211  0.249865  0.347595  1
  Lu  Lu9  1  0.927789  0.750133  0.847595  1
  Lu  Lu10  1  0.351961  0.009139  0.109470  1
  Lu  Lu11  1  0.148039  0.990859  0.609470  1
  Ga  Ga12  1  0.297849  0.249540  0.394287  1
  Ga  Ga13  1  0.202152  0.750458  0.894285  1
  Ga  Ga14  1  0.797765  0.250068  0.105321  1
  Ga  Ga15  1  0.702235  0.749930  0.605321  1
  Ga  Ga16  1  0.005277  0.249571  0.626973  1
  Ga  Ga17  1  0.494723  0.750427  0.126971  1
  Ga  Ga18  1  0.504817  0.249833  0.873185  1
  Ga  Ga19  1  0.995183  0.750165  0.373185  1
  Ga  Ga20  1  0.251199  0.249442  0.830406  1
  Ga  Ga21  1  0.248801  0.750556  0.330404  1
  Ga  Ga22  1  0.751371  0.249947  0.669490  1
  Ga  Ga23  1  0.748629  0.750051  0.169489  1
  Ga  Ga24  1  0.090792  0.551678  0.124249  1
  Ga  Ga25  1  0.409208  0.448323  0.624251  1
  Ga  Ga26  1  0.590691  0.948369  0.375544  1
  Ga  Ga27  1  0.909310  0.051632  0.875544  1
  Ga  Ga28  1  0.909170  0.448357  0.875671  1
  Ga  Ga29  1  0.590831  0.551644  0.375671  1
  Ga  Ga30  1  0.408744  0.051528  0.624680  1
  Ga  Ga31  1  0.091256  0.948473  0.124678  1
