# generated using pymatgen
data_Ta7Ti7P8
_symmetry_space_group_name_H-M   'P 1'
_cell_length_a   7.63906044
_cell_length_b   7.63906047
_cell_length_c   13.76895989
_cell_angle_alpha   75.92750051
_cell_angle_beta   75.92750000
_cell_angle_gamma   25.81484079
_symmetry_Int_Tables_number   1
_chemical_formula_structural   Ta7Ti7P8
_chemical_formula_sum   'Ta7 Ti7 P8'
_cell_volume   338.83052544
_cell_formula_units_Z   1
loop_
 _symmetry_equiv_pos_site_id
 _symmetry_equiv_pos_as_xyz
  1  'x, y, z'
loop_
 _atom_site_type_symbol
 _atom_site_label
 _atom_site_symmetry_multiplicity
 _atom_site_fract_x
 _atom_site_fract_y
 _atom_site_fract_z
 _atom_site_occupancy
  Ta  Ta0  1  0.000414  0.000414  0.999182  1
  Ta  Ta1  1  0.500019  0.500019  0.500374  1
  Ta  Ta2  1  0.428684  0.428684  0.172101  1
  Ta  Ta3  1  0.571528  0.571528  0.827955  1
  Ta  Ta4  1  0.197596  0.197596  0.689389  1
  Ta  Ta5  1  0.803089  0.803089  0.311559  1
  Ta  Ta6  1  0.208191  0.208191  0.202702  1
  Ti  Ti7  1  0.792425  0.792425  0.795987  1
  Ti  Ti8  1  0.338768  0.338768  0.968950  1
  Ti  Ti9  1  0.660499  0.660499  0.031413  1
  Ti  Ti10  1  0.002508  0.002508  0.335087  1
  Ti  Ti11  1  0.996613  0.996613  0.665013  1
  Ti  Ti12  1  0.177678  0.177678  0.457236  1
  Ti  Ti13  1  0.822425  0.822425  0.542821  1
  P  P14  1  0.179976  0.179976  0.891066  1
  P  P15  1  0.823209  0.823209  0.105926  1
  P  P16  1  0.374541  0.374541  0.401726  1
  P  P17  1  0.625458  0.625458  0.600641  1
  P  P18  1  0.371597  0.371597  0.662647  1
  P  P19  1  0.627411  0.627411  0.338408  1
  P  P20  1  0.061945  0.061945  0.152529  1
  P  P21  1  0.935425  0.935425  0.847286  1
