# generated using pymatgen
data_Zr10TlSb6
_symmetry_space_group_name_H-M   'P 1'
_cell_length_a   5.93180934
_cell_length_b   8.65964418
_cell_length_c   8.67421067
_cell_angle_alpha   119.94669613
_cell_angle_beta   90.13390158
_cell_angle_gamma   89.73924589
_symmetry_Int_Tables_number   1
_chemical_formula_structural   Zr10TlSb6
_chemical_formula_sum   'Zr10 Tl1 Sb6'
_cell_volume   386.07915133
_cell_formula_units_Z   1
loop_
 _symmetry_equiv_pos_site_id
 _symmetry_equiv_pos_as_xyz
  1  'x, y, z'
loop_
 _atom_site_type_symbol
 _atom_site_label
 _atom_site_symmetry_multiplicity
 _atom_site_fract_x
 _atom_site_fract_y
 _atom_site_fract_z
 _atom_site_occupancy
  Zr  Zr0  1  0.499871  0.330147  0.662803  1
  Zr  Zr1  1  0.499888  0.667326  0.337180  1
  Zr  Zr2  1  0.999212  0.667171  0.335712  1
  Zr  Zr3  1  0.999215  0.331503  0.664257  1
  Zr  Zr4  1  0.771972  0.266428  0.000026  1
  Zr  Zr5  1  0.775893  0.731095  0.728342  1
  Zr  Zr6  1  0.775900  0.002728  0.271688  1
  Zr  Zr7  1  0.219623  0.735345  0.999987  1
  Zr  Zr8  1  0.228484  0.267746  0.267911  1
  Zr  Zr9  1  0.228683  0.999807  0.732071  1
  Tl  Tl10  1  0.737240  0.615649  0.999985  1
  Sb  Sb11  1  0.746606  0.386239  0.385656  1
  Sb  Sb12  1  0.746790  0.000612  0.614366  1
  Sb  Sb13  1  0.253026  0.390392  0.999977  1
  Sb  Sb14  1  0.257242  0.612257  0.614137  1
  Sb  Sb15  1  0.257252  0.998114  0.385863  1
  Sb  Sb16  1  0.503102  0.997442  0.000043  1
