# generated using pymatgen
data_Ce2Co2GeAsH4
_symmetry_space_group_name_H-M   'P 1'
_cell_length_a   4.12541700
_cell_length_b   4.12541818
_cell_length_c   8.17457300
_cell_angle_alpha   90.00000000
_cell_angle_beta   90.00000000
_cell_angle_gamma   119.99999854
_symmetry_Int_Tables_number   1
_chemical_formula_structural   Ce2Co2GeAsH4
_chemical_formula_sum   'Ce2 Co2 Ge1 As1 H4'
_cell_volume   120.48460186
_cell_formula_units_Z   1
loop_
 _symmetry_equiv_pos_site_id
 _symmetry_equiv_pos_as_xyz
  1  'x, y, z'
loop_
 _atom_site_type_symbol
 _atom_site_label
 _atom_site_symmetry_multiplicity
 _atom_site_fract_x
 _atom_site_fract_y
 _atom_site_fract_z
 _atom_site_occupancy
  Ce  Ce0  1  0.000000  0.000000  0.502516  1
  Ce  Ce1  1  0.000000  0.000000  0.997484  1
  Co  Co2  1  0.666667  0.333333  0.750000  1
  Co  Co3  1  0.333333  0.666667  0.250000  1
  Ge  Ge4  1  0.666667  0.333333  0.250000  1
  As  As5  1  0.333333  0.666667  0.750000  1
  H  H6  1  0.333333  0.666667  0.442665  1
  H  H7  1  0.666667  0.333333  0.552283  1
  H  H8  1  0.333333  0.666667  0.057335  1
  H  H9  1  0.666667  0.333333  0.947717  1
