# generated using pymatgen
data_Tm4Lu8InFe3Sn
_symmetry_space_group_name_H-M   'P 1'
_cell_length_a   8.19719874
_cell_length_b   8.19719956
_cell_length_c   8.19719920
_cell_angle_alpha   108.80569584
_cell_angle_beta   108.69125457
_cell_angle_gamma   110.92661372
_symmetry_Int_Tables_number   1
_chemical_formula_structural   Tm4Lu8InFe3Sn
_chemical_formula_sum   'Tm4 Lu8 In1 Fe3 Sn1'
_cell_volume   423.80228517
_cell_formula_units_Z   1
loop_
 _symmetry_equiv_pos_site_id
 _symmetry_equiv_pos_as_xyz
  1  'x, y, z'
loop_
 _atom_site_type_symbol
 _atom_site_label
 _atom_site_symmetry_multiplicity
 _atom_site_fract_x
 _atom_site_fract_y
 _atom_site_fract_z
 _atom_site_occupancy
  Tm  Tm0  1  0.308085  0.306125  0.614209  1
  Tm  Tm1  1  0.691915  0.693875  0.385791  1
  Tm  Tm2  1  0.691915  0.306125  0.998040  1
  Tm  Tm3  1  0.308085  0.693875  0.001960  1
  Lu  Lu4  1  0.192582  0.427586  0.235004  1
  Lu  Lu5  1  0.807418  0.572414  0.764996  1
  Lu  Lu6  1  0.192582  0.957578  0.764996  1
  Lu  Lu7  1  0.954663  0.191028  0.763635  1
  Lu  Lu8  1  0.807418  0.042422  0.235004  1
  Lu  Lu9  1  0.045337  0.808972  0.236365  1
  Lu  Lu10  1  0.427392  0.191028  0.236365  1
  Lu  Lu11  1  0.572608  0.808972  0.763635  1
  In  In12  1  0.500000  0.000000  0.500000  1
  Fe  Fe13  1  0.384170  0.384170  0.000000  1
  Fe  Fe14  1  0.615830  0.615830  0.000000  1
  Fe  Fe15  1  0.000000  0.000000  0.000000  1
  Sn  Sn16  1  0.000000  0.500000  0.500000  1
