# generated using pymatgen
data_HoTh(PdPt)3
_symmetry_space_group_name_H-M   'P 1'
_cell_length_a   5.89197700
_cell_length_b   5.89197609
_cell_length_c   9.68381900
_cell_angle_alpha   90.00000000
_cell_angle_beta   90.00000000
_cell_angle_gamma   119.99999949
_symmetry_Int_Tables_number   1
_chemical_formula_structural   HoTh(PdPt)3
_chemical_formula_sum   'Ho2 Th2 Pd6 Pt6'
_cell_volume   291.13828282
_cell_formula_units_Z   2
loop_
 _symmetry_equiv_pos_site_id
 _symmetry_equiv_pos_as_xyz
  1  'x, y, z'
loop_
 _atom_site_type_symbol
 _atom_site_label
 _atom_site_symmetry_multiplicity
 _atom_site_fract_x
 _atom_site_fract_y
 _atom_site_fract_z
 _atom_site_occupancy
  Ho  Ho0  1  0.333333  0.666667  0.250000  1
  Ho  Ho1  1  0.666667  0.333333  0.750000  1
  Th  Th2  1  0.000000  0.000000  0.500000  1
  Th  Th3  1  0.000000  0.000000  0.000000  1
  Pd  Pd4  1  0.826004  0.652007  0.250000  1
  Pd  Pd5  1  0.347993  0.173996  0.250000  1
  Pd  Pd6  1  0.826004  0.173996  0.250000  1
  Pd  Pd7  1  0.173996  0.347993  0.750000  1
  Pd  Pd8  1  0.652007  0.826004  0.750000  1
  Pd  Pd9  1  0.173996  0.826004  0.750000  1
  Pt  Pt10  1  0.500000  0.500000  0.500000  1
  Pt  Pt11  1  0.500000  0.000000  0.500000  1
  Pt  Pt12  1  0.000000  0.500000  0.500000  1
  Pt  Pt13  1  0.500000  0.500000  0.000000  1
  Pt  Pt14  1  0.500000  0.000000  0.000000  1
  Pt  Pt15  1  0.000000  0.500000  0.000000  1
