# generated using pymatgen
data_Tb2Ho3Co19Si11P
_symmetry_space_group_name_H-M   'P 1'
_cell_length_a   12.14993508
_cell_length_b   12.14993388
_cell_length_c   3.73024500
_cell_angle_alpha   90.00000000
_cell_angle_beta   90.00000000
_cell_angle_gamma   119.82740654
_symmetry_Int_Tables_number   1
_chemical_formula_structural   Tb2Ho3Co19Si11P
_chemical_formula_sum   'Tb2 Ho3 Co19 Si11 P1'
_cell_volume   477.71463552
_cell_formula_units_Z   1
loop_
 _symmetry_equiv_pos_site_id
 _symmetry_equiv_pos_as_xyz
  1  'x, y, z'
loop_
 _atom_site_type_symbol
 _atom_site_label
 _atom_site_symmetry_multiplicity
 _atom_site_fract_x
 _atom_site_fract_y
 _atom_site_fract_z
 _atom_site_occupancy
  Tb  Tb0  1  0.333535  0.666067  0.000000  1
  Tb  Tb1  1  0.666067  0.333535  0.000000  1
  Ho  Ho2  1  0.186171  0.000895  0.500000  1
  Ho  Ho3  1  0.000895  0.186171  0.500000  1
  Ho  Ho4  1  0.813353  0.813353  0.500000  1
  Co  Co5  1  0.196949  0.373058  0.000000  1
  Co  Co6  1  0.623151  0.819991  0.000000  1
  Co  Co7  1  0.180100  0.803279  0.000000  1
  Co  Co8  1  0.819991  0.623151  0.000000  1
  Co  Co9  1  0.803279  0.180100  0.000000  1
  Co  Co10  1  0.373058  0.196949  0.000000  1
  Co  Co11  1  0.559463  0.000473  0.000000  1
  Co  Co12  1  0.000473  0.559463  0.000000  1
  Co  Co13  1  0.441020  0.441020  0.000000  1
  Co  Co14  1  0.123356  0.478616  0.500000  1
  Co  Co15  1  0.520259  0.642756  0.500000  1
  Co  Co16  1  0.356858  0.877782  0.500000  1
  Co  Co17  1  0.642756  0.520259  0.500000  1
  Co  Co18  1  0.877782  0.356858  0.500000  1
  Co  Co19  1  0.478616  0.123356  0.500000  1
  Co  Co20  1  0.719332  0.999979  0.500000  1
  Co  Co21  1  0.999979  0.719332  0.500000  1
  Co  Co22  1  0.277281  0.277281  0.500000  1
  Co  Co23  1  0.004848  0.004848  0.000000  1
  Si  Si24  1  0.371665  0.000420  0.000000  1
  Si  Si25  1  0.000420  0.371665  0.000000  1
  Si  Si26  1  0.628275  0.628275  0.000000  1
  Si  Si27  1  0.317709  0.476678  0.500000  1
  Si  Si28  1  0.523034  0.839937  0.500000  1
  Si  Si29  1  0.160463  0.682924  0.500000  1
  Si  Si30  1  0.839937  0.523034  0.500000  1
  Si  Si31  1  0.682924  0.160463  0.500000  1
  Si  Si32  1  0.476678  0.317709  0.500000  1
  Si  Si33  1  0.817183  0.999798  0.000000  1
  Si  Si34  1  0.999798  0.817183  0.000000  1
  P  P35  1  0.183348  0.183348  0.000000  1
