# generated using pymatgen
data_La2Tb3Pr3(CdIr)2
_symmetry_space_group_name_H-M   'P 1'
_cell_length_a   9.91988886
_cell_length_b   9.91988859
_cell_length_c   9.91988900
_cell_angle_alpha   60.00000195
_cell_angle_beta   60.00000286
_cell_angle_gamma   59.99999715
_symmetry_Int_Tables_number   1
_chemical_formula_structural   La2Tb3Pr3(CdIr)2
_chemical_formula_sum   'La4 Tb6 Pr6 Cd4 Ir4'
_cell_volume   690.24842116
_cell_formula_units_Z   2
loop_
 _symmetry_equiv_pos_site_id
 _symmetry_equiv_pos_as_xyz
  1  'x, y, z'
loop_
 _atom_site_type_symbol
 _atom_site_label
 _atom_site_symmetry_multiplicity
 _atom_site_fract_x
 _atom_site_fract_y
 _atom_site_fract_z
 _atom_site_occupancy
  La  La0  1  0.348972  0.348972  0.348972  1
  La  La1  1  0.348972  0.348972  0.953083  1
  La  La2  1  0.348972  0.953083  0.348972  1
  La  La3  1  0.953083  0.348972  0.348972  1
  Tb  Tb4  1  0.813868  0.186132  0.186132  1
  Tb  Tb5  1  0.186132  0.813868  0.813868  1
  Tb  Tb6  1  0.186132  0.813868  0.186132  1
  Tb  Tb7  1  0.813868  0.186132  0.813868  1
  Tb  Tb8  1  0.186132  0.186132  0.813868  1
  Tb  Tb9  1  0.813868  0.813868  0.186132  1
  Pr  Pr10  1  0.939553  0.560447  0.560447  1
  Pr  Pr11  1  0.560447  0.939553  0.939553  1
  Pr  Pr12  1  0.560447  0.939553  0.560447  1
  Pr  Pr13  1  0.939553  0.560447  0.939553  1
  Pr  Pr14  1  0.560447  0.560447  0.939553  1
  Pr  Pr15  1  0.939553  0.939553  0.560447  1
  Cd  Cd16  1  0.579686  0.579686  0.579686  1
  Cd  Cd17  1  0.579686  0.579686  0.260940  1
  Cd  Cd18  1  0.579686  0.260940  0.579686  1
  Cd  Cd19  1  0.260940  0.579686  0.579686  1
  Ir  Ir20  1  0.139866  0.139866  0.139866  1
  Ir  Ir21  1  0.139866  0.139866  0.580400  1
  Ir  Ir22  1  0.139866  0.580400  0.139866  1
  Ir  Ir23  1  0.580400  0.139866  0.139866  1
