# generated using pymatgen
data_Ho3Tm(Si2Pt3)2
_symmetry_space_group_name_H-M   'P 1'
_cell_length_a   4.16755200
_cell_length_b   6.64477147
_cell_length_c   8.91141298
_cell_angle_alpha   90.07626468
_cell_angle_beta   90.00000000
_cell_angle_gamma   90.00000000
_symmetry_Int_Tables_number   1
_chemical_formula_structural   Ho3Tm(Si2Pt3)2
_chemical_formula_sum   'Ho3 Tm1 Si4 Pt6'
_cell_volume   246.77846703
_cell_formula_units_Z   1
loop_
 _symmetry_equiv_pos_site_id
 _symmetry_equiv_pos_as_xyz
  1  'x, y, z'
loop_
 _atom_site_type_symbol
 _atom_site_label
 _atom_site_symmetry_multiplicity
 _atom_site_fract_x
 _atom_site_fract_y
 _atom_site_fract_z
 _atom_site_occupancy
  Ho  Ho0  1  0.000000  0.888166  0.329178  1
  Ho  Ho1  1  0.000000  0.111658  0.670872  1
  Ho  Ho2  1  0.000000  0.388317  0.170507  1
  Tm  Tm3  1  0.000000  0.611737  0.829255  1
  Si  Si4  1  0.500000  0.573936  0.355896  1
  Si  Si5  1  0.500000  0.426478  0.644729  1
  Si  Si6  1  0.500000  0.073917  0.144008  1
  Si  Si7  1  0.500000  0.925464  0.855721  1
  Pt  Pt8  1  0.500000  0.694350  0.088940  1
  Pt  Pt9  1  0.500000  0.306552  0.910164  1
  Pt  Pt10  1  0.500000  0.194496  0.410668  1
  Pt  Pt11  1  0.500000  0.805511  0.589801  1
  Pt  Pt12  1  0.000000  0.500177  0.500600  1
  Pt  Pt13  1  0.000000  0.999241  0.999661  1
