# generated using pymatgen
data_Zr8TaNbSi8
_symmetry_space_group_name_H-M   'P 1'
_cell_length_a   7.06834200
_cell_length_b   7.06838700
_cell_length_c   12.95202201
_cell_angle_alpha   89.99987322
_cell_angle_beta   89.99641256
_cell_angle_gamma   89.99982167
_symmetry_Int_Tables_number   1
_chemical_formula_structural   Zr8TaNbSi8
_chemical_formula_sum   'Zr16 Ta2 Nb2 Si16'
_cell_volume   647.10603040
_cell_formula_units_Z   2
loop_
 _symmetry_equiv_pos_site_id
 _symmetry_equiv_pos_as_xyz
  1  'x, y, z'
loop_
 _atom_site_type_symbol
 _atom_site_label
 _atom_site_symmetry_multiplicity
 _atom_site_fract_x
 _atom_site_fract_y
 _atom_site_fract_z
 _atom_site_occupancy
  Zr  Zr0  1  0.354815  0.502689  0.376177  1
  Zr  Zr1  1  0.854594  0.997088  0.373736  1
  Zr  Zr2  1  0.002755  0.145447  0.126220  1
  Zr  Zr3  1  0.997157  0.854855  0.626223  1
  Zr  Zr4  1  0.645406  0.497089  0.876264  1
  Zr  Zr5  1  0.502843  0.354857  0.623778  1
  Zr  Zr6  1  0.497247  0.645448  0.123779  1
  Zr  Zr7  1  0.145182  0.002693  0.873822  1
  Zr  Zr8  1  0.999415  0.650413  0.034070  1
  Zr  Zr9  1  0.000689  0.349490  0.533863  1
  Zr  Zr10  1  0.650333  0.999330  0.966146  1
  Zr  Zr11  1  0.150588  0.500599  0.784076  1
  Zr  Zr12  1  0.849668  0.499328  0.283854  1
  Zr  Zr13  1  0.500586  0.150410  0.215929  1
  Zr  Zr14  1  0.499311  0.849490  0.716139  1
  Zr  Zr15  1  0.349412  0.000600  0.465924  1
  Ta  Ta16  1  0.175615  0.824378  0.249960  1
  Ta  Ta17  1  0.324386  0.324378  0.000040  1
  Nb  Nb18  1  0.675583  0.675571  0.499937  1
  Nb  Nb19  1  0.824421  0.175573  0.750059  1
  Si  Si20  1  0.049581  0.700035  0.435643  1
  Si  Si21  1  0.950976  0.300299  0.936001  1
  Si  Si22  1  0.699823  0.049525  0.564051  1
  Si  Si23  1  0.199912  0.450904  0.185690  1
  Si  Si24  1  0.800178  0.549522  0.685951  1
  Si  Si25  1  0.450419  0.200037  0.814358  1
  Si  Si26  1  0.549023  0.800300  0.314000  1
  Si  Si27  1  0.300089  0.950905  0.064309  1
  Si  Si28  1  0.852306  0.797724  0.821454  1
  Si  Si29  1  0.147751  0.201755  0.321430  1
  Si  Si30  1  0.798218  0.852224  0.178604  1
  Si  Si31  1  0.297753  0.647671  0.571487  1
  Si  Si32  1  0.701779  0.352225  0.071397  1
  Si  Si33  1  0.647694  0.297723  0.428547  1
  Si  Si34  1  0.352248  0.701755  0.928571  1
  Si  Si35  1  0.202243  0.147671  0.678513  1
