# generated using pymatgen
data_Pr8Lu12Si15Hg
_symmetry_space_group_name_H-M   'P 1'
_cell_length_a   7.45690745
_cell_length_b   7.73791860
_cell_length_c   14.71765077
_cell_angle_alpha   89.95566949
_cell_angle_beta   89.60700629
_cell_angle_gamma   90.17258135
_symmetry_Int_Tables_number   1
_chemical_formula_structural   Pr8Lu12Si15Hg
_chemical_formula_sum   'Pr8 Lu12 Si15 Hg1'
_cell_volume   849.19823028
_cell_formula_units_Z   1
loop_
 _symmetry_equiv_pos_site_id
 _symmetry_equiv_pos_as_xyz
  1  'x, y, z'
loop_
 _atom_site_type_symbol
 _atom_site_label
 _atom_site_symmetry_multiplicity
 _atom_site_fract_x
 _atom_site_fract_y
 _atom_site_fract_z
 _atom_site_occupancy
  Pr  Pr0  1  0.010163  0.170668  0.397827  1
  Pr  Pr1  1  0.514305  0.323110  0.397679  1
  Pr  Pr2  1  0.484802  0.675384  0.902547  1
  Pr  Pr3  1  0.493277  0.682058  0.600858  1
  Pr  Pr4  1  0.986400  0.831784  0.599339  1
  Pr  Pr5  1  0.985009  0.825079  0.903217  1
  Pr  Pr6  1  0.514068  0.324118  0.097994  1
  Pr  Pr7  1  0.014598  0.175749  0.098792  1
  Lu  Lu8  1  0.338257  0.169582  0.627332  1
  Lu  Lu9  1  0.667155  0.823732  0.374462  1
  Lu  Lu10  1  0.664788  0.993807  0.752463  1
  Lu  Lu11  1  0.169512  0.677644  0.372761  1
  Lu  Lu12  1  0.826922  0.322619  0.878090  1
  Lu  Lu13  1  0.823997  0.325701  0.624144  1
  Lu  Lu14  1  0.837995  0.494882  0.249986  1
  Lu  Lu15  1  0.338188  0.003937  0.248401  1
  Lu  Lu16  1  0.326596  0.175629  0.877652  1
  Lu  Lu17  1  0.171251  0.676538  0.123403  1
  Lu  Lu18  1  0.672584  0.823404  0.122929  1
  Lu  Lu19  1  0.162439  0.504479  0.752786  1
  Si  Si20  1  0.282963  0.877915  0.751918  1
  Si  Si21  1  0.465381  0.619238  0.247951  1
  Si  Si22  1  0.035335  0.122610  0.752003  1
  Si  Si23  1  0.535305  0.382154  0.752174  1
  Si  Si24  1  0.964499  0.880926  0.248531  1
  Si  Si25  1  0.714200  0.121907  0.247649  1
  Si  Si26  1  0.848550  0.534346  0.039152  1
  Si  Si27  1  0.348203  0.965447  0.039752  1
  Si  Si28  1  0.150648  0.465088  0.961815  1
  Si  Si29  1  0.654238  0.037536  0.537039  1
  Si  Si30  1  0.344973  0.963760  0.460142  1
  Si  Si31  1  0.837509  0.538247  0.458259  1
  Si  Si32  1  0.786148  0.621757  0.752461  1
  Si  Si33  1  0.215234  0.376690  0.248502  1
  Si  Si34  1  0.650614  0.033718  0.960875  1
  Hg  Hg35  1  0.163895  0.458756  0.539116  1
