# generated using pymatgen
data_Dy19YIrRh11
_symmetry_space_group_name_H-M   'P 1'
_cell_length_a   10.90027877
_cell_length_b   10.90043948
_cell_length_c   6.35597313
_cell_angle_alpha   90.00595851
_cell_angle_beta   90.01581401
_cell_angle_gamma   90.07826629
_symmetry_Int_Tables_number   1
_chemical_formula_structural   Dy19YIrRh11
_chemical_formula_sum   'Dy19 Y1 Ir1 Rh11'
_cell_volume   755.20219140
_cell_formula_units_Z   1
loop_
 _symmetry_equiv_pos_site_id
 _symmetry_equiv_pos_as_xyz
  1  'x, y, z'
loop_
 _atom_site_type_symbol
 _atom_site_label
 _atom_site_symmetry_multiplicity
 _atom_site_fract_x
 _atom_site_fract_y
 _atom_site_fract_z
 _atom_site_occupancy
  Dy  Dy0  1  0.291374  0.909507  0.879170  1
  Dy  Dy1  1  0.708953  0.088782  0.878961  1
  Dy  Dy2  1  0.708711  0.911001  0.378906  1
  Dy  Dy3  1  0.587437  0.790408  0.878703  1
  Dy  Dy4  1  0.589035  0.208852  0.379461  1
  Dy  Dy5  1  0.410621  0.790416  0.380039  1
  Dy  Dy6  1  0.411025  0.208669  0.878938  1
  Dy  Dy7  1  0.209507  0.412617  0.621287  1
  Dy  Dy8  1  0.209509  0.589406  0.119815  1
  Dy  Dy9  1  0.791099  0.410983  0.120551  1
  Dy  Dy10  1  0.791305  0.589066  0.621154  1
  Dy  Dy11  1  0.911026  0.708994  0.120837  1
  Dy  Dy12  1  0.911301  0.291111  0.620920  1
  Dy  Dy13  1  0.090455  0.708690  0.620992  1
  Dy  Dy14  1  0.088937  0.291415  0.121147  1
  Dy  Dy15  1  0.999725  0.999841  0.500116  1
  Dy  Dy16  1  0.000113  0.000190  0.999911  1
  Dy  Dy17  1  0.499789  0.499984  0.000084  1
  Dy  Dy18  1  0.500003  0.500253  0.499829  1
  Y  Y19  1  0.290571  0.088937  0.378571  1
  Ir  Ir20  1  0.346124  0.653858  0.750009  1
  Rh  Rh21  1  0.845952  0.153950  0.249958  1
  Rh  Rh22  1  0.845682  0.846179  0.750218  1
  Rh  Rh23  1  0.153365  0.154299  0.750774  1
  Rh  Rh24  1  0.153060  0.846353  0.249973  1
  Rh  Rh25  1  0.654148  0.346013  0.750047  1
  Rh  Rh26  1  0.654720  0.654076  0.250039  1
  Rh  Rh27  1  0.345961  0.345881  0.249645  1
  Rh  Rh28  1  0.500845  0.000279  0.124675  1
  Rh  Rh29  1  0.500939  0.000452  0.624958  1
  Rh  Rh30  1  0.999224  0.499746  0.875492  1
  Rh  Rh31  1  0.999486  0.499788  0.374820  1
