# generated using pymatgen
data_DyHo7CdNi2Hg
_symmetry_space_group_name_H-M   'P 1'
_cell_length_a   9.48206910
_cell_length_b   9.48206841
_cell_length_c   9.48053500
_cell_angle_alpha   60.00535289
_cell_angle_beta   60.00535529
_cell_angle_gamma   60.12544545
_symmetry_Int_Tables_number   1
_chemical_formula_structural   DyHo7CdNi2Hg
_chemical_formula_sum   'Dy2 Ho14 Cd2 Ni4 Hg2'
_cell_volume   603.34997606
_cell_formula_units_Z   2
loop_
 _symmetry_equiv_pos_site_id
 _symmetry_equiv_pos_as_xyz
  1  'x, y, z'
loop_
 _atom_site_type_symbol
 _atom_site_label
 _atom_site_symmetry_multiplicity
 _atom_site_fract_x
 _atom_site_fract_y
 _atom_site_fract_z
 _atom_site_occupancy
  Dy  Dy0  1  0.348764  0.348764  0.347574  1
  Dy  Dy1  1  0.348764  0.348764  0.954897  1
  Ho  Ho2  1  0.352127  0.947853  0.350010  1
  Ho  Ho3  1  0.947853  0.352127  0.350010  1
  Ho  Ho4  1  0.811995  0.188279  0.188970  1
  Ho  Ho5  1  0.188279  0.811995  0.810756  1
  Ho  Ho6  1  0.188279  0.811995  0.188970  1
  Ho  Ho7  1  0.811995  0.188279  0.810756  1
  Ho  Ho8  1  0.188765  0.188765  0.811235  1
  Ho  Ho9  1  0.811161  0.811161  0.188839  1
  Ho  Ho10  1  0.935804  0.563229  0.564130  1
  Ho  Ho11  1  0.563229  0.935804  0.936837  1
  Ho  Ho12  1  0.563229  0.935804  0.564130  1
  Ho  Ho13  1  0.935804  0.563229  0.936837  1
  Ho  Ho14  1  0.563735  0.563735  0.936265  1
  Ho  Ho15  1  0.936900  0.936900  0.563100  1
  Cd  Cd16  1  0.580202  0.256736  0.581531  1
  Cd  Cd17  1  0.256736  0.580202  0.581531  1
  Ni  Ni18  1  0.142203  0.142203  0.145055  1
  Ni  Ni19  1  0.142203  0.142203  0.570540  1
  Ni  Ni20  1  0.140681  0.573137  0.143092  1
  Ni  Ni21  1  0.573137  0.140681  0.143092  1
  Hg  Hg22  1  0.584079  0.584079  0.586483  1
  Hg  Hg23  1  0.584079  0.584079  0.245361  1
