# generated using pymatgen
data_Dy6Ho4In8Pt3Rh
_symmetry_space_group_name_H-M   'P 1'
_cell_length_a   3.63076900
_cell_length_b   8.14377625
_cell_length_c   18.26395612
_cell_angle_alpha   90.03846769
_cell_angle_beta   90.00000000
_cell_angle_gamma   90.00000000
_symmetry_Int_Tables_number   1
_chemical_formula_structural   Dy6Ho4In8Pt3Rh
_chemical_formula_sum   'Dy6 Ho4 In8 Pt3 Rh1'
_cell_volume   540.03164456
_cell_formula_units_Z   1
loop_
 _symmetry_equiv_pos_site_id
 _symmetry_equiv_pos_as_xyz
  1  'x, y, z'
loop_
 _atom_site_type_symbol
 _atom_site_label
 _atom_site_symmetry_multiplicity
 _atom_site_fract_x
 _atom_site_fract_y
 _atom_site_fract_z
 _atom_site_occupancy
  Dy  Dy0  1  0.000000  0.239712  0.221684  1
  Dy  Dy1  1  0.000000  0.757251  0.779585  1
  Dy  Dy2  1  0.000000  0.256797  0.720809  1
  Dy  Dy3  1  0.000000  0.750480  0.279236  1
  Dy  Dy4  1  0.000000  0.999861  0.000068  1
  Dy  Dy5  1  0.000000  0.500241  0.499766  1
  Ho  Ho6  1  0.000000  0.114679  0.412343  1
  Ho  Ho7  1  0.000000  0.882662  0.585025  1
  Ho  Ho8  1  0.000000  0.383201  0.914969  1
  Ho  Ho9  1  0.000000  0.616858  0.085955  1
  In  In10  1  0.500000  0.423129  0.351422  1
  In  In11  1  0.500000  0.575609  0.648529  1
  In  In12  1  0.500000  0.075833  0.851604  1
  In  In13  1  0.500000  0.927639  0.149389  1
  In  In14  1  0.500000  0.292306  0.066851  1
  In  In15  1  0.500000  0.707180  0.933627  1
  In  In16  1  0.500000  0.207052  0.566357  1
  In  In17  1  0.500000  0.793504  0.431611  1
  Pt  Pt18  1  0.500000  0.974749  0.696113  1
  Pt  Pt19  1  0.500000  0.474963  0.803770  1
  Pt  Pt20  1  0.500000  0.523417  0.196725  1
  Rh  Rh21  1  0.500000  0.022877  0.304562  1
