# generated using pymatgen
data_Dy4Tc3B16Mo
_symmetry_space_group_name_H-M   'P 1'
_cell_length_a   3.61009300
_cell_length_b   5.98721786
_cell_length_c   11.58332766
_cell_angle_alpha   90.06145497
_cell_angle_beta   90.00000000
_cell_angle_gamma   90.00000000
_symmetry_Int_Tables_number   1
_chemical_formula_structural   Dy4Tc3B16Mo
_chemical_formula_sum   'Dy4 Tc3 B16 Mo1'
_cell_volume   250.36668742
_cell_formula_units_Z   1
loop_
 _symmetry_equiv_pos_site_id
 _symmetry_equiv_pos_as_xyz
  1  'x, y, z'
loop_
 _atom_site_type_symbol
 _atom_site_label
 _atom_site_symmetry_multiplicity
 _atom_site_fract_x
 _atom_site_fract_y
 _atom_site_fract_z
 _atom_site_occupancy
  Dy  Dy0  1  0.000000  0.126378  0.152007  1
  Dy  Dy1  1  0.000000  0.871898  0.847827  1
  Dy  Dy2  1  0.000000  0.627416  0.351128  1
  Dy  Dy3  1  0.000000  0.372480  0.648392  1
  Tc  Tc4  1  0.000000  0.135028  0.411956  1
  Tc  Tc5  1  0.000000  0.865691  0.586812  1
  Tc  Tc6  1  0.000000  0.629821  0.085740  1
  B  B7  1  0.500000  0.477961  0.193356  1
  B  B8  1  0.500000  0.524470  0.806393  1
  B  B9  1  0.500000  0.975846  0.307976  1
  B  B10  1  0.500000  0.022912  0.691507  1
  B  B11  1  0.500000  0.286802  0.315072  1
  B  B12  1  0.500000  0.714299  0.684353  1
  B  B13  1  0.500000  0.787121  0.185147  1
  B  B14  1  0.500000  0.210871  0.813560  1
  B  B15  1  0.500000  0.363767  0.468657  1
  B  B16  1  0.500000  0.636454  0.531012  1
  B  B17  1  0.500000  0.864508  0.032832  1
  B  B18  1  0.500000  0.133230  0.968973  1
  B  B19  1  0.500000  0.387199  0.048795  1
  B  B20  1  0.500000  0.616184  0.953715  1
  B  B21  1  0.500000  0.886900  0.452696  1
  B  B22  1  0.500000  0.113248  0.546765  1
  Mo  Mo23  1  0.000000  0.369518  0.915328  1
