# generated using pymatgen
data_RbBaH9W
_symmetry_space_group_name_H-M   'P 1'
_cell_length_a   9.76501500
_cell_length_b   9.76501433
_cell_length_c   5.65594300
_cell_angle_alpha   90.00000000
_cell_angle_beta   90.00000000
_cell_angle_gamma   120.00000565
_symmetry_Int_Tables_number   1
_chemical_formula_structural   RbBaH9W
_chemical_formula_sum   'Rb3 Ba3 H27 W3'
_cell_volume   467.06941656
_cell_formula_units_Z   3
loop_
 _symmetry_equiv_pos_site_id
 _symmetry_equiv_pos_as_xyz
  1  'x, y, z'
loop_
 _atom_site_type_symbol
 _atom_site_label
 _atom_site_symmetry_multiplicity
 _atom_site_fract_x
 _atom_site_fract_y
 _atom_site_fract_z
 _atom_site_occupancy
  Rb  Rb0  1  0.000000  0.593523  0.000000  1
  Rb  Rb1  1  0.406477  0.406477  0.000000  1
  Rb  Rb2  1  0.593523  0.000000  0.000000  1
  Ba  Ba3  1  0.000000  0.274617  0.500000  1
  Ba  Ba4  1  0.725383  0.725383  0.500000  1
  Ba  Ba5  1  0.274617  0.000000  0.500000  1
  H  H6  1  0.780575  0.310927  0.728149  1
  H  H7  1  0.689073  0.469648  0.728149  1
  H  H8  1  0.530352  0.219425  0.728149  1
  H  H9  1  0.219425  0.530352  0.271851  1
  H  H10  1  0.530352  0.219425  0.271851  1
  H  H11  1  0.780575  0.310927  0.271851  1
  H  H12  1  0.689073  0.469648  0.271851  1
  H  H13  1  0.310927  0.780575  0.728149  1
  H  H14  1  0.469648  0.689073  0.728149  1
  H  H15  1  0.180102  0.000000  0.000000  1
  H  H16  1  0.819898  0.819898  0.000000  1
  H  H17  1  0.000000  0.180102  0.000000  1
  H  H18  1  0.872148  0.000000  0.225900  1
  H  H19  1  0.127852  0.127852  0.774100  1
  H  H20  1  0.000000  0.872148  0.774100  1
  H  H21  1  0.000000  0.872148  0.225900  1
  H  H22  1  0.127852  0.127852  0.225900  1
  H  H23  1  0.872148  0.000000  0.774100  1
  H  H24  1  0.140861  0.637076  0.500000  1
  H  H25  1  0.496215  0.859139  0.500000  1
  H  H26  1  0.362924  0.503785  0.500000  1
  H  H27  1  0.503785  0.362924  0.500000  1
  H  H28  1  0.859139  0.496215  0.500000  1
  H  H29  1  0.637076  0.140861  0.500000  1
  H  H30  1  0.219425  0.530352  0.728149  1
  H  H31  1  0.310927  0.780575  0.271851  1
  H  H32  1  0.469648  0.689073  0.271851  1
  W  W33  1  0.666667  0.333333  0.500000  1
  W  W34  1  0.333333  0.666667  0.500000  1
  W  W35  1  0.000000  0.000000  0.000000  1
