# generated using pymatgen
data_Yb12Tm5Lu3Ge16
_symmetry_space_group_name_H-M   'P 1'
_cell_length_a   7.33891408
_cell_length_b   7.85821005
_cell_length_c   15.05483907
_cell_angle_alpha   90.00230196
_cell_angle_beta   89.98924317
_cell_angle_gamma   90.01264535
_symmetry_Int_Tables_number   1
_chemical_formula_structural   Yb12Tm5Lu3Ge16
_chemical_formula_sum   'Yb12 Tm5 Lu3 Ge16'
_cell_volume   868.22349721
_cell_formula_units_Z   1
loop_
 _symmetry_equiv_pos_site_id
 _symmetry_equiv_pos_as_xyz
  1  'x, y, z'
loop_
 _atom_site_type_symbol
 _atom_site_label
 _atom_site_symmetry_multiplicity
 _atom_site_fract_x
 _atom_site_fract_y
 _atom_site_fract_z
 _atom_site_occupancy
  Yb  Yb0  1  0.983459  0.813877  0.405808  1
  Yb  Yb1  1  0.483523  0.686073  0.094200  1
  Yb  Yb2  1  0.516521  0.313953  0.594250  1
  Yb  Yb3  1  0.016478  0.186077  0.905786  1
  Yb  Yb4  1  0.016643  0.186118  0.594246  1
  Yb  Yb5  1  0.516680  0.313907  0.905779  1
  Yb  Yb6  1  0.483359  0.686067  0.405778  1
  Yb  Yb7  1  0.983301  0.813885  0.094205  1
  Yb  Yb8  1  0.341942  0.019594  0.749978  1
  Yb  Yb9  1  0.841932  0.480388  0.750014  1
  Yb  Yb10  1  0.158028  0.519690  0.249974  1
  Yb  Yb11  1  0.658150  0.980337  0.249944  1
  Tm  Tm12  1  0.319524  0.171402  0.121268  1
  Tm  Tm13  1  0.819545  0.328656  0.378716  1
  Tm  Tm14  1  0.180457  0.671443  0.878681  1
  Tm  Tm15  1  0.680494  0.828550  0.621352  1
  Tm  Tm16  1  0.319460  0.171345  0.378721  1
  Lu  Lu17  1  0.819496  0.328772  0.121271  1
  Lu  Lu18  1  0.180530  0.671266  0.621318  1
  Lu  Lu19  1  0.680521  0.828739  0.878697  1
  Ge  Ge20  1  0.842691  0.534467  0.539927  1
  Ge  Ge21  1  0.342712  0.965592  0.960071  1
  Ge  Ge22  1  0.657570  0.034297  0.460157  1
  Ge  Ge23  1  0.157298  0.465576  0.039923  1
  Ge  Ge24  1  0.157706  0.465837  0.460320  1
  Ge  Ge25  1  0.657985  0.034355  0.039792  1
  Ge  Ge26  1  0.342072  0.965420  0.539957  1
  Ge  Ge27  1  0.841989  0.534374  0.960211  1
  Ge  Ge28  1  0.975719  0.873941  0.750071  1
  Ge  Ge29  1  0.475712  0.626051  0.749940  1
  Ge  Ge30  1  0.524506  0.374164  0.249859  1
  Ge  Ge31  1  0.024103  0.125973  0.249931  1
  Ge  Ge32  1  0.235474  0.387086  0.749906  1
  Ge  Ge33  1  0.735488  0.112893  0.750098  1
  Ge  Ge34  1  0.264399  0.886922  0.249976  1
  Ge  Ge35  1  0.764533  0.612912  0.249876  1
