# generated using pymatgen
data_Nd7Er13Si15Ag
_symmetry_space_group_name_H-M   'P 1'
_cell_length_a   7.71955188
_cell_length_b   7.74033859
_cell_length_c   14.26950897
_cell_angle_alpha   89.67974876
_cell_angle_beta   89.77279511
_cell_angle_gamma   90.13799566
_symmetry_Int_Tables_number   1
_chemical_formula_structural   Nd7Er13Si15Ag
_chemical_formula_sum   'Nd7 Er13 Si15 Ag1'
_cell_volume   852.60837938
_cell_formula_units_Z   1
loop_
 _symmetry_equiv_pos_site_id
 _symmetry_equiv_pos_as_xyz
  1  'x, y, z'
loop_
 _atom_site_type_symbol
 _atom_site_label
 _atom_site_symmetry_multiplicity
 _atom_site_fract_x
 _atom_site_fract_y
 _atom_site_fract_z
 _atom_site_occupancy
  Nd  Nd0  1  0.359710  0.006606  0.959318  1
  Nd  Nd1  1  0.985043  0.637684  0.538382  1
  Nd  Nd2  1  0.491867  0.855852  0.209791  1
  Nd  Nd3  1  0.514517  0.150432  0.712435  1
  Nd  Nd4  1  0.859166  0.495084  0.793015  1
  Nd  Nd5  1  0.140429  0.504695  0.291019  1
  Nd  Nd6  1  0.008603  0.357277  0.042274  1
  Er  Er7  1  0.490437  0.358593  0.124433  1
  Er  Er8  1  0.984271  0.147279  0.630131  1
  Er  Er9  1  0.859910  0.007280  0.874500  1
  Er  Er10  1  0.136647  0.986984  0.373595  1
  Er  Er11  1  0.511968  0.636459  0.622065  1
  Er  Er12  1  0.361555  0.492353  0.876972  1
  Er  Er13  1  0.642214  0.504956  0.374602  1
  Er  Er14  1  0.006888  0.861583  0.125869  1
  Er  Er15  1  0.646404  0.996116  0.456709  1
  Er  Er16  1  0.313681  0.319860  0.500381  1
  Er  Er17  1  0.186592  0.823665  0.749359  1
  Er  Er18  1  0.817110  0.180881  0.251193  1
  Er  Er19  1  0.681474  0.682628  0.000353  1
  Si  Si20  1  0.709717  0.062028  0.062006  1
  Si  Si21  1  0.936949  0.286497  0.437666  1
  Si  Si22  1  0.438529  0.207250  0.312816  1
  Si  Si23  1  0.562803  0.789973  0.810842  1
  Si  Si24  1  0.210846  0.440625  0.689266  1
  Si  Si25  1  0.788538  0.563117  0.187512  1
  Si  Si26  1  0.063359  0.709758  0.938412  1
  Si  Si27  1  0.796434  0.848446  0.688639  1
  Si  Si28  1  0.203849  0.149383  0.188704  1
  Si  Si29  1  0.844343  0.798458  0.312166  1
  Si  Si30  1  0.355198  0.701549  0.432989  1
  Si  Si31  1  0.652708  0.296750  0.939723  1
  Si  Si32  1  0.699182  0.343225  0.557787  1
  Si  Si33  1  0.295734  0.651466  0.061126  1
  Si  Si34  1  0.151394  0.207393  0.813037  1
  Ag  Ag35  1  0.291929  0.937817  0.560911  1
