# generated using pymatgen
data_HoSc3ReRu7
_symmetry_space_group_name_H-M   'P 1'
_cell_length_a   5.12833450
_cell_length_b   5.28819012
_cell_length_c   8.78511538
_cell_angle_alpha   90.00000239
_cell_angle_beta   90.12759084
_cell_angle_gamma   121.03660599
_symmetry_Int_Tables_number   1
_chemical_formula_structural   HoSc3ReRu7
_chemical_formula_sum   'Ho1 Sc3 Re1 Ru7'
_cell_volume   204.14002423
_cell_formula_units_Z   1
loop_
 _symmetry_equiv_pos_site_id
 _symmetry_equiv_pos_as_xyz
  1  'x, y, z'
loop_
 _atom_site_type_symbol
 _atom_site_label
 _atom_site_symmetry_multiplicity
 _atom_site_fract_x
 _atom_site_fract_y
 _atom_site_fract_z
 _atom_site_occupancy
  Ho  Ho0  1  0.326195  0.663098  0.066107  1
  Sc  Sc1  1  0.328148  0.664074  0.435212  1
  Sc  Sc2  1  0.655612  0.327806  0.566059  1
  Sc  Sc3  1  0.654277  0.327138  0.929145  1
  Re  Re4  1  0.678363  0.839181  0.748050  1
  Ru  Ru5  1  0.975260  0.987630  0.499608  1
  Ru  Ru6  1  0.978712  0.989356  0.000173  1
  Ru  Ru7  1  0.836711  0.169040  0.253625  1
  Ru  Ru8  1  0.836711  0.667671  0.253625  1
  Ru  Ru9  1  0.358716  0.179358  0.253866  1
  Ru  Ru10  1  0.185647  0.833207  0.747264  1
  Ru  Ru11  1  0.185647  0.352439  0.747264  1
