# generated using pymatgen
data_Tb2Lu10Co5Bi
_symmetry_space_group_name_H-M   'P 1'
_cell_length_a   8.14310619
_cell_length_b   8.15973603
_cell_length_c   8.15973605
_cell_angle_alpha   111.31967802
_cell_angle_beta   110.82909525
_cell_angle_gamma   106.38838076
_symmetry_Int_Tables_number   1
_chemical_formula_structural   Tb2Lu10Co5Bi
_chemical_formula_sum   'Tb2 Lu10 Co5 Bi1'
_cell_volume   416.03833655
_cell_formula_units_Z   1
loop_
 _symmetry_equiv_pos_site_id
 _symmetry_equiv_pos_as_xyz
  1  'x, y, z'
loop_
 _atom_site_type_symbol
 _atom_site_label
 _atom_site_symmetry_multiplicity
 _atom_site_fract_x
 _atom_site_fract_y
 _atom_site_fract_z
 _atom_site_occupancy
  Tb  Tb0  1  0.985575  0.789651  0.195924  1
  Tb  Tb1  1  0.014425  0.210349  0.804076  1
  Lu  Lu2  1  0.815636  0.711769  0.530494  1
  Lu  Lu3  1  0.184364  0.288231  0.469506  1
  Lu  Lu4  1  0.184364  0.714858  0.896135  1
  Lu  Lu5  1  0.815636  0.285142  0.103865  1
  Lu  Lu6  1  0.685576  0.379299  0.688873  1
  Lu  Lu7  1  0.314424  0.620701  0.311127  1
  Lu  Lu8  1  0.685576  0.996703  0.306277  1
  Lu  Lu9  1  0.314424  0.003297  0.693723  1
  Lu  Lu10  1  0.592466  0.789145  0.803322  1
  Lu  Lu11  1  0.407534  0.210855  0.196678  1
  Co  Co12  1  0.623313  0.998272  0.625041  1
  Co  Co13  1  0.376687  0.001728  0.374959  1
  Co  Co14  1  0.115551  0.612709  0.502842  1
  Co  Co15  1  0.884449  0.387291  0.497158  1
  Co  Co16  1  0.000000  0.000000  0.000000  1
  Bi  Bi17  1  0.500000  0.500000  0.000000  1
