# generated using pymatgen
data_Mg2Zn3B4Ir3Rh5
_symmetry_space_group_name_H-M   'P 1'
_cell_length_a   9.54547368
_cell_length_b   9.54547268
_cell_length_c   2.90908500
_cell_angle_alpha   90.00000000
_cell_angle_beta   90.00000000
_cell_angle_gamma   126.12123186
_symmetry_Int_Tables_number   1
_chemical_formula_structural   Mg2Zn3B4Ir3Rh5
_chemical_formula_sum   'Mg2 Zn3 B4 Ir3 Rh5'
_cell_volume   214.11143218
_cell_formula_units_Z   1
loop_
 _symmetry_equiv_pos_site_id
 _symmetry_equiv_pos_as_xyz
  1  'x, y, z'
loop_
 _atom_site_type_symbol
 _atom_site_label
 _atom_site_symmetry_multiplicity
 _atom_site_fract_x
 _atom_site_fract_y
 _atom_site_fract_z
 _atom_site_occupancy
  Mg  Mg0  1  0.198662  0.801338  0.500000  1
  Mg  Mg1  1  0.802412  0.197588  0.500000  1
  Zn  Zn2  1  0.356896  0.357981  0.500000  1
  Zn  Zn3  1  0.000185  0.999815  0.500000  1
  Zn  Zn4  1  0.642019  0.643104  0.500000  1
  B  B5  1  0.466284  0.154569  0.500000  1
  B  B6  1  0.152317  0.463796  0.500000  1
  B  B7  1  0.536204  0.847683  0.500000  1
  B  B8  1  0.845431  0.533716  0.500000  1
  Ir  Ir9  1  0.626474  0.373526  0.000000  1
  Ir  Ir10  1  0.500513  0.000301  0.000000  1
  Ir  Ir11  1  0.999699  0.499487  0.000000  1
  Rh  Rh12  1  0.372225  0.627775  0.000000  1
  Rh  Rh13  1  0.911190  0.730157  0.000000  1
  Rh  Rh14  1  0.088930  0.269286  0.000000  1
  Rh  Rh15  1  0.269843  0.088810  0.000000  1
  Rh  Rh16  1  0.730714  0.911070  0.000000  1
