# generated using pymatgen
data_La8Y11CdSn16
_symmetry_space_group_name_H-M   'P 1'
_cell_length_a   8.08681100
_cell_length_b   8.30557172
_cell_length_c   15.73444200
_cell_angle_alpha   90.00000000
_cell_angle_beta   90.00000000
_cell_angle_gamma   89.86599700
_symmetry_Int_Tables_number   1
_chemical_formula_structural   La8Y11CdSn16
_chemical_formula_sum   'La8 Y11 Cd1 Sn16'
_cell_volume   1056.81016960
_cell_formula_units_Z   1
loop_
 _symmetry_equiv_pos_site_id
 _symmetry_equiv_pos_as_xyz
  1  'x, y, z'
loop_
 _atom_site_type_symbol
 _atom_site_label
 _atom_site_symmetry_multiplicity
 _atom_site_fract_x
 _atom_site_fract_y
 _atom_site_fract_z
 _atom_site_occupancy
  La  La0  1  0.503111  0.325866  0.903964  1
  La  La1  1  0.011709  0.184653  0.597631  1
  La  La2  1  0.492735  0.677425  0.403733  1
  La  La3  1  0.990092  0.824467  0.095433  1
  La  La4  1  0.492735  0.677425  0.096267  1
  La  La5  1  0.990092  0.824467  0.404567  1
  La  La6  1  0.503111  0.325866  0.596036  1
  La  La7  1  0.011709  0.184653  0.902369  1
  Y  Y8  1  0.347928  0.828834  0.876000  1
  Y  Y9  1  0.860272  0.664422  0.626157  1
  Y  Y10  1  0.650747  0.164338  0.377724  1
  Y  Y11  1  0.148858  0.330466  0.125058  1
  Y  Y12  1  0.650747  0.164338  0.122276  1
  Y  Y13  1  0.148858  0.330466  0.374942  1
  Y  Y14  1  0.347928  0.828834  0.624000  1
  Y  Y15  1  0.860272  0.664422  0.873843  1
  Y  Y16  1  0.681647  0.997368  0.750000  1
  Y  Y17  1  0.815337  0.497251  0.250000  1
  Y  Y18  1  0.314647  0.998867  0.250000  1
  Cd  Cd19  1  0.182382  0.499160  0.750000  1
  Sn  Sn20  1  0.313297  0.039059  0.040718  1
  Sn  Sn21  1  0.814812  0.459304  0.459962  1
  Sn  Sn22  1  0.688282  0.961296  0.544462  1
  Sn  Sn23  1  0.186720  0.544585  0.964571  1
  Sn  Sn24  1  0.688282  0.961296  0.955538  1
  Sn  Sn25  1  0.186720  0.544585  0.535429  1
  Sn  Sn26  1  0.313297  0.039059  0.459282  1
  Sn  Sn27  1  0.814812  0.459304  0.040038  1
  Sn  Sn28  1  0.551175  0.621948  0.750000  1
  Sn  Sn29  1  0.049857  0.889189  0.750000  1
  Sn  Sn30  1  0.451368  0.374234  0.250000  1
  Sn  Sn31  1  0.949463  0.121900  0.250000  1
  Sn  Sn32  1  0.318031  0.135708  0.750000  1
  Sn  Sn33  1  0.801096  0.356884  0.750000  1
  Sn  Sn34  1  0.683970  0.859064  0.250000  1
  Sn  Sn35  1  0.183900  0.639001  0.250000  1
