# generated using pymatgen
data_Ce3AlIn2Ir3
_symmetry_space_group_name_H-M   'P 1'
_cell_length_a   7.47682720
_cell_length_b   7.45157677
_cell_length_c   4.02875500
_cell_angle_alpha   90.00000000
_cell_angle_beta   90.00000000
_cell_angle_gamma   119.88834495
_symmetry_Int_Tables_number   1
_chemical_formula_structural   Ce3AlIn2Ir3
_chemical_formula_sum   'Ce3 Al1 In2 Ir3'
_cell_volume   194.60524584
_cell_formula_units_Z   1
loop_
 _symmetry_equiv_pos_site_id
 _symmetry_equiv_pos_as_xyz
  1  'x, y, z'
loop_
 _atom_site_type_symbol
 _atom_site_label
 _atom_site_symmetry_multiplicity
 _atom_site_fract_x
 _atom_site_fract_y
 _atom_site_fract_z
 _atom_site_occupancy
  Ce  Ce0  1  0.405412  0.411722  0.000000  1
  Ce  Ce1  1  0.594588  0.006310  0.000000  1
  Ce  Ce2  1  0.000000  0.573285  0.000000  1
  Al  Al3  1  0.000000  0.247319  0.500000  1
  In  In4  1  0.754318  0.751649  0.500000  1
  In  In5  1  0.245682  0.997332  0.500000  1
  Ir  Ir6  1  0.000000  0.038587  0.000000  1
  Ir  Ir7  1  0.319044  0.646421  0.500000  1
  Ir  Ir8  1  0.680956  0.327376  0.500000  1
