# generated using pymatgen
data_Ta8BeBTe8
_symmetry_space_group_name_H-M   'P 1'
_cell_length_a   4.75063300
_cell_length_b   10.85957900
_cell_length_c   18.98606700
_cell_angle_alpha   90.00000000
_cell_angle_beta   90.00000000
_cell_angle_gamma   90.00000000
_symmetry_Int_Tables_number   1
_chemical_formula_structural   Ta8BeBTe8
_chemical_formula_sum   'Ta16 Be2 B2 Te16'
_cell_volume   979.48881119
_cell_formula_units_Z   2
loop_
 _symmetry_equiv_pos_site_id
 _symmetry_equiv_pos_as_xyz
  1  'x, y, z'
loop_
 _atom_site_type_symbol
 _atom_site_label
 _atom_site_symmetry_multiplicity
 _atom_site_fract_x
 _atom_site_fract_y
 _atom_site_fract_z
 _atom_site_occupancy
  Ta  Ta0  1  0.502404  0.594856  0.604209  1
  Ta  Ta1  1  0.502404  0.405144  0.395791  1
  Ta  Ta2  1  0.497596  0.094856  0.895791  1
  Ta  Ta3  1  0.497596  0.905144  0.104209  1
  Ta  Ta4  1  0.998466  0.307594  0.465419  1
  Ta  Ta5  1  0.998466  0.692406  0.534581  1
  Ta  Ta6  1  0.001534  0.807594  0.034581  1
  Ta  Ta7  1  0.001534  0.192406  0.965419  1
  Ta  Ta8  1  0.500843  0.315866  0.553697  1
  Ta  Ta9  1  0.500843  0.684134  0.446303  1
  Ta  Ta10  1  0.499157  0.815866  0.946303  1
  Ta  Ta11  1  0.499157  0.184134  0.053697  1
  Ta  Ta12  1  0.997938  0.437820  0.609195  1
  Ta  Ta13  1  0.997938  0.562180  0.390805  1
  Ta  Ta14  1  0.002062  0.937820  0.890805  1
  Ta  Ta15  1  0.002062  0.062180  0.109195  1
  Be  Be16  1  0.260874  0.500000  0.500000  1
  Be  Be17  1  0.739126  0.000000  0.000000  1
  B  B18  1  0.741696  0.500000  0.500000  1
  B  B19  1  0.258304  0.000000  0.000000  1
  Te  Te20  1  0.001342  0.665287  0.684297  1
  Te  Te21  1  0.001342  0.334713  0.315703  1
  Te  Te22  1  0.998658  0.165287  0.815703  1
  Te  Te23  1  0.998658  0.834713  0.184297  1
  Te  Te24  1  0.497803  0.390149  0.697389  1
  Te  Te25  1  0.497803  0.609851  0.302611  1
  Te  Te26  1  0.502197  0.890149  0.802611  1
  Te  Te27  1  0.502197  0.109851  0.197389  1
  Te  Te28  1  0.497841  0.152667  0.436278  1
  Te  Te29  1  0.497841  0.847333  0.563722  1
  Te  Te30  1  0.502159  0.652667  0.063722  1
  Te  Te31  1  0.502159  0.347333  0.936278  1
  Te  Te32  1  0.998917  0.324271  0.095815  1
  Te  Te33  1  0.998917  0.675729  0.904185  1
  Te  Te34  1  0.001083  0.824271  0.404185  1
  Te  Te35  1  0.001083  0.175729  0.595815  1
