# generated using pymatgen
data_Tm5LuBi2Mo
_symmetry_space_group_name_H-M   'P 1'
_cell_length_a   8.18391400
_cell_length_b   8.18244973
_cell_length_c   4.34249500
_cell_angle_alpha   90.00000000
_cell_angle_beta   90.00000000
_cell_angle_gamma   120.00592798
_symmetry_Int_Tables_number   1
_chemical_formula_structural   Tm5LuBi2Mo
_chemical_formula_sum   'Tm5 Lu1 Bi2 Mo1'
_cell_volume   251.81895420
_cell_formula_units_Z   1
loop_
 _symmetry_equiv_pos_site_id
 _symmetry_equiv_pos_as_xyz
  1  'x, y, z'
loop_
 _atom_site_type_symbol
 _atom_site_label
 _atom_site_symmetry_multiplicity
 _atom_site_fract_x
 _atom_site_fract_y
 _atom_site_fract_z
 _atom_site_occupancy
  Tm  Tm0  1  0.000152  0.235423  0.500000  1
  Tm  Tm1  1  0.764729  0.764577  0.500000  1
  Tm  Tm2  1  0.613288  0.000000  0.000000  1
  Tm  Tm3  1  0.000249  0.613848  0.000000  1
  Tm  Tm4  1  0.386401  0.386152  0.000000  1
  Lu  Lu5  1  0.234971  0.000000  0.500000  1
  Bi  Bi6  1  0.333337  0.667002  0.500000  1
  Bi  Bi7  1  0.666336  0.332998  0.500000  1
  Mo  Mo8  1  0.000536  0.000000  0.000000  1
