# generated using pymatgen
data_Ti3SiGe2Os3
_symmetry_space_group_name_H-M   'P 1'
_cell_length_a   6.62267539
_cell_length_b   7.10399170
_cell_length_c   7.48888511
_cell_angle_alpha   118.31394144
_cell_angle_beta   116.24221989
_cell_angle_gamma   89.99999663
_symmetry_Int_Tables_number   1
_chemical_formula_structural   Ti3SiGe2Os3
_chemical_formula_sum   'Ti6 Si2 Ge4 Os6'
_cell_volume   268.21892368
_cell_formula_units_Z   2
loop_
 _symmetry_equiv_pos_site_id
 _symmetry_equiv_pos_as_xyz
  1  'x, y, z'
loop_
 _atom_site_type_symbol
 _atom_site_label
 _atom_site_symmetry_multiplicity
 _atom_site_fract_x
 _atom_site_fract_y
 _atom_site_fract_z
 _atom_site_occupancy
  Ti  Ti0  1  0.243775  0.473345  0.446691  1
  Ti  Ti1  1  0.797083  0.526655  0.553309  1
  Ti  Ti2  1  0.656072  0.746694  0.993387  1
  Ti  Ti3  1  0.662684  0.253306  0.006613  1
  Ti  Ti4  1  0.853210  0.056617  0.613234  1
  Ti  Ti5  1  0.239976  0.943383  0.386766  1
  Si  Si6  1  0.290055  0.283330  0.066662  1
  Si  Si7  1  0.223393  0.716670  0.933338  1
  Ge  Ge8  1  0.578732  0.839068  0.665848  1
  Ge  Ge9  1  0.912883  0.160932  0.334152  1
  Ge  Ge10  1  0.912883  0.673220  0.334152  1
  Ge  Ge11  1  0.578732  0.326780  0.665848  1
  Os  Os12  1  0.001611  0.000000  0.000000  1
  Os  Os13  1  0.001611  0.500000  0.000000  1
  Os  Os14  1  0.496378  0.662008  0.248906  1
  Os  Os15  1  0.247472  0.337992  0.751094  1
  Os  Os16  1  0.247472  0.913101  0.751094  1
  Os  Os17  1  0.496378  0.086899  0.248906  1
