# generated using pymatgen
data_BaAlSn2Hg
_symmetry_space_group_name_H-M   'P 1'
_cell_length_a   6.78332119
_cell_length_b   6.78332235
_cell_length_c   6.78332102
_cell_angle_alpha   136.46464077
_cell_angle_beta   136.46465948
_cell_angle_gamma   63.26280031
_symmetry_Int_Tables_number   1
_chemical_formula_structural   BaAlSn2Hg
_chemical_formula_sum   'Ba1 Al1 Sn2 Hg1'
_cell_volume   146.19194683
_cell_formula_units_Z   1
loop_
 _symmetry_equiv_pos_site_id
 _symmetry_equiv_pos_as_xyz
  1  'x, y, z'
loop_
 _atom_site_type_symbol
 _atom_site_label
 _atom_site_symmetry_multiplicity
 _atom_site_fract_x
 _atom_site_fract_y
 _atom_site_fract_z
 _atom_site_occupancy
  Ba  Ba0  1  0.997545  0.997545  0.000000  1
  Al  Al1  1  0.368696  0.368696  0.000000  1
  Sn  Sn2  1  0.747733  0.247733  0.500000  1
  Sn  Sn3  1  0.247733  0.747733  0.500000  1
  Hg  Hg4  1  0.596181  0.596181  0.000000  1
