# generated using pymatgen
data_Cs4Rb2DyInSb4
_symmetry_space_group_name_H-M   'P 1'
_cell_length_a   10.48875777
_cell_length_b   10.48875675
_cell_length_c   10.48875734
_cell_angle_alpha   130.46804395
_cell_angle_beta   137.80566616
_cell_angle_gamma   67.05204564
_symmetry_Int_Tables_number   1
_chemical_formula_structural   Cs4Rb2DyInSb4
_chemical_formula_sum   'Cs4 Rb2 Dy1 In1 Sb4'
_cell_volume   580.19619042
_cell_formula_units_Z   1
loop_
 _symmetry_equiv_pos_site_id
 _symmetry_equiv_pos_as_xyz
  1  'x, y, z'
loop_
 _atom_site_type_symbol
 _atom_site_label
 _atom_site_symmetry_multiplicity
 _atom_site_fract_x
 _atom_site_fract_y
 _atom_site_fract_z
 _atom_site_occupancy
  Cs  Cs0  1  0.688571  0.465379  0.793780  1
  Cs  Cs1  1  0.811429  0.105210  0.276809  1
  Cs  Cs2  1  0.171600  0.894790  0.706220  1
  Cs  Cs3  1  0.328400  0.534621  0.223191  1
  Rb  Rb4  1  0.750000  0.000000  0.750000  1
  Rb  Rb5  1  0.250000  0.000000  0.250000  1
  Dy  Dy6  1  0.250000  0.500000  0.750000  1
  In  In7  1  0.750000  0.500000  0.250000  1
  Sb  Sb8  1  0.409497  0.212604  0.814225  1
  Sb  Sb9  1  0.601621  0.787396  0.196894  1
  Sb  Sb10  1  0.090503  0.404727  0.303106  1
  Sb  Sb11  1  0.898379  0.595273  0.685775  1
