# generated using pymatgen
data_Th(PSe3)2
_symmetry_space_group_name_H-M   'P 1'
_cell_length_a   7.39929000
_cell_length_b   7.39929000
_cell_length_c   10.38114800
_cell_angle_alpha   90.00000000
_cell_angle_beta   90.00000000
_cell_angle_gamma   90.00000000
_symmetry_Int_Tables_number   1
_chemical_formula_structural   Th(PSe3)2
_chemical_formula_sum   'Th2 P4 Se12'
_cell_volume   568.36258461
_cell_formula_units_Z   2
loop_
 _symmetry_equiv_pos_site_id
 _symmetry_equiv_pos_as_xyz
  1  'x, y, z'
loop_
 _atom_site_type_symbol
 _atom_site_label
 _atom_site_symmetry_multiplicity
 _atom_site_fract_x
 _atom_site_fract_y
 _atom_site_fract_z
 _atom_site_occupancy
  Th  Th0  1  0.000000  0.000000  0.750000  1
  Th  Th1  1  0.000000  0.000000  0.250000  1
  P  P2  1  0.645350  0.057511  0.000000  1
  P  P3  1  0.354650  0.942489  0.000000  1
  P  P4  1  0.057511  0.354650  0.500000  1
  P  P5  1  0.942489  0.645350  0.500000  1
  Se  Se6  1  0.213371  0.323842  0.678286  1
  Se  Se7  1  0.676158  0.213371  0.178286  1
  Se  Se8  1  0.172735  0.182584  0.000000  1
  Se  Se9  1  0.817416  0.172735  0.500000  1
  Se  Se10  1  0.182584  0.827265  0.500000  1
  Se  Se11  1  0.827265  0.817416  0.000000  1
  Se  Se12  1  0.213371  0.323842  0.321714  1
  Se  Se13  1  0.676158  0.213371  0.821714  1
  Se  Se14  1  0.323842  0.786629  0.821714  1
  Se  Se15  1  0.786629  0.676158  0.321714  1
  Se  Se16  1  0.786629  0.676158  0.678286  1
  Se  Se17  1  0.323842  0.786629  0.178286  1
