# generated using pymatgen
data_YbYErGa8Ag3
_symmetry_space_group_name_H-M   'P 1'
_cell_length_a   4.37973530
_cell_length_b   8.31056314
_cell_length_c   8.31057817
_cell_angle_alpha   70.89604669
_cell_angle_beta   74.71911664
_cell_angle_gamma   74.71903263
_symmetry_Int_Tables_number   1
_chemical_formula_structural   YbYErGa8Ag3
_chemical_formula_sum   'Yb1 Y1 Er1 Ga8 Ag3'
_cell_volume   270.45838198
_cell_formula_units_Z   1
loop_
 _symmetry_equiv_pos_site_id
 _symmetry_equiv_pos_as_xyz
  1  'x, y, z'
loop_
 _atom_site_type_symbol
 _atom_site_label
 _atom_site_symmetry_multiplicity
 _atom_site_fract_x
 _atom_site_fract_y
 _atom_site_fract_z
 _atom_site_occupancy
  Yb  Yb0  1  0.199272  0.800722  0.800725  1
  Y  Y1  1  0.500584  0.499413  0.499415  1
  Er  Er2  1  0.798886  0.201102  0.201096  1
  Ga  Ga3  1  0.357759  0.359965  0.924483  1
  Ga  Ga4  1  0.644073  0.638139  0.073754  1
  Ga  Ga5  1  0.357759  0.924483  0.359964  1
  Ga  Ga6  1  0.644075  0.073751  0.638137  1
  Ga  Ga7  1  0.158865  0.470822  0.211420  1
  Ga  Ga8  1  0.839423  0.529079  0.792039  1
  Ga  Ga9  1  0.158867  0.211419  0.470820  1
  Ga  Ga10  1  0.839422  0.792042  0.529079  1
  Ag  Ag11  1  0.499865  0.000125  0.000127  1
  Ag  Ag12  1  0.000576  0.806427  0.192513  1
  Ag  Ag13  1  0.000576  0.192512  0.806429  1
