# generated using pymatgen
data_TbSmCo8(P3Ru)2
_symmetry_space_group_name_H-M   'P 1'
_cell_length_a   3.70524800
_cell_length_b   10.43897000
_cell_length_c   11.81111400
_cell_angle_alpha   90.00000000
_cell_angle_beta   90.00000000
_cell_angle_gamma   90.00000000
_symmetry_Int_Tables_number   1
_chemical_formula_structural   TbSmCo8(P3Ru)2
_chemical_formula_sum   'Tb2 Sm2 Co16 P12 Ru4'
_cell_volume   456.84175613
_cell_formula_units_Z   2
loop_
 _symmetry_equiv_pos_site_id
 _symmetry_equiv_pos_as_xyz
  1  'x, y, z'
loop_
 _atom_site_type_symbol
 _atom_site_label
 _atom_site_symmetry_multiplicity
 _atom_site_fract_x
 _atom_site_fract_y
 _atom_site_fract_z
 _atom_site_occupancy
  Tb  Tb0  1  0.750000  0.413743  0.296203  1
  Tb  Tb1  1  0.750000  0.086257  0.796203  1
  Sm  Sm2  1  0.250000  0.586230  0.704018  1
  Sm  Sm3  1  0.250000  0.913770  0.204018  1
  Co  Co4  1  0.250000  0.408028  0.489393  1
  Co  Co5  1  0.250000  0.091972  0.989393  1
  Co  Co6  1  0.750000  0.591247  0.508890  1
  Co  Co7  1  0.750000  0.908753  0.008890  1
  Co  Co8  1  0.250000  0.221386  0.176437  1
  Co  Co9  1  0.250000  0.278614  0.676437  1
  Co  Co10  1  0.750000  0.779772  0.823750  1
  Co  Co11  1  0.750000  0.720228  0.323750  1
  Co  Co12  1  0.250000  0.887806  0.702374  1
  Co  Co13  1  0.250000  0.612194  0.202374  1
  Co  Co14  1  0.750000  0.113922  0.298068  1
  Co  Co15  1  0.750000  0.386078  0.798068  1
  Co  Co16  1  0.250000  0.464691  0.931547  1
  Co  Co17  1  0.250000  0.035309  0.431547  1
  Co  Co18  1  0.750000  0.533955  0.069527  1
  Co  Co19  1  0.750000  0.966045  0.569527  1
  P  P20  1  0.250000  0.419539  0.111887  1
  P  P21  1  0.250000  0.080461  0.611887  1
  P  P22  1  0.750000  0.580233  0.889682  1
  P  P23  1  0.750000  0.919767  0.389682  1
  P  P24  1  0.250000  0.272451  0.866843  1
  P  P25  1  0.250000  0.227549  0.366843  1
  P  P26  1  0.750000  0.725945  0.132669  1
  P  P27  1  0.750000  0.774055  0.632669  1
  P  P28  1  0.250000  0.596230  0.390449  1
  P  P29  1  0.250000  0.903770  0.890449  1
  P  P30  1  0.750000  0.402538  0.609016  1
  P  P31  1  0.750000  0.097462  0.109016  1
  Ru  Ru32  1  0.250000  0.716227  0.991745  1
  Ru  Ru33  1  0.250000  0.783773  0.491745  1
  Ru  Ru34  1  0.750000  0.283646  0.007505  1
  Ru  Ru35  1  0.750000  0.216354  0.507505  1
