# generated using pymatgen
data_Ho4Er2TmCoI12
_symmetry_space_group_name_H-M   'P 1'
_cell_length_a   9.68184404
_cell_length_b   9.68708144
_cell_length_c   9.68661054
_cell_angle_alpha   106.84918628
_cell_angle_beta   106.81528344
_cell_angle_gamma   106.84759881
_symmetry_Int_Tables_number   1
_chemical_formula_structural   Ho4Er2TmCoI12
_chemical_formula_sum   'Ho4 Er2 Tm1 Co1 I12'
_cell_volume   759.93570762
_cell_formula_units_Z   1
loop_
 _symmetry_equiv_pos_site_id
 _symmetry_equiv_pos_as_xyz
  1  'x, y, z'
loop_
 _atom_site_type_symbol
 _atom_site_label
 _atom_site_symmetry_multiplicity
 _atom_site_fract_x
 _atom_site_fract_y
 _atom_site_fract_z
 _atom_site_occupancy
  Ho  Ho0  1  0.021840  0.286779  0.091154  1
  Ho  Ho1  1  0.091893  0.021641  0.286808  1
  Ho  Ho2  1  0.713027  0.908497  0.978345  1
  Ho  Ho3  1  0.978947  0.713474  0.908354  1
  Er  Er4  1  0.500074  0.500010  0.499852  1
  Er  Er5  1  0.909719  0.978813  0.714824  1
  Tm  Tm6  1  0.284291  0.090443  0.020965  1
  Co  Co7  1  0.000186  0.000031  0.000024  1
  I  I8  1  0.463520  0.161528  0.386252  1
  I  I9  1  0.386990  0.462842  0.161245  1
  I  I10  1  0.161441  0.386844  0.463545  1
  I  I11  1  0.536962  0.838755  0.613132  1
  I  I12  1  0.613111  0.536453  0.838526  1
  I  I13  1  0.838543  0.613541  0.536409  1
  I  I14  1  0.323852  0.776553  0.929677  1
  I  I15  1  0.929306  0.323098  0.775167  1
  I  I16  1  0.775654  0.929475  0.323834  1
  I  I17  1  0.675767  0.224228  0.070446  1
  I  I18  1  0.070651  0.676474  0.224475  1
  I  I19  1  0.224225  0.070520  0.676969  1
