# generated using pymatgen
data_CeNd(ThH5)6
_symmetry_space_group_name_H-M   'P 1'
_cell_length_a   7.90766933
_cell_length_b   7.90862773
_cell_length_c   7.90093620
_cell_angle_alpha   109.45551042
_cell_angle_beta   109.45297788
_cell_angle_gamma   109.50642466
_symmetry_Int_Tables_number   1
_chemical_formula_structural   CeNd(ThH5)6
_chemical_formula_sum   'Ce1 Nd1 Th6 H30'
_cell_volume   380.36408415
_cell_formula_units_Z   1
loop_
 _symmetry_equiv_pos_site_id
 _symmetry_equiv_pos_as_xyz
  1  'x, y, z'
loop_
 _atom_site_type_symbol
 _atom_site_label
 _atom_site_symmetry_multiplicity
 _atom_site_fract_x
 _atom_site_fract_y
 _atom_site_fract_z
 _atom_site_occupancy
  Ce  Ce0  1  0.499445  0.999375  0.081354  1
  Nd  Nd1  1  0.917793  0.917797  0.918322  1
  Th  Th2  1  0.997684  0.082196  0.498321  1
  Th  Th3  1  0.083820  0.501134  0.999646  1
  Th  Th4  1  0.999084  0.583772  0.501893  1
  Th  Th5  1  0.584155  0.501740  0.000073  1
  Th  Th6  1  0.501445  0.999403  0.584621  1
  Th  Th7  1  0.416614  0.414994  0.415363  1
  H  H8  1  0.654978  0.967808  0.376038  1
  H  H9  1  0.218006  0.314895  0.846045  1
  H  H10  1  0.185612  0.403779  0.533213  1
  H  H11  1  0.099691  0.288039  0.132428  1
  H  H12  1  0.285183  0.133829  0.100795  1
  H  H13  1  0.132255  0.099668  0.287466  1
  H  H14  1  0.467028  0.155178  0.867312  1
  H  H15  1  0.718568  0.348140  0.815129  1
  H  H16  1  0.627575  0.382208  0.253328  1
  H  H17  1  0.249111  0.625259  0.373914  1
  H  H18  1  0.752139  0.872138  0.131494  1
  H  H19  1  0.122086  0.740753  0.869241  1
  H  H20  1  0.375212  0.251315  0.626069  1
  H  H21  1  0.874458  0.129422  0.746323  1
  H  H22  1  0.778925  0.591130  0.623388  1
  H  H23  1  0.313407  0.844043  0.220877  1
  H  H24  1  0.370184  0.648965  0.967706  1
  H  H25  1  0.968339  0.371333  0.652791  1
  H  H26  1  0.533455  0.187678  0.408811  1
  H  H27  1  0.403409  0.532912  0.184895  1
  H  H28  1  0.850304  0.221427  0.319180  1
  H  H29  1  0.902842  0.681561  0.032602  1
  H  H30  1  0.815531  0.718551  0.347281  1
  H  H31  1  0.152338  0.870519  0.466700  1
  H  H32  1  0.684444  0.033529  0.899566  1
  H  H33  1  0.345330  0.812474  0.712843  1
  H  H34  1  0.871906  0.468691  0.153937  1
  H  H35  1  0.624157  0.778865  0.590560  1
  H  H36  1  0.591850  0.622726  0.779164  1
  H  H37  1  0.031637  0.902754  0.681312  1
