# generated using pymatgen
data_NdY7Co3Si12Pd
_symmetry_space_group_name_H-M   'P 1'
_cell_length_a   8.07757200
_cell_length_b   8.07757325
_cell_length_c   8.07921100
_cell_angle_alpha   90.00000000
_cell_angle_beta   90.00000000
_cell_angle_gamma   119.99999487
_symmetry_Int_Tables_number   1
_chemical_formula_structural   NdY7Co3Si12Pd
_chemical_formula_sum   'Nd1 Y7 Co3 Si12 Pd1'
_cell_volume   456.52161784
_cell_formula_units_Z   1
loop_
 _symmetry_equiv_pos_site_id
 _symmetry_equiv_pos_as_xyz
  1  'x, y, z'
loop_
 _atom_site_type_symbol
 _atom_site_label
 _atom_site_symmetry_multiplicity
 _atom_site_fract_x
 _atom_site_fract_y
 _atom_site_fract_z
 _atom_site_occupancy
  Nd  Nd0  1  0.000000  0.000000  0.247513  1
  Y  Y1  1  0.492651  0.507349  0.753886  1
  Y  Y2  1  0.502468  0.497532  0.247869  1
  Y  Y3  1  0.014697  0.507349  0.753886  1
  Y  Y4  1  0.995064  0.497532  0.247869  1
  Y  Y5  1  0.492651  0.985303  0.753886  1
  Y  Y6  1  0.502468  0.004936  0.247869  1
  Y  Y7  1  0.000000  0.000000  0.750904  1
  Co  Co8  1  0.666667  0.333333  0.973400  1
  Co  Co9  1  0.333333  0.666667  0.030606  1
  Co  Co10  1  0.333333  0.666667  0.469038  1
  Si  Si11  1  0.827025  0.172975  0.998425  1
  Si  Si12  1  0.171900  0.828100  0.997724  1
  Si  Si13  1  0.345951  0.172975  0.998425  1
  Si  Si14  1  0.173401  0.826599  0.503765  1
  Si  Si15  1  0.656199  0.828100  0.997724  1
  Si  Si16  1  0.835579  0.164421  0.499599  1
  Si  Si17  1  0.827025  0.654049  0.998425  1
  Si  Si18  1  0.653198  0.826599  0.503765  1
  Si  Si19  1  0.171900  0.343801  0.997724  1
  Si  Si20  1  0.328842  0.164421  0.499599  1
  Si  Si21  1  0.173401  0.346802  0.503765  1
  Si  Si22  1  0.835579  0.671158  0.499599  1
  Pd  Pd23  1  0.666667  0.333333  0.524730  1
