# generated using pymatgen
data_Nd2GeIrBr2
_symmetry_space_group_name_H-M   'P 1'
_cell_length_a   4.31850400
_cell_length_b   4.31850522
_cell_length_c   11.09329800
_cell_angle_alpha   90.00000000
_cell_angle_beta   90.00000000
_cell_angle_gamma   120.00000599
_symmetry_Int_Tables_number   1
_chemical_formula_structural   Nd2GeIrBr2
_chemical_formula_sum   'Nd2 Ge1 Ir1 Br2'
_cell_volume   179.16701576
_cell_formula_units_Z   1
loop_
 _symmetry_equiv_pos_site_id
 _symmetry_equiv_pos_as_xyz
  1  'x, y, z'
loop_
 _atom_site_type_symbol
 _atom_site_label
 _atom_site_symmetry_multiplicity
 _atom_site_fract_x
 _atom_site_fract_y
 _atom_site_fract_z
 _atom_site_occupancy
  Nd  Nd0  1  0.000000  0.000000  0.171836  1
  Nd  Nd1  1  0.000000  0.000000  0.828673  1
  Ge  Ge2  1  0.666667  0.333333  0.004026  1
  Ir  Ir3  1  0.333333  0.666667  0.996844  1
  Br  Br4  1  0.666667  0.333333  0.660171  1
  Br  Br5  1  0.333333  0.666667  0.338448  1
