# generated using pymatgen
data_Yb6YErBi6
_symmetry_space_group_name_H-M   'P 1'
_cell_length_a   8.17726121
_cell_length_b   8.36710798
_cell_length_c   8.36710664
_cell_angle_alpha   109.92627700
_cell_angle_beta   109.01223600
_cell_angle_gamma   109.01224737
_symmetry_Int_Tables_number   1
_chemical_formula_structural   Yb6YErBi6
_chemical_formula_sum   'Yb6 Y1 Er1 Bi6'
_cell_volume   443.16491672
_cell_formula_units_Z   1
loop_
 _symmetry_equiv_pos_site_id
 _symmetry_equiv_pos_as_xyz
  1  'x, y, z'
loop_
 _atom_site_type_symbol
 _atom_site_label
 _atom_site_symmetry_multiplicity
 _atom_site_fract_x
 _atom_site_fract_y
 _atom_site_fract_z
 _atom_site_occupancy
  Yb  Yb0  1  0.500815  0.999103  0.646671  1
  Yb  Yb1  1  0.354324  0.352293  0.353605  1
  Yb  Yb2  1  0.502031  0.001313  0.147707  1
  Yb  Yb3  1  0.001711  0.647568  0.500897  1
  Yb  Yb4  1  0.854144  0.853329  0.852432  1
  Yb  Yb5  1  0.000718  0.146395  0.498687  1
  Y  Y6  1  0.142133  0.500000  0.000000  1
  Er  Er7  1  0.642151  0.500000  0.000000  1
  Bi  Bi8  1  0.377220  0.622771  0.756591  1
  Bi  Bi9  1  0.876298  0.256224  0.122995  1
  Bi  Bi10  1  0.620629  0.743409  0.366181  1
  Bi  Bi11  1  0.120075  0.866772  0.243776  1
  Bi  Bi12  1  0.254448  0.133819  0.877229  1
  Bi  Bi13  1  0.753303  0.377005  0.633228  1
