# generated using pymatgen
data_Cs4MnCdSe4
_symmetry_space_group_name_H-M   'P 1'
_cell_length_a   8.95405273
_cell_length_b   8.95405252
_cell_length_c   8.95405207
_cell_angle_alpha   134.47634768
_cell_angle_beta   128.81405230
_cell_angle_gamma   70.88836620
_symmetry_Int_Tables_number   1
_chemical_formula_structural   Cs4MnCdSe4
_chemical_formula_sum   'Cs4 Mn1 Cd1 Se4'
_cell_volume   390.98973541
_cell_formula_units_Z   1
loop_
 _symmetry_equiv_pos_site_id
 _symmetry_equiv_pos_as_xyz
  1  'x, y, z'
loop_
 _atom_site_type_symbol
 _atom_site_label
 _atom_site_symmetry_multiplicity
 _atom_site_fract_x
 _atom_site_fract_y
 _atom_site_fract_z
 _atom_site_occupancy
  Cs  Cs0  1  0.518090  0.853300  0.665167  1
  Cs  Cs1  1  0.481910  0.147077  0.335210  1
  Cs  Cs2  1  0.811866  0.646700  0.164790  1
  Cs  Cs3  1  0.188134  0.352923  0.834833  1
  Mn  Mn4  1  0.000000  0.750000  0.750000  1
  Cd  Cd5  1  0.000000  0.250000  0.250000  1
  Se  Se6  1  0.082962  0.887802  0.168057  1
  Se  Se7  1  0.719746  0.414905  0.331943  1
  Se  Se8  1  0.917038  0.085095  0.804841  1
  Se  Se9  1  0.280255  0.612198  0.695159  1
