# generated using pymatgen
data_Er3Zn3C
_symmetry_space_group_name_H-M   'P 1'
_cell_length_a   9.09260000
_cell_length_b   9.09259892
_cell_length_c   9.09260000
_cell_angle_alpha   119.99999667
_cell_angle_beta   90.00000000
_cell_angle_gamma   119.99999667
_symmetry_Int_Tables_number   1
_chemical_formula_structural   Er3Zn3C
_chemical_formula_sum   'Er12 Zn12 C4'
_cell_volume   531.55627882
_cell_formula_units_Z   4
loop_
 _symmetry_equiv_pos_site_id
 _symmetry_equiv_pos_as_xyz
  1  'x, y, z'
loop_
 _atom_site_type_symbol
 _atom_site_label
 _atom_site_symmetry_multiplicity
 _atom_site_fract_x
 _atom_site_fract_y
 _atom_site_fract_z
 _atom_site_occupancy
  Er  Er0  1  0.303419  0.000000  0.303419  1
  Er  Er1  1  0.696581  0.000000  0.303419  1
  Er  Er2  1  0.303419  0.606840  0.303419  1
  Er  Er3  1  0.053419  0.106839  0.553419  1
  Er  Er4  1  0.053419  0.500000  0.553419  1
  Er  Er5  1  0.446581  0.500000  0.553419  1
  Er  Er6  1  0.696581  0.000000  0.696581  1
  Er  Er7  1  0.303419  0.000000  0.696581  1
  Er  Er8  1  0.696581  0.393161  0.696581  1
  Er  Er9  1  0.053419  0.500000  0.946581  1
  Er  Er10  1  0.446581  0.500000  0.946581  1
  Er  Er11  1  0.446581  0.893161  0.946581  1
  Zn  Zn12  1  0.672432  0.344862  0.017292  1
  Zn  Zn13  1  0.375000  0.250000  0.125000  1
  Zn  Zn14  1  0.875000  0.250000  0.125000  1
  Zn  Zn15  1  0.875000  0.750000  0.125000  1
  Zn  Zn16  1  0.077569  0.155138  0.232707  1
  Zn  Zn17  1  0.672432  0.344862  0.327570  1
  Zn  Zn18  1  0.672432  0.655140  0.327570  1
  Zn  Zn19  1  0.982708  0.655140  0.327570  1
  Zn  Zn20  1  0.875000  0.750000  0.625000  1
  Zn  Zn21  1  0.077569  0.155138  0.922429  1
  Zn  Zn22  1  0.077569  0.844861  0.922429  1
  Zn  Zn23  1  0.767291  0.844861  0.922429  1
  C  C24  1  0.375000  0.750000  0.125000  1
  C  C25  1  0.375000  0.250000  0.625000  1
  C  C26  1  0.875000  0.250000  0.625000  1
  C  C27  1  0.375000  0.750000  0.625000  1
