# generated using pymatgen
data_Pr6Nd4InBi5Br2
_symmetry_space_group_name_H-M   'P 1'
_cell_length_a   9.72992900
_cell_length_b   9.67653283
_cell_length_c   6.78083800
_cell_angle_alpha   90.00000000
_cell_angle_beta   90.00000000
_cell_angle_gamma   120.18270954
_symmetry_Int_Tables_number   1
_chemical_formula_structural   Pr6Nd4InBi5Br2
_chemical_formula_sum   'Pr6 Nd4 In1 Bi5 Br2'
_cell_volume   551.87524977
_cell_formula_units_Z   1
loop_
 _symmetry_equiv_pos_site_id
 _symmetry_equiv_pos_as_xyz
  1  'x, y, z'
loop_
 _atom_site_type_symbol
 _atom_site_label
 _atom_site_symmetry_multiplicity
 _atom_site_fract_x
 _atom_site_fract_y
 _atom_site_fract_z
 _atom_site_occupancy
  Pr  Pr0  1  0.273848  0.000000  0.750000  1
  Pr  Pr1  1  0.727209  0.000000  0.250000  1
  Pr  Pr2  1  0.996248  0.269131  0.750000  1
  Pr  Pr3  1  0.000101  0.729409  0.250000  1
  Pr  Pr4  1  0.727116  0.730869  0.750000  1
  Pr  Pr5  1  0.270693  0.270591  0.250000  1
  Nd  Nd6  1  0.335111  0.668424  0.498325  1
  Nd  Nd7  1  0.666688  0.331576  0.498325  1
  Nd  Nd8  1  0.666688  0.331576  0.001675  1
  Nd  Nd9  1  0.335111  0.668424  0.001675  1
  In  In10  1  0.613914  0.000000  0.750000  1
  Bi  Bi11  1  0.387049  0.000000  0.250000  1
  Bi  Bi12  1  0.998655  0.615321  0.750000  1
  Bi  Bi13  1  0.999688  0.383789  0.250000  1
  Bi  Bi14  1  0.383333  0.384679  0.750000  1
  Bi  Bi15  1  0.615899  0.616211  0.250000  1
  Br  Br16  1  0.001324  0.000000  0.499661  1
  Br  Br17  1  0.001324  0.000000  0.000339  1
