# generated using pymatgen
data_InBi3(Ir2O7)2
_symmetry_space_group_name_H-M   'P 1'
_cell_length_a   7.28530192
_cell_length_b   7.28530258
_cell_length_c   7.28530137
_cell_angle_alpha   60.64496185
_cell_angle_beta   60.64495547
_cell_angle_gamma   60.64496125
_symmetry_Int_Tables_number   1
_chemical_formula_structural   InBi3(Ir2O7)2
_chemical_formula_sum   'In1 Bi3 Ir4 O14'
_cell_volume   277.39991780
_cell_formula_units_Z   1
loop_
 _symmetry_equiv_pos_site_id
 _symmetry_equiv_pos_as_xyz
  1  'x, y, z'
loop_
 _atom_site_type_symbol
 _atom_site_label
 _atom_site_symmetry_multiplicity
 _atom_site_fract_x
 _atom_site_fract_y
 _atom_site_fract_z
 _atom_site_occupancy
  In  In0  1  0.125000  0.125000  0.125000  1
  Bi  Bi1  1  0.625000  0.125000  0.125000  1
  Bi  Bi2  1  0.125000  0.625000  0.125000  1
  Bi  Bi3  1  0.125000  0.125000  0.625000  1
  Ir  Ir4  1  0.125000  0.625000  0.625000  1
  Ir  Ir5  1  0.625000  0.125000  0.625000  1
  Ir  Ir6  1  0.625000  0.625000  0.125000  1
  Ir  Ir7  1  0.625000  0.625000  0.625000  1
  O  O8  1  0.707147  0.707147  0.293030  1
  O  O9  1  0.291250  0.291250  0.715045  1
  O  O10  1  0.707147  0.293030  0.707147  1
  O  O11  1  0.291250  0.715045  0.291250  1
  O  O12  1  0.293030  0.707147  0.707147  1
  O  O13  1  0.715045  0.291250  0.291250  1
  O  O14  1  0.542853  0.542853  0.956970  1
  O  O15  1  0.958750  0.958750  0.534955  1
  O  O16  1  0.542853  0.956970  0.542853  1
  O  O17  1  0.958750  0.534955  0.958750  1
  O  O18  1  0.956970  0.542853  0.542853  1
  O  O19  1  0.534955  0.958750  0.958750  1
  O  O20  1  0.244229  0.244229  0.244229  1
  O  O21  1  0.005771  0.005771  0.005771  1
