# generated using pymatgen
data_Tb3Y12Tm5Bi12
_symmetry_space_group_name_H-M   'P 1'
_cell_length_a   8.25778667
_cell_length_b   9.52270960
_cell_length_c   12.07873608
_cell_angle_alpha   89.99491821
_cell_angle_beta   90.03347026
_cell_angle_gamma   90.01403166
_symmetry_Int_Tables_number   1
_chemical_formula_structural   Tb3Y12Tm5Bi12
_chemical_formula_sum   'Tb3 Y12 Tm5 Bi12'
_cell_volume   949.82938789
_cell_formula_units_Z   1
loop_
 _symmetry_equiv_pos_site_id
 _symmetry_equiv_pos_as_xyz
  1  'x, y, z'
loop_
 _atom_site_type_symbol
 _atom_site_label
 _atom_site_symmetry_multiplicity
 _atom_site_fract_x
 _atom_site_fract_y
 _atom_site_fract_z
 _atom_site_occupancy
  Tb  Tb0  1  0.186332  0.749975  0.719125  1
  Tb  Tb1  1  0.686570  0.749960  0.780975  1
  Tb  Tb2  1  0.813576  0.250083  0.280846  1
  Y  Y3  1  0.313515  0.250486  0.218708  1
  Y  Y4  1  0.806437  0.062974  0.559806  1
  Y  Y5  1  0.693192  0.936918  0.059414  1
  Y  Y6  1  0.193733  0.562827  0.440224  1
  Y  Y7  1  0.693778  0.562794  0.059660  1
  Y  Y8  1  0.193620  0.937136  0.440164  1
  Y  Y9  1  0.306363  0.063010  0.940297  1
  Y  Y10  1  0.806390  0.437115  0.559725  1
  Y  Y11  1  0.355008  0.750300  0.215508  1
  Y  Y12  1  0.854566  0.750079  0.284546  1
  Y  Y13  1  0.644731  0.250758  0.784739  1
  Y  Y14  1  0.146228  0.250901  0.715854  1
  Tm  Tm15  1  0.026090  0.749950  0.988458  1
  Tm  Tm16  1  0.525732  0.750174  0.511676  1
  Tm  Tm17  1  0.974832  0.250565  0.011429  1
  Tm  Tm18  1  0.474403  0.250073  0.488717  1
  Tm  Tm19  1  0.306094  0.434461  0.940196  1
  Bi  Bi20  1  0.433778  0.004212  0.672539  1
  Bi  Bi21  1  0.934261  0.496062  0.827867  1
  Bi  Bi22  1  0.565848  0.503995  0.327429  1
  Bi  Bi23  1  0.066458  0.996230  0.172289  1
  Bi  Bi24  1  0.565995  0.996287  0.327504  1
  Bi  Bi25  1  0.066427  0.504181  0.172091  1
  Bi  Bi26  1  0.433538  0.496113  0.672673  1
  Bi  Bi27  1  0.933798  0.004488  0.827828  1
  Bi  Bi28  1  0.407044  0.747558  0.957788  1
  Bi  Bi29  1  0.908045  0.749994  0.541736  1
  Bi  Bi30  1  0.591445  0.250399  0.041768  1
  Bi  Bi31  1  0.092174  0.249942  0.458424  1
