# generated using pymatgen
data_Hf9NbRe3Ru
_symmetry_space_group_name_H-M   'P 1'
_cell_length_a   8.70305400
_cell_length_b   8.70305276
_cell_length_c   8.53337500
_cell_angle_alpha   90.00000000
_cell_angle_beta   90.00000000
_cell_angle_gamma   119.99999711
_symmetry_Int_Tables_number   1
_chemical_formula_structural   Hf9NbRe3Ru
_chemical_formula_sum   'Hf18 Nb2 Re6 Ru2'
_cell_volume   559.75086069
_cell_formula_units_Z   2
loop_
 _symmetry_equiv_pos_site_id
 _symmetry_equiv_pos_as_xyz
  1  'x, y, z'
loop_
 _atom_site_type_symbol
 _atom_site_label
 _atom_site_symmetry_multiplicity
 _atom_site_fract_x
 _atom_site_fract_y
 _atom_site_fract_z
 _atom_site_occupancy
  Hf  Hf0  1  0.198917  0.801083  0.444487  1
  Hf  Hf1  1  0.198917  0.397835  0.444487  1
  Hf  Hf2  1  0.602165  0.801083  0.444487  1
  Hf  Hf3  1  0.801083  0.198917  0.555513  1
  Hf  Hf4  1  0.801083  0.602165  0.555513  1
  Hf  Hf5  1  0.397835  0.198917  0.555513  1
  Hf  Hf6  1  0.801083  0.198917  0.944487  1
  Hf  Hf7  1  0.801083  0.602165  0.944487  1
  Hf  Hf8  1  0.397835  0.198917  0.944487  1
  Hf  Hf9  1  0.198917  0.801083  0.055513  1
  Hf  Hf10  1  0.198917  0.397835  0.055513  1
  Hf  Hf11  1  0.602165  0.801083  0.055513  1
  Hf  Hf12  1  0.543031  0.456969  0.250000  1
  Hf  Hf13  1  0.543031  0.086063  0.250000  1
  Hf  Hf14  1  0.913937  0.456969  0.250000  1
  Hf  Hf15  1  0.456969  0.543031  0.750000  1
  Hf  Hf16  1  0.456969  0.913937  0.750000  1
  Hf  Hf17  1  0.086063  0.543031  0.750000  1
  Nb  Nb18  1  0.000000  0.000000  0.500000  1
  Nb  Nb19  1  0.000000  0.000000  0.000000  1
  Re  Re20  1  0.885596  0.114404  0.250000  1
  Re  Re21  1  0.885596  0.771192  0.250000  1
  Re  Re22  1  0.228808  0.114404  0.250000  1
  Re  Re23  1  0.114404  0.885596  0.750000  1
  Re  Re24  1  0.114404  0.228808  0.750000  1
  Re  Re25  1  0.771192  0.885596  0.750000  1
  Ru  Ru26  1  0.333333  0.666667  0.250000  1
  Ru  Ru27  1  0.666667  0.333333  0.750000  1
