# generated using pymatgen
data_Dy16Er4CoBi8Os3
_symmetry_space_group_name_H-M   'P 1'
_cell_length_a   7.95563183
_cell_length_b   9.00858019
_cell_length_c   12.45475220
_cell_angle_alpha   89.94985892
_cell_angle_beta   90.26314095
_cell_angle_gamma   90.03109660
_symmetry_Int_Tables_number   1
_chemical_formula_structural   Dy16Er4CoBi8Os3
_chemical_formula_sum   'Dy16 Er4 Co1 Bi8 Os3'
_cell_volume   892.60909342
_cell_formula_units_Z   1
loop_
 _symmetry_equiv_pos_site_id
 _symmetry_equiv_pos_as_xyz
  1  'x, y, z'
loop_
 _atom_site_type_symbol
 _atom_site_label
 _atom_site_symmetry_multiplicity
 _atom_site_fract_x
 _atom_site_fract_y
 _atom_site_fract_z
 _atom_site_occupancy
  Dy  Dy0  1  0.844038  0.750514  0.798133  1
  Dy  Dy1  1  0.158803  0.249831  0.207794  1
  Dy  Dy2  1  0.341943  0.249596  0.708691  1
  Dy  Dy3  1  0.656150  0.750209  0.293776  1
  Dy  Dy4  1  0.376357  0.750416  0.693972  1
  Dy  Dy5  1  0.621872  0.249449  0.306527  1
  Dy  Dy6  1  0.876084  0.249606  0.806781  1
  Dy  Dy7  1  0.121021  0.750615  0.187934  1
  Dy  Dy8  1  0.942659  0.750473  0.504992  1
  Dy  Dy9  1  0.058178  0.249716  0.495584  1
  Dy  Dy10  1  0.445290  0.249505  0.996655  1
  Dy  Dy11  1  0.553598  0.750307  0.003602  1
  Dy  Dy12  1  0.825712  0.039040  0.063210  1
  Dy  Dy13  1  0.674435  0.457847  0.564059  1
  Dy  Dy14  1  0.824829  0.461142  0.063470  1
  Dy  Dy15  1  0.176246  0.542313  0.935531  1
  Er  Er16  1  0.672307  0.042337  0.563939  1
  Er  Er17  1  0.326543  0.956605  0.435812  1
  Er  Er18  1  0.174088  0.957175  0.935816  1
  Er  Er19  1  0.325782  0.543529  0.435697  1
  Co  Co20  1  0.931722  0.750502  0.008914  1
  Bi  Bi21  1  0.570454  0.492777  0.827871  1
  Bi  Bi22  1  0.430538  0.508160  0.172119  1
  Bi  Bi23  1  0.068433  0.507919  0.672978  1
  Bi  Bi24  1  0.430840  0.991789  0.172126  1
  Bi  Bi25  1  0.931785  0.493279  0.326805  1
  Bi  Bi26  1  0.569807  0.007207  0.827844  1
  Bi  Bi27  1  0.931795  0.006740  0.326816  1
  Bi  Bi28  1  0.067996  0.992161  0.672959  1
  Os  Os29  1  0.572739  0.750930  0.510902  1
  Os  Os30  1  0.423807  0.249131  0.489364  1
  Os  Os31  1  0.074146  0.249182  0.989326  1
