# generated using pymatgen
data_Rb4Ba4Sb3AsSe12
_symmetry_space_group_name_H-M   'P 1'
_cell_length_a   9.35432486
_cell_length_b   9.99923277
_cell_length_c   9.57729119
_cell_angle_alpha   72.13574452
_cell_angle_beta   90.19285648
_cell_angle_gamma   90.01740127
_symmetry_Int_Tables_number   1
_chemical_formula_structural   Rb4Ba4Sb3AsSe12
_chemical_formula_sum   'Rb4 Ba4 Sb3 As1 Se12'
_cell_volume   852.62591354
_cell_formula_units_Z   1
loop_
 _symmetry_equiv_pos_site_id
 _symmetry_equiv_pos_as_xyz
  1  'x, y, z'
loop_
 _atom_site_type_symbol
 _atom_site_label
 _atom_site_symmetry_multiplicity
 _atom_site_fract_x
 _atom_site_fract_y
 _atom_site_fract_z
 _atom_site_occupancy
  Rb  Rb0  1  0.095592  0.582839  0.291672  1
  Rb  Rb1  1  0.584570  0.420277  0.213429  1
  Rb  Rb2  1  0.913365  0.417054  0.713495  1
  Rb  Rb3  1  0.416758  0.585557  0.772845  1
  Ba  Ba4  1  0.714011  0.918368  0.033485  1
  Ba  Ba5  1  0.213092  0.076825  0.467689  1
  Ba  Ba6  1  0.285432  0.079698  0.968912  1
  Ba  Ba7  1  0.783847  0.919827  0.532578  1
  Sb  Sb8  1  0.952417  0.245709  0.136040  1
  Sb  Sb9  1  0.546512  0.242848  0.638213  1
  Sb  Sb10  1  0.049184  0.755571  0.863728  1
  As  As11  1  0.460480  0.763705  0.352716  1
  Se  Se12  1  0.210455  0.342510  0.100861  1
  Se  Se13  1  0.697064  0.661926  0.398171  1
  Se  Se14  1  0.793260  0.655216  0.901741  1
  Se  Se15  1  0.288846  0.339065  0.601793  1
  Se  Se16  1  0.008507  0.975050  0.221371  1
  Se  Se17  1  0.508868  0.017703  0.280020  1
  Se  Se18  1  0.988779  0.024794  0.778308  1
  Se  Se19  1  0.488905  0.973020  0.723200  1
  Se  Se20  1  0.400033  0.743642  0.114401  1
  Se  Se21  1  0.895615  0.259616  0.394459  1
  Se  Se22  1  0.603522  0.259021  0.896132  1
  Se  Se23  1  0.100887  0.740159  0.604739  1
