# generated using pymatgen
data_Sr6MgNbRuO12
_symmetry_space_group_name_H-M   'P 1'
_cell_length_a   8.92117141
_cell_length_b   8.92117199
_cell_length_c   6.98751303
_cell_angle_alpha   67.51603672
_cell_angle_beta   67.51603434
_cell_angle_gamma   36.90691089
_symmetry_Int_Tables_number   1
_chemical_formula_structural   Sr6MgNbRuO12
_chemical_formula_sum   'Sr6 Mg1 Nb1 Ru1 O12'
_cell_volume   305.61536469
_cell_formula_units_Z   1
loop_
 _symmetry_equiv_pos_site_id
 _symmetry_equiv_pos_as_xyz
  1  'x, y, z'
loop_
 _atom_site_type_symbol
 _atom_site_label
 _atom_site_symmetry_multiplicity
 _atom_site_fract_x
 _atom_site_fract_y
 _atom_site_fract_z
 _atom_site_occupancy
  Sr  Sr0  1  0.207134  0.207134  0.705333  1
  Sr  Sr1  1  0.889052  0.889052  0.708390  1
  Sr  Sr2  1  0.546809  0.546809  0.710880  1
  Sr  Sr3  1  0.794336  0.794336  0.290121  1
  Sr  Sr4  1  0.448647  0.448647  0.290805  1
  Sr  Sr5  1  0.111327  0.111327  0.294266  1
  Mg  Mg6  1  0.000161  0.000161  0.999904  1
  Nb  Nb7  1  0.664604  0.664604  0.001340  1
  Ru  Ru8  1  0.335416  0.335416  0.998866  1
  O  O9  1  0.281182  0.281182  0.316697  1
  O  O10  1  0.942587  0.942587  0.334370  1
  O  O11  1  0.613984  0.613984  0.319904  1
  O  O12  1  0.720587  0.720587  0.679425  1
  O  O13  1  0.385926  0.385926  0.684017  1
  O  O14  1  0.056193  0.056193  0.666236  1
  O  O15  1  0.004033  0.498654  0.999787  1
  O  O16  1  0.656660  0.172321  0.000580  1
  O  O17  1  0.339106  0.831280  0.999355  1
  O  O18  1  0.498654  0.004033  0.999787  1
  O  O19  1  0.172321  0.656660  0.000580  1
  O  O20  1  0.831280  0.339106  0.999355  1
