# generated using pymatgen
data_HoTiCoO5
_symmetry_space_group_name_H-M   'P 1'
_cell_length_a   5.72005000
_cell_length_b   7.33086900
_cell_length_c   8.46743000
_cell_angle_alpha   90.00000000
_cell_angle_beta   90.00000000
_cell_angle_gamma   90.00000000
_symmetry_Int_Tables_number   1
_chemical_formula_structural   HoTiCoO5
_chemical_formula_sum   'Ho4 Ti4 Co4 O20'
_cell_volume   355.06421063
_cell_formula_units_Z   4
loop_
 _symmetry_equiv_pos_site_id
 _symmetry_equiv_pos_as_xyz
  1  'x, y, z'
loop_
 _atom_site_type_symbol
 _atom_site_label
 _atom_site_symmetry_multiplicity
 _atom_site_fract_x
 _atom_site_fract_y
 _atom_site_fract_z
 _atom_site_occupancy
  Ho  Ho0  1  0.500000  0.360412  0.328517  1
  Ho  Ho1  1  0.500000  0.639588  0.671483  1
  Ho  Ho2  1  0.500000  0.139588  0.828517  1
  Ho  Ho3  1  0.500000  0.860412  0.171483  1
  Ti  Ti4  1  0.000000  0.120624  0.147279  1
  Ti  Ti5  1  0.000000  0.879376  0.852721  1
  Ti  Ti6  1  0.000000  0.379376  0.647279  1
  Ti  Ti7  1  0.000000  0.620624  0.352721  1
  Co  Co8  1  0.254105  0.000000  0.500000  1
  Co  Co9  1  0.745895  0.000000  0.500000  1
  Co  Co10  1  0.745895  0.500000  0.000000  1
  Co  Co11  1  0.254105  0.500000  0.000000  1
  O  O12  1  0.225609  0.000000  0.000000  1
  O  O13  1  0.774391  0.000000  0.000000  1
  O  O14  1  0.774391  0.500000  0.500000  1
  O  O15  1  0.225609  0.500000  0.500000  1
  O  O16  1  0.000000  0.347599  0.071852  1
  O  O17  1  0.000000  0.652401  0.928148  1
  O  O18  1  0.000000  0.152401  0.571852  1
  O  O19  1  0.000000  0.847599  0.428148  1
  O  O20  1  0.254773  0.108295  0.292197  1
  O  O21  1  0.745227  0.891705  0.707803  1
  O  O22  1  0.254773  0.891705  0.707803  1
  O  O23  1  0.745227  0.391705  0.792197  1
  O  O24  1  0.745227  0.108295  0.292197  1
  O  O25  1  0.254773  0.608295  0.207803  1
  O  O26  1  0.745227  0.608295  0.207803  1
  O  O27  1  0.254773  0.391705  0.792197  1
  O  O28  1  0.500000  0.338601  0.057725  1
  O  O29  1  0.500000  0.661399  0.942275  1
  O  O30  1  0.500000  0.161399  0.557725  1
  O  O31  1  0.500000  0.838601  0.442275  1
