# generated using pymatgen
data_LuTi3MnPt11
_symmetry_space_group_name_H-M   'P 1'
_cell_length_a   5.63539600
_cell_length_b   5.61681607
_cell_length_c   9.20222600
_cell_angle_alpha   90.00000000
_cell_angle_beta   90.00000000
_cell_angle_gamma   120.10948529
_symmetry_Int_Tables_number   1
_chemical_formula_structural   LuTi3MnPt11
_chemical_formula_sum   'Lu1 Ti3 Mn1 Pt11'
_cell_volume   251.97530343
_cell_formula_units_Z   1
loop_
 _symmetry_equiv_pos_site_id
 _symmetry_equiv_pos_as_xyz
  1  'x, y, z'
loop_
 _atom_site_type_symbol
 _atom_site_label
 _atom_site_symmetry_multiplicity
 _atom_site_fract_x
 _atom_site_fract_y
 _atom_site_fract_z
 _atom_site_occupancy
  Lu  Lu0  1  0.333255  0.666511  0.250000  1
  Ti  Ti1  1  0.995416  0.990832  0.490753  1
  Ti  Ti2  1  0.995416  0.990832  0.009247  1
  Ti  Ti3  1  0.666389  0.332778  0.750000  1
  Mn  Mn4  1  0.173610  0.347220  0.750000  1
  Pt  Pt5  1  0.495987  0.490474  0.512165  1
  Pt  Pt6  1  0.501890  0.003779  0.507331  1
  Pt  Pt7  1  0.994488  0.490474  0.512165  1
  Pt  Pt8  1  0.495987  0.490474  0.987835  1
  Pt  Pt9  1  0.501890  0.003779  0.992669  1
  Pt  Pt10  1  0.994488  0.490474  0.987835  1
  Pt  Pt11  1  0.834574  0.669149  0.250000  1
  Pt  Pt12  1  0.337088  0.169472  0.250000  1
  Pt  Pt13  1  0.832382  0.169472  0.250000  1
  Pt  Pt14  1  0.677423  0.847139  0.750000  1
  Pt  Pt15  1  0.169716  0.847139  0.750000  1
