# generated using pymatgen
data_NbHg3(OF3)2
_symmetry_space_group_name_H-M   'P 1'
_cell_length_a   7.33407100
_cell_length_b   7.33407006
_cell_length_c   5.70881500
_cell_angle_alpha   90.00000000
_cell_angle_beta   90.00000000
_cell_angle_gamma   119.99999974
_symmetry_Int_Tables_number   1
_chemical_formula_structural   NbHg3(OF3)2
_chemical_formula_sum   'Nb1 Hg3 O2 F6'
_cell_volume   265.92965276
_cell_formula_units_Z   1
loop_
 _symmetry_equiv_pos_site_id
 _symmetry_equiv_pos_as_xyz
  1  'x, y, z'
loop_
 _atom_site_type_symbol
 _atom_site_label
 _atom_site_symmetry_multiplicity
 _atom_site_fract_x
 _atom_site_fract_y
 _atom_site_fract_z
 _atom_site_occupancy
  Nb  Nb0  1  0.000000  0.000000  0.500000  1
  Hg  Hg1  1  0.500000  0.000000  0.000000  1
  Hg  Hg2  1  0.000000  0.500000  0.000000  1
  Hg  Hg3  1  0.500000  0.500000  0.000000  1
  O  O4  1  0.666666  0.333333  0.050229  1
  O  O5  1  0.333333  0.666667  0.949772  1
  F  F6  1  0.124426  0.248853  0.304381  1
  F  F7  1  0.124426  0.875575  0.304381  1
  F  F8  1  0.751148  0.875575  0.304381  1
  F  F9  1  0.248853  0.124425  0.695619  1
  F  F10  1  0.875574  0.124425  0.695619  1
  F  F11  1  0.875573  0.751147  0.695619  1
