# generated using pymatgen
data_Tb9YSi5Bi
_symmetry_space_group_name_H-M   'P 1'
_cell_length_a   8.57601350
_cell_length_b   8.63042880
_cell_length_c   6.41503800
_cell_angle_alpha   90.00000000
_cell_angle_beta   90.00000000
_cell_angle_gamma   119.83056673
_symmetry_Int_Tables_number   1
_chemical_formula_structural   Tb9YSi5Bi
_chemical_formula_sum   'Tb9 Y1 Si5 Bi1'
_cell_volume   411.89511971
_cell_formula_units_Z   1
loop_
 _symmetry_equiv_pos_site_id
 _symmetry_equiv_pos_as_xyz
  1  'x, y, z'
loop_
 _atom_site_type_symbol
 _atom_site_label
 _atom_site_symmetry_multiplicity
 _atom_site_fract_x
 _atom_site_fract_y
 _atom_site_fract_z
 _atom_site_occupancy
  Tb  Tb0  1  0.984946  0.744298  0.750000  1
  Tb  Tb1  1  0.754394  0.756333  0.250000  1
  Tb  Tb2  1  0.767278  0.000005  0.750000  1
  Tb  Tb3  1  0.240583  0.255623  0.750000  1
  Tb  Tb4  1  0.240928  0.999978  0.250000  1
  Tb  Tb5  1  0.330697  0.653847  0.494887  1
  Tb  Tb6  1  0.676842  0.346144  0.005114  1
  Tb  Tb7  1  0.676842  0.346144  0.494886  1
  Tb  Tb8  1  0.330697  0.653847  0.005113  1
  Y  Y9  1  0.998066  0.243648  0.250000  1
  Si  Si10  1  0.392468  0.390061  0.250000  1
  Si  Si11  1  0.002539  0.609825  0.250000  1
  Si  Si12  1  0.998628  0.393992  0.750000  1
  Si  Si13  1  0.604670  0.606088  0.750000  1
  Si  Si14  1  0.607535  0.000129  0.250000  1
  Bi  Bi15  1  0.392886  0.000035  0.750000  1
