# generated using pymatgen
data_Na3Ho(PS4)2
_symmetry_space_group_name_H-M   'P 1'
_cell_length_a   10.29858958
_cell_length_b   10.29858930
_cell_length_c   9.24619280
_cell_angle_alpha   64.54268211
_cell_angle_beta   64.54268195
_cell_angle_gamma   55.76068832
_symmetry_Int_Tables_number   1
_chemical_formula_structural   Na3Ho(PS4)2
_chemical_formula_sum   'Na6 Ho2 P4 S16'
_cell_volume   708.39618046
_cell_formula_units_Z   2
loop_
 _symmetry_equiv_pos_site_id
 _symmetry_equiv_pos_as_xyz
  1  'x, y, z'
loop_
 _atom_site_type_symbol
 _atom_site_label
 _atom_site_symmetry_multiplicity
 _atom_site_fract_x
 _atom_site_fract_y
 _atom_site_fract_z
 _atom_site_occupancy
  Na  Na0  1  0.805449  0.534359  0.210192  1
  Na  Na1  1  0.465641  0.194551  0.289808  1
  Na  Na2  1  0.194551  0.465641  0.789808  1
  Na  Na3  1  0.534359  0.805449  0.710192  1
  Na  Na4  1  0.416364  0.583636  0.250000  1
  Na  Na5  1  0.583636  0.416364  0.750000  1
  Ho  Ho6  1  0.024828  0.975172  0.250000  1
  Ho  Ho7  1  0.975172  0.024828  0.750000  1
  P  P8  1  0.858683  0.329406  0.934027  1
  P  P9  1  0.670594  0.141317  0.565973  1
  P  P10  1  0.141317  0.670594  0.065973  1
  P  P11  1  0.329406  0.858683  0.434027  1
  S  S12  1  0.207365  0.856855  0.936580  1
  S  S13  1  0.657932  0.088127  0.810364  1
  S  S14  1  0.318485  0.449513  0.022281  1
  S  S15  1  0.088127  0.657932  0.310364  1
  S  S16  1  0.749522  0.941497  0.493043  1
  S  S17  1  0.792635  0.143145  0.063420  1
  S  S18  1  0.058503  0.250478  0.006957  1
  S  S19  1  0.250478  0.058503  0.506957  1
  S  S20  1  0.941497  0.749522  0.993043  1
  S  S21  1  0.856855  0.207365  0.436580  1
  S  S22  1  0.911873  0.342068  0.689636  1
  S  S23  1  0.342068  0.911873  0.189636  1
  S  S24  1  0.681515  0.550487  0.977719  1
  S  S25  1  0.449513  0.318485  0.522281  1
  S  S26  1  0.143145  0.792635  0.563420  1
  S  S27  1  0.550487  0.681515  0.477719  1
