# generated using pymatgen
data_Dy4Tm12Tl5InCo2
_symmetry_space_group_name_H-M   'P 1'
_cell_length_a   10.19620855
_cell_length_b   10.20895610
_cell_length_c   7.06317901
_cell_angle_alpha   89.95831784
_cell_angle_beta   90.02034715
_cell_angle_gamma   119.95521435
_symmetry_Int_Tables_number   1
_chemical_formula_structural   Dy4Tm12Tl5InCo2
_chemical_formula_sum   'Dy4 Tm12 Tl5 In1 Co2'
_cell_volume   637.01050148
_cell_formula_units_Z   1
loop_
 _symmetry_equiv_pos_site_id
 _symmetry_equiv_pos_as_xyz
  1  'x, y, z'
loop_
 _atom_site_type_symbol
 _atom_site_label
 _atom_site_symmetry_multiplicity
 _atom_site_fract_x
 _atom_site_fract_y
 _atom_site_fract_z
 _atom_site_occupancy
  Dy  Dy0  1  0.535769  0.073881  0.520683  1
  Dy  Dy1  1  0.926684  0.464483  0.521715  1
  Dy  Dy2  1  0.537014  0.462834  0.523032  1
  Dy  Dy3  1  0.462766  0.924685  0.023699  1
  Tm  Tm4  1  0.076762  0.537916  0.025184  1
  Tm  Tm5  1  0.461329  0.538684  0.024378  1
  Tm  Tm6  1  0.177621  0.356122  0.725446  1
  Tm  Tm7  1  0.643267  0.821657  0.723310  1
  Tm  Tm8  1  0.178130  0.820800  0.725935  1
  Tm  Tm9  1  0.820779  0.642511  0.220598  1
  Tm  Tm10  1  0.356832  0.179698  0.220514  1
  Tm  Tm11  1  0.822567  0.179070  0.221708  1
  Tm  Tm12  1  0.667243  0.334036  0.914081  1
  Tm  Tm13  1  0.332845  0.666071  0.415884  1
  Tm  Tm14  1  0.001118  0.998820  0.505458  1
  Tm  Tm15  1  0.000534  0.999528  0.006886  1
  Tl  Tl16  1  0.837415  0.675220  0.775042  1
  Tl  Tl17  1  0.325090  0.162149  0.774143  1
  Tl  Tl18  1  0.836660  0.162387  0.774007  1
  Tl  Tl19  1  0.163008  0.326103  0.276733  1
  Tl  Tl20  1  0.674865  0.837490  0.275807  1
  In  In21  1  0.162357  0.837208  0.274740  1
  Co  Co22  1  0.666575  0.333475  0.291934  1
  Co  Co23  1  0.332768  0.665169  0.794761  1
