# generated using pymatgen
data_Be8Al3Re
_symmetry_space_group_name_H-M   'P 1'
_cell_length_a   4.45049300
_cell_length_b   4.45049325
_cell_length_c   7.06106100
_cell_angle_alpha   90.00000000
_cell_angle_beta   90.00000000
_cell_angle_gamma   120.00000556
_symmetry_Int_Tables_number   1
_chemical_formula_structural   Be8Al3Re
_chemical_formula_sum   'Be8 Al3 Re1'
_cell_volume   121.12027269
_cell_formula_units_Z   1
loop_
 _symmetry_equiv_pos_site_id
 _symmetry_equiv_pos_as_xyz
  1  'x, y, z'
loop_
 _atom_site_type_symbol
 _atom_site_label
 _atom_site_symmetry_multiplicity
 _atom_site_fract_x
 _atom_site_fract_y
 _atom_site_fract_z
 _atom_site_occupancy
  Be  Be0  1  0.000000  0.000000  0.992744  1
  Be  Be1  1  0.000000  0.000000  0.498209  1
  Be  Be2  1  0.834828  0.669656  0.254043  1
  Be  Be3  1  0.169320  0.830680  0.747654  1
  Be  Be4  1  0.661360  0.830680  0.747654  1
  Be  Be5  1  0.330344  0.165172  0.254043  1
  Be  Be6  1  0.834828  0.165172  0.254043  1
  Be  Be7  1  0.169320  0.338640  0.747654  1
  Al  Al8  1  0.333333  0.666667  0.072371  1
  Al  Al9  1  0.666667  0.333333  0.550972  1
  Al  Al10  1  0.666667  0.333333  0.937869  1
  Re  Re11  1  0.333333  0.666667  0.442744  1
