# generated using pymatgen
data_HoTa8VS16
_symmetry_space_group_name_H-M   'P 1'
_cell_length_a   6.67015900
_cell_length_b   6.67015963
_cell_length_c   13.06066200
_cell_angle_alpha   90.00000000
_cell_angle_beta   90.00000000
_cell_angle_gamma   120.00001177
_symmetry_Int_Tables_number   1
_chemical_formula_structural   HoTa8VS16
_chemical_formula_sum   'Ho1 Ta8 V1 S16'
_cell_volume   503.23192456
_cell_formula_units_Z   1
loop_
 _symmetry_equiv_pos_site_id
 _symmetry_equiv_pos_as_xyz
  1  'x, y, z'
loop_
 _atom_site_type_symbol
 _atom_site_label
 _atom_site_symmetry_multiplicity
 _atom_site_fract_x
 _atom_site_fract_y
 _atom_site_fract_z
 _atom_site_occupancy
  Ho  Ho0  1  0.000000  0.000000  0.000000  1
  Ta  Ta1  1  0.504736  0.495264  0.733977  1
  Ta  Ta2  1  0.009470  0.504736  0.266023  1
  Ta  Ta3  1  0.495264  0.990530  0.266023  1
  Ta  Ta4  1  0.504736  0.009470  0.733977  1
  Ta  Ta5  1  0.990530  0.495264  0.733977  1
  Ta  Ta6  1  0.495264  0.504736  0.266023  1
  Ta  Ta7  1  0.000000  0.000000  0.736068  1
  Ta  Ta8  1  0.000000  0.000000  0.263932  1
  V  V9  1  0.000000  0.000000  0.500000  1
  S  S10  1  0.834140  0.165860  0.384677  1
  S  S11  1  0.834140  0.668279  0.384677  1
  S  S12  1  0.331721  0.165860  0.384677  1
  S  S13  1  0.661898  0.830949  0.855621  1
  S  S14  1  0.165860  0.331721  0.615323  1
  S  S15  1  0.169051  0.830949  0.855621  1
  S  S16  1  0.169051  0.338102  0.855621  1
  S  S17  1  0.830949  0.169051  0.144379  1
  S  S18  1  0.338102  0.169051  0.144379  1
  S  S19  1  0.668279  0.834140  0.615323  1
  S  S20  1  0.333333  0.666667  0.142808  1
  S  S21  1  0.666667  0.333333  0.611876  1
  S  S22  1  0.666667  0.333333  0.857192  1
  S  S23  1  0.333333  0.666667  0.388124  1
  S  S24  1  0.830949  0.661898  0.144379  1
  S  S25  1  0.165860  0.834140  0.615323  1
