# generated using pymatgen
data_Er5ZrNi20P13
_symmetry_space_group_name_H-M   'P 1'
_cell_length_a   12.59406600
_cell_length_b   12.57994650
_cell_length_c   3.70203700
_cell_angle_alpha   90.00000000
_cell_angle_beta   90.00000000
_cell_angle_gamma   119.99587561
_symmetry_Int_Tables_number   1
_chemical_formula_structural   Er5ZrNi20P13
_chemical_formula_sum   'Er5 Zr1 Ni20 P13'
_cell_volume   507.96547286
_cell_formula_units_Z   1
loop_
 _symmetry_equiv_pos_site_id
 _symmetry_equiv_pos_as_xyz
  1  'x, y, z'
loop_
 _atom_site_type_symbol
 _atom_site_label
 _atom_site_symmetry_multiplicity
 _atom_site_fract_x
 _atom_site_fract_y
 _atom_site_fract_z
 _atom_site_occupancy
  Er  Er0  1  0.810749  0.281756  0.500000  1
  Er  Er1  1  0.718258  0.529406  0.500000  1
  Er  Er2  1  0.470870  0.189783  0.500000  1
  Er  Er3  1  0.191083  0.718213  0.000000  1
  Er  Er4  1  0.282508  0.472813  0.000000  1
  Zr  Zr5  1  0.529336  0.811226  0.000000  1
  Ni  Ni6  1  0.418209  0.978465  0.000000  1
  Ni  Ni7  1  0.020594  0.437502  0.000000  1
  Ni  Ni8  1  0.585426  0.018996  0.500000  1
  Ni  Ni9  1  0.562295  0.584764  0.000000  1
  Ni  Ni10  1  0.979890  0.565139  0.500000  1
  Ni  Ni11  1  0.923066  0.079078  0.500000  1
  Ni  Ni12  1  0.155580  0.074705  0.500000  1
  Ni  Ni13  1  0.919572  0.844635  0.500000  1
  Ni  Ni14  1  0.092711  0.896189  0.000000  1
  Ni  Ni15  1  0.802174  0.907019  0.000000  1
  Ni  Ni16  1  0.103936  0.196173  0.000000  1
  Ni  Ni17  1  0.334978  0.667865  0.500000  1
  Ni  Ni18  1  0.666548  0.333554  0.000000  1
  Ni  Ni19  1  0.679208  0.752092  0.500000  1
  Ni  Ni20  1  0.249420  0.928660  0.500000  1
  Ni  Ni21  1  0.922489  0.679510  0.000000  1
  Ni  Ni22  1  0.320927  0.243004  0.000000  1
  Ni  Ni23  1  0.754971  0.075934  0.000000  1
  Ni  Ni24  1  0.434658  0.415443  0.500000  1
  Ni  Ni25  1  0.070508  0.318831  0.500000  1
  P  P26  1  0.999182  0.999455  0.000000  1
  P  P27  1  0.232386  0.281681  0.500000  1
  P  P28  1  0.715076  0.948029  0.500000  1
  P  P29  1  0.049671  0.767705  0.500000  1
  P  P30  1  0.766368  0.716198  0.000000  1
  P  P31  1  0.284542  0.049717  0.000000  1
  P  P32  1  0.476005  0.615998  0.500000  1
  P  P33  1  0.389229  0.861427  0.500000  1
  P  P34  1  0.861734  0.476224  0.000000  1
  P  P35  1  0.523746  0.386486  0.000000  1
  P  P36  1  0.614302  0.138335  0.000000  1
  P  P37  1  0.948916  0.232588  0.000000  1
  P  P38  1  0.138876  0.525398  0.500000  1
