# generated using pymatgen
data_RbSm(GdB12)2
_symmetry_space_group_name_H-M   'P 1'
_cell_length_a   7.16999136
_cell_length_b   7.16999100
_cell_length_c   5.87948000
_cell_angle_alpha   90.00000000
_cell_angle_beta   90.00000000
_cell_angle_gamma   109.34757538
_symmetry_Int_Tables_number   1
_chemical_formula_structural   RbSm(GdB12)2
_chemical_formula_sum   'Rb1 Sm1 Gd2 B24'
_cell_volume   285.18725788
_cell_formula_units_Z   1
loop_
 _symmetry_equiv_pos_site_id
 _symmetry_equiv_pos_as_xyz
  1  'x, y, z'
loop_
 _atom_site_type_symbol
 _atom_site_label
 _atom_site_symmetry_multiplicity
 _atom_site_fract_x
 _atom_site_fract_y
 _atom_site_fract_z
 _atom_site_occupancy
  Rb  Rb0  1  0.750067  0.249933  0.500000  1
  Sm  Sm1  1  0.997196  0.002804  0.000000  1
  Gd  Gd2  1  0.503240  0.496760  0.000000  1
  Gd  Gd3  1  0.249797  0.750203  0.500000  1
  B  B4  1  0.176550  0.326668  0.649116  1
  B  B5  1  0.927245  0.577170  0.149598  1
  B  B6  1  0.673332  0.823450  0.649116  1
  B  B7  1  0.422830  0.072755  0.149598  1
  B  B8  1  0.176550  0.326668  0.350884  1
  B  B9  1  0.927245  0.577170  0.850402  1
  B  B10  1  0.673332  0.823450  0.350884  1
  B  B11  1  0.422830  0.072755  0.850402  1
  B  B12  1  0.401029  0.398432  0.500000  1
  B  B13  1  0.150936  0.650788  0.000000  1
  B  B14  1  0.898314  0.901040  0.500000  1
  B  B15  1  0.648228  0.148406  0.000000  1
  B  B16  1  0.323611  0.173495  0.649089  1
  B  B17  1  0.077249  0.427392  0.149590  1
  B  B18  1  0.826505  0.676389  0.649089  1
  B  B19  1  0.572608  0.922751  0.149590  1
  B  B20  1  0.098960  0.101686  0.500000  1
  B  B21  1  0.851594  0.351772  0.000000  1
  B  B22  1  0.601568  0.598971  0.500000  1
  B  B23  1  0.349212  0.849064  0.000000  1
  B  B24  1  0.323611  0.173495  0.350911  1
  B  B25  1  0.077249  0.427392  0.850410  1
  B  B26  1  0.826505  0.676389  0.350911  1
  B  B27  1  0.572608  0.922751  0.850410  1
