# generated using pymatgen
data_Tb2Nd3(Co2Sn5)2
_symmetry_space_group_name_H-M   'P 1'
_cell_length_a   13.97135800
_cell_length_b   13.97135800
_cell_length_c   4.47962400
_cell_angle_alpha   90.00000000
_cell_angle_beta   90.00000000
_cell_angle_gamma   90.00000000
_symmetry_Int_Tables_number   1
_chemical_formula_structural   Tb2Nd3(Co2Sn5)2
_chemical_formula_sum   'Tb4 Nd6 Co8 Sn20'
_cell_volume   874.41742799
_cell_formula_units_Z   2
loop_
 _symmetry_equiv_pos_site_id
 _symmetry_equiv_pos_as_xyz
  1  'x, y, z'
loop_
 _atom_site_type_symbol
 _atom_site_label
 _atom_site_symmetry_multiplicity
 _atom_site_fract_x
 _atom_site_fract_y
 _atom_site_fract_z
 _atom_site_occupancy
  Tb  Tb0  1  0.180641  0.680641  0.500000  1
  Tb  Tb1  1  0.819359  0.319359  0.500000  1
  Tb  Tb2  1  0.680641  0.819359  0.500000  1
  Tb  Tb3  1  0.319359  0.180641  0.500000  1
  Nd  Nd4  1  0.000000  0.000000  0.000000  1
  Nd  Nd5  1  0.500000  0.500000  0.000000  1
  Nd  Nd6  1  0.891320  0.608680  0.500000  1
  Nd  Nd7  1  0.108680  0.391320  0.500000  1
  Nd  Nd8  1  0.391320  0.891320  0.500000  1
  Nd  Nd9  1  0.608680  0.108680  0.500000  1
  Co  Co10  1  0.255240  0.536543  0.000000  1
  Co  Co11  1  0.744760  0.463457  0.000000  1
  Co  Co12  1  0.755240  0.963457  0.000000  1
  Co  Co13  1  0.244760  0.036543  0.000000  1
  Co  Co14  1  0.463457  0.255240  0.000000  1
  Co  Co15  1  0.536543  0.744760  0.000000  1
  Co  Co16  1  0.036543  0.755240  0.000000  1
  Co  Co17  1  0.963457  0.244760  0.000000  1
  Sn  Sn18  1  0.353171  0.700917  0.000000  1
  Sn  Sn19  1  0.646829  0.299083  0.000000  1
  Sn  Sn20  1  0.853171  0.799083  0.000000  1
  Sn  Sn21  1  0.146829  0.200917  0.000000  1
  Sn  Sn22  1  0.299083  0.353171  0.000000  1
  Sn  Sn23  1  0.700917  0.646829  0.000000  1
  Sn  Sn24  1  0.200917  0.853171  0.000000  1
  Sn  Sn25  1  0.799083  0.146829  0.000000  1
  Sn  Sn26  1  0.332857  0.513387  0.500000  1
  Sn  Sn27  1  0.667143  0.486613  0.500000  1
  Sn  Sn28  1  0.832857  0.986613  0.500000  1
  Sn  Sn29  1  0.167143  0.013387  0.500000  1
  Sn  Sn30  1  0.486613  0.332857  0.500000  1
  Sn  Sn31  1  0.513387  0.667143  0.500000  1
  Sn  Sn32  1  0.013387  0.832857  0.500000  1
  Sn  Sn33  1  0.986613  0.167143  0.500000  1
  Sn  Sn34  1  0.073069  0.573069  0.000000  1
  Sn  Sn35  1  0.926931  0.426931  0.000000  1
  Sn  Sn36  1  0.573069  0.926931  0.000000  1
  Sn  Sn37  1  0.426931  0.073069  0.000000  1
