# generated using pymatgen
data_Li3Tb4AlPt4
_symmetry_space_group_name_H-M   'P 1'
_cell_length_a   4.05620200
_cell_length_b   7.05204360
_cell_length_c   8.43318184
_cell_angle_alpha   90.75525694
_cell_angle_beta   90.00000000
_cell_angle_gamma   90.00000000
_symmetry_Int_Tables_number   1
_chemical_formula_structural   Li3Tb4AlPt4
_chemical_formula_sum   'Li3 Tb4 Al1 Pt4'
_cell_volume   241.20610550
_cell_formula_units_Z   1
loop_
 _symmetry_equiv_pos_site_id
 _symmetry_equiv_pos_as_xyz
  1  'x, y, z'
loop_
 _atom_site_type_symbol
 _atom_site_label
 _atom_site_symmetry_multiplicity
 _atom_site_fract_x
 _atom_site_fract_y
 _atom_site_fract_z
 _atom_site_occupancy
  Li  Li0  1  0.250000  0.131669  0.061140  1
  Li  Li1  1  0.250000  0.629885  0.438154  1
  Li  Li2  1  0.750000  0.873432  0.942222  1
  Tb  Tb3  1  0.250000  0.040632  0.684704  1
  Tb  Tb4  1  0.250000  0.543858  0.816790  1
  Tb  Tb5  1  0.750000  0.956989  0.319189  1
  Tb  Tb6  1  0.750000  0.456582  0.180936  1
  Al  Al7  1  0.750000  0.370567  0.558612  1
  Pt  Pt8  1  0.250000  0.255112  0.391867  1
  Pt  Pt9  1  0.250000  0.745892  0.123576  1
  Pt  Pt10  1  0.750000  0.740133  0.616741  1
  Pt  Pt11  1  0.750000  0.255250  0.866069  1
