# generated using pymatgen
data_Nd2Gd3Ir2
_symmetry_space_group_name_H-M   'P 1'
_cell_length_a   6.56698418
_cell_length_b   7.22861667
_cell_length_c   8.81642100
_cell_angle_alpha   96.90722439
_cell_angle_beta   111.86549489
_cell_angle_gamma   90.00000276
_symmetry_Int_Tables_number   1
_chemical_formula_structural   Nd2Gd3Ir2
_chemical_formula_sum   'Nd4 Gd6 Ir4'
_cell_volume   385.13461903
_cell_formula_units_Z   2
loop_
 _symmetry_equiv_pos_site_id
 _symmetry_equiv_pos_as_xyz
  1  'x, y, z'
loop_
 _atom_site_type_symbol
 _atom_site_label
 _atom_site_symmetry_multiplicity
 _atom_site_fract_x
 _atom_site_fract_y
 _atom_site_fract_z
 _atom_site_occupancy
  Nd  Nd0  1  0.977794  0.921831  0.189324  1
  Nd  Nd1  1  0.788469  0.578169  0.810676  1
  Nd  Nd2  1  0.022206  0.078169  0.810676  1
  Nd  Nd3  1  0.211531  0.421831  0.189324  1
  Gd  Gd4  1  0.642511  0.814157  0.436085  1
  Gd  Gd5  1  0.206426  0.685843  0.563915  1
  Gd  Gd6  1  0.357489  0.185843  0.563915  1
  Gd  Gd7  1  0.793574  0.314157  0.436085  1
  Gd  Gd8  1  0.427737  0.750000  0.000000  1
  Gd  Gd9  1  0.572263  0.250000  0.000000  1
  Ir  Ir10  1  0.813383  0.573670  0.225509  1
  Ir  Ir11  1  0.587874  0.926330  0.774491  1
  Ir  Ir12  1  0.186617  0.426330  0.774491  1
  Ir  Ir13  1  0.412126  0.073670  0.225509  1
