# generated using pymatgen
data_Sc4Mn3Si2Ni3
_symmetry_space_group_name_H-M   'P 1'
_cell_length_a   4.97784421
_cell_length_b   4.97784501
_cell_length_c   7.84053800
_cell_angle_alpha   90.00000000
_cell_angle_beta   90.00000000
_cell_angle_gamma   119.93180270
_symmetry_Int_Tables_number   1
_chemical_formula_structural   Sc4Mn3Si2Ni3
_chemical_formula_sum   'Sc4 Mn3 Si2 Ni3'
_cell_volume   168.36708917
_cell_formula_units_Z   1
loop_
 _symmetry_equiv_pos_site_id
 _symmetry_equiv_pos_as_xyz
  1  'x, y, z'
loop_
 _atom_site_type_symbol
 _atom_site_label
 _atom_site_symmetry_multiplicity
 _atom_site_fract_x
 _atom_site_fract_y
 _atom_site_fract_z
 _atom_site_occupancy
  Sc  Sc0  1  0.666705  0.333295  0.059681  1
  Sc  Sc1  1  0.333326  0.666674  0.934061  1
  Sc  Sc2  1  0.333326  0.666674  0.565939  1
  Sc  Sc3  1  0.666705  0.333295  0.440319  1
  Mn  Mn4  1  0.177648  0.355025  0.250000  1
  Mn  Mn5  1  0.177410  0.822590  0.250000  1
  Mn  Mn6  1  0.644975  0.822352  0.250000  1
  Si  Si7  1  0.000020  0.999980  0.498523  1
  Si  Si8  1  0.000020  0.999980  0.001477  1
  Ni  Ni9  1  0.832853  0.665935  0.750000  1
  Ni  Ni10  1  0.832947  0.167053  0.750000  1
  Ni  Ni11  1  0.334065  0.167147  0.750000  1
