# generated using pymatgen
data_RbLa(SmB12)2
_symmetry_space_group_name_H-M   'P 1'
_cell_length_a   7.18872117
_cell_length_b   7.18872062
_cell_length_c   5.90377800
_cell_angle_alpha   90.00000000
_cell_angle_beta   90.00000000
_cell_angle_gamma   109.27709550
_symmetry_Int_Tables_number   1
_chemical_formula_structural   RbLa(SmB12)2
_chemical_formula_sum   'Rb1 La1 Sm2 B24'
_cell_volume   287.98802736
_cell_formula_units_Z   1
loop_
 _symmetry_equiv_pos_site_id
 _symmetry_equiv_pos_as_xyz
  1  'x, y, z'
loop_
 _atom_site_type_symbol
 _atom_site_label
 _atom_site_symmetry_multiplicity
 _atom_site_fract_x
 _atom_site_fract_y
 _atom_site_fract_z
 _atom_site_occupancy
  Rb  Rb0  1  0.750185  0.249815  0.500000  1
  La  La1  1  0.998467  0.001533  0.000000  1
  Sm  Sm2  1  0.500714  0.499286  0.000000  1
  Sm  Sm3  1  0.251617  0.748383  0.500000  1
  B  B4  1  0.176396  0.326806  0.648674  1
  B  B5  1  0.926634  0.576592  0.149402  1
  B  B6  1  0.673194  0.823604  0.648674  1
  B  B7  1  0.423408  0.073366  0.149402  1
  B  B8  1  0.176396  0.326806  0.351326  1
  B  B9  1  0.926634  0.576592  0.850598  1
  B  B10  1  0.673194  0.823604  0.351326  1
  B  B11  1  0.423408  0.073366  0.850598  1
  B  B12  1  0.401001  0.398892  0.500000  1
  B  B13  1  0.150492  0.650984  0.000000  1
  B  B14  1  0.898278  0.900189  0.500000  1
  B  B15  1  0.648230  0.148204  0.000000  1
  B  B16  1  0.324674  0.174382  0.648655  1
  B  B17  1  0.077171  0.427451  0.149455  1
  B  B18  1  0.825618  0.675326  0.648655  1
  B  B19  1  0.572549  0.922829  0.149455  1
  B  B20  1  0.099811  0.101722  0.500000  1
  B  B21  1  0.851796  0.351770  0.000000  1
  B  B22  1  0.601108  0.598999  0.500000  1
  B  B23  1  0.349016  0.849508  0.000000  1
  B  B24  1  0.324674  0.174382  0.351345  1
  B  B25  1  0.077171  0.427451  0.850545  1
  B  B26  1  0.825618  0.675326  0.351345  1
  B  B27  1  0.572549  0.922829  0.850545  1
