# generated using pymatgen
data_Dy3Er2P12Ru6Rh13
_symmetry_space_group_name_H-M   'P 1'
_cell_length_a   12.63511724
_cell_length_b   12.64367642
_cell_length_c   3.93349100
_cell_angle_alpha   90.00000000
_cell_angle_beta   90.00000000
_cell_angle_gamma   120.09880149
_symmetry_Int_Tables_number   1
_chemical_formula_structural   Dy3Er2P12Ru6Rh13
_chemical_formula_sum   'Dy3 Er2 P12 Ru6 Rh13'
_cell_volume   543.66102648
_cell_formula_units_Z   1
loop_
 _symmetry_equiv_pos_site_id
 _symmetry_equiv_pos_as_xyz
  1  'x, y, z'
loop_
 _atom_site_type_symbol
 _atom_site_label
 _atom_site_symmetry_multiplicity
 _atom_site_fract_x
 _atom_site_fract_y
 _atom_site_fract_z
 _atom_site_occupancy
  Dy  Dy0  1  0.668626  0.332101  0.000000  1
  Dy  Dy1  1  0.332626  0.667337  0.000000  1
  Dy  Dy2  1  0.999590  0.813422  0.500000  1
  Er  Er3  1  0.814023  0.001317  0.500000  1
  Er  Er4  1  0.184854  0.187054  0.500000  1
  P  P5  1  0.635974  0.999619  0.000000  1
  P  P6  1  0.364426  0.364903  0.000000  1
  P  P7  1  0.000374  0.633455  0.000000  1
  P  P8  1  0.688184  0.518945  0.500000  1
  P  P9  1  0.832276  0.310124  0.500000  1
  P  P10  1  0.316279  0.833997  0.500000  1
  P  P11  1  0.518650  0.690728  0.500000  1
  P  P12  1  0.180568  0.999947  0.000000  1
  P  P13  1  0.818839  0.818544  0.000000  1
  P  P14  1  0.996508  0.178710  0.000000  1
  P  P15  1  0.479094  0.167753  0.500000  1
  P  P16  1  0.165185  0.480275  0.500000  1
  Ru  Ru17  1  0.513755  0.873993  0.500000  1
  Ru  Ru18  1  0.715514  0.715163  0.500000  1
  Ru  Ru19  1  0.000666  0.284295  0.500000  1
  Ru  Ru20  1  0.003377  0.451831  0.000000  1
  Ru  Ru21  1  0.818068  0.194860  0.000000  1
  Ru  Ru22  1  0.281618  0.999365  0.500000  1
  Rh  Rh23  1  0.624326  0.804996  0.000000  1
  Rh  Rh24  1  0.181867  0.374582  0.000000  1
  Rh  Rh25  1  0.375169  0.182164  0.000000  1
  Rh  Rh26  1  0.194905  0.817659  0.000000  1
  Rh  Rh27  1  0.804134  0.621231  0.000000  1
  Rh  Rh28  1  0.872600  0.509876  0.500000  1
  Rh  Rh29  1  0.491125  0.360000  0.500000  1
  Rh  Rh30  1  0.637571  0.129841  0.500000  1
  Rh  Rh31  1  0.129223  0.640440  0.500000  1
  Rh  Rh32  1  0.358727  0.492157  0.500000  1
  Rh  Rh33  1  0.999637  0.999322  0.000000  1
  Rh  Rh34  1  0.454125  0.002104  0.000000  1
  Rh  Rh35  1  0.547515  0.547890  0.000000  1
