# generated using pymatgen
data_DyYGa2(Ru2C)2
_symmetry_space_group_name_H-M   'P 1'
_cell_length_a   5.88706717
_cell_length_b   5.88706801
_cell_length_c   7.34785600
_cell_angle_alpha   90.00000000
_cell_angle_beta   90.00000000
_cell_angle_gamma   141.20503672
_symmetry_Int_Tables_number   1
_chemical_formula_structural   DyYGa2(Ru2C)2
_chemical_formula_sum   'Dy1 Y1 Ga2 Ru4 C2'
_cell_volume   159.55272449
_cell_formula_units_Z   1
loop_
 _symmetry_equiv_pos_site_id
 _symmetry_equiv_pos_as_xyz
  1  'x, y, z'
loop_
 _atom_site_type_symbol
 _atom_site_label
 _atom_site_symmetry_multiplicity
 _atom_site_fract_x
 _atom_site_fract_y
 _atom_site_fract_z
 _atom_site_occupancy
  Dy  Dy0  1  0.545238  0.454762  0.250000  1
  Y  Y1  1  0.454776  0.545224  0.750000  1
  Ga  Ga2  1  0.268421  0.731579  0.250000  1
  Ga  Ga3  1  0.731602  0.268398  0.750000  1
  Ru  Ru4  1  0.836712  0.163288  0.056603  1
  Ru  Ru5  1  0.163248  0.836752  0.943690  1
  Ru  Ru6  1  0.163248  0.836752  0.556310  1
  Ru  Ru7  1  0.836712  0.163288  0.443397  1
  C  C8  1  0.000022  0.999978  0.000265  1
  C  C9  1  0.000022  0.999978  0.499735  1
