# generated using pymatgen
data_Tb2Th(InRh)3
_symmetry_space_group_name_H-M   'P 1'
_cell_length_a   7.59225948
_cell_length_b   7.77232497
_cell_length_c   3.91603200
_cell_angle_alpha   90.00000000
_cell_angle_beta   90.00000000
_cell_angle_gamma   120.78771454
_symmetry_Int_Tables_number   1
_chemical_formula_structural   Tb2Th(InRh)3
_chemical_formula_sum   'Tb2 Th1 In3 Rh3'
_cell_volume   198.51650111
_cell_formula_units_Z   1
loop_
 _symmetry_equiv_pos_site_id
 _symmetry_equiv_pos_as_xyz
  1  'x, y, z'
loop_
 _atom_site_type_symbol
 _atom_site_label
 _atom_site_symmetry_multiplicity
 _atom_site_fract_x
 _atom_site_fract_y
 _atom_site_fract_z
 _atom_site_occupancy
  Tb  Tb0  1  0.406007  0.407513  0.500000  1
  Tb  Tb1  1  0.593993  0.001506  0.500000  1
  Th  Th2  1  0.000000  0.583636  0.500000  1
  In  In3  1  0.731900  0.744496  0.000000  1
  In  In4  1  0.000000  0.241312  0.000000  1
  In  In5  1  0.268100  0.012596  0.000000  1
  Rh  Rh6  1  0.312895  0.665668  0.000000  1
  Rh  Rh7  1  0.000000  0.990501  0.500000  1
  Rh  Rh8  1  0.687105  0.352772  0.000000  1
