# generated using pymatgen
data_Nd3MgCd2IrPb2
_symmetry_space_group_name_H-M   'P 1'
_cell_length_a   7.65909098
_cell_length_b   7.65908886
_cell_length_c   4.68227000
_cell_angle_alpha   90.00000000
_cell_angle_beta   90.00000000
_cell_angle_gamma   120.55914570
_symmetry_Int_Tables_number   1
_chemical_formula_structural   Nd3MgCd2IrPb2
_chemical_formula_sum   'Nd3 Mg1 Cd2 Ir1 Pb2'
_cell_volume   236.51941067
_cell_formula_units_Z   1
loop_
 _symmetry_equiv_pos_site_id
 _symmetry_equiv_pos_as_xyz
  1  'x, y, z'
loop_
 _atom_site_type_symbol
 _atom_site_label
 _atom_site_symmetry_multiplicity
 _atom_site_fract_x
 _atom_site_fract_y
 _atom_site_fract_z
 _atom_site_occupancy
  Nd  Nd0  1  0.615145  0.002787  0.000000  1
  Nd  Nd1  1  0.002787  0.615145  0.000000  1
  Nd  Nd2  1  0.377371  0.377371  0.000000  1
  Mg  Mg3  1  0.783652  0.783652  0.500000  1
  Cd  Cd4  1  0.227486  0.997257  0.500000  1
  Cd  Cd5  1  0.997257  0.227486  0.500000  1
  Ir  Ir6  1  0.988548  0.988548  0.000000  1
  Pb  Pb7  1  0.340942  0.666810  0.500000  1
  Pb  Pb8  1  0.666810  0.340942  0.500000  1
