# generated using pymatgen
data_Ce2Y3GePb3
_symmetry_space_group_name_H-M   'P 1'
_cell_length_a   9.56335100
_cell_length_b   9.56335033
_cell_length_c   6.35044800
_cell_angle_alpha   90.00000000
_cell_angle_beta   90.00000000
_cell_angle_gamma   119.99999195
_symmetry_Int_Tables_number   1
_chemical_formula_structural   Ce2Y3GePb3
_chemical_formula_sum   'Ce4 Y6 Ge2 Pb6'
_cell_volume   502.98518350
_cell_formula_units_Z   2
loop_
 _symmetry_equiv_pos_site_id
 _symmetry_equiv_pos_as_xyz
  1  'x, y, z'
loop_
 _atom_site_type_symbol
 _atom_site_label
 _atom_site_symmetry_multiplicity
 _atom_site_fract_x
 _atom_site_fract_y
 _atom_site_fract_z
 _atom_site_occupancy
  Ce  Ce0  1  0.333333  0.666667  0.000000  1
  Ce  Ce1  1  0.666667  0.333333  0.000000  1
  Ce  Ce2  1  0.666667  0.333333  0.500000  1
  Ce  Ce3  1  0.333333  0.666667  0.500000  1
  Y  Y4  1  0.252707  0.000000  0.250000  1
  Y  Y5  1  0.747293  0.000000  0.750000  1
  Y  Y6  1  0.000000  0.252707  0.250000  1
  Y  Y7  1  0.000000  0.747293  0.750000  1
  Y  Y8  1  0.747293  0.747293  0.250000  1
  Y  Y9  1  0.252707  0.252707  0.750000  1
  Ge  Ge10  1  0.000000  0.000000  0.000000  1
  Ge  Ge11  1  0.000000  0.000000  0.500000  1
  Pb  Pb12  1  0.612774  0.000000  0.250000  1
  Pb  Pb13  1  0.387226  0.000000  0.750000  1
  Pb  Pb14  1  0.000000  0.612774  0.250000  1
  Pb  Pb15  1  0.000000  0.387226  0.750000  1
  Pb  Pb16  1  0.387226  0.387226  0.250000  1
  Pb  Pb17  1  0.612774  0.612774  0.750000  1
