# generated using pymatgen
data_Sm4MnB16W3
_symmetry_space_group_name_H-M   'P 1'
_cell_length_a   3.62271000
_cell_length_b   6.06415555
_cell_length_c   11.73841398
_cell_angle_alpha   89.91822578
_cell_angle_beta   90.00000000
_cell_angle_gamma   90.00000000
_symmetry_Int_Tables_number   1
_chemical_formula_structural   Sm4MnB16W3
_chemical_formula_sum   'Sm4 Mn1 B16 W3'
_cell_volume   257.87716196
_cell_formula_units_Z   1
loop_
 _symmetry_equiv_pos_site_id
 _symmetry_equiv_pos_as_xyz
  1  'x, y, z'
loop_
 _atom_site_type_symbol
 _atom_site_label
 _atom_site_symmetry_multiplicity
 _atom_site_fract_x
 _atom_site_fract_y
 _atom_site_fract_z
 _atom_site_occupancy
  Sm  Sm0  1  0.000000  0.374422  0.648724  1
  Sm  Sm1  1  0.000000  0.622037  0.350769  1
  Sm  Sm2  1  0.000000  0.874476  0.848864  1
  Sm  Sm3  1  0.000000  0.125760  0.153171  1
  Mn  Mn4  1  0.000000  0.125697  0.418087  1
  B  B5  1  0.500000  0.026699  0.689730  1
  B  B6  1  0.500000  0.977981  0.310492  1
  B  B7  1  0.500000  0.525921  0.807549  1
  B  B8  1  0.500000  0.472285  0.193643  1
  B  B9  1  0.500000  0.386160  0.047361  1
  B  B10  1  0.500000  0.614037  0.954238  1
  B  B11  1  0.500000  0.891458  0.450416  1
  B  B12  1  0.500000  0.116586  0.542678  1
  B  B13  1  0.500000  0.277273  0.319032  1
  B  B14  1  0.500000  0.717210  0.684040  1
  B  B15  1  0.500000  0.785824  0.187691  1
  B  B16  1  0.500000  0.215774  0.813484  1
  B  B17  1  0.500000  0.359394  0.465837  1
  B  B18  1  0.500000  0.636433  0.530195  1
  B  B19  1  0.500000  0.865428  0.033285  1
  B  B20  1  0.500000  0.134885  0.968100  1
  W  W21  1  0.000000  0.371466  0.915723  1
  W  W22  1  0.000000  0.628846  0.085848  1
  W  W23  1  0.000000  0.873947  0.581042  1
