# generated using pymatgen
data_Cs2NdY5(CBr6)2
_symmetry_space_group_name_H-M   'P 1'
_cell_length_a   8.89403499
_cell_length_b   8.93719858
_cell_length_c   9.50428376
_cell_angle_alpha   70.95054504
_cell_angle_beta   84.94695873
_cell_angle_gamma   89.23374219
_symmetry_Int_Tables_number   1
_chemical_formula_structural   Cs2NdY5(CBr6)2
_chemical_formula_sum   'Cs2 Nd1 Y5 C2 Br12'
_cell_volume   711.23219597
_cell_formula_units_Z   1
loop_
 _symmetry_equiv_pos_site_id
 _symmetry_equiv_pos_as_xyz
  1  'x, y, z'
loop_
 _atom_site_type_symbol
 _atom_site_label
 _atom_site_symmetry_multiplicity
 _atom_site_fract_x
 _atom_site_fract_y
 _atom_site_fract_z
 _atom_site_occupancy
  Cs  Cs0  1  0.467278  0.364849  0.331132  1
  Cs  Cs1  1  0.532277  0.635332  0.668676  1
  Nd  Nd2  1  0.914159  0.737663  0.004517  1
  Y  Y3  1  0.085122  0.256146  0.994901  1
  Y  Y4  1  0.744796  0.084665  0.000938  1
  Y  Y5  1  0.255082  0.913719  0.999092  1
  Y  Y6  1  0.973460  0.887798  0.323475  1
  Y  Y7  1  0.026914  0.114361  0.676111  1
  C  C8  1  0.007469  0.029728  0.920855  1
  C  C9  1  0.994749  0.976558  0.078607  1
  Br  Br10  1  0.075092  0.195734  0.328584  1
  Br  Br11  1  0.925845  0.808047  0.664308  1
  Br  Br12  1  0.213839  0.590636  0.000565  1
  Br  Br13  1  0.796405  0.401952  0.998903  1
  Br  Br14  1  0.401702  0.198018  0.001974  1
  Br  Br15  1  0.589038  0.805536  0.998072  1
  Br  Br16  1  0.668742  0.001446  0.323871  1
  Br  Br17  1  0.330508  0.999206  0.675271  1
  Br  Br18  1  0.278080  0.776996  0.321289  1
  Br  Br19  1  0.721197  0.222354  0.679335  1
  Br  Br20  1  0.850611  0.590509  0.335090  1
  Br  Br21  1  0.147633  0.408749  0.674434  1
