# generated using pymatgen
data_LiPr6Nd10Cd3Ir4
_symmetry_space_group_name_H-M   'P 1'
_cell_length_a   9.99859065
_cell_length_b   9.99859053
_cell_length_c   9.99859022
_cell_angle_alpha   60.07118263
_cell_angle_beta   60.07118293
_cell_angle_gamma   60.07118246
_symmetry_Int_Tables_number   1
_chemical_formula_structural   LiPr6Nd10Cd3Ir4
_chemical_formula_sum   'Li1 Pr6 Nd10 Cd3 Ir4'
_cell_volume   707.94801235
_cell_formula_units_Z   1
loop_
 _symmetry_equiv_pos_site_id
 _symmetry_equiv_pos_as_xyz
  1  'x, y, z'
loop_
 _atom_site_type_symbol
 _atom_site_label
 _atom_site_symmetry_multiplicity
 _atom_site_fract_x
 _atom_site_fract_y
 _atom_site_fract_z
 _atom_site_occupancy
  Li  Li0  1  0.570994  0.570994  0.570994  1
  Pr  Pr1  1  0.939220  0.561065  0.561065  1
  Pr  Pr2  1  0.560210  0.939432  0.939432  1
  Pr  Pr3  1  0.561065  0.939220  0.561065  1
  Pr  Pr4  1  0.939432  0.560210  0.939432  1
  Pr  Pr5  1  0.561065  0.561065  0.939220  1
  Pr  Pr6  1  0.939432  0.939432  0.560210  1
  Nd  Nd7  1  0.348233  0.348233  0.348233  1
  Nd  Nd8  1  0.347540  0.347540  0.957547  1
  Nd  Nd9  1  0.347540  0.957547  0.347540  1
  Nd  Nd10  1  0.957547  0.347540  0.347540  1
  Nd  Nd11  1  0.809783  0.191040  0.191040  1
  Nd  Nd12  1  0.187352  0.811617  0.811617  1
  Nd  Nd13  1  0.191040  0.809783  0.191040  1
  Nd  Nd14  1  0.811617  0.187352  0.811617  1
  Nd  Nd15  1  0.191040  0.191040  0.809783  1
  Nd  Nd16  1  0.811617  0.811617  0.187352  1
  Cd  Cd17  1  0.580839  0.580839  0.259963  1
  Cd  Cd18  1  0.580839  0.259963  0.580839  1
  Cd  Cd19  1  0.259963  0.580839  0.580839  1
  Ir  Ir20  1  0.141756  0.141756  0.141756  1
  Ir  Ir21  1  0.142546  0.142546  0.576781  1
  Ir  Ir22  1  0.142546  0.576781  0.142546  1
  Ir  Ir23  1  0.576781  0.142546  0.142546  1
