# generated using pymatgen
data_CaPr2(YSn2)2
_symmetry_space_group_name_H-M   'P 1'
_cell_length_a   8.04572200
_cell_length_b   8.42984400
_cell_length_c   15.84684100
_cell_angle_alpha   90.00000000
_cell_angle_beta   90.00000000
_cell_angle_gamma   90.00000000
_symmetry_Int_Tables_number   1
_chemical_formula_structural   CaPr2(YSn2)2
_chemical_formula_sum   'Ca4 Pr8 Y8 Sn16'
_cell_volume   1074.79901745
_cell_formula_units_Z   4
loop_
 _symmetry_equiv_pos_site_id
 _symmetry_equiv_pos_as_xyz
  1  'x, y, z'
loop_
 _atom_site_type_symbol
 _atom_site_label
 _atom_site_symmetry_multiplicity
 _atom_site_fract_x
 _atom_site_fract_y
 _atom_site_fract_z
 _atom_site_occupancy
  Ca  Ca0  1  0.167662  0.496296  0.750000  1
  Ca  Ca1  1  0.667662  0.003704  0.750000  1
  Ca  Ca2  1  0.832338  0.503704  0.250000  1
  Ca  Ca3  1  0.332338  0.996296  0.250000  1
  Pr  Pr4  1  0.495188  0.319984  0.903827  1
  Pr  Pr5  1  0.995188  0.180016  0.596173  1
  Pr  Pr6  1  0.504812  0.680016  0.403827  1
  Pr  Pr7  1  0.004812  0.819984  0.096173  1
  Pr  Pr8  1  0.504812  0.680016  0.096173  1
  Pr  Pr9  1  0.004812  0.819984  0.403827  1
  Pr  Pr10  1  0.495188  0.319984  0.596173  1
  Pr  Pr11  1  0.995188  0.180016  0.903827  1
  Y  Y12  1  0.336081  0.828670  0.875493  1
  Y  Y13  1  0.836081  0.671330  0.624507  1
  Y  Y14  1  0.663919  0.171330  0.375493  1
  Y  Y15  1  0.163919  0.328670  0.124507  1
  Y  Y16  1  0.663919  0.171330  0.124507  1
  Y  Y17  1  0.163919  0.328670  0.375493  1
  Y  Y18  1  0.336081  0.828670  0.624507  1
  Y  Y19  1  0.836081  0.671330  0.875493  1
  Sn  Sn20  1  0.324658  0.039659  0.037325  1
  Sn  Sn21  1  0.824658  0.460341  0.462675  1
  Sn  Sn22  1  0.675342  0.960341  0.537325  1
  Sn  Sn23  1  0.175342  0.539659  0.962675  1
  Sn  Sn24  1  0.675342  0.960341  0.962675  1
  Sn  Sn25  1  0.175342  0.539659  0.537325  1
  Sn  Sn26  1  0.324658  0.039659  0.462675  1
  Sn  Sn27  1  0.824658  0.460341  0.037325  1
  Sn  Sn28  1  0.534960  0.615575  0.750000  1
  Sn  Sn29  1  0.034960  0.884425  0.750000  1
  Sn  Sn30  1  0.465040  0.384425  0.250000  1
  Sn  Sn31  1  0.965040  0.115575  0.250000  1
  Sn  Sn32  1  0.296283  0.135591  0.750000  1
  Sn  Sn33  1  0.796283  0.364409  0.750000  1
  Sn  Sn34  1  0.703717  0.864409  0.250000  1
  Sn  Sn35  1  0.203717  0.635591  0.250000  1
