# generated using pymatgen
data_Zr24Os3Pt5
_symmetry_space_group_name_H-M   'P 1'
_cell_length_a   10.82528800
_cell_length_b   10.95437872
_cell_length_c   5.70549300
_cell_angle_alpha   89.77070912
_cell_angle_beta   90.00000000
_cell_angle_gamma   90.00000000
_symmetry_Int_Tables_number   1
_chemical_formula_structural   Zr24Os3Pt5
_chemical_formula_sum   'Zr24 Os3 Pt5'
_cell_volume   676.57650136
_cell_formula_units_Z   1
loop_
 _symmetry_equiv_pos_site_id
 _symmetry_equiv_pos_as_xyz
  1  'x, y, z'
loop_
 _atom_site_type_symbol
 _atom_site_label
 _atom_site_symmetry_multiplicity
 _atom_site_fract_x
 _atom_site_fract_y
 _atom_site_fract_z
 _atom_site_occupancy
  Zr  Zr0  1  0.596856  0.094969  0.994240  1
  Zr  Zr1  1  0.290906  0.211172  0.001648  1
  Zr  Zr2  1  0.788057  0.292338  0.996524  1
  Zr  Zr3  1  0.097035  0.404624  0.994383  1
  Zr  Zr4  1  0.903006  0.594972  0.995358  1
  Zr  Zr5  1  0.211173  0.708184  0.993334  1
  Zr  Zr6  1  0.710598  0.792093  0.996027  1
  Zr  Zr7  1  0.405844  0.904026  0.998830  1
  Zr  Zr8  1  0.149607  0.000000  0.250000  1
  Zr  Zr9  1  0.848614  0.000000  0.250000  1
  Zr  Zr10  1  0.349680  0.500000  0.250001  1
  Zr  Zr11  1  0.650917  0.500000  0.250000  1
  Zr  Zr12  1  0.405844  0.095974  0.501169  1
  Zr  Zr13  1  0.710598  0.207907  0.503973  1
  Zr  Zr14  1  0.211174  0.291816  0.506665  1
  Zr  Zr15  1  0.903006  0.405028  0.504641  1
  Zr  Zr16  1  0.097035  0.595376  0.505617  1
  Zr  Zr17  1  0.788057  0.707663  0.503476  1
  Zr  Zr18  1  0.290906  0.788827  0.498352  1
  Zr  Zr19  1  0.596857  0.905031  0.505760  1
  Zr  Zr20  1  0.995730  0.147854  0.750113  1
  Zr  Zr21  1  0.499889  0.354641  0.749241  1
  Zr  Zr22  1  0.499889  0.645359  0.750760  1
  Zr  Zr23  1  0.995730  0.852146  0.749888  1
  Os  Os24  1  0.795745  0.000000  0.750000  1
  Os  Os25  1  0.294634  0.500000  0.750000  1
  Os  Os26  1  0.705149  0.500000  0.750000  1
  Pt  Pt27  1  0.000900  0.204601  0.250919  1
  Pt  Pt28  1  0.500898  0.294550  0.250142  1
  Pt  Pt29  1  0.500898  0.705450  0.249859  1
  Pt  Pt30  1  0.000900  0.795399  0.249081  1
  Pt  Pt31  1  0.203862  0.000000  0.750000  1
