# generated using pymatgen
data_DyY5Si4(GeRh6)2
_symmetry_space_group_name_H-M   'P 1'
_cell_length_a   5.58956100
_cell_length_b   5.58956004
_cell_length_c   15.25184500
_cell_angle_alpha   90.00000000
_cell_angle_beta   90.00000000
_cell_angle_gamma   119.99999977
_symmetry_Int_Tables_number   1
_chemical_formula_structural   DyY5Si4(GeRh6)2
_chemical_formula_sum   'Dy1 Y5 Si4 Ge2 Rh12'
_cell_volume   412.67517211
_cell_formula_units_Z   1
loop_
 _symmetry_equiv_pos_site_id
 _symmetry_equiv_pos_as_xyz
  1  'x, y, z'
loop_
 _atom_site_type_symbol
 _atom_site_label
 _atom_site_symmetry_multiplicity
 _atom_site_fract_x
 _atom_site_fract_y
 _atom_site_fract_z
 _atom_site_occupancy
  Dy  Dy0  1  0.666667  0.333333  0.962817  1
  Y  Y1  1  0.666667  0.333333  0.537192  1
  Y  Y2  1  0.333333  0.666667  0.037184  1
  Y  Y3  1  0.666667  0.333333  0.750043  1
  Y  Y4  1  0.333333  0.666667  0.462820  1
  Y  Y5  1  0.333333  0.666667  0.249995  1
  Si  Si6  1  0.666667  0.333333  0.249990  1
  Si  Si7  1  0.000000  0.000000  0.249997  1
  Si  Si8  1  0.000000  0.000000  0.749980  1
  Si  Si9  1  0.333333  0.666667  0.749975  1
  Ge  Ge10  1  0.000000  0.000000  0.500008  1
  Ge  Ge11  1  0.000000  0.000000  0.999994  1
  Rh  Rh12  1  0.167408  0.334815  0.867024  1
  Rh  Rh13  1  0.167417  0.334835  0.633019  1
  Rh  Rh14  1  0.665185  0.832592  0.867024  1
  Rh  Rh15  1  0.334823  0.167411  0.366985  1
  Rh  Rh16  1  0.832589  0.665177  0.366985  1
  Rh  Rh17  1  0.832589  0.167411  0.366985  1
  Rh  Rh18  1  0.832569  0.167431  0.132973  1
  Rh  Rh19  1  0.334861  0.167431  0.132973  1
  Rh  Rh20  1  0.665165  0.832583  0.633019  1
  Rh  Rh21  1  0.167417  0.832583  0.633019  1
  Rh  Rh22  1  0.832569  0.665139  0.132973  1
  Rh  Rh23  1  0.167408  0.832592  0.867024  1
