# generated using pymatgen
data_Y6CoP12Ir17
_symmetry_space_group_name_H-M   'P 1'
_cell_length_a   3.96271600
_cell_length_b   11.15852600
_cell_length_c   12.79267900
_cell_angle_alpha   90.00000000
_cell_angle_beta   90.00000000
_cell_angle_gamma   90.00000000
_symmetry_Int_Tables_number   1
_chemical_formula_structural   Y6CoP12Ir17
_chemical_formula_sum   'Y6 Co1 P12 Ir17'
_cell_volume   565.66756933
_cell_formula_units_Z   1
loop_
 _symmetry_equiv_pos_site_id
 _symmetry_equiv_pos_as_xyz
  1  'x, y, z'
loop_
 _atom_site_type_symbol
 _atom_site_label
 _atom_site_symmetry_multiplicity
 _atom_site_fract_x
 _atom_site_fract_y
 _atom_site_fract_z
 _atom_site_occupancy
  Y  Y0  1  0.000000  0.500000  0.522100  1
  Y  Y1  1  0.500000  0.000000  0.477477  1
  Y  Y2  1  0.500000  0.819124  0.202536  1
  Y  Y3  1  0.500000  0.180876  0.202536  1
  Y  Y4  1  0.000000  0.687942  0.798029  1
  Y  Y5  1  0.000000  0.312058  0.798029  1
  Co  Co6  1  0.500000  0.000000  0.023315  1
  P  P7  1  0.500000  0.314892  0.618267  1
  P  P8  1  0.500000  0.685108  0.618267  1
  P  P9  1  0.000000  0.184697  0.381297  1
  P  P10  1  0.000000  0.815303  0.381297  1
  P  P11  1  0.500000  0.500000  0.876989  1
  P  P12  1  0.000000  0.000000  0.121537  1
  P  P13  1  0.500000  0.854417  0.896709  1
  P  P14  1  0.500000  0.145583  0.896709  1
  P  P15  1  0.000000  0.657434  0.105768  1
  P  P16  1  0.000000  0.342566  0.105768  1
  P  P17  1  0.500000  0.500000  0.357538  1
  P  P18  1  0.000000  0.000000  0.640772  1
  Ir  Ir19  1  0.000000  0.500000  0.973264  1
  Ir  Ir20  1  0.500000  0.294864  0.429637  1
  Ir  Ir21  1  0.500000  0.705136  0.429637  1
  Ir  Ir22  1  0.000000  0.206988  0.569949  1
  Ir  Ir23  1  0.000000  0.793012  0.569949  1
  Ir  Ir24  1  0.500000  0.870549  0.713846  1
  Ir  Ir25  1  0.500000  0.129451  0.713846  1
  Ir  Ir26  1  0.000000  0.630409  0.285168  1
  Ir  Ir27  1  0.000000  0.369591  0.285168  1
  Ir  Ir28  1  0.500000  0.333330  0.000338  1
  Ir  Ir29  1  0.500000  0.666670  0.000338  1
  Ir  Ir30  1  0.000000  0.157523  0.002406  1
  Ir  Ir31  1  0.000000  0.842477  0.002406  1
  Ir  Ir32  1  0.500000  0.500000  0.178972  1
  Ir  Ir33  1  0.000000  0.000000  0.820233  1
  Ir  Ir34  1  0.500000  0.500000  0.700409  1
  Ir  Ir35  1  0.000000  0.000000  0.299492  1
