# generated using pymatgen
data_Pr3GeBr3
_symmetry_space_group_name_H-M   'P 1'
_cell_length_a   10.55926956
_cell_length_b   10.55926879
_cell_length_c   10.55926900
_cell_angle_alpha   109.47121911
_cell_angle_beta   109.47121764
_cell_angle_gamma   109.47122240
_symmetry_Int_Tables_number   1
_chemical_formula_structural   Pr3GeBr3
_chemical_formula_sum   'Pr12 Ge4 Br12'
_cell_volume   906.31611041
_cell_formula_units_Z   4
loop_
 _symmetry_equiv_pos_site_id
 _symmetry_equiv_pos_as_xyz
  1  'x, y, z'
loop_
 _atom_site_type_symbol
 _atom_site_label
 _atom_site_symmetry_multiplicity
 _atom_site_fract_x
 _atom_site_fract_y
 _atom_site_fract_z
 _atom_site_occupancy
  Pr  Pr0  1  0.478348  0.489174  0.239174  1
  Pr  Pr1  1  0.750000  0.239174  0.260826  1
  Pr  Pr2  1  0.750000  0.010826  0.489174  1
  Pr  Pr3  1  0.239174  0.478348  0.489174  1
  Pr  Pr4  1  0.260826  0.750000  0.239174  1
  Pr  Pr5  1  0.021652  0.260826  0.010826  1
  Pr  Pr6  1  0.010826  0.021652  0.260826  1
  Pr  Pr7  1  0.489174  0.750000  0.010826  1
  Pr  Pr8  1  0.489174  0.239174  0.478348  1
  Pr  Pr9  1  0.010826  0.489174  0.750000  1
  Pr  Pr10  1  0.260826  0.010826  0.021652  1
  Pr  Pr11  1  0.239174  0.260826  0.750000  1
  Ge  Ge12  1  0.250000  0.250000  0.250000  1
  Ge  Ge13  1  0.500000  0.000000  0.250000  1
  Ge  Ge14  1  0.000000  0.250000  0.500000  1
  Ge  Ge15  1  0.250000  0.500000  0.000000  1
  Br  Br16  1  0.250000  0.753986  0.746014  1
  Br  Br17  1  0.507971  0.503986  0.753986  1
  Br  Br18  1  0.992028  0.746014  0.996014  1
  Br  Br19  1  0.746014  0.250000  0.753986  1
  Br  Br20  1  0.996014  0.992028  0.746014  1
  Br  Br21  1  0.250000  0.996014  0.503986  1
  Br  Br22  1  0.753986  0.507971  0.503986  1
  Br  Br23  1  0.503986  0.250000  0.996014  1
  Br  Br24  1  0.753986  0.746014  0.250000  1
  Br  Br25  1  0.746014  0.996014  0.992029  1
  Br  Br26  1  0.996014  0.503986  0.250000  1
  Br  Br27  1  0.503986  0.753986  0.507971  1
