# generated using pymatgen
data_Eu3MnOsC6
_symmetry_space_group_name_H-M   'P 1'
_cell_length_a   8.36455200
_cell_length_b   8.36455278
_cell_length_c   5.26122100
_cell_angle_alpha   90.00000000
_cell_angle_beta   90.00000000
_cell_angle_gamma   119.99998901
_symmetry_Int_Tables_number   1
_chemical_formula_structural   Eu3MnOsC6
_chemical_formula_sum   'Eu6 Mn2 Os2 C12'
_cell_volume   318.78849243
_cell_formula_units_Z   2
loop_
 _symmetry_equiv_pos_site_id
 _symmetry_equiv_pos_as_xyz
  1  'x, y, z'
loop_
 _atom_site_type_symbol
 _atom_site_label
 _atom_site_symmetry_multiplicity
 _atom_site_fract_x
 _atom_site_fract_y
 _atom_site_fract_z
 _atom_site_occupancy
  Eu  Eu0  1  0.611324  0.693583  0.750000  1
  Eu  Eu1  1  0.917742  0.611324  0.250000  1
  Eu  Eu2  1  0.693583  0.082258  0.250000  1
  Eu  Eu3  1  0.306417  0.917742  0.750000  1
  Eu  Eu4  1  0.082258  0.388676  0.750000  1
  Eu  Eu5  1  0.388676  0.306417  0.250000  1
  Mn  Mn6  1  0.000000  0.000000  0.500000  1
  Mn  Mn7  1  0.000000  0.000000  0.000000  1
  Os  Os8  1  0.666667  0.333333  0.750000  1
  Os  Os9  1  0.333333  0.666667  0.250000  1
  C  C10  1  0.952878  0.777538  0.750000  1
  C  C11  1  0.175340  0.952878  0.250000  1
  C  C12  1  0.777538  0.824660  0.250000  1
  C  C13  1  0.222462  0.175340  0.750000  1
  C  C14  1  0.824660  0.047122  0.750000  1
  C  C15  1  0.047122  0.222462  0.250000  1
  C  C16  1  0.857983  0.591333  0.750000  1
  C  C17  1  0.266648  0.857983  0.250000  1
  C  C18  1  0.591333  0.733352  0.250000  1
  C  C19  1  0.408667  0.266648  0.750000  1
  C  C20  1  0.142017  0.408667  0.250000  1
  C  C21  1  0.733352  0.142017  0.750000  1
