# generated using pymatgen
data_Pu3S5
_symmetry_space_group_name_H-M   'P 1'
_cell_length_a   7.33068000
_cell_length_b   7.93260600
_cell_length_c   11.55267100
_cell_angle_alpha   90.00000000
_cell_angle_beta   90.00000000
_cell_angle_gamma   90.00000000
_symmetry_Int_Tables_number   1
_chemical_formula_structural   Pu3S5
_chemical_formula_sum   'Pu12 S20'
_cell_volume   671.80394794
_cell_formula_units_Z   4
loop_
 _symmetry_equiv_pos_site_id
 _symmetry_equiv_pos_as_xyz
  1  'x, y, z'
loop_
 _atom_site_type_symbol
 _atom_site_label
 _atom_site_symmetry_multiplicity
 _atom_site_fract_x
 _atom_site_fract_y
 _atom_site_fract_z
 _atom_site_occupancy
  Pu  Pu0  1  0.518740  0.501278  0.321210  1
  Pu  Pu1  1  0.981260  0.998722  0.821210  1
  Pu  Pu2  1  0.481260  0.001278  0.678790  1
  Pu  Pu3  1  0.018740  0.498722  0.178790  1
  Pu  Pu4  1  0.481260  0.498722  0.678790  1
  Pu  Pu5  1  0.018740  0.001278  0.178790  1
  Pu  Pu6  1  0.518740  0.998722  0.321210  1
  Pu  Pu7  1  0.981260  0.501278  0.821210  1
  Pu  Pu8  1  0.075205  0.750000  0.490356  1
  Pu  Pu9  1  0.424795  0.750000  0.990356  1
  Pu  Pu10  1  0.924795  0.250000  0.509644  1
  Pu  Pu11  1  0.575205  0.250000  0.009644  1
  S  S12  1  0.833036  0.953693  0.597186  1
  S  S13  1  0.666964  0.546307  0.097186  1
  S  S14  1  0.166964  0.453693  0.402814  1
  S  S15  1  0.333036  0.046307  0.902814  1
  S  S16  1  0.166964  0.046307  0.402814  1
  S  S17  1  0.333036  0.453693  0.902814  1
  S  S18  1  0.833036  0.546307  0.597186  1
  S  S19  1  0.666964  0.953693  0.097186  1
  S  S20  1  0.830139  0.750000  0.310365  1
  S  S21  1  0.669861  0.750000  0.810365  1
  S  S22  1  0.169861  0.250000  0.689635  1
  S  S23  1  0.330139  0.250000  0.189635  1
  S  S24  1  0.462875  0.750000  0.500536  1
  S  S25  1  0.037125  0.750000  0.000536  1
  S  S26  1  0.537125  0.250000  0.499464  1
  S  S27  1  0.962875  0.250000  0.999464  1
  S  S28  1  0.202084  0.750000  0.716836  1
  S  S29  1  0.297916  0.750000  0.216836  1
  S  S30  1  0.797916  0.250000  0.283164  1
  S  S31  1  0.702084  0.250000  0.783164  1
