# generated using pymatgen
data_Li2NdTmSi3
_symmetry_space_group_name_H-M   'P 1'
_cell_length_a   9.29308745
_cell_length_b   9.29308737
_cell_length_c   6.79857000
_cell_angle_alpha   90.00000000
_cell_angle_beta   90.00000000
_cell_angle_gamma   153.28651185
_symmetry_Int_Tables_number   1
_chemical_formula_structural   Li2NdTmSi3
_chemical_formula_sum   'Li4 Nd2 Tm2 Si6'
_cell_volume   263.93416961
_cell_formula_units_Z   2
loop_
 _symmetry_equiv_pos_site_id
 _symmetry_equiv_pos_as_xyz
  1  'x, y, z'
loop_
 _atom_site_type_symbol
 _atom_site_label
 _atom_site_symmetry_multiplicity
 _atom_site_fract_x
 _atom_site_fract_y
 _atom_site_fract_z
 _atom_site_occupancy
  Li  Li0  1  0.190993  0.809007  0.059894  1
  Li  Li1  1  0.190993  0.809007  0.440106  1
  Li  Li2  1  0.809007  0.190993  0.940106  1
  Li  Li3  1  0.809007  0.190993  0.559894  1
  Nd  Nd4  1  0.554125  0.445875  0.250000  1
  Nd  Nd5  1  0.445875  0.554125  0.750000  1
  Tm  Tm6  1  0.344421  0.655579  0.250000  1
  Tm  Tm7  1  0.655579  0.344421  0.750000  1
  Si  Si8  1  0.724387  0.275613  0.250000  1
  Si  Si9  1  0.275613  0.724387  0.750000  1
  Si  Si10  1  0.059898  0.940102  0.925057  1
  Si  Si11  1  0.940102  0.059898  0.074943  1
  Si  Si12  1  0.940102  0.059898  0.425057  1
  Si  Si13  1  0.059898  0.940102  0.574943  1
