# generated using pymatgen
data_Yb3YMgRu
_symmetry_space_group_name_H-M   'P 1'
_cell_length_a   9.92659487
_cell_length_b   9.92659583
_cell_length_c   9.92659600
_cell_angle_alpha   59.99999945
_cell_angle_beta   59.99999622
_cell_angle_gamma   60.00000648
_symmetry_Int_Tables_number   1
_chemical_formula_structural   Yb3YMgRu
_chemical_formula_sum   'Yb12 Y4 Mg4 Ru4'
_cell_volume   691.64938230
_cell_formula_units_Z   4
loop_
 _symmetry_equiv_pos_site_id
 _symmetry_equiv_pos_as_xyz
  1  'x, y, z'
loop_
 _atom_site_type_symbol
 _atom_site_label
 _atom_site_symmetry_multiplicity
 _atom_site_fract_x
 _atom_site_fract_y
 _atom_site_fract_z
 _atom_site_occupancy
  Yb  Yb0  1  0.952986  0.547014  0.547014  1
  Yb  Yb1  1  0.547014  0.952986  0.952986  1
  Yb  Yb2  1  0.547014  0.952986  0.547014  1
  Yb  Yb3  1  0.952986  0.547014  0.952986  1
  Yb  Yb4  1  0.547014  0.547014  0.952986  1
  Yb  Yb5  1  0.952986  0.952986  0.547014  1
  Yb  Yb6  1  0.809345  0.190655  0.190655  1
  Yb  Yb7  1  0.190655  0.809345  0.809345  1
  Yb  Yb8  1  0.190655  0.809345  0.190655  1
  Yb  Yb9  1  0.809345  0.190655  0.809345  1
  Yb  Yb10  1  0.190655  0.190655  0.809345  1
  Yb  Yb11  1  0.809345  0.809345  0.190655  1
  Y  Y12  1  0.338738  0.338738  0.338738  1
  Y  Y13  1  0.338738  0.338738  0.983785  1
  Y  Y14  1  0.338738  0.983785  0.338738  1
  Y  Y15  1  0.983785  0.338738  0.338738  1
  Mg  Mg16  1  0.577225  0.577225  0.577225  1
  Mg  Mg17  1  0.577225  0.577225  0.268325  1
  Mg  Mg18  1  0.577225  0.268325  0.577225  1
  Mg  Mg19  1  0.268325  0.577225  0.577225  1
  Ru  Ru20  1  0.137965  0.137965  0.137965  1
  Ru  Ru21  1  0.137965  0.137965  0.586103  1
  Ru  Ru22  1  0.137965  0.586103  0.137965  1
  Ru  Ru23  1  0.586103  0.137965  0.137965  1
