# generated using pymatgen
data_Lu8Tc(B8Ir)3
_symmetry_space_group_name_H-M   'P 1'
_cell_length_a   3.60140100
_cell_length_b   9.06382723
_cell_length_c   11.39141419
_cell_angle_alpha   89.89164154
_cell_angle_beta   90.00000000
_cell_angle_gamma   90.00000000
_symmetry_Int_Tables_number   1
_chemical_formula_structural   Lu8Tc(B8Ir)3
_chemical_formula_sum   'Lu8 Tc1 B24 Ir3'
_cell_volume   371.84330461
_cell_formula_units_Z   1
loop_
 _symmetry_equiv_pos_site_id
 _symmetry_equiv_pos_as_xyz
  1  'x, y, z'
loop_
 _atom_site_type_symbol
 _atom_site_label
 _atom_site_symmetry_multiplicity
 _atom_site_fract_x
 _atom_site_fract_y
 _atom_site_fract_z
 _atom_site_occupancy
  Lu  Lu0  1  0.000000  0.323713  0.412547  1
  Lu  Lu1  1  0.000000  0.680158  0.582163  1
  Lu  Lu2  1  0.000000  0.815741  0.090151  1
  Lu  Lu3  1  0.000000  0.180477  0.913943  1
  Lu  Lu4  1  0.000000  0.941722  0.374566  1
  Lu  Lu5  1  0.000000  0.056364  0.625755  1
  Lu  Lu6  1  0.000000  0.446917  0.126984  1
  Lu  Lu7  1  0.000000  0.556343  0.873746  1
  Tc  Tc8  1  0.000000  0.637674  0.321033  1
  B  B9  1  0.500000  0.553131  0.434073  1
  B  B10  1  0.500000  0.446491  0.565651  1
  B  B11  1  0.500000  0.052625  0.065631  1
  B  B12  1  0.500000  0.946488  0.934893  1
  B  B13  1  0.500000  0.749008  0.420318  1
  B  B14  1  0.500000  0.250168  0.578358  1
  B  B15  1  0.500000  0.250710  0.078740  1
  B  B16  1  0.500000  0.749117  0.921197  1
  B  B17  1  0.500000  0.792676  0.265170  1
  B  B18  1  0.500000  0.206082  0.735967  1
  B  B19  1  0.500000  0.293012  0.234563  1
  B  B20  1  0.500000  0.706844  0.764062  1
  B  B21  1  0.500000  0.630842  0.184586  1
  B  B22  1  0.500000  0.368237  0.816648  1
  B  B23  1  0.500000  0.131230  0.316483  1
  B  B24  1  0.500000  0.869117  0.683332  1
  B  B25  1  0.500000  0.980727  0.213692  1
  B  B26  1  0.500000  0.019914  0.787124  1
  B  B27  1  0.500000  0.481581  0.286753  1
  B  B28  1  0.500000  0.519479  0.713142  1
  B  B29  1  0.500000  0.606910  0.028422  1
  B  B30  1  0.500000  0.392575  0.970287  1
  B  B31  1  0.500000  0.108088  0.470700  1
  B  B32  1  0.500000  0.893718  0.530129  1
  Ir  Ir33  1  0.000000  0.362171  0.678991  1
  Ir  Ir34  1  0.000000  0.137464  0.178230  1
  Ir  Ir35  1  0.000000  0.862483  0.821970  1
