# generated using pymatgen
data_K4PbS4
_symmetry_space_group_name_H-M   'P 1'
_cell_length_a   8.09927800
_cell_length_b   10.19582700
_cell_length_c   14.56262000
_cell_angle_alpha   90.00000000
_cell_angle_beta   90.00000000
_cell_angle_gamma   90.00000000
_symmetry_Int_Tables_number   1
_chemical_formula_structural   K4PbS4
_chemical_formula_sum   'K16 Pb4 S16'
_cell_volume   1202.56422783
_cell_formula_units_Z   4
loop_
 _symmetry_equiv_pos_site_id
 _symmetry_equiv_pos_as_xyz
  1  'x, y, z'
loop_
 _atom_site_type_symbol
 _atom_site_label
 _atom_site_symmetry_multiplicity
 _atom_site_fract_x
 _atom_site_fract_y
 _atom_site_fract_z
 _atom_site_occupancy
  K  K0  1  0.000000  0.000000  0.000000  1
  K  K1  1  0.500000  0.000000  0.500000  1
  K  K2  1  0.000000  0.500000  0.000000  1
  K  K3  1  0.500000  0.500000  0.500000  1
  K  K4  1  0.983301  0.750000  0.424631  1
  K  K5  1  0.483301  0.250000  0.075369  1
  K  K6  1  0.016699  0.250000  0.575369  1
  K  K7  1  0.516699  0.750000  0.924631  1
  K  K8  1  0.843082  0.051139  0.271852  1
  K  K9  1  0.343082  0.948861  0.228148  1
  K  K10  1  0.156918  0.551139  0.728148  1
  K  K11  1  0.656918  0.448861  0.771852  1
  K  K12  1  0.156918  0.948861  0.728148  1
  K  K13  1  0.656918  0.051139  0.771852  1
  K  K14  1  0.843082  0.448861  0.271852  1
  K  K15  1  0.343082  0.551139  0.228148  1
  Pb  Pb16  1  0.760193  0.750000  0.665034  1
  Pb  Pb17  1  0.239807  0.250000  0.334966  1
  Pb  Pb18  1  0.739807  0.750000  0.165034  1
  Pb  Pb19  1  0.260193  0.250000  0.834966  1
  S  S20  1  0.948377  0.250000  0.826560  1
  S  S21  1  0.551623  0.250000  0.326560  1
  S  S22  1  0.448377  0.750000  0.673440  1
  S  S23  1  0.051623  0.750000  0.173440  1
  S  S24  1  0.643809  0.547693  0.084836  1
  S  S25  1  0.143809  0.452307  0.415164  1
  S  S26  1  0.356191  0.047693  0.915164  1
  S  S27  1  0.856191  0.952307  0.584836  1
  S  S28  1  0.356191  0.452307  0.915164  1
  S  S29  1  0.856191  0.547693  0.584836  1
  S  S30  1  0.643809  0.952307  0.084836  1
  S  S31  1  0.143809  0.047693  0.415164  1
  S  S32  1  0.620441  0.750000  0.326604  1
  S  S33  1  0.120441  0.250000  0.173396  1
  S  S34  1  0.379559  0.250000  0.673396  1
  S  S35  1  0.879559  0.750000  0.826604  1
