# generated using pymatgen
data_Tm2Ga5Co2Rh
_symmetry_space_group_name_H-M   'P 1'
_cell_length_a   8.43916932
_cell_length_b   8.37283067
_cell_length_c   8.37283223
_cell_angle_alpha   141.75895925
_cell_angle_beta   109.70682889
_cell_angle_gamma   82.85920574
_symmetry_Int_Tables_number   1
_chemical_formula_structural   Tm2Ga5Co2Rh
_chemical_formula_sum   'Tm4 Ga10 Co4 Rh2'
_cell_volume   334.57222259
_cell_formula_units_Z   2
loop_
 _symmetry_equiv_pos_site_id
 _symmetry_equiv_pos_as_xyz
  1  'x, y, z'
loop_
 _atom_site_type_symbol
 _atom_site_label
 _atom_site_symmetry_multiplicity
 _atom_site_fract_x
 _atom_site_fract_y
 _atom_site_fract_z
 _atom_site_occupancy
  Tm  Tm0  1  0.369007  0.648255  0.720753  1
  Tm  Tm1  1  0.923099  0.148561  0.774537  1
  Tm  Tm2  1  0.076901  0.851439  0.225463  1
  Tm  Tm3  1  0.630993  0.351745  0.279247  1
  Ga  Ga4  1  0.306755  0.546894  0.249134  1
  Ga  Ga5  1  0.693245  0.942379  0.240140  1
  Ga  Ga6  1  0.000000  0.761809  0.761809  1
  Ga  Ga7  1  0.247150  0.423863  0.823287  1
  Ga  Ga8  1  0.752850  0.576137  0.176713  1
  Ga  Ga9  1  0.394667  0.080567  0.314098  1
  Ga  Ga10  1  0.000000  0.238191  0.238191  1
  Ga  Ga11  1  0.605333  0.919433  0.685902  1
  Ga  Ga12  1  0.693245  0.453106  0.750866  1
  Ga  Ga13  1  0.306755  0.057621  0.759860  1
  Co  Co14  1  0.500000  0.755696  0.255696  1
  Co  Co15  1  0.500000  0.244304  0.744304  1
  Co  Co16  1  0.237417  0.153445  0.083973  1
  Co  Co17  1  0.762583  0.846555  0.916027  1
  Rh  Rh18  1  0.065682  0.652589  0.413094  1
  Rh  Rh19  1  0.934318  0.347411  0.586906  1
