# generated using pymatgen
data_Dy9Tm4Lu7Sn16
_symmetry_space_group_name_H-M   'P 1'
_cell_length_a   7.95529901
_cell_length_b   8.08557721
_cell_length_c   15.29235901
_cell_angle_alpha   90.03148270
_cell_angle_beta   89.99783726
_cell_angle_gamma   90.07328128
_symmetry_Int_Tables_number   1
_chemical_formula_structural   Dy9Tm4Lu7Sn16
_chemical_formula_sum   'Dy9 Tm4 Lu7 Sn16'
_cell_volume   983.65227399
_cell_formula_units_Z   1
loop_
 _symmetry_equiv_pos_site_id
 _symmetry_equiv_pos_as_xyz
  1  'x, y, z'
loop_
 _atom_site_type_symbol
 _atom_site_label
 _atom_site_symmetry_multiplicity
 _atom_site_fract_x
 _atom_site_fract_y
 _atom_site_fract_z
 _atom_site_occupancy
  Dy  Dy0  1  0.866039  0.663401  0.877772  1
  Dy  Dy1  1  0.520215  0.321095  0.904181  1
  Dy  Dy2  1  0.020376  0.178739  0.595552  1
  Dy  Dy3  1  0.479453  0.678412  0.403936  1
  Dy  Dy4  1  0.979075  0.822408  0.097426  1
  Dy  Dy5  1  0.480885  0.678064  0.096283  1
  Dy  Dy6  1  0.979694  0.821580  0.403415  1
  Dy  Dy7  1  0.519480  0.320994  0.595459  1
  Dy  Dy8  1  0.020130  0.178469  0.903641  1
  Tm  Tm9  1  0.364598  0.837380  0.876186  1
  Tm  Tm10  1  0.865180  0.662000  0.622985  1
  Tm  Tm11  1  0.634871  0.161661  0.376646  1
  Tm  Tm12  1  0.134962  0.337865  0.123589  1
  Lu  Lu13  1  0.633979  0.161950  0.124629  1
  Lu  Lu14  1  0.134856  0.337496  0.376621  1
  Lu  Lu15  1  0.365817  0.838113  0.622696  1
  Lu  Lu16  1  0.196923  0.504519  0.749603  1
  Lu  Lu17  1  0.696150  0.995918  0.749303  1
  Lu  Lu18  1  0.803569  0.495095  0.250349  1
  Lu  Lu19  1  0.303167  0.004456  0.250063  1
  Sn  Sn20  1  0.296897  0.039134  0.041669  1
  Sn  Sn21  1  0.797065  0.460666  0.458084  1
  Sn  Sn22  1  0.703698  0.960519  0.541456  1
  Sn  Sn23  1  0.206616  0.538149  0.958669  1
  Sn  Sn24  1  0.701435  0.963999  0.958968  1
  Sn  Sn25  1  0.203294  0.539531  0.541290  1
  Sn  Sn26  1  0.296004  0.039324  0.458320  1
  Sn  Sn27  1  0.796100  0.458859  0.043006  1
  Sn  Sn28  1  0.561429  0.619796  0.749008  1
  Sn  Sn29  1  0.062755  0.881493  0.748974  1
  Sn  Sn30  1  0.437920  0.380074  0.250649  1
  Sn  Sn31  1  0.937982  0.120021  0.250173  1
  Sn  Sn32  1  0.330375  0.149820  0.749547  1
  Sn  Sn33  1  0.830097  0.349834  0.749522  1
  Sn  Sn34  1  0.669301  0.849582  0.250094  1
  Sn  Sn35  1  0.169610  0.649586  0.250235  1
