# generated using pymatgen
data_LaDy6CoI12
_symmetry_space_group_name_H-M   'P 1'
_cell_length_a   9.79567982
_cell_length_b   9.79567975
_cell_length_c   9.79568143
_cell_angle_alpha   106.38836324
_cell_angle_beta   106.38836442
_cell_angle_gamma   106.38837297
_symmetry_Int_Tables_number   1
_chemical_formula_structural   LaDy6CoI12
_chemical_formula_sum   'La1 Dy6 Co1 I12'
_cell_volume   795.49712936
_cell_formula_units_Z   1
loop_
 _symmetry_equiv_pos_site_id
 _symmetry_equiv_pos_as_xyz
  1  'x, y, z'
loop_
 _atom_site_type_symbol
 _atom_site_label
 _atom_site_symmetry_multiplicity
 _atom_site_fract_x
 _atom_site_fract_y
 _atom_site_fract_z
 _atom_site_occupancy
  La  La0  1  0.995448  0.995448  0.995448  1
  Dy  Dy1  1  0.517309  0.588770  0.783553  1
  Dy  Dy2  1  0.783553  0.517309  0.588770  1
  Dy  Dy3  1  0.588770  0.783553  0.517309  1
  Dy  Dy4  1  0.481220  0.409863  0.215592  1
  Dy  Dy5  1  0.215592  0.481220  0.409863  1
  Dy  Dy6  1  0.409863  0.215592  0.481220  1
  Co  Co7  1  0.499723  0.499723  0.499723  1
  I  I8  1  0.276425  0.822182  0.426314  1
  I  I9  1  0.426314  0.276425  0.822182  1
  I  I10  1  0.822182  0.426314  0.276425  1
  I  I11  1  0.722421  0.176448  0.572198  1
  I  I12  1  0.572198  0.722421  0.176448  1
  I  I13  1  0.176448  0.572198  0.722421  1
  I  I14  1  0.044556  0.122793  0.349882  1
  I  I15  1  0.349882  0.044556  0.122793  1
  I  I16  1  0.122793  0.349882  0.044556  1
  I  I17  1  0.953634  0.874548  0.642489  1
  I  I18  1  0.642489  0.953634  0.874548  1
  I  I19  1  0.874548  0.642489  0.953634  1
