# generated using pymatgen
data_Ta4FeB4As2Ru9
_symmetry_space_group_name_H-M   'P 1'
_cell_length_a   9.27127320
_cell_length_b   9.27127320
_cell_length_c   2.98004300
_cell_angle_alpha   90.00000000
_cell_angle_beta   90.00000000
_cell_angle_gamma   89.83860501
_symmetry_Int_Tables_number   1
_chemical_formula_structural   Ta4FeB4As2Ru9
_chemical_formula_sum   'Ta4 Fe1 B4 As2 Ru9'
_cell_volume   256.15306974
_cell_formula_units_Z   1
loop_
 _symmetry_equiv_pos_site_id
 _symmetry_equiv_pos_as_xyz
  1  'x, y, z'
loop_
 _atom_site_type_symbol
 _atom_site_label
 _atom_site_symmetry_multiplicity
 _atom_site_fract_x
 _atom_site_fract_y
 _atom_site_fract_z
 _atom_site_occupancy
  Ta  Ta0  1  0.822429  0.677571  0.000000  1
  Ta  Ta1  1  0.177571  0.322429  0.000000  1
  Ta  Ta2  1  0.330224  0.830224  0.000000  1
  Ta  Ta3  1  0.669776  0.169776  0.000000  1
  Fe  Fe4  1  0.500000  0.000000  0.500000  1
  B  B5  1  0.614001  0.885999  0.000000  1
  B  B6  1  0.385999  0.114001  0.000000  1
  B  B7  1  0.124523  0.624523  0.000000  1
  B  B8  1  0.875477  0.375477  0.000000  1
  As  As9  1  0.500000  0.500000  0.000000  1
  As  As10  1  0.000000  0.000000  0.000000  1
  Ru  Ru11  1  0.566855  0.718617  0.500000  1
  Ru  Ru12  1  0.433145  0.281383  0.500000  1
  Ru  Ru13  1  0.069274  0.788121  0.500000  1
  Ru  Ru14  1  0.930726  0.211879  0.500000  1
  Ru  Ru15  1  0.288121  0.569274  0.500000  1
  Ru  Ru16  1  0.711879  0.430726  0.500000  1
  Ru  Ru17  1  0.218617  0.066855  0.500000  1
  Ru  Ru18  1  0.781383  0.933145  0.500000  1
  Ru  Ru19  1  0.000000  0.500000  0.500000  1
