# generated using pymatgen
data_Np(PaAs2)2
_symmetry_space_group_name_H-M   'P 1'
_cell_length_a   7.38529745
_cell_length_b   7.39209133
_cell_length_c   7.41236900
_cell_angle_alpha   109.44373521
_cell_angle_beta   109.58707763
_cell_angle_gamma   109.47584336
_symmetry_Int_Tables_number   1
_chemical_formula_structural   Np(PaAs2)2
_chemical_formula_sum   'Np2 Pa4 As8'
_cell_volume   311.15047098
_cell_formula_units_Z   2
loop_
 _symmetry_equiv_pos_site_id
 _symmetry_equiv_pos_as_xyz
  1  'x, y, z'
loop_
 _atom_site_type_symbol
 _atom_site_label
 _atom_site_symmetry_multiplicity
 _atom_site_fract_x
 _atom_site_fract_y
 _atom_site_fract_z
 _atom_site_occupancy
  Np  Np0  1  0.625406  0.749831  0.375766  1
  Np  Np1  1  0.374594  0.624425  0.750360  1
  Pa  Pa2  1  0.248998  0.124827  0.874122  1
  Pa  Pa3  1  0.124736  0.874634  0.249745  1
  Pa  Pa4  1  0.751002  0.375829  0.625124  1
  Pa  Pa5  1  0.875264  0.249899  0.125010  1
  As  As6  1  0.500222  0.998491  0.658533  1
  As  As7  1  0.999620  0.658625  0.499318  1
  As  As8  1  0.657263  0.501155  0.000417  1
  As  As9  1  0.000380  0.159005  0.499698  1
  As  As10  1  0.838290  0.839703  0.839366  1
  As  As11  1  0.342737  0.343891  0.343154  1
  As  As12  1  0.161710  0.501413  0.001076  1
  As  As13  1  0.499778  0.998270  0.158311  1
