# generated using pymatgen
data_Pr3Ga2Sn2Ge
_symmetry_space_group_name_H-M   'P 1'
_cell_length_a   8.32331375
_cell_length_b   8.32332447
_cell_length_c   8.32331473
_cell_angle_alpha   119.64193471
_cell_angle_beta   119.64203733
_cell_angle_gamma   90.62118947
_symmetry_Int_Tables_number   1
_chemical_formula_structural   Pr3Ga2Sn2Ge
_chemical_formula_sum   'Pr6 Ga4 Sn4 Ge2'
_cell_volume   409.91206667
_cell_formula_units_Z   2
loop_
 _symmetry_equiv_pos_site_id
 _symmetry_equiv_pos_as_xyz
  1  'x, y, z'
loop_
 _atom_site_type_symbol
 _atom_site_label
 _atom_site_symmetry_multiplicity
 _atom_site_fract_x
 _atom_site_fract_y
 _atom_site_fract_z
 _atom_site_occupancy
  Pr  Pr0  1  0.749968  0.749965  0.999997  1
  Pr  Pr1  1  0.249968  0.249965  0.999998  1
  Pr  Pr2  1  0.342619  0.842621  0.172959  1
  Pr  Pr3  1  0.669650  0.169652  0.827031  1
  Pr  Pr4  1  0.842623  0.669652  0.500003  1
  Pr  Pr5  1  0.169661  0.342621  0.500002  1
  Ga  Ga6  1  0.038741  0.538746  0.214839  1
  Ga  Ga7  1  0.323911  0.823918  0.785162  1
  Ga  Ga8  1  0.538756  0.323918  0.500007  1
  Ga  Ga9  1  0.823907  0.038746  0.500004  1
  Sn  Sn10  1  0.955692  0.455687  0.788187  1
  Sn  Sn11  1  0.667508  0.167505  0.211817  1
  Sn  Sn12  1  0.455689  0.667505  0.499997  1
  Sn  Sn13  1  0.167499  0.955687  0.499994  1
  Ge  Ge14  1  0.001901  0.001907  0.000000  1
  Ge  Ge15  1  0.501907  0.501907  0.000006  1
