# generated using pymatgen
data_Eu2SiPdI
_symmetry_space_group_name_H-M   'P 1'
_cell_length_a   4.25706900
_cell_length_b   4.25706934
_cell_length_c   17.81454800
_cell_angle_alpha   90.00000000
_cell_angle_beta   90.00000000
_cell_angle_gamma   120.00000515
_symmetry_Int_Tables_number   1
_chemical_formula_structural   Eu2SiPdI
_chemical_formula_sum   'Eu4 Si2 Pd2 I2'
_cell_volume   279.59334507
_cell_formula_units_Z   2
loop_
 _symmetry_equiv_pos_site_id
 _symmetry_equiv_pos_as_xyz
  1  'x, y, z'
loop_
 _atom_site_type_symbol
 _atom_site_label
 _atom_site_symmetry_multiplicity
 _atom_site_fract_x
 _atom_site_fract_y
 _atom_site_fract_z
 _atom_site_occupancy
  Eu  Eu0  1  0.000000  0.000000  0.389714  1
  Eu  Eu1  1  0.000000  0.000000  0.889714  1
  Eu  Eu2  1  0.000000  0.000000  0.610820  1
  Eu  Eu3  1  0.000000  0.000000  0.110820  1
  Si  Si4  1  0.333333  0.666667  0.502884  1
  Si  Si5  1  0.666667  0.333333  0.002884  1
  Pd  Pd6  1  0.666667  0.333333  0.497531  1
  Pd  Pd7  1  0.333333  0.666667  0.997531  1
  I  I8  1  0.333333  0.666667  0.249051  1
  I  I9  1  0.666667  0.333333  0.749051  1
