# generated using pymatgen
data_Th2CuSiPd13
_symmetry_space_group_name_H-M   'P 1'
_cell_length_a   8.98005669
_cell_length_b   8.96583400
_cell_length_c   7.09313706
_cell_angle_alpha   90.00000000
_cell_angle_beta   90.39543370
_cell_angle_gamma   90.00000000
_symmetry_Int_Tables_number   1
_chemical_formula_structural   Th2CuSiPd13
_chemical_formula_sum   'Th4 Cu2 Si2 Pd26'
_cell_volume   571.08109080
_cell_formula_units_Z   2
loop_
 _symmetry_equiv_pos_site_id
 _symmetry_equiv_pos_as_xyz
  1  'x, y, z'
loop_
 _atom_site_type_symbol
 _atom_site_label
 _atom_site_symmetry_multiplicity
 _atom_site_fract_x
 _atom_site_fract_y
 _atom_site_fract_z
 _atom_site_occupancy
  Th  Th0  1  0.507706  0.000000  0.928235  1
  Th  Th1  1  0.992294  0.500000  0.071765  1
  Th  Th2  1  0.003381  0.000000  0.499420  1
  Th  Th3  1  0.496619  0.500000  0.500580  1
  Cu  Cu4  1  0.250000  0.750000  0.000000  1
  Cu  Cu5  1  0.250000  0.250000  0.000000  1
  Si  Si6  1  0.500334  0.000000  0.442260  1
  Si  Si7  1  0.999666  0.500000  0.557740  1
  Pd  Pd8  1  0.334146  0.836278  0.615830  1
  Pd  Pd9  1  0.334146  0.163722  0.615830  1
  Pd  Pd10  1  0.663731  0.833467  0.615556  1
  Pd  Pd11  1  0.663731  0.166533  0.615556  1
  Pd  Pd12  1  0.165854  0.663722  0.384170  1
  Pd  Pd13  1  0.165854  0.336278  0.384170  1
  Pd  Pd14  1  0.836269  0.666533  0.384444  1
  Pd  Pd15  1  0.836269  0.333467  0.384444  1
  Pd  Pd16  1  0.495081  0.769063  0.253896  1
  Pd  Pd17  1  0.495081  0.230937  0.253896  1
  Pd  Pd18  1  0.270555  0.000000  0.252389  1
  Pd  Pd19  1  0.732082  0.000000  0.257468  1
  Pd  Pd20  1  0.004919  0.730937  0.746104  1
  Pd  Pd21  1  0.004919  0.269063  0.746104  1
  Pd  Pd22  1  0.229445  0.500000  0.747611  1
  Pd  Pd23  1  0.767918  0.500000  0.742532  1
  Pd  Pd24  1  0.493210  0.345142  0.857955  1
  Pd  Pd25  1  0.493210  0.654858  0.857955  1
  Pd  Pd26  1  0.854844  0.000000  0.848742  1
  Pd  Pd27  1  0.164482  0.000000  0.864987  1
  Pd  Pd28  1  0.006790  0.154858  0.142045  1
  Pd  Pd29  1  0.006790  0.845142  0.142045  1
  Pd  Pd30  1  0.645156  0.500000  0.151258  1
  Pd  Pd31  1  0.335518  0.500000  0.135013  1
  Pd  Pd32  1  0.750000  0.750000  0.000000  1
  Pd  Pd33  1  0.750000  0.250000  0.000000  1
