# generated using pymatgen
data_Tm2Nb3P7Rh9
_symmetry_space_group_name_H-M   'P 1'
_cell_length_a   3.91084900
_cell_length_b   9.63682930
_cell_length_c   9.63675510
_cell_angle_alpha   119.98736502
_cell_angle_beta   90.00030760
_cell_angle_gamma   89.99980618
_symmetry_Int_Tables_number   1
_chemical_formula_structural   Tm2Nb3P7Rh9
_chemical_formula_sum   'Tm2 Nb3 P7 Rh9'
_cell_volume   314.57336507
_cell_formula_units_Z   1
loop_
 _symmetry_equiv_pos_site_id
 _symmetry_equiv_pos_as_xyz
  1  'x, y, z'
loop_
 _atom_site_type_symbol
 _atom_site_label
 _atom_site_symmetry_multiplicity
 _atom_site_fract_x
 _atom_site_fract_y
 _atom_site_fract_z
 _atom_site_occupancy
  Tm  Tm0  1  0.261146  0.666664  0.333458  1
  Tm  Tm1  1  0.762096  0.333339  0.666614  1
  Nb  Nb2  1  0.762101  0.095225  0.873457  1
  Nb  Nb3  1  0.762096  0.126511  0.221697  1
  Nb  Nb4  1  0.762111  0.778110  0.904680  1
  P  P5  1  0.262364  0.000019  0.999992  1
  P  P6  1  0.761630  0.875270  0.588384  1
  P  P7  1  0.761626  0.411676  0.286885  1
  P  P8  1  0.761632  0.713153  0.124882  1
  P  P9  1  0.262262  0.118061  0.417321  1
  P  P10  1  0.262268  0.582687  0.700741  1
  P  P11  1  0.262258  0.299232  0.881956  1
  Rh  Rh12  1  0.261868  0.883140  0.163095  1
  Rh  Rh13  1  0.261894  0.836870  0.719991  1
  Rh  Rh14  1  0.261859  0.280047  0.116982  1
  Rh  Rh15  1  0.761871  0.610185  0.554861  1
  Rh  Rh16  1  0.761855  0.445046  0.055203  1
  Rh  Rh17  1  0.761860  0.944824  0.389794  1
  Rh  Rh18  1  0.261727  0.367787  0.440498  1
  Rh  Rh19  1  0.261733  0.559401  0.927210  1
  Rh  Rh20  1  0.261744  0.072755  0.632296  1
