# generated using pymatgen
data_Na3Ce(BiSe3)2
_symmetry_space_group_name_H-M   'P 1'
_cell_length_a   4.26392200
_cell_length_b   4.26392220
_cell_length_c   21.06723800
_cell_angle_alpha   90.00000000
_cell_angle_beta   90.00000000
_cell_angle_gamma   119.99999847
_symmetry_Int_Tables_number   1
_chemical_formula_structural   Na3Ce(BiSe3)2
_chemical_formula_sum   'Na3 Ce1 Bi2 Se6'
_cell_volume   331.70862432
_cell_formula_units_Z   1
loop_
 _symmetry_equiv_pos_site_id
 _symmetry_equiv_pos_as_xyz
  1  'x, y, z'
loop_
 _atom_site_type_symbol
 _atom_site_label
 _atom_site_symmetry_multiplicity
 _atom_site_fract_x
 _atom_site_fract_y
 _atom_site_fract_z
 _atom_site_occupancy
  Na  Na0  1  0.000000  0.000000  0.999404  1
  Na  Na1  1  0.666667  0.333334  0.333616  1
  Na  Na2  1  0.333334  0.666667  0.667004  1
  Ce  Ce3  1  0.333334  0.666667  0.166422  1
  Bi  Bi4  1  0.000000  0.000000  0.499790  1
  Bi  Bi5  1  0.666667  0.333334  0.833792  1
  Se  Se6  1  0.666667  0.333334  0.087675  1
  Se  Se7  1  0.000000  0.000000  0.245221  1
  Se  Se8  1  0.333334  0.666667  0.419574  1
  Se  Se9  1  0.666667  0.333334  0.579745  1
  Se  Se10  1  0.000000  0.000000  0.753859  1
  Se  Se11  1  0.333334  0.666667  0.913897  1
