# generated using pymatgen
data_SmAs4(RuRh)3
_symmetry_space_group_name_H-M   'P 1'
_cell_length_a   7.20134400
_cell_length_b   7.20134463
_cell_length_c   3.89619300
_cell_angle_alpha   90.00000000
_cell_angle_beta   90.00000000
_cell_angle_gamma   120.00000628
_symmetry_Int_Tables_number   1
_chemical_formula_structural   SmAs4(RuRh)3
_chemical_formula_sum   'Sm1 As4 Ru3 Rh3'
_cell_volume   174.98395109
_cell_formula_units_Z   1
loop_
 _symmetry_equiv_pos_site_id
 _symmetry_equiv_pos_as_xyz
  1  'x, y, z'
loop_
 _atom_site_type_symbol
 _atom_site_label
 _atom_site_symmetry_multiplicity
 _atom_site_fract_x
 _atom_site_fract_y
 _atom_site_fract_z
 _atom_site_occupancy
  Sm  Sm0  1  0.000000  0.000000  0.000000  1
  As  As1  1  0.805130  0.194870  0.500000  1
  As  As2  1  0.389739  0.194870  0.500000  1
  As  As3  1  0.333333  0.666667  0.000000  1
  As  As4  1  0.805130  0.610261  0.500000  1
  Ru  Ru5  1  0.533906  0.067814  0.000000  1
  Ru  Ru6  1  0.932186  0.466094  0.000000  1
  Ru  Ru7  1  0.533906  0.466094  0.000000  1
  Rh  Rh8  1  0.197690  0.802310  0.500000  1
  Rh  Rh9  1  0.197690  0.395380  0.500000  1
  Rh  Rh10  1  0.604620  0.802310  0.500000  1
