# generated using pymatgen
data_RbBa3(WN3)2
_symmetry_space_group_name_H-M   'P 1'
_cell_length_a   6.75414943
_cell_length_b   6.75415007
_cell_length_c   13.55566959
_cell_angle_alpha   89.28035524
_cell_angle_beta   90.71964445
_cell_angle_gamma   125.99622806
_symmetry_Int_Tables_number   1
_chemical_formula_structural   RbBa3(WN3)2
_chemical_formula_sum   'Rb2 Ba6 W4 N12'
_cell_volume   500.26210654
_cell_formula_units_Z   2
loop_
 _symmetry_equiv_pos_site_id
 _symmetry_equiv_pos_as_xyz
  1  'x, y, z'
loop_
 _atom_site_type_symbol
 _atom_site_label
 _atom_site_symmetry_multiplicity
 _atom_site_fract_x
 _atom_site_fract_y
 _atom_site_fract_z
 _atom_site_occupancy
  Rb  Rb0  1  0.548268  0.451732  0.635061  1
  Rb  Rb1  1  0.451732  0.548268  0.364939  1
  Ba  Ba2  1  0.941271  0.058729  0.134260  1
  Ba  Ba3  1  0.058729  0.941271  0.865740  1
  Ba  Ba4  1  0.852299  0.147701  0.581237  1
  Ba  Ba5  1  0.147701  0.852299  0.418763  1
  Ba  Ba6  1  0.640575  0.359425  0.084002  1
  Ba  Ba7  1  0.359425  0.640575  0.915998  1
  W  W8  1  0.735225  0.264775  0.839145  1
  W  W9  1  0.264775  0.735225  0.160855  1
  W  W10  1  0.771623  0.228377  0.332121  1
  W  W11  1  0.228377  0.771623  0.667879  1
  N  N12  1  0.838763  0.161237  0.944672  1
  N  N13  1  0.161237  0.838763  0.055328  1
  N  N14  1  0.681948  0.318052  0.441165  1
  N  N15  1  0.318052  0.681948  0.558835  1
  N  N16  1  0.590138  0.409862  0.885213  1
  N  N17  1  0.409862  0.590138  0.114787  1
  N  N18  1  0.917944  0.082056  0.373715  1
  N  N19  1  0.082056  0.917944  0.626285  1
  N  N20  1  0.508440  0.993291  0.753906  1
  N  N21  1  0.993291  0.508440  0.246094  1
  N  N22  1  0.491560  0.006709  0.246094  1
  N  N23  1  0.006709  0.491560  0.753906  1
