# generated using pymatgen
data_Ho2LuSn3IrRh2
_symmetry_space_group_name_H-M   'P 1'
_cell_length_a   7.66421613
_cell_length_b   7.68460166
_cell_length_c   3.68286500
_cell_angle_alpha   90.00000000
_cell_angle_beta   90.00000000
_cell_angle_gamma   120.13196756
_symmetry_Int_Tables_number   1
_chemical_formula_structural   Ho2LuSn3IrRh2
_chemical_formula_sum   'Ho2 Lu1 Sn3 Ir1 Rh2'
_cell_volume   187.59725368
_cell_formula_units_Z   1
loop_
 _symmetry_equiv_pos_site_id
 _symmetry_equiv_pos_as_xyz
  1  'x, y, z'
loop_
 _atom_site_type_symbol
 _atom_site_label
 _atom_site_symmetry_multiplicity
 _atom_site_fract_x
 _atom_site_fract_y
 _atom_site_fract_z
 _atom_site_occupancy
  Ho  Ho0  1  0.402914  0.400822  0.500000  1
  Ho  Ho1  1  0.598995  0.001778  0.500000  1
  Lu  Lu2  1  0.997532  0.597186  0.500000  1
  Sn  Sn3  1  0.733258  0.733233  0.000000  1
  Sn  Sn4  1  0.264731  0.995847  0.000000  1
  Sn  Sn5  1  0.002018  0.269638  0.000000  1
  Ir  Ir6  1  0.669661  0.335804  0.000000  1
  Rh  Rh7  1  0.330915  0.666246  0.000000  1
  Rh  Rh8  1  0.999977  0.999445  0.500000  1
