# generated using pymatgen
data_TbLu2Bi5O14
_symmetry_space_group_name_H-M   'P 1'
_cell_length_a   6.59799712
_cell_length_b   6.72178161
_cell_length_c   7.75982103
_cell_angle_alpha   106.76431679
_cell_angle_beta   89.53880623
_cell_angle_gamma   99.02044523
_symmetry_Int_Tables_number   1
_chemical_formula_structural   TbLu2Bi5O14
_chemical_formula_sum   'Tb1 Lu2 Bi5 O14'
_cell_volume   325.19678424
_cell_formula_units_Z   1
loop_
 _symmetry_equiv_pos_site_id
 _symmetry_equiv_pos_as_xyz
  1  'x, y, z'
loop_
 _atom_site_type_symbol
 _atom_site_label
 _atom_site_symmetry_multiplicity
 _atom_site_fract_x
 _atom_site_fract_y
 _atom_site_fract_z
 _atom_site_occupancy
  Tb  Tb0  1  0.264689  0.539987  0.885285  1
  Lu  Lu1  1  0.463631  0.004301  0.252992  1
  Lu  Lu2  1  0.537094  0.993901  0.750961  1
  Bi  Bi3  1  0.002539  0.006054  0.502033  1
  Bi  Bi4  1  0.002306  0.001214  0.999777  1
  Bi  Bi5  1  0.738731  0.472732  0.114613  1
  Bi  Bi6  1  0.722602  0.461451  0.614084  1
  Bi  Bi7  1  0.270176  0.533285  0.389165  1
  O  O8  1  0.449834  0.660447  0.168414  1
  O  O9  1  0.537623  0.336160  0.822642  1
  O  O10  1  0.305694  0.925552  0.948947  1
  O  O11  1  0.693613  0.051690  0.049962  1
  O  O12  1  0.303657  0.926027  0.517577  1
  O  O13  1  0.697488  0.076582  0.484874  1
  O  O14  1  0.530643  0.350058  0.347404  1
  O  O15  1  0.460434  0.648490  0.660235  1
  O  O16  1  0.935641  0.666728  0.953071  1
  O  O17  1  0.080130  0.329059  0.039535  1
  O  O18  1  0.090955  0.334741  0.625127  1
  O  O19  1  0.910493  0.677580  0.373093  1
  O  O20  1  0.869650  0.932291  0.732956  1
  O  O21  1  0.132377  0.071670  0.267254  1
