# generated using pymatgen
data_Sc4MnBe3Os4
_symmetry_space_group_name_H-M   'P 1'
_cell_length_a   4.98362852
_cell_length_b   4.92363681
_cell_length_c   8.45394900
_cell_angle_alpha   90.00000000
_cell_angle_beta   90.00000000
_cell_angle_gamma   120.23205551
_symmetry_Int_Tables_number   1
_chemical_formula_structural   Sc4MnBe3Os4
_chemical_formula_sum   'Sc4 Mn1 Be3 Os4'
_cell_volume   179.22625938
_cell_formula_units_Z   1
loop_
 _symmetry_equiv_pos_site_id
 _symmetry_equiv_pos_as_xyz
  1  'x, y, z'
loop_
 _atom_site_type_symbol
 _atom_site_label
 _atom_site_symmetry_multiplicity
 _atom_site_fract_x
 _atom_site_fract_y
 _atom_site_fract_z
 _atom_site_occupancy
  Sc  Sc0  1  0.321784  0.662005  0.435556  1
  Sc  Sc1  1  0.653483  0.326965  0.561583  1
  Sc  Sc2  1  0.653483  0.326965  0.938417  1
  Sc  Sc3  1  0.321784  0.662005  0.064444  1
  Mn  Mn4  1  0.838140  0.667143  0.250000  1
  Be  Be5  1  0.191427  0.340987  0.750000  1
  Be  Be6  1  0.192973  0.847361  0.750000  1
  Be  Be7  1  0.338027  0.168690  0.250000  1
  Os  Os8  1  0.673015  0.836762  0.750000  1
  Os  Os9  1  0.993100  0.989641  0.997659  1
  Os  Os10  1  0.829684  0.181833  0.250000  1
  Os  Os11  1  0.993100  0.989641  0.502341  1
