# generated using pymatgen
data_Yb2Er2IrRu7
_symmetry_space_group_name_H-M   'P 1'
_cell_length_a   5.21848600
_cell_length_b   5.21934416
_cell_length_c   8.96082901
_cell_angle_alpha   89.99761176
_cell_angle_beta   90.00257777
_cell_angle_gamma   119.99181273
_symmetry_Int_Tables_number   1
_chemical_formula_structural   Yb2Er2IrRu7
_chemical_formula_sum   'Yb2 Er2 Ir1 Ru7'
_cell_volume   211.38545572
_cell_formula_units_Z   1
loop_
 _symmetry_equiv_pos_site_id
 _symmetry_equiv_pos_as_xyz
  1  'x, y, z'
loop_
 _atom_site_type_symbol
 _atom_site_label
 _atom_site_symmetry_multiplicity
 _atom_site_fract_x
 _atom_site_fract_y
 _atom_site_fract_z
 _atom_site_occupancy
  Yb  Yb0  1  0.333351  0.666660  0.059899  1
  Yb  Yb1  1  0.666649  0.333340  0.940101  1
  Er  Er2  1  0.666658  0.333348  0.573032  1
  Er  Er3  1  0.333342  0.666652  0.426968  1
  Ir  Ir4  1  0.000000  0.000000  0.000000  1
  Ru  Ru5  1  0.000000  0.000000  0.500000  1
  Ru  Ru6  1  0.170807  0.341649  0.748127  1
  Ru  Ru7  1  0.170846  0.829161  0.748149  1
  Ru  Ru8  1  0.658346  0.829203  0.748140  1
  Ru  Ru9  1  0.829193  0.658351  0.251873  1
  Ru  Ru10  1  0.829154  0.170839  0.251851  1
  Ru  Ru11  1  0.341654  0.170797  0.251860  1
