# generated using pymatgen
data_Ba6ErTm(NiO6)2
_symmetry_space_group_name_H-M   'P 1'
_cell_length_a   7.11767395
_cell_length_b   7.11767349
_cell_length_c   7.11767455
_cell_angle_alpha   93.71279347
_cell_angle_beta   93.71279764
_cell_angle_gamma   93.71279070
_symmetry_Int_Tables_number   1
_chemical_formula_structural   Ba6ErTm(NiO6)2
_chemical_formula_sum   'Ba6 Er1 Tm1 Ni2 O12'
_cell_volume   358.21671450
_cell_formula_units_Z   1
loop_
 _symmetry_equiv_pos_site_id
 _symmetry_equiv_pos_as_xyz
  1  'x, y, z'
loop_
 _atom_site_type_symbol
 _atom_site_label
 _atom_site_symmetry_multiplicity
 _atom_site_fract_x
 _atom_site_fract_y
 _atom_site_fract_z
 _atom_site_occupancy
  Ba  Ba0  1  0.380512  0.119487  0.750000  1
  Ba  Ba1  1  0.750000  0.380513  0.119488  1
  Ba  Ba2  1  0.249999  0.619619  0.880382  1
  Ba  Ba3  1  0.619618  0.880381  0.250001  1
  Ba  Ba4  1  0.119488  0.750000  0.380513  1
  Ba  Ba5  1  0.880381  0.250000  0.619619  1
  Er  Er6  1  0.250001  0.250000  0.250000  1
  Tm  Tm7  1  0.750000  0.750001  0.750000  1
  Ni  Ni8  1  0.500717  0.500717  0.500717  1
  Ni  Ni9  1  0.999283  0.999283  0.999283  1
  O  O10  1  0.782940  0.594502  0.468539  1
  O  O11  1  0.594503  0.468538  0.782940  1
  O  O12  1  0.468538  0.782940  0.594503  1
  O  O13  1  0.031461  0.905498  0.717061  1
  O  O14  1  0.905497  0.717060  0.031461  1
  O  O15  1  0.717061  0.031461  0.905497  1
  O  O16  1  0.217302  0.406321  0.532654  1
  O  O17  1  0.406321  0.532653  0.217302  1
  O  O18  1  0.532653  0.217302  0.406320  1
  O  O19  1  0.967347  0.093679  0.282699  1
  O  O20  1  0.282699  0.967346  0.093678  1
  O  O21  1  0.093678  0.282698  0.967346  1
