# generated using pymatgen
data_CeEr7AlPd24
_symmetry_space_group_name_H-M   'P 1'
_cell_length_a   8.31791586
_cell_length_b   8.31791586
_cell_length_c   8.31791586
_cell_angle_alpha   89.96325225
_cell_angle_beta   90.03674775
_cell_angle_gamma   90.03674775
_symmetry_Int_Tables_number   1
_chemical_formula_structural   CeEr7AlPd24
_chemical_formula_sum   'Ce1 Er7 Al1 Pd24'
_cell_volume   575.49731293
_cell_formula_units_Z   1
loop_
 _symmetry_equiv_pos_site_id
 _symmetry_equiv_pos_as_xyz
  1  'x, y, z'
loop_
 _atom_site_type_symbol
 _atom_site_label
 _atom_site_symmetry_multiplicity
 _atom_site_fract_x
 _atom_site_fract_y
 _atom_site_fract_z
 _atom_site_occupancy
  Ce  Ce0  1  0.746025  0.253975  0.253975  1
  Er  Er1  1  0.251467  0.251743  0.251743  1
  Er  Er2  1  0.748111  0.748002  0.748002  1
  Er  Er3  1  0.748257  0.748533  0.251743  1
  Er  Er4  1  0.748257  0.251743  0.748533  1
  Er  Er5  1  0.251998  0.251889  0.748002  1
  Er  Er6  1  0.251998  0.748002  0.251889  1
  Er  Er7  1  0.251975  0.748025  0.748025  1
  Al  Al8  1  0.000410  0.999590  0.999590  1
  Pd  Pd9  1  0.259984  0.500010  0.999787  1
  Pd  Pd10  1  0.740077  0.499765  0.000308  1
  Pd  Pd11  1  0.999692  0.259923  0.499765  1
  Pd  Pd12  1  0.500235  0.259923  0.000308  1
  Pd  Pd13  1  0.000213  0.740016  0.500010  1
  Pd  Pd14  1  0.499990  0.740016  0.999787  1
  Pd  Pd15  1  0.500235  0.000308  0.259923  1
  Pd  Pd16  1  0.259984  0.999787  0.500010  1
  Pd  Pd17  1  0.499990  0.999787  0.740016  1
  Pd  Pd18  1  0.740077  0.000308  0.499765  1
  Pd  Pd19  1  0.999692  0.499765  0.259923  1
  Pd  Pd20  1  0.000213  0.500010  0.740016  1
  Pd  Pd21  1  0.253141  0.500058  0.500058  1
  Pd  Pd22  1  0.746782  0.499886  0.499886  1
  Pd  Pd23  1  0.500114  0.253218  0.499886  1
  Pd  Pd24  1  0.499942  0.746859  0.500058  1
  Pd  Pd25  1  0.500114  0.499886  0.253218  1
  Pd  Pd26  1  0.499942  0.500058  0.746859  1
  Pd  Pd27  1  0.289170  0.999866  0.999866  1
  Pd  Pd28  1  0.710690  0.999521  0.999521  1
  Pd  Pd29  1  0.000479  0.289310  0.999521  1
  Pd  Pd30  1  0.000134  0.710830  0.999866  1
  Pd  Pd31  1  0.000479  0.999521  0.289310  1
  Pd  Pd32  1  0.000134  0.999866  0.710830  1
