# generated using pymatgen
data_Pr2NdGa4Cl
_symmetry_space_group_name_H-M   'P 1'
_cell_length_a   8.03336067
_cell_length_b   8.03336064
_cell_length_c   8.03336015
_cell_angle_alpha   119.41084152
_cell_angle_beta   119.41083625
_cell_angle_gamma   91.02352342
_symmetry_Int_Tables_number   1
_chemical_formula_structural   Pr2NdGa4Cl
_chemical_formula_sum   'Pr4 Nd2 Ga8 Cl2'
_cell_volume   369.78739830
_cell_formula_units_Z   2
loop_
 _symmetry_equiv_pos_site_id
 _symmetry_equiv_pos_as_xyz
  1  'x, y, z'
loop_
 _atom_site_type_symbol
 _atom_site_label
 _atom_site_symmetry_multiplicity
 _atom_site_fract_x
 _atom_site_fract_y
 _atom_site_fract_z
 _atom_site_occupancy
  Pr  Pr0  1  0.839390  0.660610  0.500000  1
  Pr  Pr1  1  0.660610  0.160610  0.821220  1
  Pr  Pr2  1  0.339390  0.839390  0.178780  1
  Pr  Pr3  1  0.160610  0.339390  0.500000  1
  Nd  Nd4  1  0.250000  0.250000  0.000000  1
  Nd  Nd5  1  0.750000  0.750000  0.000000  1
  Ga  Ga6  1  0.159629  0.947117  0.500000  1
  Ga  Ga7  1  0.447117  0.659629  0.500000  1
  Ga  Ga8  1  0.552883  0.340371  0.500000  1
  Ga  Ga9  1  0.659629  0.159629  0.212512  1
  Ga  Ga10  1  0.840371  0.052883  0.500000  1
  Ga  Ga11  1  0.052883  0.552883  0.212512  1
  Ga  Ga12  1  0.340371  0.840371  0.787488  1
  Ga  Ga13  1  0.947117  0.447117  0.787488  1
  Cl  Cl14  1  0.000000  0.000000  0.000000  1
  Cl  Cl15  1  0.500000  0.500000  0.000000  1
