# generated using pymatgen
data_DyLu4In4IrPt
_symmetry_space_group_name_H-M   'P 1'
_cell_length_a   3.56707000
_cell_length_b   8.04361881
_cell_length_c   18.03087297
_cell_angle_alpha   89.92674053
_cell_angle_beta   90.00000000
_cell_angle_gamma   90.00000000
_symmetry_Int_Tables_number   1
_chemical_formula_structural   DyLu4In4IrPt
_chemical_formula_sum   'Dy2 Lu8 In8 Ir2 Pt2'
_cell_volume   517.34411342
_cell_formula_units_Z   2
loop_
 _symmetry_equiv_pos_site_id
 _symmetry_equiv_pos_as_xyz
  1  'x, y, z'
loop_
 _atom_site_type_symbol
 _atom_site_label
 _atom_site_symmetry_multiplicity
 _atom_site_fract_x
 _atom_site_fract_y
 _atom_site_fract_z
 _atom_site_occupancy
  Dy  Dy0  1  0.000000  0.000000  0.000000  1
  Dy  Dy1  1  0.000000  0.500000  0.500000  1
  Lu  Lu2  1  0.000000  0.115597  0.412266  1
  Lu  Lu3  1  0.000000  0.884403  0.587734  1
  Lu  Lu4  1  0.000000  0.383072  0.913149  1
  Lu  Lu5  1  0.000000  0.616928  0.086851  1
  Lu  Lu6  1  0.000000  0.238206  0.221860  1
  Lu  Lu7  1  0.000000  0.761794  0.778140  1
  Lu  Lu8  1  0.000000  0.249710  0.720544  1
  Lu  Lu9  1  0.000000  0.750290  0.279456  1
  In  In10  1  0.500000  0.423504  0.351268  1
  In  In11  1  0.500000  0.576496  0.648732  1
  In  In12  1  0.500000  0.073485  0.850832  1
  In  In13  1  0.500000  0.926515  0.149168  1
  In  In14  1  0.500000  0.293966  0.066776  1
  In  In15  1  0.500000  0.706034  0.933224  1
  In  In16  1  0.500000  0.205217  0.567494  1
  In  In17  1  0.500000  0.794783  0.432506  1
  Ir  Ir18  1  0.500000  0.022806  0.303671  1
  Ir  Ir19  1  0.500000  0.977194  0.696329  1
  Pt  Pt20  1  0.500000  0.476624  0.803513  1
  Pt  Pt21  1  0.500000  0.523376  0.196487  1
