# generated using pymatgen
data_Ce2NiIr5
_symmetry_space_group_name_H-M   'P 1'
_cell_length_a   5.33076600
_cell_length_b   5.33073596
_cell_length_c   17.14496400
_cell_angle_alpha   90.00000000
_cell_angle_beta   90.00000000
_cell_angle_gamma   120.00117724
_symmetry_Int_Tables_number   1
_chemical_formula_structural   Ce2NiIr5
_chemical_formula_sum   'Ce6 Ni3 Ir15'
_cell_volume   421.92848708
_cell_formula_units_Z   3
loop_
 _symmetry_equiv_pos_site_id
 _symmetry_equiv_pos_as_xyz
  1  'x, y, z'
loop_
 _atom_site_type_symbol
 _atom_site_label
 _atom_site_symmetry_multiplicity
 _atom_site_fract_x
 _atom_site_fract_y
 _atom_site_fract_z
 _atom_site_occupancy
  Ce  Ce0  1  0.333379  0.666671  0.959754  1
  Ce  Ce1  1  0.666680  0.333248  0.043833  1
  Ce  Ce2  1  0.666680  0.333248  0.456167  1
  Ce  Ce3  1  0.333379  0.666671  0.540246  1
  Ce  Ce4  1  0.333377  0.666765  0.750000  1
  Ce  Ce5  1  0.666447  0.333278  0.250000  1
  Ni  Ni6  1  0.333127  0.665992  0.250000  1
  Ni  Ni7  1  0.666316  0.333589  0.750000  1
  Ni  Ni8  1  0.999979  0.000570  0.250000  1
  Ir  Ir9  1  0.168258  0.831767  0.368681  1
  Ir  Ir10  1  0.168273  0.336442  0.368765  1
  Ir  Ir11  1  0.663556  0.831761  0.368731  1
  Ir  Ir12  1  0.830554  0.169528  0.626696  1
  Ir  Ir13  1  0.830557  0.661026  0.626676  1
  Ir  Ir14  1  0.339016  0.169466  0.626653  1
  Ir  Ir15  1  0.830554  0.169528  0.873304  1
  Ir  Ir16  1  0.830557  0.661026  0.873324  1
  Ir  Ir17  1  0.339016  0.169466  0.873347  1
  Ir  Ir18  1  0.168258  0.831767  0.131319  1
  Ir  Ir19  1  0.168273  0.336442  0.131235  1
  Ir  Ir20  1  0.663556  0.831761  0.131269  1
  Ir  Ir21  1  0.000123  0.000041  0.750000  1
  Ir  Ir22  1  0.000044  0.999972  0.497767  1
  Ir  Ir23  1  0.000044  0.999972  0.002233  1
