# generated using pymatgen
data_Tm6Sc14Si7Sb9
_symmetry_space_group_name_H-M   'P 1'
_cell_length_a   7.46821066
_cell_length_b   7.49220717
_cell_length_c   14.43187076
_cell_angle_alpha   90.13544762
_cell_angle_beta   90.49678547
_cell_angle_gamma   88.92500987
_symmetry_Int_Tables_number   1
_chemical_formula_structural   Tm6Sc14Si7Sb9
_chemical_formula_sum   'Tm6 Sc14 Si7 Sb9'
_cell_volume   807.33754030
_cell_formula_units_Z   1
loop_
 _symmetry_equiv_pos_site_id
 _symmetry_equiv_pos_as_xyz
  1  'x, y, z'
loop_
 _atom_site_type_symbol
 _atom_site_label
 _atom_site_symmetry_multiplicity
 _atom_site_fract_x
 _atom_site_fract_y
 _atom_site_fract_z
 _atom_site_occupancy
  Tm  Tm0  1  0.040813  0.691426  0.610680  1
  Tm  Tm1  1  0.960478  0.318571  0.386362  1
  Tm  Tm2  1  0.459337  0.176618  0.386641  1
  Tm  Tm3  1  0.957788  0.318842  0.112193  1
  Tm  Tm4  1  0.537978  0.822501  0.609126  1
  Tm  Tm5  1  0.043887  0.691107  0.890534  1
  Sc  Sc6  1  0.212770  0.993159  0.751460  1
  Sc  Sc7  1  0.787531  0.998834  0.248456  1
  Sc  Sc8  1  0.287944  0.495422  0.248945  1
  Sc  Sc9  1  0.702923  0.508660  0.751050  1
  Sc  Sc10  1  0.544519  0.825662  0.886247  1
  Sc  Sc11  1  0.452126  0.172913  0.118361  1
  Sc  Sc12  1  0.394451  0.337994  0.630951  1
  Sc  Sc13  1  0.617134  0.660648  0.365504  1
  Sc  Sc14  1  0.121215  0.836289  0.366506  1
  Sc  Sc15  1  0.615669  0.661316  0.132108  1
  Sc  Sc16  1  0.865695  0.151563  0.628303  1
  Sc  Sc17  1  0.395621  0.337145  0.871444  1
  Sc  Sc18  1  0.868791  0.152407  0.873327  1
  Sc  Sc19  1  0.118004  0.835434  0.131643  1
  Si  Si20  1  0.917230  0.621217  0.249242  1
  Si  Si21  1  0.416154  0.878903  0.248797  1
  Si  Si22  1  0.581472  0.118319  0.751129  1
  Si  Si23  1  0.357206  0.647746  0.752593  1
  Si  Si24  1  0.655059  0.361661  0.247754  1
  Si  Si25  1  0.160179  0.130344  0.249011  1
  Si  Si26  1  0.838274  0.868263  0.750841  1
  Sb  Sb27  1  0.079202  0.374856  0.750680  1
  Sb  Sb28  1  0.214781  0.042195  0.541075  1
  Sb  Sb29  1  0.782546  0.960725  0.455659  1
  Sb  Sb30  1  0.282790  0.533875  0.458780  1
  Sb  Sb31  1  0.770767  0.966735  0.042476  1
  Sb  Sb32  1  0.725363  0.468956  0.541249  1
  Sb  Sb33  1  0.225810  0.036558  0.960978  1
  Sb  Sb34  1  0.725791  0.476888  0.956972  1
  Sb  Sb35  1  0.282701  0.526250  0.042924  1
