# generated using pymatgen
data_Dy16Tl2InHgRh4
_symmetry_space_group_name_H-M   'P 1'
_cell_length_a   9.65717076
_cell_length_b   9.65717134
_cell_length_c   9.65036009
_cell_angle_alpha   60.06781761
_cell_angle_beta   60.06782314
_cell_angle_gamma   60.03162630
_symmetry_Int_Tables_number   1
_chemical_formula_structural   Dy16Tl2InHgRh4
_chemical_formula_sum   'Dy16 Tl2 In1 Hg1 Rh4'
_cell_volume   637.20138925
_cell_formula_units_Z   1
loop_
 _symmetry_equiv_pos_site_id
 _symmetry_equiv_pos_as_xyz
  1  'x, y, z'
loop_
 _atom_site_type_symbol
 _atom_site_label
 _atom_site_symmetry_multiplicity
 _atom_site_fract_x
 _atom_site_fract_y
 _atom_site_fract_z
 _atom_site_occupancy
  Dy  Dy0  1  0.689193  0.311788  0.311551  1
  Dy  Dy1  1  0.688691  0.688691  0.313086  1
  Dy  Dy2  1  0.311788  0.689193  0.311551  1
  Dy  Dy3  1  0.936334  0.936334  0.559921  1
  Dy  Dy4  1  0.148498  0.148498  0.549747  1
  Dy  Dy5  1  0.564141  0.938740  0.557583  1
  Dy  Dy6  1  0.151889  0.151889  0.151165  1
  Dy  Dy7  1  0.311200  0.311200  0.689681  1
  Dy  Dy8  1  0.938740  0.564141  0.557583  1
  Dy  Dy9  1  0.561275  0.561275  0.937661  1
  Dy  Dy10  1  0.563983  0.937352  0.934909  1
  Dy  Dy11  1  0.937352  0.563983  0.934909  1
  Dy  Dy12  1  0.147850  0.550687  0.148438  1
  Dy  Dy13  1  0.312112  0.689409  0.689355  1
  Dy  Dy14  1  0.689409  0.312112  0.689355  1
  Dy  Dy15  1  0.550687  0.147850  0.148438  1
  Tl  Tl16  1  0.253331  0.914557  0.917878  1
  Tl  Tl17  1  0.914557  0.253331  0.917878  1
  In  In18  1  0.916520  0.916520  0.918994  1
  Hg  Hg19  1  0.912835  0.912835  0.261042  1
  Rh  Rh20  1  0.356916  0.356916  0.356829  1
  Rh  Rh21  1  0.927074  0.357719  0.357831  1
  Rh  Rh22  1  0.357909  0.357909  0.926785  1
  Rh  Rh23  1  0.357719  0.927074  0.357831  1
