# generated using pymatgen
data_HfSc7(Si2Pt7)2
_symmetry_space_group_name_H-M   'P 1'
_cell_length_a   4.00476100
_cell_length_b   6.54553691
_cell_length_c   16.45329232
_cell_angle_alpha   89.81106051
_cell_angle_beta   90.00000000
_cell_angle_gamma   90.00000000
_symmetry_Int_Tables_number   1
_chemical_formula_structural   HfSc7(Si2Pt7)2
_chemical_formula_sum   'Hf1 Sc7 Si4 Pt14'
_cell_volume   431.29292291
_cell_formula_units_Z   1
loop_
 _symmetry_equiv_pos_site_id
 _symmetry_equiv_pos_as_xyz
  1  'x, y, z'
loop_
 _atom_site_type_symbol
 _atom_site_label
 _atom_site_symmetry_multiplicity
 _atom_site_fract_x
 _atom_site_fract_y
 _atom_site_fract_z
 _atom_site_occupancy
  Hf  Hf0  1  0.000000  0.285764  0.460745  1
  Sc  Sc1  1  0.000000  0.716074  0.540225  1
  Sc  Sc2  1  0.000000  0.785509  0.039005  1
  Sc  Sc3  1  0.000000  0.214518  0.960877  1
  Sc  Sc4  1  0.000000  0.526919  0.288483  1
  Sc  Sc5  1  0.000000  0.474013  0.710692  1
  Sc  Sc6  1  0.000000  0.025111  0.208564  1
  Sc  Sc7  1  0.000000  0.974518  0.791528  1
  Si  Si8  1  0.500000  0.837967  0.307377  1
  Si  Si9  1  0.500000  0.160627  0.693149  1
  Si  Si10  1  0.500000  0.337326  0.192719  1
  Si  Si11  1  0.500000  0.661611  0.807335  1
  Pt  Pt12  1  0.000000  0.910475  0.382408  1
  Pt  Pt13  1  0.000000  0.093280  0.616959  1
  Pt  Pt14  1  0.000000  0.408371  0.117662  1
  Pt  Pt15  1  0.000000  0.591566  0.882217  1
  Pt  Pt16  1  0.500000  0.591196  0.420984  1
  Pt  Pt17  1  0.500000  0.404687  0.578426  1
  Pt  Pt18  1  0.500000  0.094481  0.078828  1
  Pt  Pt19  1  0.500000  0.905260  0.921047  1
  Pt  Pt20  1  0.500000  0.499976  0.999974  1
  Pt  Pt21  1  0.500000  0.000480  0.499630  1
  Pt  Pt22  1  0.500000  0.215359  0.332734  1
  Pt  Pt23  1  0.500000  0.784887  0.668309  1
  Pt  Pt24  1  0.500000  0.714859  0.168497  1
  Pt  Pt25  1  0.500000  0.285167  0.831625  1
