# generated using pymatgen
data_Sc8Mn9Si16Tc3
_symmetry_space_group_name_H-M   'P 1'
_cell_length_a   6.49339844
_cell_length_b   6.49339791
_cell_length_c   12.05742366
_cell_angle_alpha   90.01204738
_cell_angle_beta   90.01204384
_cell_angle_gamma   89.82001411
_symmetry_Int_Tables_number   1
_chemical_formula_structural   Sc8Mn9Si16Tc3
_chemical_formula_sum   'Sc8 Mn9 Si16 Tc3'
_cell_volume   508.38933081
_cell_formula_units_Z   1
loop_
 _symmetry_equiv_pos_site_id
 _symmetry_equiv_pos_as_xyz
  1  'x, y, z'
loop_
 _atom_site_type_symbol
 _atom_site_label
 _atom_site_symmetry_multiplicity
 _atom_site_fract_x
 _atom_site_fract_y
 _atom_site_fract_z
 _atom_site_occupancy
  Sc  Sc0  1  0.004109  0.660042  0.028090  1
  Sc  Sc1  1  0.995661  0.339558  0.529857  1
  Sc  Sc2  1  0.339958  0.995891  0.471910  1
  Sc  Sc3  1  0.160386  0.495532  0.779771  1
  Sc  Sc4  1  0.839348  0.504275  0.279476  1
  Sc  Sc5  1  0.495725  0.160652  0.220524  1
  Sc  Sc6  1  0.504468  0.839614  0.720229  1
  Sc  Sc7  1  0.660442  0.004339  0.970143  1
  Mn  Mn8  1  0.019648  0.818142  0.631592  1
  Mn  Mn9  1  0.979245  0.183875  0.130221  1
  Mn  Mn10  1  0.816125  0.020755  0.369779  1
  Mn  Mn11  1  0.315733  0.478329  0.381364  1
  Mn  Mn12  1  0.685621  0.520984  0.880760  1
  Mn  Mn13  1  0.479016  0.314379  0.619240  1
  Mn  Mn14  1  0.521671  0.684267  0.118636  1
  Mn  Mn15  1  0.181858  0.980352  0.868408  1
  Mn  Mn16  1  0.834834  0.165166  0.750000  1
  Si  Si17  1  0.025755  0.725434  0.437891  1
  Si  Si18  1  0.614522  0.301797  0.433251  1
  Si  Si19  1  0.385733  0.698069  0.932425  1
  Si  Si20  1  0.192082  0.115903  0.684670  1
  Si  Si21  1  0.301931  0.614267  0.567575  1
  Si  Si22  1  0.698203  0.385478  0.066749  1
  Si  Si23  1  0.802250  0.885715  0.182623  1
  Si  Si24  1  0.114285  0.197750  0.317377  1
  Si  Si25  1  0.971928  0.272586  0.934507  1
  Si  Si26  1  0.727414  0.028072  0.565493  1
  Si  Si27  1  0.225659  0.474352  0.187280  1
  Si  Si28  1  0.773909  0.517395  0.689667  1
  Si  Si29  1  0.482605  0.226091  0.810333  1
  Si  Si30  1  0.525648  0.774341  0.312720  1
  Si  Si31  1  0.274566  0.974245  0.062109  1
  Si  Si32  1  0.884097  0.807918  0.815330  1
  Tc  Tc33  1  0.665319  0.665154  0.501030  1
  Tc  Tc34  1  0.165398  0.834602  0.250000  1
  Tc  Tc35  1  0.334846  0.334681  0.998970  1
