# generated using pymatgen
data_Ho5Mn15Co(MoP4)3
_symmetry_space_group_name_H-M   'P 1'
_cell_length_a   12.53075200
_cell_length_b   12.53075288
_cell_length_c   3.63461900
_cell_angle_alpha   90.00000000
_cell_angle_beta   90.00000000
_cell_angle_gamma   120.00000296
_symmetry_Int_Tables_number   1
_chemical_formula_structural   Ho5Mn15Co(MoP4)3
_chemical_formula_sum   'Ho5 Mn15 Co1 Mo3 P12'
_cell_volume   494.24673774
_cell_formula_units_Z   1
loop_
 _symmetry_equiv_pos_site_id
 _symmetry_equiv_pos_as_xyz
  1  'x, y, z'
loop_
 _atom_site_type_symbol
 _atom_site_label
 _atom_site_symmetry_multiplicity
 _atom_site_fract_x
 _atom_site_fract_y
 _atom_site_fract_z
 _atom_site_occupancy
  Ho  Ho0  1  0.666667  0.333333  0.000000  1
  Ho  Ho1  1  0.333333  0.666667  0.000000  1
  Ho  Ho2  1  0.823547  0.823547  0.500000  1
  Ho  Ho3  1  0.176453  0.000000  0.500000  1
  Ho  Ho4  1  0.000000  0.176453  0.500000  1
  Mn  Mn5  1  0.874229  0.344986  0.500000  1
  Mn  Mn6  1  0.655014  0.529243  0.500000  1
  Mn  Mn7  1  0.470757  0.125771  0.500000  1
  Mn  Mn8  1  0.344986  0.874229  0.500000  1
  Mn  Mn9  1  0.529243  0.655014  0.500000  1
  Mn  Mn10  1  0.125771  0.470757  0.500000  1
  Mn  Mn11  1  0.798188  0.173503  0.000000  1
  Mn  Mn12  1  0.826497  0.624684  0.000000  1
  Mn  Mn13  1  0.375316  0.201812  0.000000  1
  Mn  Mn14  1  0.173503  0.798188  0.000000  1
  Mn  Mn15  1  0.624684  0.826497  0.000000  1
  Mn  Mn16  1  0.201812  0.375316  0.000000  1
  Mn  Mn17  1  0.285066  0.285066  0.500000  1
  Mn  Mn18  1  0.714934  0.000000  0.500000  1
  Mn  Mn19  1  0.000000  0.714934  0.500000  1
  Co  Co20  1  0.000000  0.000000  0.000000  1
  Mo  Mo21  1  0.456369  0.456369  0.000000  1
  Mo  Mo22  1  0.543631  0.000000  0.000000  1
  Mo  Mo23  1  0.000000  0.543631  0.000000  1
  P  P24  1  0.675703  0.162693  0.500000  1
  P  P25  1  0.837307  0.513011  0.500000  1
  P  P26  1  0.486989  0.324297  0.500000  1
  P  P27  1  0.162693  0.675703  0.500000  1
  P  P28  1  0.513011  0.837307  0.500000  1
  P  P29  1  0.324297  0.486989  0.500000  1
  P  P30  1  0.174576  0.174576  0.000000  1
  P  P31  1  0.825424  0.000000  0.000000  1
  P  P32  1  0.000000  0.825424  0.000000  1
  P  P33  1  0.651890  0.651890  0.000000  1
  P  P34  1  0.348110  0.000000  0.000000  1
  P  P35  1  0.000000  0.348110  0.000000  1
