# generated using pymatgen
data_Ho3Er5CdHgIr2
_symmetry_space_group_name_H-M   'P 1'
_cell_length_a   9.55706248
_cell_length_b   9.55706258
_cell_length_c   9.56468200
_cell_angle_alpha   59.97362350
_cell_angle_beta   59.97362316
_cell_angle_gamma   59.97449556
_symmetry_Int_Tables_number   1
_chemical_formula_structural   Ho3Er5CdHgIr2
_chemical_formula_sum   'Ho6 Er10 Cd2 Hg2 Ir4'
_cell_volume   617.37269611
_cell_formula_units_Z   2
loop_
 _symmetry_equiv_pos_site_id
 _symmetry_equiv_pos_as_xyz
  1  'x, y, z'
loop_
 _atom_site_type_symbol
 _atom_site_label
 _atom_site_symmetry_multiplicity
 _atom_site_fract_x
 _atom_site_fract_y
 _atom_site_fract_z
 _atom_site_occupancy
  Ho  Ho0  1  0.187923  0.811188  0.811972  1
  Ho  Ho1  1  0.811188  0.187923  0.188917  1
  Ho  Ho2  1  0.811188  0.187923  0.811972  1
  Ho  Ho3  1  0.187923  0.811188  0.188917  1
  Ho  Ho4  1  0.811526  0.811526  0.188474  1
  Ho  Ho5  1  0.188346  0.188346  0.811654  1
  Er  Er6  1  0.599872  0.599872  0.598297  1
  Er  Er7  1  0.599872  0.599872  0.201960  1
  Er  Er8  1  0.601299  0.199273  0.599714  1
  Er  Er9  1  0.199273  0.601299  0.599714  1
  Er  Er10  1  0.059996  0.438551  0.440631  1
  Er  Er11  1  0.438551  0.059996  0.060821  1
  Er  Er12  1  0.438551  0.059996  0.440631  1
  Er  Er13  1  0.059996  0.438551  0.060821  1
  Er  Er14  1  0.439144  0.439144  0.060856  1
  Er  Er15  1  0.059834  0.059834  0.440166  1
  Cd  Cd16  1  0.830560  0.506922  0.831259  1
  Cd  Cd17  1  0.506922  0.830560  0.831259  1
  Hg  Hg18  1  0.833596  0.833596  0.835404  1
  Hg  Hg19  1  0.833596  0.833596  0.497402  1
  Ir  Ir20  1  0.392237  0.392237  0.391772  1
  Ir  Ir21  1  0.392237  0.392237  0.823756  1
  Ir  Ir22  1  0.392244  0.824126  0.391815  1
  Ir  Ir23  1  0.824126  0.392244  0.391815  1
