# generated using pymatgen
data_Er3Lu(CuP)6
_symmetry_space_group_name_H-M   'P 1'
_cell_length_a   3.81846400
_cell_length_b   10.59992700
_cell_length_c   12.86625000
_cell_angle_alpha   90.00000000
_cell_angle_beta   90.00000000
_cell_angle_gamma   90.00000000
_symmetry_Int_Tables_number   1
_chemical_formula_structural   Er3Lu(CuP)6
_chemical_formula_sum   'Er6 Lu2 Cu12 P12'
_cell_volume   520.76712542
_cell_formula_units_Z   2
loop_
 _symmetry_equiv_pos_site_id
 _symmetry_equiv_pos_as_xyz
  1  'x, y, z'
loop_
 _atom_site_type_symbol
 _atom_site_label
 _atom_site_symmetry_multiplicity
 _atom_site_fract_x
 _atom_site_fract_y
 _atom_site_fract_z
 _atom_site_occupancy
  Er  Er0  1  0.250000  0.929389  0.793444  1
  Er  Er1  1  0.750000  0.429389  0.706556  1
  Er  Er2  1  0.250000  0.570828  0.292413  1
  Er  Er3  1  0.750000  0.070828  0.207587  1
  Er  Er4  1  0.250000  0.841506  0.503403  1
  Er  Er5  1  0.750000  0.341506  0.996597  1
  Lu  Lu6  1  0.250000  0.658324  0.003168  1
  Lu  Lu7  1  0.750000  0.158324  0.496832  1
  Cu  Cu8  1  0.250000  0.402195  0.514606  1
  Cu  Cu9  1  0.750000  0.902195  0.985394  1
  Cu  Cu10  1  0.250000  0.097192  0.014728  1
  Cu  Cu11  1  0.750000  0.597192  0.485272  1
  Cu  Cu12  1  0.250000  0.273339  0.332888  1
  Cu  Cu13  1  0.750000  0.773339  0.167112  1
  Cu  Cu14  1  0.250000  0.226938  0.831945  1
  Cu  Cu15  1  0.750000  0.726938  0.668055  1
  Cu  Cu16  1  0.250000  0.861871  0.279845  1
  Cu  Cu17  1  0.750000  0.361871  0.220155  1
  Cu  Cu18  1  0.250000  0.639218  0.780407  1
  Cu  Cu19  1  0.750000  0.139218  0.719593  1
  P  P20  1  0.250000  0.239785  0.641317  1
  P  P21  1  0.750000  0.739785  0.858683  1
  P  P22  1  0.250000  0.259293  0.142794  1
  P  P23  1  0.750000  0.759293  0.357206  1
  P  P24  1  0.250000  0.604390  0.600736  1
  P  P25  1  0.750000  0.104390  0.899264  1
  P  P26  1  0.250000  0.894679  0.100147  1
  P  P27  1  0.750000  0.394679  0.399853  1
  P  P28  1  0.250000  0.057779  0.370523  1
  P  P29  1  0.750000  0.557779  0.129477  1
  P  P30  1  0.250000  0.443274  0.868873  1
  P  P31  1  0.750000  0.943274  0.631127  1
