# generated using pymatgen
data_Tb9Tm3ZnCo4Bi
_symmetry_space_group_name_H-M   'P 1'
_cell_length_a   8.35575326
_cell_length_b   8.35584922
_cell_length_c   8.36650099
_cell_angle_alpha   112.20068571
_cell_angle_beta   108.82519547
_cell_angle_gamma   107.37090224
_symmetry_Int_Tables_number   1
_chemical_formula_structural   Tb9Tm3ZnCo4Bi
_chemical_formula_sum   'Tb9 Tm3 Zn1 Co4 Bi1'
_cell_volume   449.13246308
_cell_formula_units_Z   1
loop_
 _symmetry_equiv_pos_site_id
 _symmetry_equiv_pos_as_xyz
  1  'x, y, z'
loop_
 _atom_site_type_symbol
 _atom_site_label
 _atom_site_symmetry_multiplicity
 _atom_site_fract_x
 _atom_site_fract_y
 _atom_site_fract_z
 _atom_site_occupancy
  Tb  Tb0  1  0.821716  0.283176  0.104892  1
  Tb  Tb1  1  0.677052  0.364889  0.685514  1
  Tb  Tb2  1  0.323244  0.636784  0.313840  1
  Tb  Tb3  1  0.677061  0.990601  0.313845  1
  Tb  Tb4  1  0.320625  0.008465  0.685512  1
  Tb  Tb5  1  0.568814  0.772002  0.795861  1
  Tb  Tb6  1  0.425270  0.224760  0.202346  1
  Tb  Tb7  1  0.977586  0.777080  0.202346  1
  Tb  Tb8  1  0.023860  0.227046  0.795860  1
  Tm  Tm9  1  0.822584  0.717485  0.540072  1
  Tm  Tm10  1  0.177932  0.282528  0.460461  1
  Tm  Tm11  1  0.177347  0.717669  0.895017  1
  Zn  Zn12  1  0.996959  0.997381  0.994338  1
  Co  Co13  1  0.655862  0.997607  0.653467  1
  Co  Co14  1  0.346909  0.999663  0.346570  1
  Co  Co15  1  0.116193  0.614816  0.504459  1
  Co  Co16  1  0.889630  0.388255  0.504450  1
  Bi  Bi17  1  0.501357  0.499795  0.001150  1
