# generated using pymatgen
data_Mg3Al(SiRh3)2
_symmetry_space_group_name_H-M   'P 1'
_cell_length_a   4.27443800
_cell_length_b   6.01738500
_cell_length_c   12.87996200
_cell_angle_alpha   89.99939281
_cell_angle_beta   89.99997770
_cell_angle_gamma   90.00005537
_symmetry_Int_Tables_number   1
_chemical_formula_structural   Mg3Al(SiRh3)2
_chemical_formula_sum   'Mg6 Al2 Si4 Rh12'
_cell_volume   331.28471826
_cell_formula_units_Z   2
loop_
 _symmetry_equiv_pos_site_id
 _symmetry_equiv_pos_as_xyz
  1  'x, y, z'
loop_
 _atom_site_type_symbol
 _atom_site_label
 _atom_site_symmetry_multiplicity
 _atom_site_fract_x
 _atom_site_fract_y
 _atom_site_fract_z
 _atom_site_occupancy
  Mg  Mg0  1  0.999998  0.499994  0.002042  1
  Mg  Mg1  1  0.499924  0.999988  0.164604  1
  Mg  Mg2  1  0.999920  0.499954  0.333231  1
  Mg  Mg3  1  0.499998  0.000041  0.501544  1
  Mg  Mg4  1  0.000091  0.499955  0.665134  1
  Mg  Mg5  1  0.500079  0.000049  0.833438  1
  Al  Al6  1  0.000002  0.999969  0.000368  1
  Al  Al7  1  0.499929  0.500034  0.166298  1
  Si  Si8  1  0.999930  0.999988  0.331310  1
  Si  Si9  1  0.499999  0.500010  0.499005  1
  Si  Si10  1  0.000062  0.999991  0.667665  1
  Si  Si11  1  0.500069  0.500015  0.835350  1
  Rh  Rh12  1  0.500000  0.253302  0.995763  1
  Rh  Rh13  1  0.499999  0.746740  0.995791  1
  Rh  Rh14  1  0.999926  0.246708  0.170897  1
  Rh  Rh15  1  0.999932  0.753250  0.170867  1
  Rh  Rh16  1  0.499930  0.246825  0.338218  1
  Rh  Rh17  1  0.499933  0.753169  0.338202  1
  Rh  Rh18  1  0.999996  0.249752  0.501106  1
  Rh  Rh19  1  0.000001  0.750238  0.501106  1
  Rh  Rh20  1  0.500068  0.250259  0.665567  1
  Rh  Rh21  1  0.500073  0.749753  0.665571  1
  Rh  Rh22  1  0.000068  0.253167  0.828453  1
  Rh  Rh23  1  0.000067  0.746847  0.828466  1
