# generated using pymatgen
data_K4SrNb5O15
_symmetry_space_group_name_H-M   'P 1'
_cell_length_a   9.07343614
_cell_length_b   9.07343674
_cell_length_c   7.02900902
_cell_angle_alpha   75.05426795
_cell_angle_beta   75.05426616
_cell_angle_gamma   36.91638100
_symmetry_Int_Tables_number   1
_chemical_formula_structural   K4SrNb5O15
_chemical_formula_sum   'K4 Sr1 Nb5 O15'
_cell_volume   334.48867563
_cell_formula_units_Z   1
loop_
 _symmetry_equiv_pos_site_id
 _symmetry_equiv_pos_as_xyz
  1  'x, y, z'
loop_
 _atom_site_type_symbol
 _atom_site_label
 _atom_site_symmetry_multiplicity
 _atom_site_fract_x
 _atom_site_fract_y
 _atom_site_fract_z
 _atom_site_occupancy
  K  K0  1  0.599895  0.599895  0.599043  1
  K  K1  1  0.200451  0.200451  0.200313  1
  K  K2  1  0.799549  0.799549  0.799687  1
  K  K3  1  0.400105  0.400105  0.400957  1
  Sr  Sr4  1  0.000000  0.000000  0.000000  1
  Nb  Nb5  1  0.200809  0.200809  0.697664  1
  Nb  Nb6  1  0.799191  0.799191  0.302336  1
  Nb  Nb7  1  0.398795  0.398795  0.900797  1
  Nb  Nb8  1  0.000000  0.000000  0.500000  1
  Nb  Nb9  1  0.601205  0.601205  0.099203  1
  O  O10  1  0.393203  0.901115  0.901920  1
  O  O11  1  0.000000  0.500000  0.500000  1
  O  O12  1  0.606797  0.098885  0.098080  1
  O  O13  1  0.196393  0.705552  0.705364  1
  O  O14  1  0.803607  0.294448  0.294636  1
  O  O15  1  0.300002  0.300002  0.800273  1
  O  O16  1  0.901871  0.901871  0.392959  1
  O  O17  1  0.500000  0.500000  0.000000  1
  O  O18  1  0.098129  0.098129  0.607041  1
  O  O19  1  0.699998  0.699998  0.199727  1
  O  O20  1  0.500000  0.000000  0.500000  1
  O  O21  1  0.098885  0.606797  0.098080  1
  O  O22  1  0.705552  0.196393  0.705364  1
  O  O23  1  0.294448  0.803607  0.294636  1
  O  O24  1  0.901115  0.393203  0.901920  1
