# generated using pymatgen
data_Dy3YAl18Ir5Au
_symmetry_space_group_name_H-M   'P 1'
_cell_length_a   7.58457496
_cell_length_b   7.58455668
_cell_length_c   9.47381617
_cell_angle_alpha   89.97124729
_cell_angle_beta   89.96926420
_cell_angle_gamma   119.58462273
_symmetry_Int_Tables_number   1
_chemical_formula_structural   Dy3YAl18Ir5Au
_chemical_formula_sum   'Dy3 Y1 Al18 Ir5 Au1'
_cell_volume   473.93569381
_cell_formula_units_Z   1
loop_
 _symmetry_equiv_pos_site_id
 _symmetry_equiv_pos_as_xyz
  1  'x, y, z'
loop_
 _atom_site_type_symbol
 _atom_site_label
 _atom_site_symmetry_multiplicity
 _atom_site_fract_x
 _atom_site_fract_y
 _atom_site_fract_z
 _atom_site_occupancy
  Dy  Dy0  1  0.995719  0.673149  0.251120  1
  Dy  Dy1  1  0.004286  0.326863  0.748875  1
  Dy  Dy2  1  0.673142  0.995709  0.251121  1
  Y  Y3  1  0.326846  0.004305  0.748893  1
  Al  Al4  1  0.135017  0.135012  0.256351  1
  Al  Al5  1  0.864956  0.864994  0.743646  1
  Al  Al6  1  0.001460  0.344233  0.079069  1
  Al  Al7  1  0.998510  0.655734  0.920959  1
  Al  Al8  1  0.000201  0.664675  0.573384  1
  Al  Al9  1  0.335300  0.999767  0.426562  1
  Al  Al10  1  0.999771  0.335301  0.426593  1
  Al  Al11  1  0.664732  0.000230  0.573382  1
  Al  Al12  1  0.655801  0.998541  0.920959  1
  Al  Al13  1  0.344235  0.001455  0.079101  1
  Al  Al14  1  0.333190  0.333212  0.552027  1
  Al  Al15  1  0.666811  0.666809  0.447948  1
  Al  Al16  1  0.658040  0.658039  0.058520  1
  Al  Al17  1  0.341966  0.341992  0.941509  1
  Al  Al18  1  0.339142  0.549709  0.251319  1
  Al  Al19  1  0.660907  0.450328  0.748681  1
  Al  Al20  1  0.549704  0.339142  0.251319  1
  Al  Al21  1  0.450283  0.660819  0.748681  1
  Ir  Ir22  1  0.671750  0.328277  0.000010  1
  Ir  Ir23  1  0.328267  0.671719  0.000016  1
  Ir  Ir24  1  0.328291  0.671692  0.499981  1
  Ir  Ir25  1  0.671736  0.328305  0.499983  1
  Ir  Ir26  1  0.999960  0.999992  0.499975  1
  Au  Au27  1  0.999977  0.999996  0.000014  1
