# generated using pymatgen
data_Yb3SmDy2(CoSn6)2
_symmetry_space_group_name_H-M   'P 1'
_cell_length_a   8.42611254
_cell_length_b   8.42611240
_cell_length_c   13.27703552
_cell_angle_alpha   90.14922909
_cell_angle_beta   89.85077171
_cell_angle_gamma   148.01253842
_symmetry_Int_Tables_number   1
_chemical_formula_structural   Yb3SmDy2(CoSn6)2
_chemical_formula_sum   'Yb3 Sm1 Dy2 Co2 Sn12'
_cell_volume   499.35752834
_cell_formula_units_Z   1
loop_
 _symmetry_equiv_pos_site_id
 _symmetry_equiv_pos_as_xyz
  1  'x, y, z'
loop_
 _atom_site_type_symbol
 _atom_site_label
 _atom_site_symmetry_multiplicity
 _atom_site_fract_x
 _atom_site_fract_y
 _atom_site_fract_z
 _atom_site_occupancy
  Yb  Yb0  1  0.100568  0.899432  0.597441  1
  Yb  Yb1  1  0.100901  0.899099  0.903169  1
  Yb  Yb2  1  0.899807  0.100193  0.402575  1
  Sm  Sm3  1  0.898595  0.101405  0.094457  1
  Dy  Dy4  1  0.901124  0.098876  0.754208  1
  Dy  Dy5  1  0.099255  0.900745  0.248195  1
  Co  Co6  1  0.298678  0.701322  0.249937  1
  Co  Co7  1  0.702885  0.297115  0.749888  1
  Sn  Sn8  1  0.758695  0.241305  0.572390  1
  Sn  Sn9  1  0.426016  0.573984  0.578841  1
  Sn  Sn10  1  0.573392  0.426608  0.422816  1
  Sn  Sn11  1  0.733112  0.266888  0.248822  1
  Sn  Sn12  1  0.266941  0.733059  0.750147  1
  Sn  Sn13  1  0.240553  0.759447  0.072381  1
  Sn  Sn14  1  0.242375  0.757625  0.427424  1
  Sn  Sn15  1  0.572384  0.427616  0.075674  1
  Sn  Sn16  1  0.455439  0.544561  0.250027  1
  Sn  Sn17  1  0.545643  0.454357  0.750066  1
  Sn  Sn18  1  0.756746  0.243254  0.928105  1
  Sn  Sn19  1  0.426889  0.573111  0.923438  1
