# generated using pymatgen
data_CaNd4Al2Sb
_symmetry_space_group_name_H-M   'P 1'
_cell_length_a   9.07413684
_cell_length_b   9.07413607
_cell_length_c   9.07413500
_cell_angle_alpha   126.91521818
_cell_angle_beta   126.91521456
_cell_angle_gamma   78.38904810
_symmetry_Int_Tables_number   1
_chemical_formula_structural   CaNd4Al2Sb
_chemical_formula_sum   'Ca2 Nd8 Al4 Sb2'
_cell_volume   462.51190736
_cell_formula_units_Z   2
loop_
 _symmetry_equiv_pos_site_id
 _symmetry_equiv_pos_as_xyz
  1  'x, y, z'
loop_
 _atom_site_type_symbol
 _atom_site_label
 _atom_site_symmetry_multiplicity
 _atom_site_fract_x
 _atom_site_fract_y
 _atom_site_fract_z
 _atom_site_occupancy
  Ca  Ca0  1  0.500000  0.500000  0.000000  1
  Ca  Ca1  1  0.000000  0.000000  0.000000  1
  Nd  Nd2  1  0.519568  0.019568  0.836632  1
  Nd  Nd3  1  0.183170  0.683170  0.164128  1
  Nd  Nd4  1  0.019913  0.182815  0.500072  1
  Nd  Nd5  1  0.682815  0.519913  0.500072  1
  Nd  Nd6  1  0.480432  0.980432  0.163368  1
  Nd  Nd7  1  0.816830  0.316830  0.835872  1
  Nd  Nd8  1  0.980087  0.817185  0.499928  1
  Nd  Nd9  1  0.317185  0.480087  0.499928  1
  Al  Al10  1  0.880277  0.380277  0.260663  1
  Al  Al11  1  0.119723  0.619723  0.739337  1
  Al  Al12  1  0.380167  0.119833  0.500000  1
  Al  Al13  1  0.619833  0.880167  0.500000  1
  Sb  Sb14  1  0.250019  0.249981  0.000000  1
  Sb  Sb15  1  0.749981  0.750019  0.000000  1
