# generated using pymatgen
data_Pr16Co4Ag3Hg
_symmetry_space_group_name_H-M   'P 1'
_cell_length_a   9.77015159
_cell_length_b   9.77015085
_cell_length_c   9.77015106
_cell_angle_alpha   60.45114351
_cell_angle_beta   60.45114624
_cell_angle_gamma   60.45114387
_symmetry_Int_Tables_number   1
_chemical_formula_structural   Pr16Co4Ag3Hg
_chemical_formula_sum   'Pr16 Co4 Ag3 Hg1'
_cell_volume   666.18648025
_cell_formula_units_Z   1
loop_
 _symmetry_equiv_pos_site_id
 _symmetry_equiv_pos_as_xyz
  1  'x, y, z'
loop_
 _atom_site_type_symbol
 _atom_site_label
 _atom_site_symmetry_multiplicity
 _atom_site_fract_x
 _atom_site_fract_y
 _atom_site_fract_z
 _atom_site_occupancy
  Pr  Pr0  1  0.292876  0.902394  0.902394  1
  Pr  Pr1  1  0.687710  0.687710  0.309234  1
  Pr  Pr2  1  0.902394  0.902394  0.292876  1
  Pr  Pr3  1  0.310388  0.690825  0.310388  1
  Pr  Pr4  1  0.690825  0.310388  0.310388  1
  Pr  Pr5  1  0.058989  0.442971  0.442971  1
  Pr  Pr6  1  0.441510  0.061411  0.061411  1
  Pr  Pr7  1  0.061411  0.061411  0.441510  1
  Pr  Pr8  1  0.310388  0.310388  0.690825  1
  Pr  Pr9  1  0.442971  0.058989  0.442971  1
  Pr  Pr10  1  0.902378  0.902378  0.902378  1
  Pr  Pr11  1  0.442971  0.442971  0.058989  1
  Pr  Pr12  1  0.309234  0.687710  0.687710  1
  Pr  Pr13  1  0.687710  0.309234  0.687710  1
  Pr  Pr14  1  0.061411  0.441510  0.061411  1
  Pr  Pr15  1  0.902394  0.292876  0.902394  1
  Co  Co16  1  0.110542  0.110542  0.110542  1
  Co  Co17  1  0.107559  0.107559  0.673513  1
  Co  Co18  1  0.673513  0.107559  0.107559  1
  Co  Co19  1  0.107559  0.673513  0.107559  1
  Ag  Ag20  1  0.671236  0.671236  0.985526  1
  Ag  Ag21  1  0.985526  0.671236  0.671236  1
  Ag  Ag22  1  0.671236  0.985526  0.671236  1
  Hg  Hg23  1  0.667268  0.667268  0.667268  1
