# generated using pymatgen
data_SrCa6Gd3Ir4
_symmetry_space_group_name_H-M   'P 1'
_cell_length_a   8.72200587
_cell_length_b   8.88112553
_cell_length_c   7.54109800
_cell_angle_alpha   83.51477788
_cell_angle_beta   82.55531664
_cell_angle_gamma   44.81919629
_symmetry_Int_Tables_number   1
_chemical_formula_structural   SrCa6Gd3Ir4
_chemical_formula_sum   'Sr1 Ca6 Gd3 Ir4'
_cell_volume   408.08992797
_cell_formula_units_Z   1
loop_
 _symmetry_equiv_pos_site_id
 _symmetry_equiv_pos_as_xyz
  1  'x, y, z'
loop_
 _atom_site_type_symbol
 _atom_site_label
 _atom_site_symmetry_multiplicity
 _atom_site_fract_x
 _atom_site_fract_y
 _atom_site_fract_z
 _atom_site_occupancy
  Sr  Sr0  1  0.018247  0.804054  0.922472  1
  Ca  Ca1  1  0.197938  0.985480  0.581218  1
  Ca  Ca2  1  0.988524  0.193479  0.084480  1
  Ca  Ca3  1  0.806460  0.013067  0.414927  1
  Ca  Ca4  1  0.358889  0.206441  0.819768  1
  Ca  Ca5  1  0.790646  0.643003  0.680148  1
  Ca  Ca6  1  0.631060  0.798987  0.180957  1
  Gd  Gd7  1  0.203897  0.365801  0.325524  1
  Gd  Gd8  1  0.568430  0.436233  0.744172  1
  Gd  Gd9  1  0.443513  0.558989  0.251903  1
  Ir  Ir10  1  0.198529  0.581430  0.565087  1
  Ir  Ir11  1  0.402012  0.797893  0.923358  1
  Ir  Ir12  1  0.822179  0.404733  0.420067  1
  Ir  Ir13  1  0.569672  0.210406  0.085919  1
