# generated using pymatgen
data_Eu3Y(SbRh)4
_symmetry_space_group_name_H-M   'P 1'
_cell_length_a   7.45251299
_cell_length_b   4.66960500
_cell_length_c   7.85577661
_cell_angle_alpha   90.00000000
_cell_angle_beta   90.10622373
_cell_angle_gamma   90.00000000
_symmetry_Int_Tables_number   1
_chemical_formula_structural   Eu3Y(SbRh)4
_chemical_formula_sum   'Eu3 Y1 Sb4 Rh4'
_cell_volume   273.38284933
_cell_formula_units_Z   1
loop_
 _symmetry_equiv_pos_site_id
 _symmetry_equiv_pos_as_xyz
  1  'x, y, z'
loop_
 _atom_site_type_symbol
 _atom_site_label
 _atom_site_symmetry_multiplicity
 _atom_site_fract_x
 _atom_site_fract_y
 _atom_site_fract_z
 _atom_site_occupancy
  Eu  Eu0  1  0.488278  0.749999  0.195431  1
  Eu  Eu1  1  0.986834  0.749999  0.301604  1
  Eu  Eu2  1  0.014580  0.250000  0.697441  1
  Y  Y3  1  0.516210  0.250000  0.800699  1
  Sb  Sb4  1  0.190455  0.250000  0.087714  1
  Sb  Sb5  1  0.687701  0.250000  0.413348  1
  Sb  Sb6  1  0.313811  0.749999  0.589964  1
  Sb  Sb7  1  0.812926  0.749999  0.910728  1
  Rh  Rh8  1  0.798619  0.250000  0.078059  1
  Rh  Rh9  1  0.313171  0.250000  0.418163  1
  Rh  Rh10  1  0.680043  0.749999  0.593542  1
  Rh  Rh11  1  0.197371  0.749999  0.913308  1
