# generated using pymatgen
data_Ho8Lu8Sc4Si15P
_symmetry_space_group_name_H-M   'P 1'
_cell_length_a   7.17784423
_cell_length_b   7.52817996
_cell_length_c   14.19416500
_cell_angle_alpha   90.00000000
_cell_angle_beta   90.00000000
_cell_angle_gamma   90.09187627
_symmetry_Int_Tables_number   1
_chemical_formula_structural   Ho8Lu8Sc4Si15P
_chemical_formula_sum   'Ho8 Lu8 Sc4 Si15 P1'
_cell_volume   766.99637667
_cell_formula_units_Z   1
loop_
 _symmetry_equiv_pos_site_id
 _symmetry_equiv_pos_as_xyz
  1  'x, y, z'
loop_
 _atom_site_type_symbol
 _atom_site_label
 _atom_site_symmetry_multiplicity
 _atom_site_fract_x
 _atom_site_fract_y
 _atom_site_fract_z
 _atom_site_occupancy
  Ho  Ho0  1  0.012181  0.177998  0.097196  1
  Ho  Ho1  1  0.989359  0.823613  0.898749  1
  Ho  Ho2  1  0.488089  0.679042  0.904226  1
  Ho  Ho3  1  0.989359  0.823613  0.601251  1
  Ho  Ho4  1  0.514242  0.319979  0.096795  1
  Ho  Ho5  1  0.012181  0.177998  0.402804  1
  Ho  Ho6  1  0.514242  0.319979  0.403205  1
  Ho  Ho7  1  0.488089  0.679042  0.595774  1
  Lu  Lu8  1  0.323855  0.171670  0.627347  1
  Lu  Lu9  1  0.670972  0.823061  0.375129  1
  Lu  Lu10  1  0.171379  0.678050  0.374652  1
  Lu  Lu11  1  0.670972  0.823061  0.124871  1
  Lu  Lu12  1  0.826601  0.324353  0.626389  1
  Lu  Lu13  1  0.323855  0.171670  0.872653  1
  Lu  Lu14  1  0.826601  0.324353  0.873611  1
  Lu  Lu15  1  0.171379  0.678050  0.125348  1
  Sc  Sc16  1  0.159176  0.510253  0.750000  1
  Sc  Sc17  1  0.839751  0.489906  0.250000  1
  Sc  Sc18  1  0.339371  0.009966  0.250000  1
  Sc  Sc19  1  0.662860  0.991516  0.750000  1
  Si  Si20  1  0.970943  0.897564  0.250000  1
  Si  Si21  1  0.473770  0.600490  0.250000  1
  Si  Si22  1  0.522533  0.395100  0.750000  1
  Si  Si23  1  0.299439  0.853505  0.750000  1
  Si  Si24  1  0.714993  0.133923  0.250000  1
  Si  Si25  1  0.215878  0.365620  0.250000  1
  Si  Si26  1  0.785408  0.635872  0.750000  1
  Si  Si27  1  0.156638  0.466312  0.539951  1
  Si  Si28  1  0.843510  0.532894  0.461114  1
  Si  Si29  1  0.339664  0.968989  0.460002  1
  Si  Si30  1  0.843510  0.532894  0.038886  1
  Si  Si31  1  0.661112  0.033235  0.540692  1
  Si  Si32  1  0.156638  0.466312  0.960049  1
  Si  Si33  1  0.661112  0.033235  0.959308  1
  Si  Si34  1  0.339664  0.968989  0.039998  1
  P  P35  1  0.020672  0.117897  0.750000  1
