# generated using pymatgen
data_Mg2Co5GeB2
_symmetry_space_group_name_H-M   'P 1'
_cell_length_a   2.79168600
_cell_length_b   8.80320800
_cell_length_c   8.80320800
_cell_angle_alpha   90.00000000
_cell_angle_beta   90.00000000
_cell_angle_gamma   90.00000000
_symmetry_Int_Tables_number   1
_chemical_formula_structural   Mg2Co5GeB2
_chemical_formula_sum   'Mg4 Co10 Ge2 B4'
_cell_volume   216.34581339
_cell_formula_units_Z   2
loop_
 _symmetry_equiv_pos_site_id
 _symmetry_equiv_pos_as_xyz
  1  'x, y, z'
loop_
 _atom_site_type_symbol
 _atom_site_label
 _atom_site_symmetry_multiplicity
 _atom_site_fract_x
 _atom_site_fract_y
 _atom_site_fract_z
 _atom_site_occupancy
  Mg  Mg0  1  0.000000  0.324962  0.824962  1
  Mg  Mg1  1  0.000000  0.675038  0.175038  1
  Mg  Mg2  1  0.000000  0.175038  0.324962  1
  Mg  Mg3  1  0.000000  0.824962  0.675038  1
  Co  Co4  1  0.500000  0.000000  0.500000  1
  Co  Co5  1  0.500000  0.500000  0.000000  1
  Co  Co6  1  0.500000  0.569742  0.718287  1
  Co  Co7  1  0.500000  0.430258  0.281713  1
  Co  Co8  1  0.500000  0.930258  0.218287  1
  Co  Co9  1  0.500000  0.069742  0.781713  1
  Co  Co10  1  0.500000  0.718287  0.430258  1
  Co  Co11  1  0.500000  0.281713  0.569742  1
  Co  Co12  1  0.500000  0.218287  0.069742  1
  Co  Co13  1  0.500000  0.781713  0.930258  1
  Ge  Ge14  1  0.000000  0.500000  0.500000  1
  Ge  Ge15  1  0.000000  0.000000  0.000000  1
  B  B16  1  0.000000  0.122776  0.622776  1
  B  B17  1  0.000000  0.877224  0.377224  1
  B  B18  1  0.000000  0.377224  0.122776  1
  B  B19  1  0.000000  0.622776  0.877224  1
