# generated using pymatgen
data_Y4GaI6
_symmetry_space_group_name_H-M   'P 1'
_cell_length_a   4.24385100
_cell_length_b   14.11453700
_cell_length_c   14.88296800
_cell_angle_alpha   90.00000000
_cell_angle_beta   90.00000000
_cell_angle_gamma   90.00000000
_symmetry_Int_Tables_number   1
_chemical_formula_structural   Y4GaI6
_chemical_formula_sum   'Y8 Ga2 I12'
_cell_volume   891.48966357
_cell_formula_units_Z   2
loop_
 _symmetry_equiv_pos_site_id
 _symmetry_equiv_pos_as_xyz
  1  'x, y, z'
loop_
 _atom_site_type_symbol
 _atom_site_label
 _atom_site_symmetry_multiplicity
 _atom_site_fract_x
 _atom_site_fract_y
 _atom_site_fract_z
 _atom_site_occupancy
  Y  Y0  1  0.500000  0.115231  0.345677  1
  Y  Y1  1  0.500000  0.884769  0.654323  1
  Y  Y2  1  0.500000  0.615231  0.154323  1
  Y  Y3  1  0.500000  0.384769  0.845677  1
  Y  Y4  1  0.000000  0.113209  0.575962  1
  Y  Y5  1  0.000000  0.886791  0.424038  1
  Y  Y6  1  0.000000  0.613209  0.924038  1
  Y  Y7  1  0.000000  0.386791  0.075962  1
  Ga  Ga8  1  0.500000  0.000000  0.500000  1
  Ga  Ga9  1  0.500000  0.500000  0.000000  1
  I  I10  1  0.500000  0.246355  0.163799  1
  I  I11  1  0.500000  0.753645  0.836201  1
  I  I12  1  0.500000  0.746355  0.336201  1
  I  I13  1  0.500000  0.253645  0.663799  1
  I  I14  1  0.000000  0.258683  0.414362  1
  I  I15  1  0.000000  0.741317  0.585638  1
  I  I16  1  0.000000  0.758683  0.085638  1
  I  I17  1  0.000000  0.241317  0.914362  1
  I  I18  1  0.000000  0.999378  0.240116  1
  I  I19  1  0.000000  0.000622  0.759884  1
  I  I20  1  0.000000  0.499378  0.259884  1
  I  I21  1  0.000000  0.500622  0.740116  1
