# generated using pymatgen
data_Pr4TcI4
_symmetry_space_group_name_H-M   'P 1'
_cell_length_a   11.60338703
_cell_length_b   11.60338886
_cell_length_c   6.39232500
_cell_angle_alpha   90.00384165
_cell_angle_beta   90.00384165
_cell_angle_gamma   89.95998341
_symmetry_Int_Tables_number   1
_chemical_formula_structural   Pr4TcI4
_chemical_formula_sum   'Pr8 Tc2 I8'
_cell_volume   860.65354983
_cell_formula_units_Z   2
loop_
 _symmetry_equiv_pos_site_id
 _symmetry_equiv_pos_as_xyz
  1  'x, y, z'
loop_
 _atom_site_type_symbol
 _atom_site_label
 _atom_site_symmetry_multiplicity
 _atom_site_fract_x
 _atom_site_fract_y
 _atom_site_fract_z
 _atom_site_occupancy
  Pr  Pr0  1  0.795407  0.084047  0.000209  1
  Pr  Pr1  1  0.084047  0.795407  0.500209  1
  Pr  Pr2  1  0.083811  0.204384  0.000042  1
  Pr  Pr3  1  0.204384  0.083811  0.500042  1
  Pr  Pr4  1  0.916189  0.795616  0.999958  1
  Pr  Pr5  1  0.915953  0.204593  0.499791  1
  Pr  Pr6  1  0.204593  0.915953  0.999791  1
  Pr  Pr7  1  0.795616  0.916189  0.499958  1
  Tc  Tc8  1  0.999991  0.000009  0.250000  1
  Tc  Tc9  1  0.000009  0.999991  0.750000  1
  I  I10  1  0.641073  0.150558  0.497267  1
  I  I11  1  0.849751  0.641190  0.502926  1
  I  I12  1  0.358810  0.150249  0.997074  1
  I  I13  1  0.150249  0.358810  0.497074  1
  I  I14  1  0.641190  0.849751  0.002926  1
  I  I15  1  0.358927  0.849442  0.502733  1
  I  I16  1  0.150558  0.641073  0.997267  1
  I  I17  1  0.849442  0.358927  0.002733  1
