# generated using pymatgen
data_Sr9LaSi6F
_symmetry_space_group_name_H-M   'P 1'
_cell_length_a   9.64826865
_cell_length_b   9.62485448
_cell_length_c   9.65633472
_cell_angle_alpha   130.20109508
_cell_angle_beta   130.26449593
_cell_angle_gamma   72.87848776
_symmetry_Int_Tables_number   1
_chemical_formula_structural   Sr9LaSi6F
_chemical_formula_sum   'Sr9 La1 Si6 F1'
_cell_volume   510.89608823
_cell_formula_units_Z   1
loop_
 _symmetry_equiv_pos_site_id
 _symmetry_equiv_pos_as_xyz
  1  'x, y, z'
loop_
 _atom_site_type_symbol
 _atom_site_label
 _atom_site_symmetry_multiplicity
 _atom_site_fract_x
 _atom_site_fract_y
 _atom_site_fract_z
 _atom_site_occupancy
  Sr  Sr0  1  0.431821  0.774001  0.000019  1
  Sr  Sr1  1  0.930413  0.931326  0.643758  1
  Sr  Sr2  1  0.286646  0.287557  0.356242  1
  Sr  Sr3  1  0.710763  0.067087  0.000003  1
  Sr  Sr4  1  0.067497  0.712740  0.000025  1
  Sr  Sr5  1  0.566090  0.565947  0.337431  1
  Sr  Sr6  1  0.228655  0.228501  0.662577  1
  Sr  Sr7  1  0.252137  0.752000  0.505611  1
  Sr  Sr8  1  0.746539  0.246408  0.494384  1
  La  La9  1  0.780981  0.434039  0.999987  1
  Si  Si10  1  0.994064  0.497467  0.483510  1
  Si  Si11  1  0.510553  0.013936  0.516488  1
  Si  Si12  1  0.131970  0.359168  0.999995  1
  Si  Si13  1  0.352381  0.142593  0.000013  1
  Si  Si14  1  0.859784  0.851101  0.214867  1
  Si  Si15  1  0.644948  0.636250  0.785130  1
  F  F16  1  0.504758  0.499878  0.999958  1
