# generated using pymatgen
data_Tb8Dy9Er3Pb16
_symmetry_space_group_name_H-M   'P 1'
_cell_length_a   8.20763607
_cell_length_b   8.29490507
_cell_length_c   15.66276300
_cell_angle_alpha   90.00000000
_cell_angle_beta   90.00000000
_cell_angle_gamma   90.01520016
_symmetry_Int_Tables_number   1
_chemical_formula_structural   Tb8Dy9Er3Pb16
_chemical_formula_sum   'Tb8 Dy9 Er3 Pb16'
_cell_volume   1066.34533420
_cell_formula_units_Z   1
loop_
 _symmetry_equiv_pos_site_id
 _symmetry_equiv_pos_as_xyz
  1  'x, y, z'
loop_
 _atom_site_type_symbol
 _atom_site_label
 _atom_site_symmetry_multiplicity
 _atom_site_fract_x
 _atom_site_fract_y
 _atom_site_fract_z
 _atom_site_occupancy
  Tb  Tb0  1  0.534199  0.322948  0.900014  1
  Tb  Tb1  1  0.034064  0.176890  0.599996  1
  Tb  Tb2  1  0.465854  0.676981  0.399970  1
  Tb  Tb3  1  0.965872  0.823016  0.099998  1
  Tb  Tb4  1  0.465854  0.676981  0.100030  1
  Tb  Tb5  1  0.965872  0.823016  0.400002  1
  Tb  Tb6  1  0.534199  0.322948  0.599986  1
  Tb  Tb7  1  0.034064  0.176890  0.900004  1
  Dy  Dy8  1  0.376690  0.840952  0.879364  1
  Dy  Dy9  1  0.876450  0.659206  0.620623  1
  Dy  Dy10  1  0.623406  0.159108  0.379351  1
  Dy  Dy11  1  0.123395  0.340896  0.120687  1
  Dy  Dy12  1  0.623406  0.159108  0.120649  1
  Dy  Dy13  1  0.123395  0.340896  0.379313  1
  Dy  Dy14  1  0.376690  0.840952  0.620636  1
  Dy  Dy15  1  0.876450  0.659206  0.879377  1
  Dy  Dy16  1  0.208235  0.504110  0.750000  1
  Er  Er17  1  0.708350  0.995747  0.750000  1
  Er  Er18  1  0.791700  0.495782  0.250000  1
  Er  Er19  1  0.291677  0.004164  0.250000  1
  Pb  Pb20  1  0.282107  0.033907  0.042946  1
  Pb  Pb21  1  0.782111  0.466124  0.457058  1
  Pb  Pb22  1  0.717863  0.966092  0.542899  1
  Pb  Pb23  1  0.217885  0.533944  0.957353  1
  Pb  Pb24  1  0.717863  0.966092  0.957101  1
  Pb  Pb25  1  0.217885  0.533944  0.542647  1
  Pb  Pb26  1  0.282107  0.033907  0.457054  1
  Pb  Pb27  1  0.782111  0.466124  0.042942  1
  Pb  Pb28  1  0.572250  0.626972  0.750000  1
  Pb  Pb29  1  0.071532  0.873680  0.750000  1
  Pb  Pb30  1  0.428386  0.373265  0.250000  1
  Pb  Pb31  1  0.928401  0.126738  0.250000  1
  Pb  Pb32  1  0.345382  0.152026  0.750000  1
  Pb  Pb33  1  0.845111  0.347217  0.750000  1
  Pb  Pb34  1  0.654614  0.847389  0.250000  1
  Pb  Pb35  1  0.154573  0.652783  0.250000  1
