# generated using pymatgen
data_CeRe2BiF14
_symmetry_space_group_name_H-M   'P 1'
_cell_length_a   5.81842646
_cell_length_b   6.22901003
_cell_length_c   8.44690000
_cell_angle_alpha   101.56308440
_cell_angle_beta   89.77560426
_cell_angle_gamma   90.05614349
_symmetry_Int_Tables_number   1
_chemical_formula_structural   CeRe2BiF14
_chemical_formula_sum   'Ce1 Re2 Bi1 F14'
_cell_volume   299.92574137
_cell_formula_units_Z   1
loop_
 _symmetry_equiv_pos_site_id
 _symmetry_equiv_pos_as_xyz
  1  'x, y, z'
loop_
 _atom_site_type_symbol
 _atom_site_label
 _atom_site_symmetry_multiplicity
 _atom_site_fract_x
 _atom_site_fract_y
 _atom_site_fract_z
 _atom_site_occupancy
  Ce  Ce0  1  0.200364  0.337332  0.309682  1
  Re  Re1  1  0.710048  0.810120  0.224808  1
  Re  Re2  1  0.211324  0.189365  0.774550  1
  Bi  Bi3  1  0.694799  0.657242  0.681743  1
  F  F4  1  0.876624  0.446019  0.476910  1
  F  F5  1  0.390859  0.554754  0.525074  1
  F  F6  1  0.422095  0.937207  0.770082  1
  F  F7  1  0.918914  0.062921  0.230124  1
  F  F8  1  0.951906  0.981417  0.763241  1
  F  F9  1  0.450047  0.020396  0.239190  1
  F  F10  1  0.003828  0.443810  0.788194  1
  F  F11  1  0.503872  0.554315  0.212324  1
  F  F12  1  0.704345  0.764284  0.988904  1
  F  F13  1  0.207955  0.238770  0.013758  1
  F  F14  1  0.715681  0.863562  0.466784  1
  F  F15  1  0.216292  0.136674  0.535039  1
  F  F16  1  0.489083  0.383136  0.786226  1
  F  F17  1  0.984679  0.618677  0.213367  1
