# generated using pymatgen
data_Ba2Ce2NiPdSe6
_symmetry_space_group_name_H-M   'P 1'
_cell_length_a   7.40930553
_cell_length_b   7.40930643
_cell_length_c   10.72195800
_cell_angle_alpha   90.00000000
_cell_angle_beta   90.00000000
_cell_angle_gamma   146.80143993
_symmetry_Int_Tables_number   1
_chemical_formula_structural   Ba2Ce2NiPdSe6
_chemical_formula_sum   'Ba2 Ce2 Ni1 Pd1 Se6'
_cell_volume   322.28994336
_cell_formula_units_Z   1
loop_
 _symmetry_equiv_pos_site_id
 _symmetry_equiv_pos_as_xyz
  1  'x, y, z'
loop_
 _atom_site_type_symbol
 _atom_site_label
 _atom_site_symmetry_multiplicity
 _atom_site_fract_x
 _atom_site_fract_y
 _atom_site_fract_z
 _atom_site_occupancy
  Ba  Ba0  1  0.744159  0.255841  0.250000  1
  Ba  Ba1  1  0.250290  0.749710  0.750000  1
  Ce  Ce2  1  0.000434  0.999566  0.998331  1
  Ce  Ce3  1  0.000434  0.999566  0.501669  1
  Ni  Ni4  1  0.473637  0.526363  0.250000  1
  Pd  Pd5  1  0.527948  0.472052  0.750000  1
  Se  Se6  1  0.369914  0.630086  0.071651  1
  Se  Se7  1  0.065400  0.934600  0.250000  1
  Se  Se8  1  0.369914  0.630086  0.428348  1
  Se  Se9  1  0.637691  0.362309  0.556325  1
  Se  Se10  1  0.922488  0.077512  0.750000  1
  Se  Se11  1  0.637691  0.362309  0.943675  1
