# generated using pymatgen
data_Tm2Ni6Ir
_symmetry_space_group_name_H-M   'P 1'
_cell_length_a   4.88998447
_cell_length_b   4.96243931
_cell_length_c   12.56605988
_cell_angle_alpha   78.55675297
_cell_angle_beta   78.78033459
_cell_angle_gamma   60.48182005
_symmetry_Int_Tables_number   1
_chemical_formula_structural   Tm2Ni6Ir
_chemical_formula_sum   'Tm4 Ni12 Ir2'
_cell_volume   258.39500619
_cell_formula_units_Z   2
loop_
 _symmetry_equiv_pos_site_id
 _symmetry_equiv_pos_as_xyz
  1  'x, y, z'
loop_
 _atom_site_type_symbol
 _atom_site_label
 _atom_site_symmetry_multiplicity
 _atom_site_fract_x
 _atom_site_fract_y
 _atom_site_fract_z
 _atom_site_occupancy
  Tm  Tm0  1  0.951443  0.947178  0.149938  1
  Tm  Tm1  1  0.048557  0.052822  0.850062  1
  Tm  Tm2  1  0.854117  0.851856  0.439910  1
  Tm  Tm3  1  0.145883  0.148144  0.560090  1
  Ni  Ni4  1  0.724451  0.717041  0.834057  1
  Ni  Ni5  1  0.275549  0.282959  0.165943  1
  Ni  Ni6  1  0.617578  0.598933  0.165912  1
  Ni  Ni7  1  0.382422  0.401067  0.834088  1
  Ni  Ni8  1  0.000000  0.500000  0.000000  1
  Ni  Ni9  1  0.500000  0.500000  0.000000  1
  Ni  Ni10  1  0.391828  0.385569  0.326968  1
  Ni  Ni11  1  0.895634  0.385569  0.326968  1
  Ni  Ni12  1  0.392417  0.890262  0.324903  1
  Ni  Ni13  1  0.608172  0.614431  0.673032  1
  Ni  Ni14  1  0.104366  0.614431  0.673032  1
  Ni  Ni15  1  0.607583  0.109738  0.675097  1
  Ir  Ir16  1  0.500000  0.500000  0.500000  1
  Ir  Ir17  1  0.500000  0.000000  0.000000  1
