# generated using pymatgen
data_DyY2In3Ga2Pt
_symmetry_space_group_name_H-M   'P 1'
_cell_length_a   7.27877715
_cell_length_b   7.27623581
_cell_length_c   4.43049400
_cell_angle_alpha   90.00000000
_cell_angle_beta   90.00000000
_cell_angle_gamma   119.98844533
_symmetry_Int_Tables_number   1
_chemical_formula_structural   DyY2In3Ga2Pt
_chemical_formula_sum   'Dy1 Y2 In3 Ga2 Pt1'
_cell_volume   203.23501175
_cell_formula_units_Z   1
loop_
 _symmetry_equiv_pos_site_id
 _symmetry_equiv_pos_as_xyz
  1  'x, y, z'
loop_
 _atom_site_type_symbol
 _atom_site_label
 _atom_site_symmetry_multiplicity
 _atom_site_fract_x
 _atom_site_fract_y
 _atom_site_fract_z
 _atom_site_occupancy
  Dy  Dy0  1  0.000000  0.591129  0.500000  1
  Y  Y1  1  0.590734  0.000397  0.500000  1
  Y  Y2  1  0.409266  0.409663  0.500000  1
  In  In3  1  0.749676  0.749935  0.000000  1
  In  In4  1  0.000000  0.249571  0.000000  1
  In  In5  1  0.250324  0.000259  0.000000  1
  Ga  Ga6  1  0.332688  0.666698  0.000000  1
  Ga  Ga7  1  0.667312  0.334009  0.000000  1
  Pt  Pt8  1  0.000000  0.998339  0.500000  1
