# generated using pymatgen
data_HoScB6W
_symmetry_space_group_name_H-M   'P 1'
_cell_length_a   3.49782900
_cell_length_b   9.16282300
_cell_length_c   11.54715500
_cell_angle_alpha   90.00000000
_cell_angle_beta   90.00000000
_cell_angle_gamma   90.00000000
_symmetry_Int_Tables_number   1
_chemical_formula_structural   HoScB6W
_chemical_formula_sum   'Ho4 Sc4 B24 W4'
_cell_volume   370.08617931
_cell_formula_units_Z   4
loop_
 _symmetry_equiv_pos_site_id
 _symmetry_equiv_pos_as_xyz
  1  'x, y, z'
loop_
 _atom_site_type_symbol
 _atom_site_label
 _atom_site_symmetry_multiplicity
 _atom_site_fract_x
 _atom_site_fract_y
 _atom_site_fract_z
 _atom_site_occupancy
  Ho  Ho0  1  0.500000  0.320251  0.414170  1
  Ho  Ho1  1  0.500000  0.679749  0.585830  1
  Ho  Ho2  1  0.500000  0.179749  0.914170  1
  Ho  Ho3  1  0.500000  0.820251  0.085830  1
  Sc  Sc4  1  0.500000  0.445494  0.127169  1
  Sc  Sc5  1  0.500000  0.554506  0.872831  1
  Sc  Sc6  1  0.500000  0.054506  0.627169  1
  Sc  Sc7  1  0.500000  0.945494  0.372831  1
  B  B8  1  0.000000  0.095612  0.473736  1
  B  B9  1  0.000000  0.904388  0.526264  1
  B  B10  1  0.000000  0.404388  0.973736  1
  B  B11  1  0.000000  0.595612  0.026264  1
  B  B12  1  0.000000  0.129382  0.319640  1
  B  B13  1  0.000000  0.870618  0.680360  1
  B  B14  1  0.000000  0.370618  0.819640  1
  B  B15  1  0.000000  0.629382  0.180360  1
  B  B16  1  0.000000  0.052410  0.065450  1
  B  B17  1  0.000000  0.947590  0.934550  1
  B  B18  1  0.000000  0.447590  0.565450  1
  B  B19  1  0.000000  0.552410  0.434550  1
  B  B20  1  0.000000  0.478709  0.285135  1
  B  B21  1  0.000000  0.521291  0.714865  1
  B  B22  1  0.000000  0.021291  0.785135  1
  B  B23  1  0.000000  0.978709  0.214865  1
  B  B24  1  0.000000  0.256916  0.079026  1
  B  B25  1  0.000000  0.743084  0.920974  1
  B  B26  1  0.000000  0.243084  0.579026  1
  B  B27  1  0.000000  0.756916  0.420974  1
  B  B28  1  0.000000  0.297965  0.235933  1
  B  B29  1  0.000000  0.702035  0.764067  1
  B  B30  1  0.000000  0.202035  0.735933  1
  B  B31  1  0.000000  0.797965  0.264067  1
  W  W32  1  0.500000  0.141573  0.181367  1
  W  W33  1  0.500000  0.858427  0.818633  1
  W  W34  1  0.500000  0.358427  0.681367  1
  W  W35  1  0.500000  0.641573  0.318633  1
