# generated using pymatgen
data_NdEr(PN3)2
_symmetry_space_group_name_H-M   'P 1'
_cell_length_a   7.22706772
_cell_length_b   7.22706740
_cell_length_c   4.86071447
_cell_angle_alpha   88.35035297
_cell_angle_beta   88.35034963
_cell_angle_gamma   101.91775783
_symmetry_Int_Tables_number   1
_chemical_formula_structural   NdEr(PN3)2
_chemical_formula_sum   'Nd2 Er2 P4 N12'
_cell_volume   248.14567535
_cell_formula_units_Z   2
loop_
 _symmetry_equiv_pos_site_id
 _symmetry_equiv_pos_as_xyz
  1  'x, y, z'
loop_
 _atom_site_type_symbol
 _atom_site_label
 _atom_site_symmetry_multiplicity
 _atom_site_fract_x
 _atom_site_fract_y
 _atom_site_fract_z
 _atom_site_occupancy
  Nd  Nd0  1  0.098496  0.901504  0.250000  1
  Nd  Nd1  1  0.901504  0.098496  0.750000  1
  Er  Er2  1  0.296144  0.703856  0.750000  1
  Er  Er3  1  0.703856  0.296144  0.250000  1
  P  P4  1  0.376246  0.228780  0.810005  1
  P  P5  1  0.623754  0.771220  0.189995  1
  P  P6  1  0.771220  0.623754  0.689995  1
  P  P7  1  0.228780  0.376246  0.310005  1
  N  N8  1  0.976332  0.751028  0.735996  1
  N  N9  1  0.765232  0.395599  0.784497  1
  N  N10  1  0.751028  0.976332  0.235996  1
  N  N11  1  0.234768  0.604401  0.215503  1
  N  N12  1  0.023668  0.248972  0.264004  1
  N  N13  1  0.248972  0.023668  0.764004  1
  N  N14  1  0.604401  0.234768  0.715503  1
  N  N15  1  0.610414  0.715041  0.860424  1
  N  N16  1  0.389586  0.284959  0.139576  1
  N  N17  1  0.395599  0.765232  0.284497  1
  N  N18  1  0.715041  0.610414  0.360424  1
  N  N19  1  0.284959  0.389586  0.639576  1
