# generated using pymatgen
data_Y4Ga4Cu2IrRu
_symmetry_space_group_name_H-M   'P 1'
_cell_length_a   4.38541300
_cell_length_b   6.91687629
_cell_length_c   7.59797023
_cell_angle_alpha   90.19736910
_cell_angle_beta   90.00000000
_cell_angle_gamma   90.00000000
_symmetry_Int_Tables_number   1
_chemical_formula_structural   Y4Ga4Cu2IrRu
_chemical_formula_sum   'Y4 Ga4 Cu2 Ir1 Ru1'
_cell_volume   230.47059297
_cell_formula_units_Z   1
loop_
 _symmetry_equiv_pos_site_id
 _symmetry_equiv_pos_as_xyz
  1  'x, y, z'
loop_
 _atom_site_type_symbol
 _atom_site_label
 _atom_site_symmetry_multiplicity
 _atom_site_fract_x
 _atom_site_fract_y
 _atom_site_fract_z
 _atom_site_occupancy
  Y  Y0  1  0.250000  0.991637  0.295171  1
  Y  Y1  1  0.250000  0.490097  0.203346  1
  Y  Y2  1  0.750000  0.021983  0.689997  1
  Y  Y3  1  0.750000  0.522971  0.810278  1
  Ga  Ga4  1  0.250000  0.322496  0.581061  1
  Ga  Ga5  1  0.250000  0.820432  0.921051  1
  Ga  Ga6  1  0.750000  0.675017  0.429157  1
  Ga  Ga7  1  0.750000  0.175061  0.070622  1
  Cu  Cu8  1  0.250000  0.208827  0.901482  1
  Cu  Cu9  1  0.250000  0.708451  0.598784  1
  Ir  Ir10  1  0.750000  0.282093  0.400285  1
  Ru  Ru11  1  0.750000  0.780933  0.098765  1
