# generated using pymatgen
data_RbPPd2
_symmetry_space_group_name_H-M   'P 1'
_cell_length_a   6.87800509
_cell_length_b   6.87800616
_cell_length_c   7.18438600
_cell_angle_alpha   90.00000000
_cell_angle_beta   90.00000000
_cell_angle_gamma   145.59926945
_symmetry_Int_Tables_number   1
_chemical_formula_structural   RbPPd2
_chemical_formula_sum   'Rb2 P2 Pd4'
_cell_volume   192.01974238
_cell_formula_units_Z   2
loop_
 _symmetry_equiv_pos_site_id
 _symmetry_equiv_pos_as_xyz
  1  'x, y, z'
loop_
 _atom_site_type_symbol
 _atom_site_label
 _atom_site_symmetry_multiplicity
 _atom_site_fract_x
 _atom_site_fract_y
 _atom_site_fract_z
 _atom_site_occupancy
  Rb  Rb0  1  0.449529  0.550471  0.250000  1
  Rb  Rb1  1  0.550471  0.449529  0.750000  1
  P  P2  1  0.719738  0.280262  0.250000  1
  P  P3  1  0.280262  0.719738  0.750000  1
  Pd  Pd4  1  0.194916  0.805085  0.063974  1
  Pd  Pd5  1  0.194916  0.805085  0.436026  1
  Pd  Pd6  1  0.805085  0.194916  0.563973  1
  Pd  Pd7  1  0.805085  0.194916  0.936027  1
