# generated using pymatgen
data_Nd7Y(AlNi)8
_symmetry_space_group_name_H-M   'P 1'
_cell_length_a   4.12610800
_cell_length_b   7.01297910
_cell_length_c   15.96971405
_cell_angle_alpha   89.68344925
_cell_angle_beta   90.00000000
_cell_angle_gamma   90.00000000
_symmetry_Int_Tables_number   1
_chemical_formula_structural   Nd7Y(AlNi)8
_chemical_formula_sum   'Nd7 Y1 Al8 Ni8'
_cell_volume   462.09753069
_cell_formula_units_Z   1
loop_
 _symmetry_equiv_pos_site_id
 _symmetry_equiv_pos_as_xyz
  1  'x, y, z'
loop_
 _atom_site_type_symbol
 _atom_site_label
 _atom_site_symmetry_multiplicity
 _atom_site_fract_x
 _atom_site_fract_y
 _atom_site_fract_z
 _atom_site_occupancy
  Nd  Nd0  1  0.750000  0.857742  0.935846  1
  Nd  Nd1  1  0.250000  0.144030  0.061516  1
  Nd  Nd2  1  0.250000  0.643313  0.438148  1
  Nd  Nd3  1  0.750000  0.356640  0.563796  1
  Nd  Nd4  1  0.750000  0.987209  0.722069  1
  Nd  Nd5  1  0.250000  0.011714  0.278245  1
  Nd  Nd6  1  0.250000  0.510811  0.221326  1
  Y  Y7  1  0.750000  0.486678  0.779721  1
  Al  Al8  1  0.750000  0.833349  0.145902  1
  Al  Al9  1  0.250000  0.173046  0.851875  1
  Al  Al10  1  0.250000  0.663574  0.649434  1
  Al  Al11  1  0.750000  0.332840  0.354238  1
  Al  Al12  1  0.750000  0.990375  0.439426  1
  Al  Al13  1  0.250000  0.007929  0.561650  1
  Al  Al14  1  0.250000  0.511836  0.937513  1
  Al  Al15  1  0.750000  0.491709  0.060216  1
  Ni  Ni16  1  0.750000  0.789436  0.570165  1
  Ni  Ni17  1  0.250000  0.207160  0.430811  1
  Ni  Ni18  1  0.250000  0.710405  0.068884  1
  Ni  Ni19  1  0.750000  0.294724  0.929307  1
  Ni  Ni20  1  0.750000  0.722181  0.318098  1
  Ni  Ni21  1  0.250000  0.277920  0.683830  1
  Ni  Ni22  1  0.250000  0.770495  0.816545  1
  Ni  Ni23  1  0.750000  0.224882  0.181441  1
