# generated using pymatgen
data_Mg3ScGe6Ir7
_symmetry_space_group_name_H-M   'P 1'
_cell_length_a   6.99837773
_cell_length_b   7.10522932
_cell_length_c   7.10522924
_cell_angle_alpha   109.77384614
_cell_angle_beta   109.16686691
_cell_angle_gamma   109.16687227
_symmetry_Int_Tables_number   1
_chemical_formula_structural   Mg3ScGe6Ir7
_chemical_formula_sum   'Mg3 Sc1 Ge6 Ir7'
_cell_volume   272.99153739
_cell_formula_units_Z   1
loop_
 _symmetry_equiv_pos_site_id
 _symmetry_equiv_pos_as_xyz
  1  'x, y, z'
loop_
 _atom_site_type_symbol
 _atom_site_label
 _atom_site_symmetry_multiplicity
 _atom_site_fract_x
 _atom_site_fract_y
 _atom_site_fract_z
 _atom_site_occupancy
  Mg  Mg0  1  0.500000  0.500000  0.500000  1
  Mg  Mg1  1  0.000000  0.000000  0.500000  1
  Mg  Mg2  1  0.000000  0.500000  0.000000  1
  Sc  Sc3  1  0.500000  0.000000  0.000000  1
  Ge  Ge4  1  0.002873  0.311203  0.311203  1
  Ge  Ge5  1  0.997127  0.688797  0.688797  1
  Ge  Ge6  1  0.308330  0.000000  0.311203  1
  Ge  Ge7  1  0.691670  0.000000  0.688797  1
  Ge  Ge8  1  0.308330  0.311203  0.000000  1
  Ge  Ge9  1  0.691670  0.688797  0.000000  1
  Ir  Ir10  1  0.500000  0.749359  0.250641  1
  Ir  Ir11  1  0.500000  0.250641  0.749359  1
  Ir  Ir12  1  0.249359  0.498718  0.749359  1
  Ir  Ir13  1  0.750641  0.501282  0.250641  1
  Ir  Ir14  1  0.750641  0.250641  0.501282  1
  Ir  Ir15  1  0.249359  0.749359  0.498718  1
  Ir  Ir16  1  0.000000  0.000000  0.000000  1
