# generated using pymatgen
data_Li2CdGeSe4
_symmetry_space_group_name_H-M   'P 1'
_cell_length_a   6.80664100
_cell_length_b   7.26600900
_cell_length_c   8.24901400
_cell_angle_alpha   90.00000000
_cell_angle_beta   90.00000000
_cell_angle_gamma   90.00000000
_symmetry_Int_Tables_number   1
_chemical_formula_structural   Li2CdGeSe4
_chemical_formula_sum   'Li4 Cd2 Ge2 Se8'
_cell_volume   407.97243210
_cell_formula_units_Z   2
loop_
 _symmetry_equiv_pos_site_id
 _symmetry_equiv_pos_as_xyz
  1  'x, y, z'
loop_
 _atom_site_type_symbol
 _atom_site_label
 _atom_site_symmetry_multiplicity
 _atom_site_fract_x
 _atom_site_fract_y
 _atom_site_fract_z
 _atom_site_occupancy
  Li  Li0  1  0.624553  0.670873  0.254389  1
  Li  Li1  1  0.624553  0.670873  0.745611  1
  Li  Li2  1  0.124553  0.329127  0.245611  1
  Li  Li3  1  0.124553  0.329127  0.754389  1
  Cd  Cd4  1  0.127103  0.853209  0.500000  1
  Cd  Cd5  1  0.627103  0.146791  0.000000  1
  Ge  Ge6  1  0.124474  0.827127  0.000000  1
  Ge  Ge7  1  0.624474  0.172873  0.500000  1
  Se  Se8  1  0.729924  0.859928  0.500000  1
  Se  Se9  1  0.229924  0.140072  0.000000  1
  Se  Se10  1  0.247391  0.665293  0.231893  1
  Se  Se11  1  0.247391  0.665293  0.768107  1
  Se  Se12  1  0.747391  0.334707  0.268107  1
  Se  Se13  1  0.747391  0.334707  0.731893  1
  Se  Se14  1  0.773481  0.805529  0.000000  1
  Se  Se15  1  0.273481  0.194471  0.500000  1
