# generated using pymatgen
data_Tb2YbDy(Ga2Ag)4
_symmetry_space_group_name_H-M   'P 1'
_cell_length_a   4.37293700
_cell_length_b   6.99265709
_cell_length_c   10.28953421
_cell_angle_alpha   90.30515265
_cell_angle_beta   90.00000000
_cell_angle_gamma   90.00000000
_symmetry_Int_Tables_number   1
_chemical_formula_structural   Tb2YbDy(Ga2Ag)4
_chemical_formula_sum   'Tb2 Yb1 Dy1 Ga8 Ag4'
_cell_volume   314.63353371
_cell_formula_units_Z   1
loop_
 _symmetry_equiv_pos_site_id
 _symmetry_equiv_pos_as_xyz
  1  'x, y, z'
loop_
 _atom_site_type_symbol
 _atom_site_label
 _atom_site_symmetry_multiplicity
 _atom_site_fract_x
 _atom_site_fract_y
 _atom_site_fract_z
 _atom_site_occupancy
  Tb  Tb0  1  0.250000  0.780358  0.827115  1
  Tb  Tb1  1  0.750000  0.222308  0.172019  1
  Yb  Yb2  1  0.250000  0.276436  0.671222  1
  Dy  Dy3  1  0.750000  0.720613  0.328928  1
  Ga  Ga4  1  0.250000  0.704133  0.536128  1
  Ga  Ga5  1  0.750000  0.297670  0.464204  1
  Ga  Ga6  1  0.750000  0.793210  0.037899  1
  Ga  Ga7  1  0.250000  0.202375  0.963551  1
  Ga  Ga8  1  0.250000  0.926039  0.154481  1
  Ga  Ga9  1  0.750000  0.072736  0.849195  1
  Ga  Ga10  1  0.750000  0.571809  0.650632  1
  Ga  Ga11  1  0.250000  0.428007  0.345213  1
  Ag  Ag12  1  0.250000  0.543463  0.097323  1
  Ag  Ag13  1  0.750000  0.456674  0.901210  1
  Ag  Ag14  1  0.750000  0.959591  0.598090  1
  Ag  Ag15  1  0.250000  0.044576  0.402790  1
