# generated using pymatgen
data_Tb3Y(TcB2)6
_symmetry_space_group_name_H-M   'P 1'
_cell_length_a   6.22195719
_cell_length_b   6.22444591
_cell_length_c   7.52132800
_cell_angle_alpha   90.53103258
_cell_angle_beta   90.77296006
_cell_angle_gamma   113.98510019
_symmetry_Int_Tables_number   1
_chemical_formula_structural   Tb3Y(TcB2)6
_chemical_formula_sum   'Tb3 Y1 Tc6 B12'
_cell_volume   266.07650276
_cell_formula_units_Z   1
loop_
 _symmetry_equiv_pos_site_id
 _symmetry_equiv_pos_as_xyz
  1  'x, y, z'
loop_
 _atom_site_type_symbol
 _atom_site_label
 _atom_site_symmetry_multiplicity
 _atom_site_fract_x
 _atom_site_fract_y
 _atom_site_fract_z
 _atom_site_occupancy
  Tb  Tb0  1  0.099880  0.441659  0.322947  1
  Tb  Tb1  1  0.559982  0.901076  0.177293  1
  Tb  Tb2  1  0.898864  0.557265  0.676697  1
  Y  Y3  1  0.438721  0.097601  0.822214  1
  Tc  Tc4  1  0.587965  0.412535  0.250386  1
  Tc  Tc5  1  0.412160  0.587713  0.749881  1
  Tc  Tc6  1  0.990282  0.804537  0.088687  1
  Tc  Tc7  1  0.195277  0.010277  0.411078  1
  Tc  Tc8  1  0.010033  0.195917  0.911365  1
  Tc  Tc9  1  0.804980  0.989681  0.589357  1
  B  B10  1  0.245413  0.152150  0.130132  1
  B  B11  1  0.848655  0.754021  0.370400  1
  B  B12  1  0.754763  0.848182  0.869983  1
  B  B13  1  0.151394  0.246403  0.629844  1
  B  B14  1  0.584682  0.158700  0.482174  1
  B  B15  1  0.841450  0.415314  0.018255  1
  B  B16  1  0.415835  0.841334  0.517754  1
  B  B17  1  0.159343  0.585917  0.981393  1
  B  B18  1  0.442611  0.350229  0.534458  1
  B  B19  1  0.649666  0.556953  0.965641  1
  B  B20  1  0.557562  0.649526  0.465619  1
  B  B21  1  0.350481  0.443005  0.034442  1
