# generated using pymatgen
data_Tb8Dy8Cd4NiRu3
_symmetry_space_group_name_H-M   'P 1'
_cell_length_a   9.57452301
_cell_length_b   9.63712687
_cell_length_c   9.66575800
_cell_angle_alpha   59.90166714
_cell_angle_beta   59.68427470
_cell_angle_gamma   59.61685261
_symmetry_Int_Tables_number   1
_chemical_formula_structural   Tb8Dy8Cd4NiRu3
_chemical_formula_sum   'Tb8 Dy8 Cd4 Ni1 Ru3'
_cell_volume   626.83158926
_cell_formula_units_Z   1
loop_
 _symmetry_equiv_pos_site_id
 _symmetry_equiv_pos_as_xyz
  1  'x, y, z'
loop_
 _atom_site_type_symbol
 _atom_site_label
 _atom_site_symmetry_multiplicity
 _atom_site_fract_x
 _atom_site_fract_y
 _atom_site_fract_z
 _atom_site_occupancy
  Tb  Tb0  1  0.188040  0.188529  0.811715  1
  Tb  Tb1  1  0.810727  0.811130  0.189072  1
  Tb  Tb2  1  0.938985  0.560560  0.560572  1
  Tb  Tb3  1  0.558535  0.937446  0.937529  1
  Tb  Tb4  1  0.558535  0.937446  0.566489  1
  Tb  Tb5  1  0.938985  0.560560  0.939883  1
  Tb  Tb6  1  0.558209  0.566937  0.937427  1
  Tb  Tb7  1  0.939598  0.940078  0.560162  1
  Dy  Dy8  1  0.350108  0.346135  0.344782  1
  Dy  Dy9  1  0.350108  0.346135  0.958976  1
  Dy  Dy10  1  0.349986  0.959891  0.345062  1
  Dy  Dy11  1  0.959778  0.346514  0.346855  1
  Dy  Dy12  1  0.810452  0.188451  0.189175  1
  Dy  Dy13  1  0.187374  0.810949  0.811625  1
  Dy  Dy14  1  0.187374  0.810949  0.190052  1
  Dy  Dy15  1  0.810452  0.188451  0.811922  1
  Cd  Cd16  1  0.579455  0.580471  0.581246  1
  Cd  Cd17  1  0.579455  0.580471  0.258828  1
  Cd  Cd18  1  0.579884  0.258209  0.580954  1
  Cd  Cd19  1  0.257625  0.580436  0.580968  1
  Ni  Ni20  1  0.576867  0.142456  0.140339  1
  Ru  Ru21  1  0.142882  0.139577  0.138617  1
  Ru  Ru22  1  0.142882  0.139577  0.578923  1
  Ru  Ru23  1  0.143705  0.578643  0.138826  1
