# generated using pymatgen
data_Er8SnPd23Pt
_symmetry_space_group_name_H-M   'P 1'
_cell_length_a   8.38147600
_cell_length_b   8.37336100
_cell_length_c   8.37336100
_cell_angle_alpha   90.00000000
_cell_angle_beta   90.00000000
_cell_angle_gamma   90.00000000
_symmetry_Int_Tables_number   1
_chemical_formula_structural   Er8SnPd23Pt
_chemical_formula_sum   'Er8 Sn1 Pd23 Pt1'
_cell_volume   587.65188882
_cell_formula_units_Z   1
loop_
 _symmetry_equiv_pos_site_id
 _symmetry_equiv_pos_as_xyz
  1  'x, y, z'
loop_
 _atom_site_type_symbol
 _atom_site_label
 _atom_site_symmetry_multiplicity
 _atom_site_fract_x
 _atom_site_fract_y
 _atom_site_fract_z
 _atom_site_occupancy
  Er  Er0  1  0.252920  0.253501  0.253501  1
  Er  Er1  1  0.747056  0.746962  0.746962  1
  Er  Er2  1  0.747056  0.746962  0.253038  1
  Er  Er3  1  0.747056  0.253038  0.746962  1
  Er  Er4  1  0.252920  0.253501  0.746499  1
  Er  Er5  1  0.252920  0.746499  0.253501  1
  Er  Er6  1  0.252920  0.746499  0.746499  1
  Er  Er7  1  0.747056  0.253038  0.253038  1
  Sn  Sn8  1  0.000207  0.000000  0.000000  1
  Pd  Pd9  1  0.265175  0.500000  0.000000  1
  Pd  Pd10  1  0.734874  0.500000  0.000000  1
  Pd  Pd11  1  0.999968  0.264669  0.500000  1
  Pd  Pd12  1  0.500165  0.265109  0.000000  1
  Pd  Pd13  1  0.999968  0.735331  0.500000  1
  Pd  Pd14  1  0.500165  0.734891  0.000000  1
  Pd  Pd15  1  0.500165  0.000000  0.265109  1
  Pd  Pd16  1  0.265175  0.000000  0.500000  1
  Pd  Pd17  1  0.500165  0.000000  0.734891  1
  Pd  Pd18  1  0.734874  0.000000  0.500000  1
  Pd  Pd19  1  0.999968  0.500000  0.264669  1
  Pd  Pd20  1  0.999968  0.500000  0.735331  1
  Pd  Pd21  1  0.745525  0.500000  0.500000  1
  Pd  Pd22  1  0.500038  0.254123  0.500000  1
  Pd  Pd23  1  0.500038  0.745877  0.500000  1
  Pd  Pd24  1  0.500038  0.500000  0.254123  1
  Pd  Pd25  1  0.500038  0.500000  0.745877  1
  Pd  Pd26  1  0.307522  0.000000  0.000000  1
  Pd  Pd27  1  0.692768  0.000000  0.000000  1
  Pd  Pd28  1  0.999749  0.307915  0.000000  1
  Pd  Pd29  1  0.999749  0.692085  0.000000  1
  Pd  Pd30  1  0.999749  0.000000  0.307915  1
  Pd  Pd31  1  0.999749  0.000000  0.692085  1
  Pt  Pt32  1  0.254302  0.500000  0.500000  1
