# generated using pymatgen
data_ErHfRh5Pb
_symmetry_space_group_name_H-M   'P 1'
_cell_length_a   4.19654300
_cell_length_b   5.71996154
_cell_length_c   11.35774477
_cell_angle_alpha   89.65248057
_cell_angle_beta   90.00000000
_cell_angle_gamma   90.00000000
_symmetry_Int_Tables_number   1
_chemical_formula_structural   ErHfRh5Pb
_chemical_formula_sum   'Er2 Hf2 Rh10 Pb2'
_cell_volume   272.62702368
_cell_formula_units_Z   2
loop_
 _symmetry_equiv_pos_site_id
 _symmetry_equiv_pos_as_xyz
  1  'x, y, z'
loop_
 _atom_site_type_symbol
 _atom_site_label
 _atom_site_symmetry_multiplicity
 _atom_site_fract_x
 _atom_site_fract_y
 _atom_site_fract_z
 _atom_site_occupancy
  Er  Er0  1  0.500000  0.189411  0.640780  1
  Er  Er1  1  0.500000  0.810589  0.359220  1
  Hf  Hf2  1  0.500000  0.684648  0.858861  1
  Hf  Hf3  1  0.500000  0.315352  0.141139  1
  Rh  Rh4  1  0.500000  0.215801  0.888306  1
  Rh  Rh5  1  0.500000  0.784199  0.111694  1
  Rh  Rh6  1  0.500000  0.706928  0.625005  1
  Rh  Rh7  1  0.500000  0.293072  0.374995  1
  Rh  Rh8  1  0.000000  0.451420  0.758278  1
  Rh  Rh9  1  0.000000  0.548580  0.241722  1
  Rh  Rh10  1  0.000000  0.000000  0.500000  1
  Rh  Rh11  1  0.000000  0.500000  0.000000  1
  Rh  Rh12  1  0.000000  0.060953  0.245748  1
  Rh  Rh13  1  0.000000  0.939047  0.754252  1
  Pb  Pb14  1  0.000000  0.500000  0.500000  1
  Pb  Pb15  1  0.000000  0.000000  0.000000  1
