# generated using pymatgen
data_Ac6La3NdSn6
_symmetry_space_group_name_H-M   'P 1'
_cell_length_a   9.80976200
_cell_length_b   9.80976055
_cell_length_c   7.04366500
_cell_angle_alpha   90.00000000
_cell_angle_beta   90.00000000
_cell_angle_gamma   119.99999815
_symmetry_Int_Tables_number   1
_chemical_formula_structural   Ac6La3NdSn6
_chemical_formula_sum   'Ac6 La3 Nd1 Sn6'
_cell_volume   587.01095984
_cell_formula_units_Z   1
loop_
 _symmetry_equiv_pos_site_id
 _symmetry_equiv_pos_as_xyz
  1  'x, y, z'
loop_
 _atom_site_type_symbol
 _atom_site_label
 _atom_site_symmetry_multiplicity
 _atom_site_fract_x
 _atom_site_fract_y
 _atom_site_fract_z
 _atom_site_occupancy
  Ac  Ac0  1  0.751714  0.751488  0.750574  1
  Ac  Ac1  1  0.248512  0.000226  0.750574  1
  Ac  Ac2  1  0.999774  0.248286  0.750574  1
  Ac  Ac3  1  0.248512  0.248286  0.249426  1
  Ac  Ac4  1  0.751714  0.000226  0.249426  1
  Ac  Ac5  1  0.999774  0.751488  0.249426  1
  La  La6  1  0.333333  0.666667  0.000000  1
  La  La7  1  0.333333  0.666667  0.500000  1
  La  La8  1  0.666667  0.333333  0.500000  1
  Nd  Nd9  1  0.666667  0.333333  0.000000  1
  Sn  Sn10  1  0.396829  0.395526  0.751488  1
  Sn  Sn11  1  0.604474  0.001304  0.751488  1
  Sn  Sn12  1  0.998696  0.603171  0.751488  1
  Sn  Sn13  1  0.604474  0.603171  0.248512  1
  Sn  Sn14  1  0.396829  0.001304  0.248512  1
  Sn  Sn15  1  0.998696  0.395526  0.248512  1
