# generated using pymatgen
data_Ho4Tm4B24Ir3Rh
_symmetry_space_group_name_H-M   'P 1'
_cell_length_a   3.61790800
_cell_length_b   9.12851194
_cell_length_c   11.46922609
_cell_angle_alpha   90.03025544
_cell_angle_beta   90.00000000
_cell_angle_gamma   90.00000000
_symmetry_Int_Tables_number   1
_chemical_formula_structural   Ho4Tm4B24Ir3Rh
_chemical_formula_sum   'Ho4 Tm4 B24 Ir3 Rh1'
_cell_volume   378.78394251
_cell_formula_units_Z   1
loop_
 _symmetry_equiv_pos_site_id
 _symmetry_equiv_pos_as_xyz
  1  'x, y, z'
loop_
 _atom_site_type_symbol
 _atom_site_label
 _atom_site_symmetry_multiplicity
 _atom_site_fract_x
 _atom_site_fract_y
 _atom_site_fract_z
 _atom_site_occupancy
  Ho  Ho0  1  0.500000  0.322440  0.412849  1
  Ho  Ho1  1  0.500000  0.677732  0.586153  1
  Ho  Ho2  1  0.500000  0.178482  0.913373  1
  Ho  Ho3  1  0.500000  0.821525  0.087566  1
  Tm  Tm4  1  0.500000  0.445097  0.126044  1
  Tm  Tm5  1  0.500000  0.555635  0.874915  1
  Tm  Tm6  1  0.500000  0.055363  0.624908  1
  Tm  Tm7  1  0.500000  0.943485  0.374270  1
  B  B8  1  0.000000  0.109312  0.469846  1
  B  B9  1  0.000000  0.890273  0.529765  1
  B  B10  1  0.000000  0.390926  0.970328  1
  B  B11  1  0.000000  0.609508  0.030010  1
  B  B12  1  0.000000  0.131961  0.315656  1
  B  B13  1  0.000000  0.867867  0.683814  1
  B  B14  1  0.000000  0.368139  0.816247  1
  B  B15  1  0.000000  0.632361  0.184153  1
  B  B16  1  0.000000  0.053456  0.066410  1
  B  B17  1  0.000000  0.946769  0.933678  1
  B  B18  1  0.000000  0.446548  0.566259  1
  B  B19  1  0.000000  0.553072  0.433802  1
  B  B20  1  0.000000  0.482025  0.287123  1
  B  B21  1  0.000000  0.517811  0.713441  1
  B  B22  1  0.000000  0.018086  0.786675  1
  B  B23  1  0.000000  0.981864  0.213235  1
  B  B24  1  0.000000  0.250535  0.079592  1
  B  B25  1  0.000000  0.749900  0.920596  1
  B  B26  1  0.000000  0.250105  0.579152  1
  B  B27  1  0.000000  0.749607  0.420380  1
  B  B28  1  0.000000  0.294060  0.234509  1
  B  B29  1  0.000000  0.706196  0.765475  1
  B  B30  1  0.000000  0.206095  0.734399  1
  B  B31  1  0.000000  0.793993  0.265079  1
  Ir  Ir32  1  0.500000  0.138920  0.178583  1
  Ir  Ir33  1  0.500000  0.861529  0.821058  1
  Ir  Ir34  1  0.500000  0.360401  0.679883  1
  Rh  Rh35  1  0.500000  0.638925  0.320771  1
