# generated using pymatgen
data_Hf6CoP5Ru6
_symmetry_space_group_name_H-M   'P 1'
_cell_length_a   7.48934318
_cell_length_b   7.48475810
_cell_length_c   7.48934380
_cell_angle_alpha   128.61325759
_cell_angle_beta   119.92788730
_cell_angle_gamma   82.95418068
_symmetry_Int_Tables_number   1
_chemical_formula_structural   Hf6CoP5Ru6
_chemical_formula_sum   'Hf6 Co1 P5 Ru6'
_cell_volume   273.03730648
_cell_formula_units_Z   1
loop_
 _symmetry_equiv_pos_site_id
 _symmetry_equiv_pos_as_xyz
  1  'x, y, z'
loop_
 _atom_site_type_symbol
 _atom_site_label
 _atom_site_symmetry_multiplicity
 _atom_site_fract_x
 _atom_site_fract_y
 _atom_site_fract_z
 _atom_site_occupancy
  Hf  Hf0  1  0.439355  0.635302  0.695948  1
  Hf  Hf1  1  0.533352  0.250576  0.217224  1
  Hf  Hf2  1  0.749992  0.840963  0.590972  1
  Hf  Hf3  1  0.250050  0.855870  0.105818  1
  Hf  Hf4  1  0.060585  0.257005  0.696420  1
  Hf  Hf5  1  0.966583  0.683852  0.217268  1
  Co  Co6  1  0.249897  0.239237  0.489342  1
  P  P7  1  0.750080  0.271608  0.021527  1
  P  P8  1  0.334611  0.585943  0.253221  1
  P  P9  1  0.667347  0.918505  0.252992  1
  P  P10  1  0.165513  0.918505  0.751157  1
  P  P11  1  0.832723  0.585943  0.751332  1
  Ru  Ru12  1  0.508244  0.498510  0.006786  1
  Ru  Ru13  1  0.991723  0.498510  0.490266  1
  Ru  Ru14  1  0.099800  0.253058  0.106452  1
  Ru  Ru15  1  0.853405  0.006578  0.106444  1
  Ru  Ru16  1  0.400134  0.006578  0.653173  1
  Ru  Ru17  1  0.646606  0.253058  0.653258  1
