# generated using pymatgen
data_Sm5Pt19
_symmetry_space_group_name_H-M   'P 1'
_cell_length_a   5.42807162
_cell_length_b   5.42807256
_cell_length_c   18.06665449
_cell_angle_alpha   81.36012415
_cell_angle_beta   81.36012264
_cell_angle_gamma   60.00001202
_symmetry_Int_Tables_number   1
_chemical_formula_structural   Sm5Pt19
_chemical_formula_sum   'Sm5 Pt19'
_cell_volume   454.01006193
_cell_formula_units_Z   1
loop_
 _symmetry_equiv_pos_site_id
 _symmetry_equiv_pos_as_xyz
  1  'x, y, z'
loop_
 _atom_site_type_symbol
 _atom_site_label
 _atom_site_symmetry_multiplicity
 _atom_site_fract_x
 _atom_site_fract_y
 _atom_site_fract_z
 _atom_site_occupancy
  Sm  Sm0  1  0.000000  0.000000  0.000000  1
  Sm  Sm1  1  0.077129  0.077129  0.768612  1
  Sm  Sm2  1  0.922871  0.922871  0.231388  1
  Sm  Sm3  1  0.152103  0.152103  0.543691  1
  Sm  Sm4  1  0.847897  0.847897  0.456309  1
  Pt  Pt5  1  0.500000  0.500000  0.500000  1
  Pt  Pt6  1  0.249776  0.249776  0.250671  1
  Pt  Pt7  1  0.750224  0.750224  0.749329  1
  Pt  Pt8  1  0.333234  0.333234  0.000297  1
  Pt  Pt9  1  0.666766  0.666766  0.999703  1
  Pt  Pt10  1  0.416585  0.416585  0.750245  1
  Pt  Pt11  1  0.583415  0.583415  0.249755  1
  Pt  Pt12  1  0.122056  0.627270  0.623403  1
  Pt  Pt13  1  0.627270  0.627270  0.623403  1
  Pt  Pt14  1  0.627270  0.122056  0.623403  1
  Pt  Pt15  1  0.877944  0.372730  0.376597  1
  Pt  Pt16  1  0.372730  0.372730  0.376597  1
  Pt  Pt17  1  0.372730  0.877944  0.376597  1
  Pt  Pt18  1  0.041281  0.541512  0.875695  1
  Pt  Pt19  1  0.541512  0.541512  0.875695  1
  Pt  Pt20  1  0.541512  0.041281  0.875695  1
  Pt  Pt21  1  0.958719  0.458488  0.124305  1
  Pt  Pt22  1  0.458488  0.458488  0.124305  1
  Pt  Pt23  1  0.458488  0.958719  0.124305  1
