# generated using pymatgen
data_Tb8Dy4Co4HgRh
_symmetry_space_group_name_H-M   'P 1'
_cell_length_a   8.32588893
_cell_length_b   8.32588867
_cell_length_c   8.32588900
_cell_angle_alpha   110.90714380
_cell_angle_beta   109.88474521
_cell_angle_gamma   107.63885754
_symmetry_Int_Tables_number   1
_chemical_formula_structural   Tb8Dy4Co4HgRh
_chemical_formula_sum   'Tb8 Dy4 Co4 Hg1 Rh1'
_cell_volume   443.91746565
_cell_formula_units_Z   1
loop_
 _symmetry_equiv_pos_site_id
 _symmetry_equiv_pos_as_xyz
  1  'x, y, z'
loop_
 _atom_site_type_symbol
 _atom_site_label
 _atom_site_symmetry_multiplicity
 _atom_site_fract_x
 _atom_site_fract_y
 _atom_site_fract_z
 _atom_site_occupancy
  Tb  Tb0  1  0.185431  0.292378  0.477809  1
  Tb  Tb1  1  0.814569  0.707622  0.522191  1
  Tb  Tb2  1  0.185431  0.707622  0.893053  1
  Tb  Tb3  1  0.814569  0.292378  0.106947  1
  Tb  Tb4  1  0.315455  0.619338  0.303884  1
  Tb  Tb5  1  0.684545  0.380662  0.696116  1
  Tb  Tb6  1  0.315455  0.011572  0.696116  1
  Tb  Tb7  1  0.684545  0.988428  0.303884  1
  Dy  Dy8  1  0.406057  0.211118  0.194940  1
  Dy  Dy9  1  0.593943  0.788882  0.805060  1
  Dy  Dy10  1  0.016179  0.211118  0.805060  1
  Dy  Dy11  1  0.983821  0.788882  0.194940  1
  Co  Co12  1  0.378483  0.000000  0.378483  1
  Co  Co13  1  0.621517  0.000000  0.621517  1
  Co  Co14  1  0.113073  0.613073  0.500000  1
  Co  Co15  1  0.886927  0.386927  0.500000  1
  Hg  Hg16  1  0.500000  0.500000  0.000000  1
  Rh  Rh17  1  0.000000  0.000000  0.000000  1
