# generated using pymatgen
data_Y6Er2Cd2CoIr
_symmetry_space_group_name_H-M   'P 1'
_cell_length_a   9.57865890
_cell_length_b   9.57865845
_cell_length_c   9.58223700
_cell_angle_alpha   59.98763733
_cell_angle_beta   59.98763888
_cell_angle_gamma   60.06425965
_symmetry_Int_Tables_number   1
_chemical_formula_structural   Y6Er2Cd2CoIr
_chemical_formula_sum   'Y12 Er4 Cd4 Co2 Ir2'
_cell_volume   621.85699276
_cell_formula_units_Z   2
loop_
 _symmetry_equiv_pos_site_id
 _symmetry_equiv_pos_as_xyz
  1  'x, y, z'
loop_
 _atom_site_type_symbol
 _atom_site_label
 _atom_site_symmetry_multiplicity
 _atom_site_fract_x
 _atom_site_fract_y
 _atom_site_fract_z
 _atom_site_occupancy
  Y  Y0  1  0.814611  0.189435  0.190509  1
  Y  Y1  1  0.189435  0.814611  0.805445  1
  Y  Y2  1  0.189435  0.814611  0.190509  1
  Y  Y3  1  0.814611  0.189435  0.805445  1
  Y  Y4  1  0.189385  0.189385  0.810615  1
  Y  Y5  1  0.809693  0.809693  0.190307  1
  Y  Y6  1  0.938860  0.561947  0.560414  1
  Y  Y7  1  0.561947  0.938860  0.938779  1
  Y  Y8  1  0.561947  0.938860  0.560414  1
  Y  Y9  1  0.938860  0.561947  0.938779  1
  Y  Y10  1  0.559127  0.559127  0.940873  1
  Y  Y11  1  0.936991  0.936991  0.563009  1
  Er  Er12  1  0.344735  0.344735  0.352637  1
  Er  Er13  1  0.344735  0.344735  0.957894  1
  Er  Er14  1  0.341321  0.962498  0.348091  1
  Er  Er15  1  0.962498  0.341321  0.348091  1
  Cd  Cd16  1  0.579950  0.579950  0.580180  1
  Cd  Cd17  1  0.579950  0.579950  0.259920  1
  Cd  Cd18  1  0.581205  0.258387  0.580204  1
  Cd  Cd19  1  0.258387  0.581205  0.580204  1
  Co  Co20  1  0.142535  0.142535  0.140917  1
  Co  Co21  1  0.142535  0.142535  0.574015  1
  Ir  Ir22  1  0.144247  0.573003  0.141376  1
  Ir  Ir23  1  0.573003  0.144247  0.141376  1
