# generated using pymatgen
data_Er6Sc2AgAu9
_symmetry_space_group_name_H-M   'P 1'
_cell_length_a   7.88568578
_cell_length_b   7.88568640
_cell_length_c   7.88568517
_cell_angle_alpha   66.16379205
_cell_angle_beta   66.16379041
_cell_angle_gamma   66.16377874
_symmetry_Int_Tables_number   1
_chemical_formula_structural   Er6Sc2AgAu9
_chemical_formula_sum   'Er6 Sc2 Ag1 Au9'
_cell_volume   392.91945930
_cell_formula_units_Z   1
loop_
 _symmetry_equiv_pos_site_id
 _symmetry_equiv_pos_as_xyz
  1  'x, y, z'
loop_
 _atom_site_type_symbol
 _atom_site_label
 _atom_site_symmetry_multiplicity
 _atom_site_fract_x
 _atom_site_fract_y
 _atom_site_fract_z
 _atom_site_occupancy
  Er  Er0  1  0.892518  0.188046  0.618138  1
  Er  Er1  1  0.618138  0.892518  0.188046  1
  Er  Er2  1  0.188046  0.618138  0.892518  1
  Er  Er3  1  0.107482  0.811954  0.381862  1
  Er  Er4  1  0.381862  0.107482  0.811954  1
  Er  Er5  1  0.811954  0.381862  0.107482  1
  Sc  Sc6  1  0.659567  0.659567  0.659567  1
  Sc  Sc7  1  0.340433  0.340433  0.340433  1
  Ag  Ag8  1  0.500000  0.500000  0.500000  1
  Au  Au9  1  0.000000  0.000000  0.000000  1
  Au  Au10  1  0.807352  0.807352  0.807352  1
  Au  Au11  1  0.192648  0.192648  0.192648  1
  Au  Au12  1  0.935812  0.552005  0.317926  1
  Au  Au13  1  0.317926  0.935812  0.552005  1
  Au  Au14  1  0.552005  0.317926  0.935812  1
  Au  Au15  1  0.064188  0.447995  0.682074  1
  Au  Au16  1  0.682074  0.064188  0.447995  1
  Au  Au17  1  0.447995  0.682074  0.064188  1
