# generated using pymatgen
data_Ho4In2Ga3Si
_symmetry_space_group_name_H-M   'P 1'
_cell_length_a   7.19406429
_cell_length_b   7.19406429
_cell_length_c   4.35490100
_cell_angle_alpha   90.00000000
_cell_angle_beta   90.00000000
_cell_angle_gamma   90.63165286
_symmetry_Int_Tables_number   1
_chemical_formula_structural   Ho4In2Ga3Si
_chemical_formula_sum   'Ho4 In2 Ga3 Si1'
_cell_volume   225.37229339
_cell_formula_units_Z   1
loop_
 _symmetry_equiv_pos_site_id
 _symmetry_equiv_pos_as_xyz
  1  'x, y, z'
loop_
 _atom_site_type_symbol
 _atom_site_label
 _atom_site_symmetry_multiplicity
 _atom_site_fract_x
 _atom_site_fract_y
 _atom_site_fract_z
 _atom_site_occupancy
  Ho  Ho0  1  0.325305  0.825305  0.500000  1
  Ho  Ho1  1  0.829054  0.672865  0.500000  1
  Ho  Ho2  1  0.172865  0.329054  0.500000  1
  Ho  Ho3  1  0.672557  0.172557  0.500000  1
  In  In4  1  0.000180  0.999940  0.000000  1
  In  In5  1  0.499940  0.500180  0.000000  1
  Ga  Ga6  1  0.624736  0.875783  0.000000  1
  Ga  Ga7  1  0.375783  0.124736  0.000000  1
  Ga  Ga8  1  0.877594  0.377594  0.000000  1
  Si  Si9  1  0.121985  0.621985  0.000000  1
