# generated using pymatgen
data_LiYbNb(SbPt)3
_symmetry_space_group_name_H-M   'P 1'
_cell_length_a   7.82747128
_cell_length_b   7.81634858
_cell_length_c   7.85035560
_cell_angle_alpha   119.93680682
_cell_angle_beta   99.62268580
_cell_angle_gamma   99.77211329
_symmetry_Int_Tables_number   1
_chemical_formula_structural   LiYbNb(SbPt)3
_chemical_formula_sum   'Li2 Yb2 Nb2 Sb6 Pt6'
_cell_volume   391.93570356
_cell_formula_units_Z   2
loop_
 _symmetry_equiv_pos_site_id
 _symmetry_equiv_pos_as_xyz
  1  'x, y, z'
loop_
 _atom_site_type_symbol
 _atom_site_label
 _atom_site_symmetry_multiplicity
 _atom_site_fract_x
 _atom_site_fract_y
 _atom_site_fract_z
 _atom_site_occupancy
  Li  Li0  1  0.000605  0.502493  0.996424  1
  Li  Li1  1  0.499975  0.330826  0.167273  1
  Yb  Yb2  1  0.999209  0.163344  0.332922  1
  Yb  Yb3  1  0.498915  0.001703  0.501505  1
  Nb  Nb4  1  0.999970  0.830695  0.667763  1
  Nb  Nb5  1  0.500689  0.669751  0.831231  1
  Sb  Sb6  1  0.243940  0.914604  0.089084  1
  Sb  Sb7  1  0.746585  0.739126  0.253732  1
  Sb  Sb8  1  0.258415  0.569033  0.398987  1
  Sb  Sb9  1  0.756098  0.413629  0.581963  1
  Sb  Sb10  1  0.249996  0.264674  0.763671  1
  Sb  Sb11  1  0.748582  0.106384  0.923755  1
  Pt  Pt12  1  0.118806  0.188333  0.019756  1
  Pt  Pt13  1  0.615424  0.021904  0.182469  1
  Pt  Pt14  1  0.114777  0.862724  0.388571  1
  Pt  Pt15  1  0.638186  0.712255  0.563357  1
  Pt  Pt16  1  0.139491  0.563201  0.711253  1
  Pt  Pt17  1  0.620422  0.395294  0.876259  1
