# generated using pymatgen
data_Rb8Tb2Ho4BBr20
_symmetry_space_group_name_H-M   'P 1'
_cell_length_a   12.27096935
_cell_length_b   12.27913950
_cell_length_c   12.27913872
_cell_angle_alpha   59.95598731
_cell_angle_beta   60.02200382
_cell_angle_gamma   60.02200400
_symmetry_Int_Tables_number   1
_chemical_formula_structural   Rb8Tb2Ho4BBr20
_chemical_formula_sum   'Rb8 Tb2 Ho4 B1 Br20'
_cell_volume   1308.27581216
_cell_formula_units_Z   1
loop_
 _symmetry_equiv_pos_site_id
 _symmetry_equiv_pos_as_xyz
  1  'x, y, z'
loop_
 _atom_site_type_symbol
 _atom_site_label
 _atom_site_symmetry_multiplicity
 _atom_site_fract_x
 _atom_site_fract_y
 _atom_site_fract_z
 _atom_site_occupancy
  Rb  Rb0  1  0.359784  0.359502  0.359502  1
  Rb  Rb1  1  0.640216  0.640498  0.640498  1
  Rb  Rb2  1  0.359502  0.359784  0.921211  1
  Rb  Rb3  1  0.359502  0.921211  0.359784  1
  Rb  Rb4  1  0.640498  0.640216  0.078789  1
  Rb  Rb5  1  0.640498  0.078789  0.640216  1
  Rb  Rb6  1  0.921211  0.359502  0.359502  1
  Rb  Rb7  1  0.078789  0.640498  0.640498  1
  Tb  Tb8  1  0.849004  0.150996  0.150996  1
  Tb  Tb9  1  0.150996  0.849004  0.849004  1
  Ho  Ho10  1  0.150492  0.849508  0.150492  1
  Ho  Ho11  1  0.849508  0.150492  0.849508  1
  Ho  Ho12  1  0.150492  0.150492  0.849508  1
  Ho  Ho13  1  0.849508  0.849508  0.150492  1
  B  B14  1  0.000000  0.000000  0.000000  1
  Br  Br15  1  0.327843  0.000000  0.000000  1
  Br  Br16  1  0.672157  0.000000  0.000000  1
  Br  Br17  1  0.000000  0.327843  0.672157  1
  Br  Br18  1  0.000000  0.672157  0.327843  1
  Br  Br19  1  0.001457  0.329213  0.998543  1
  Br  Br20  1  0.670787  0.998543  0.329213  1
  Br  Br21  1  0.998543  0.670787  0.001457  1
  Br  Br22  1  0.329213  0.001457  0.670787  1
  Br  Br23  1  0.001457  0.998543  0.329213  1
  Br  Br24  1  0.998543  0.001457  0.670787  1
  Br  Br25  1  0.670787  0.329213  0.998543  1
  Br  Br26  1  0.329213  0.670787  0.001457  1
  Br  Br27  1  0.680914  0.319086  0.319086  1
  Br  Br28  1  0.319086  0.680914  0.680914  1
  Br  Br29  1  0.317187  0.682813  0.317187  1
  Br  Br30  1  0.682813  0.317187  0.682813  1
  Br  Br31  1  0.317187  0.317187  0.682813  1
  Br  Br32  1  0.682813  0.682813  0.317187  1
  Br  Br33  1  0.250000  0.250000  0.250000  1
  Br  Br34  1  0.750000  0.750000  0.750000  1
