# generated using pymatgen
data_Ho12TlCo6
_symmetry_space_group_name_H-M   'P 1'
_cell_length_a   8.31448313
_cell_length_b   8.31448300
_cell_length_c   8.31448300
_cell_angle_alpha   109.47121821
_cell_angle_beta   109.47121789
_cell_angle_gamma   109.47122370
_symmetry_Int_Tables_number   1
_chemical_formula_structural   Ho12TlCo6
_chemical_formula_sum   'Ho12 Tl1 Co6'
_cell_volume   442.47004647
_cell_formula_units_Z   1
loop_
 _symmetry_equiv_pos_site_id
 _symmetry_equiv_pos_as_xyz
  1  'x, y, z'
loop_
 _atom_site_type_symbol
 _atom_site_label
 _atom_site_symmetry_multiplicity
 _atom_site_fract_x
 _atom_site_fract_y
 _atom_site_fract_z
 _atom_site_occupancy
  Ho  Ho0  1  0.697443  0.193541  0.890984  1
  Ho  Ho1  1  0.806459  0.503902  0.697443  1
  Ho  Ho2  1  0.496098  0.302557  0.193541  1
  Ho  Ho3  1  0.806459  0.109016  0.302557  1
  Ho  Ho4  1  0.503902  0.697443  0.806459  1
  Ho  Ho5  1  0.193541  0.496098  0.302557  1
  Ho  Ho6  1  0.109016  0.302557  0.806459  1
  Ho  Ho7  1  0.890984  0.697443  0.193541  1
  Ho  Ho8  1  0.193541  0.890984  0.697443  1
  Ho  Ho9  1  0.697443  0.806459  0.503902  1
  Ho  Ho10  1  0.302557  0.193541  0.496098  1
  Ho  Ho11  1  0.302557  0.806459  0.109016  1
  Tl  Tl12  1  0.000000  0.000000  0.000000  1
  Co  Co13  1  0.613371  0.113371  0.500000  1
  Co  Co14  1  0.886629  0.500000  0.386629  1
  Co  Co15  1  0.500000  0.386629  0.886629  1
  Co  Co16  1  0.113371  0.500000  0.613371  1
  Co  Co17  1  0.500000  0.613371  0.113371  1
  Co  Co18  1  0.386629  0.886629  0.500000  1
