# generated using pymatgen
data_Y5Co7(PRu)12
_symmetry_space_group_name_H-M   'P 1'
_cell_length_a   12.41164200
_cell_length_b   12.41164176
_cell_length_c   3.84861600
_cell_angle_alpha   90.00000000
_cell_angle_beta   90.00000000
_cell_angle_gamma   119.99999602
_symmetry_Int_Tables_number   1
_chemical_formula_structural   Y5Co7(PRu)12
_chemical_formula_sum   'Y5 Co7 P12 Ru12'
_cell_volume   513.44473227
_cell_formula_units_Z   1
loop_
 _symmetry_equiv_pos_site_id
 _symmetry_equiv_pos_as_xyz
  1  'x, y, z'
loop_
 _atom_site_type_symbol
 _atom_site_label
 _atom_site_symmetry_multiplicity
 _atom_site_fract_x
 _atom_site_fract_y
 _atom_site_fract_z
 _atom_site_occupancy
  Y  Y0  1  0.333333  0.666667  0.500000  1
  Y  Y1  1  0.666667  0.333333  0.500000  1
  Y  Y2  1  0.001715  0.184084  0.000000  1
  Y  Y3  1  0.815916  0.817631  0.000000  1
  Y  Y4  1  0.182369  0.998285  0.000000  1
  Co  Co5  1  0.492208  0.131222  0.000000  1
  Co  Co6  1  0.639015  0.507792  0.000000  1
  Co  Co7  1  0.868778  0.360985  0.000000  1
  Co  Co8  1  0.994579  0.713893  0.000000  1
  Co  Co9  1  0.286107  0.280686  0.000000  1
  Co  Co10  1  0.719314  0.005421  0.000000  1
  Co  Co11  1  0.000000  0.000000  0.500000  1
  P  P12  1  0.001986  0.367993  0.500000  1
  P  P13  1  0.632007  0.633993  0.500000  1
  P  P14  1  0.366007  0.998014  0.500000  1
  P  P15  1  0.524944  0.837392  0.000000  1
  P  P16  1  0.162608  0.687552  0.000000  1
  P  P17  1  0.312448  0.475056  0.000000  1
  P  P18  1  0.480178  0.312670  0.000000  1
  P  P19  1  0.832492  0.519822  0.000000  1
  P  P20  1  0.687330  0.167508  0.000000  1
  P  P21  1  0.995840  0.819205  0.500000  1
  P  P22  1  0.180795  0.176635  0.500000  1
  P  P23  1  0.823365  0.004160  0.500000  1
  Ru  Ru24  1  0.626047  0.827214  0.500000  1
  Ru  Ru25  1  0.172786  0.798832  0.500000  1
  Ru  Ru26  1  0.201168  0.373953  0.500000  1
  Ru  Ru27  1  0.377548  0.191889  0.500000  1
  Ru  Ru28  1  0.814341  0.622452  0.500000  1
  Ru  Ru29  1  0.808111  0.185659  0.500000  1
  Ru  Ru30  1  0.987594  0.545832  0.500000  1
  Ru  Ru31  1  0.454168  0.441762  0.500000  1
  Ru  Ru32  1  0.558238  0.012406  0.500000  1
  Ru  Ru33  1  0.516218  0.636729  0.000000  1
  Ru  Ru34  1  0.363271  0.879489  0.000000  1
  Ru  Ru35  1  0.120511  0.483782  0.000000  1
