# generated using pymatgen
data_Pr14Er6In9Bi7
_symmetry_space_group_name_H-M   'P 1'
_cell_length_a   8.41966602
_cell_length_b   8.48400498
_cell_length_c   16.10797700
_cell_angle_alpha   90.11056654
_cell_angle_beta   90.00400814
_cell_angle_gamma   90.01178368
_symmetry_Int_Tables_number   1
_chemical_formula_structural   Pr14Er6In9Bi7
_chemical_formula_sum   'Pr14 Er6 In9 Bi7'
_cell_volume   1150.63071090
_cell_formula_units_Z   1
loop_
 _symmetry_equiv_pos_site_id
 _symmetry_equiv_pos_as_xyz
  1  'x, y, z'
loop_
 _atom_site_type_symbol
 _atom_site_label
 _atom_site_symmetry_multiplicity
 _atom_site_fract_x
 _atom_site_fract_y
 _atom_site_fract_z
 _atom_site_occupancy
  Pr  Pr0  1  0.374183  0.838995  0.118441  1
  Pr  Pr1  1  0.877167  0.658247  0.380886  1
  Pr  Pr2  1  0.375577  0.836015  0.379142  1
  Pr  Pr3  1  0.876666  0.661903  0.122086  1
  Pr  Pr4  1  0.622838  0.160799  0.877302  1
  Pr  Pr5  1  0.124743  0.342889  0.621215  1
  Pr  Pr6  1  0.464065  0.677675  0.602738  1
  Pr  Pr7  1  0.966673  0.820649  0.895729  1
  Pr  Pr8  1  0.532960  0.320878  0.102310  1
  Pr  Pr9  1  0.033970  0.181696  0.397257  1
  Pr  Pr10  1  0.523510  0.317428  0.402065  1
  Pr  Pr11  1  0.031492  0.181201  0.101278  1
  Pr  Pr12  1  0.468185  0.676502  0.895174  1
  Pr  Pr13  1  0.970476  0.822203  0.604262  1
  Er  Er14  1  0.628304  0.156840  0.627231  1
  Er  Er15  1  0.128397  0.342991  0.872457  1
  Er  Er16  1  0.791930  0.496660  0.750228  1
  Er  Er17  1  0.293162  0.003215  0.748116  1
  Er  Er18  1  0.207377  0.502325  0.251263  1
  Er  Er19  1  0.706289  0.999642  0.253771  1
  In  In20  1  0.215610  0.529338  0.453715  1
  In  In21  1  0.426879  0.380252  0.749935  1
  In  In22  1  0.926704  0.119839  0.749385  1
  In  In23  1  0.573637  0.614792  0.249994  1
  In  In24  1  0.074674  0.886010  0.249509  1
  In  In25  1  0.666804  0.857986  0.748715  1
  In  In26  1  0.166663  0.641123  0.751649  1
  In  In27  1  0.331334  0.140641  0.248641  1
  In  In28  1  0.829054  0.357915  0.249762  1
  Bi  Bi29  1  0.719063  0.975345  0.459026  1
  Bi  Bi30  1  0.217428  0.523499  0.041832  1
  Bi  Bi31  1  0.275309  0.036624  0.951079  1
  Bi  Bi32  1  0.779020  0.462566  0.547627  1
  Bi  Bi33  1  0.291386  0.034687  0.546850  1
  Bi  Bi34  1  0.791532  0.468343  0.952442  1
  Bi  Bi35  1  0.716934  0.972288  0.046884  1
