# generated using pymatgen
data_TbCo(NiP)2
_symmetry_space_group_name_H-M   'P 1'
_cell_length_a   3.76653800
_cell_length_b   10.47386400
_cell_length_c   12.29479700
_cell_angle_alpha   90.00000000
_cell_angle_beta   90.00000000
_cell_angle_gamma   90.00000000
_symmetry_Int_Tables_number   1
_chemical_formula_structural   TbCo(NiP)2
_chemical_formula_sum   'Tb6 Co6 Ni12 P12'
_cell_volume   485.03228376
_cell_formula_units_Z   6
loop_
 _symmetry_equiv_pos_site_id
 _symmetry_equiv_pos_as_xyz
  1  'x, y, z'
loop_
 _atom_site_type_symbol
 _atom_site_label
 _atom_site_symmetry_multiplicity
 _atom_site_fract_x
 _atom_site_fract_y
 _atom_site_fract_z
 _atom_site_occupancy
  Tb  Tb0  1  0.000000  0.500000  0.519292  1
  Tb  Tb1  1  0.500000  0.000000  0.480708  1
  Tb  Tb2  1  0.500000  0.814476  0.205973  1
  Tb  Tb3  1  0.500000  0.185524  0.205973  1
  Tb  Tb4  1  0.000000  0.685524  0.794027  1
  Tb  Tb5  1  0.000000  0.314476  0.794027  1
  Co  Co6  1  0.000000  0.500000  0.983254  1
  Co  Co7  1  0.500000  0.000000  0.016746  1
  Co  Co8  1  0.500000  0.334413  0.994895  1
  Co  Co9  1  0.500000  0.665587  0.994895  1
  Co  Co10  1  0.000000  0.165587  0.005105  1
  Co  Co11  1  0.000000  0.834413  0.005105  1
  Ni  Ni12  1  0.500000  0.300369  0.429216  1
  Ni  Ni13  1  0.500000  0.699631  0.429216  1
  Ni  Ni14  1  0.000000  0.199631  0.570784  1
  Ni  Ni15  1  0.000000  0.800369  0.570784  1
  Ni  Ni16  1  0.500000  0.879647  0.713823  1
  Ni  Ni17  1  0.500000  0.120353  0.713823  1
  Ni  Ni18  1  0.000000  0.620353  0.286177  1
  Ni  Ni19  1  0.000000  0.379647  0.286177  1
  Ni  Ni20  1  0.500000  0.500000  0.156907  1
  Ni  Ni21  1  0.000000  0.000000  0.843093  1
  Ni  Ni22  1  0.500000  0.500000  0.702853  1
  Ni  Ni23  1  0.000000  0.000000  0.297147  1
  P  P24  1  0.500000  0.312604  0.615696  1
  P  P25  1  0.500000  0.687396  0.615696  1
  P  P26  1  0.000000  0.187396  0.384304  1
  P  P27  1  0.000000  0.812604  0.384304  1
  P  P28  1  0.500000  0.500000  0.881162  1
  P  P29  1  0.000000  0.000000  0.118838  1
  P  P30  1  0.500000  0.846364  0.898156  1
  P  P31  1  0.500000  0.153636  0.898156  1
  P  P32  1  0.000000  0.653636  0.101844  1
  P  P33  1  0.000000  0.346364  0.101844  1
  P  P34  1  0.500000  0.500000  0.341714  1
  P  P35  1  0.000000  0.000000  0.658286  1
