# generated using pymatgen
data_Sm4Tm4Sc12Si15Hg
_symmetry_space_group_name_H-M   'P 1'
_cell_length_a   7.14663004
_cell_length_b   7.40628962
_cell_length_c   14.11617269
_cell_angle_alpha   89.99900768
_cell_angle_beta   89.65241738
_cell_angle_gamma   90.26077037
_symmetry_Int_Tables_number   1
_chemical_formula_structural   Sm4Tm4Sc12Si15Hg
_chemical_formula_sum   'Sm4 Tm4 Sc12 Si15 Hg1'
_cell_volume   747.14770087
_cell_formula_units_Z   1
loop_
 _symmetry_equiv_pos_site_id
 _symmetry_equiv_pos_as_xyz
  1  'x, y, z'
loop_
 _atom_site_type_symbol
 _atom_site_label
 _atom_site_symmetry_multiplicity
 _atom_site_fract_x
 _atom_site_fract_y
 _atom_site_fract_z
 _atom_site_occupancy
  Sm  Sm0  1  0.011602  0.174848  0.097918  1
  Sm  Sm1  1  0.987630  0.826921  0.904553  1
  Sm  Sm2  1  0.488911  0.674538  0.905798  1
  Sm  Sm3  1  0.988848  0.831695  0.596076  1
  Tm  Tm4  1  0.511468  0.322943  0.098508  1
  Tm  Tm5  1  0.007688  0.172794  0.396605  1
  Tm  Tm6  1  0.511180  0.321744  0.399048  1
  Tm  Tm7  1  0.496640  0.681997  0.599458  1
  Sc  Sc8  1  0.162953  0.501042  0.753427  1
  Sc  Sc9  1  0.836720  0.497845  0.250679  1
  Sc  Sc10  1  0.337733  0.001413  0.249413  1
  Sc  Sc11  1  0.664862  0.997847  0.751245  1
  Sc  Sc12  1  0.342774  0.168764  0.628346  1
  Sc  Sc13  1  0.664011  0.823857  0.372651  1
  Sc  Sc14  1  0.168007  0.676800  0.370604  1
  Sc  Sc15  1  0.668714  0.823841  0.125928  1
  Sc  Sc16  1  0.825042  0.325328  0.624765  1
  Sc  Sc17  1  0.330466  0.175842  0.875835  1
  Sc  Sc18  1  0.828722  0.324088  0.876066  1
  Sc  Sc19  1  0.170019  0.674848  0.126033  1
  Si  Si20  1  0.036092  0.123920  0.750883  1
  Si  Si21  1  0.964581  0.882491  0.249566  1
  Si  Si22  1  0.466786  0.613360  0.248644  1
  Si  Si23  1  0.534250  0.384841  0.750868  1
  Si  Si24  1  0.287425  0.873942  0.749964  1
  Si  Si25  1  0.710353  0.128525  0.249788  1
  Si  Si26  1  0.215188  0.371218  0.249671  1
  Si  Si27  1  0.787254  0.625363  0.750562  1
  Si  Si28  1  0.831174  0.534952  0.457672  1
  Si  Si29  1  0.340004  0.964123  0.458851  1
  Si  Si30  1  0.841504  0.534657  0.040245  1
  Si  Si31  1  0.655870  0.038340  0.535938  1
  Si  Si32  1  0.154024  0.462968  0.962757  1
  Si  Si33  1  0.653841  0.039588  0.962706  1
  Si  Si34  1  0.346206  0.966535  0.040990  1
  Hg  Hg35  1  0.171457  0.456181  0.537942  1
