# generated using pymatgen
data_PrYCd(Si3Pd10)2
_symmetry_space_group_name_H-M   'P 1'
_cell_length_a   8.71921055
_cell_length_b   8.71921066
_cell_length_c   8.71921200
_cell_angle_alpha   60.00000249
_cell_angle_beta   60.00000210
_cell_angle_gamma   60.00000398
_symmetry_Int_Tables_number   1
_chemical_formula_structural   PrYCd(Si3Pd10)2
_chemical_formula_sum   'Pr1 Y1 Cd1 Si6 Pd20'
_cell_volume   468.72336536
_cell_formula_units_Z   1
loop_
 _symmetry_equiv_pos_site_id
 _symmetry_equiv_pos_as_xyz
  1  'x, y, z'
loop_
 _atom_site_type_symbol
 _atom_site_label
 _atom_site_symmetry_multiplicity
 _atom_site_fract_x
 _atom_site_fract_y
 _atom_site_fract_z
 _atom_site_occupancy
  Pr  Pr0  1  0.750000  0.750000  0.750000  1
  Y  Y1  1  0.250000  0.250000  0.250000  1
  Cd  Cd2  1  0.000000  0.000000  0.000000  1
  Si  Si3  1  0.733080  0.266920  0.266920  1
  Si  Si4  1  0.266920  0.733080  0.733080  1
  Si  Si5  1  0.266920  0.733080  0.266920  1
  Si  Si6  1  0.733080  0.266920  0.733080  1
  Si  Si7  1  0.266920  0.266920  0.733080  1
  Si  Si8  1  0.733080  0.733080  0.266920  1
  Pd  Pd9  1  0.383496  0.383496  0.383496  1
  Pd  Pd10  1  0.614208  0.614208  0.614208  1
  Pd  Pd11  1  0.383496  0.383496  0.849513  1
  Pd  Pd12  1  0.383496  0.849513  0.383496  1
  Pd  Pd13  1  0.614208  0.614208  0.157377  1
  Pd  Pd14  1  0.614208  0.157377  0.614208  1
  Pd  Pd15  1  0.849513  0.383496  0.383496  1
  Pd  Pd16  1  0.157377  0.614208  0.614208  1
  Pd  Pd17  1  0.343647  0.000895  0.000895  1
  Pd  Pd18  1  0.654563  0.000895  0.000895  1
  Pd  Pd19  1  0.000895  0.343647  0.654563  1
  Pd  Pd20  1  0.000895  0.654563  0.343647  1
  Pd  Pd21  1  0.000895  0.343647  0.000895  1
  Pd  Pd22  1  0.654563  0.000895  0.343647  1
  Pd  Pd23  1  0.000895  0.654563  0.000895  1
  Pd  Pd24  1  0.343647  0.000895  0.654563  1
  Pd  Pd25  1  0.000895  0.000895  0.343647  1
  Pd  Pd26  1  0.000895  0.000895  0.654563  1
  Pd  Pd27  1  0.654563  0.343647  0.000895  1
  Pd  Pd28  1  0.343647  0.654563  0.000895  1
