# generated using pymatgen
data_Dy16Er4Si15Se
_symmetry_space_group_name_H-M   'P 1'
_cell_length_a   7.50250521
_cell_length_b   7.63649521
_cell_length_c   14.62933300
_cell_angle_alpha   89.89093793
_cell_angle_beta   85.60224352
_cell_angle_gamma   89.95736010
_symmetry_Int_Tables_number   1
_chemical_formula_structural   Dy16Er4Si15Se
_chemical_formula_sum   'Dy16 Er4 Si15 Se1'
_cell_volume   835.68670844
_cell_formula_units_Z   1
loop_
 _symmetry_equiv_pos_site_id
 _symmetry_equiv_pos_as_xyz
  1  'x, y, z'
loop_
 _atom_site_type_symbol
 _atom_site_label
 _atom_site_symmetry_multiplicity
 _atom_site_fract_x
 _atom_site_fract_y
 _atom_site_fract_z
 _atom_site_occupancy
  Dy  Dy0  1  0.014933  0.827411  0.104552  1
  Dy  Dy1  1  0.473654  0.685185  0.397641  1
  Dy  Dy2  1  0.484017  0.317021  0.897094  1
  Dy  Dy3  1  0.026446  0.185273  0.602672  1
  Dy  Dy4  1  0.992605  0.175016  0.897605  1
  Dy  Dy5  1  0.525774  0.314443  0.601892  1
  Dy  Dy6  1  0.504972  0.683812  0.103949  1
  Dy  Dy7  1  0.973286  0.813349  0.397669  1
  Dy  Dy8  1  0.636331  0.839788  0.880469  1
  Dy  Dy9  1  0.174381  0.676674  0.622690  1
  Dy  Dy10  1  0.863119  0.333944  0.118838  1
  Dy  Dy11  1  0.325418  0.176468  0.377977  1
  Dy  Dy12  1  0.361631  0.164271  0.119156  1
  Dy  Dy13  1  0.825823  0.322963  0.377877  1
  Dy  Dy14  1  0.141480  0.666485  0.882064  1
  Dy  Dy15  1  0.674901  0.823232  0.622502  1
  Er  Er16  1  0.673188  0.994634  0.246136  1
  Er  Er17  1  0.171789  0.504475  0.245854  1
  Er  Er18  1  0.828947  0.494897  0.748513  1
  Er  Er19  1  0.326566  0.005750  0.753176  1
  Si  Si20  1  0.787568  0.628946  0.251031  1
  Si  Si21  1  0.287852  0.869949  0.252102  1
  Si  Si22  1  0.710873  0.131439  0.749219  1
  Si  Si23  1  0.210518  0.370394  0.749504  1
  Si  Si24  1  0.045765  0.109535  0.251891  1
  Si  Si25  1  0.546385  0.391124  0.250349  1
  Si  Si26  1  0.455196  0.609043  0.750799  1
  Si  Si27  1  0.953987  0.890079  0.750183  1
  Si  Si28  1  0.356522  0.971752  0.542650  1
  Si  Si29  1  0.712872  0.030577  0.042936  1
  Si  Si30  1  0.144993  0.471507  0.458168  1
  Si  Si31  1  0.214078  0.469740  0.043735  1
  Si  Si32  1  0.644505  0.027136  0.457395  1
  Si  Si33  1  0.291303  0.969376  0.955600  1
  Si  Si34  1  0.856069  0.526600  0.542897  1
  Se  Se35  1  0.782252  0.527716  0.953219  1
