# generated using pymatgen
data_EuGd2O7
_symmetry_space_group_name_H-M   'P 1'
_cell_length_a   3.57534841
_cell_length_b   3.46200012
_cell_length_c   13.52507098
_cell_angle_alpha   85.36033736
_cell_angle_beta   72.47956141
_cell_angle_gamma   60.98972619
_symmetry_Int_Tables_number   1
_chemical_formula_structural   EuGd2O7
_chemical_formula_sum   'Eu1 Gd2 O7'
_cell_volume   139.18874845
_cell_formula_units_Z   1
loop_
 _symmetry_equiv_pos_site_id
 _symmetry_equiv_pos_as_xyz
  1  'x, y, z'
loop_
 _atom_site_type_symbol
 _atom_site_label
 _atom_site_symmetry_multiplicity
 _atom_site_fract_x
 _atom_site_fract_y
 _atom_site_fract_z
 _atom_site_occupancy
  Eu  Eu0  1  0.312382  0.992648  0.992060  1
  Gd  Gd1  1  0.563069  0.790310  0.288573  1
  Gd  Gd2  1  0.850865  0.565810  0.574881  1
  O  O3  1  0.796483  0.293084  0.739066  1
  O  O4  1  0.545560  0.225606  0.556073  1
  O  O5  1  0.571292  0.346802  0.044698  1
  O  O6  1  0.050842  0.639695  0.941738  1
  O  O7  1  0.797760  0.729078  0.741478  1
  O  O8  1  0.148464  0.478008  0.351243  1
  O  O9  1  0.954667  0.105845  0.234813  1
