# generated using pymatgen
data_Tb8Ta2Ti10Si15P
_symmetry_space_group_name_H-M   'P 1'
_cell_length_a   7.05099303
_cell_length_b   7.05755696
_cell_length_c   12.98371863
_cell_angle_alpha   89.99476631
_cell_angle_beta   89.99518197
_cell_angle_gamma   89.94682793
_symmetry_Int_Tables_number   1
_chemical_formula_structural   Tb8Ta2Ti10Si15P
_chemical_formula_sum   'Tb8 Ta2 Ti10 Si15 P1'
_cell_volume   646.10571493
_cell_formula_units_Z   1
loop_
 _symmetry_equiv_pos_site_id
 _symmetry_equiv_pos_as_xyz
  1  'x, y, z'
loop_
 _atom_site_type_symbol
 _atom_site_label
 _atom_site_symmetry_multiplicity
 _atom_site_fract_x
 _atom_site_fract_y
 _atom_site_fract_z
 _atom_site_occupancy
  Tb  Tb0  1  0.340052  0.002982  0.467802  1
  Tb  Tb1  1  0.494033  0.843707  0.717030  1
  Tb  Tb2  1  0.502414  0.159119  0.216515  1
  Tb  Tb3  1  0.839563  0.497052  0.283198  1
  Tb  Tb4  1  0.159415  0.498319  0.782134  1
  Tb  Tb5  1  0.660567  0.995673  0.967006  1
  Tb  Tb6  1  0.004061  0.338877  0.534378  1
  Tb  Tb7  1  0.997541  0.659533  0.032914  1
  Ta  Ta8  1  0.325704  0.326487  0.999446  1
  Ta  Ta9  1  0.173280  0.826993  0.250039  1
  Ti  Ti10  1  0.828035  0.173175  0.749518  1
  Ti  Ti11  1  0.672706  0.673244  0.500223  1
  Ti  Ti12  1  0.155774  0.010361  0.872933  1
  Ti  Ti13  1  0.490556  0.653973  0.125294  1
  Ti  Ti14  1  0.506082  0.344422  0.627143  1
  Ti  Ti15  1  0.654106  0.493921  0.874522  1
  Ti  Ti16  1  0.345649  0.508345  0.373859  1
  Ti  Ti17  1  0.847623  0.991701  0.375466  1
  Ti  Ti18  1  0.008703  0.153350  0.124366  1
  Ti  Ti19  1  0.994782  0.849150  0.625184  1
  Si  Si20  1  0.369347  0.702072  0.933692  1
  Si  Si21  1  0.629434  0.298475  0.435924  1
  Si  Si22  1  0.701649  0.370530  0.065008  1
  Si  Si23  1  0.298650  0.629185  0.565346  1
  Si  Si24  1  0.798031  0.870238  0.185030  1
  Si  Si25  1  0.129666  0.201858  0.315699  1
  Si  Si26  1  0.871053  0.797270  0.814532  1
  Si  Si27  1  0.291432  0.953867  0.063273  1
  Si  Si28  1  0.546030  0.791323  0.315107  1
  Si  Si29  1  0.459670  0.210098  0.816867  1
  Si  Si30  1  0.789612  0.547659  0.684632  1
  Si  Si31  1  0.208027  0.453589  0.185768  1
  Si  Si32  1  0.709471  0.046001  0.564766  1
  Si  Si33  1  0.953521  0.290579  0.935116  1
  Si  Si34  1  0.046184  0.708068  0.436238  1
  P  P35  1  0.197578  0.128802  0.684033  1
