# generated using pymatgen
data_Yb2Ta5Sb3O22
_symmetry_space_group_name_H-M   'P 1'
_cell_length_a   6.38693100
_cell_length_b   6.23666765
_cell_length_c   12.22303771
_cell_angle_alpha   90.11237267
_cell_angle_beta   90.00000000
_cell_angle_gamma   120.80026555
_symmetry_Int_Tables_number   1
_chemical_formula_structural   Yb2Ta5Sb3O22
_chemical_formula_sum   'Yb2 Ta5 Sb3 O22'
_cell_volume   418.21011589
_cell_formula_units_Z   1
loop_
 _symmetry_equiv_pos_site_id
 _symmetry_equiv_pos_as_xyz
  1  'x, y, z'
loop_
 _atom_site_type_symbol
 _atom_site_label
 _atom_site_symmetry_multiplicity
 _atom_site_fract_x
 _atom_site_fract_y
 _atom_site_fract_z
 _atom_site_occupancy
  Yb  Yb0  1  0.332895  0.662614  0.752671  1
  Yb  Yb1  1  0.670282  0.337386  0.247329  1
  Ta  Ta2  1  0.640053  0.639876  0.000140  1
  Ta  Ta3  1  0.000178  0.360124  0.999860  1
  Ta  Ta4  1  0.996015  0.639148  0.499156  1
  Ta  Ta5  1  0.356866  0.360852  0.500844  1
  Ta  Ta6  1  0.347824  0.000000  0.000000  1
  Sb  Sb7  1  0.669971  0.335143  0.748873  1
  Sb  Sb8  1  0.334827  0.664857  0.251127  1
  Sb  Sb9  1  0.659536  0.000000  0.500000  1
  O  O10  1  0.335655  0.682766  0.532603  1
  O  O11  1  0.667712  0.330278  0.036075  1
  O  O12  1  0.652890  0.317234  0.467397  1
  O  O13  1  0.337433  0.669722  0.963925  1
  O  O14  1  0.201918  0.000000  0.500000  1
  O  O15  1  0.252923  0.253061  0.998599  1
  O  O16  1  0.999862  0.746939  0.001401  1
  O  O17  1  0.005743  0.279066  0.501945  1
  O  O18  1  0.726677  0.720934  0.498055  1
  O  O19  1  0.773956  0.000000  0.000000  1
  O  O20  1  0.381914  0.951436  0.157916  1
  O  O21  1  0.426277  0.373168  0.658818  1
  O  O22  1  0.952245  0.580946  0.658602  1
  O  O23  1  0.051992  0.424828  0.157913  1
  O  O24  1  0.569594  0.620948  0.157832  1
  O  O25  1  0.430477  0.048564  0.842084  1
  O  O26  1  0.627164  0.575172  0.842087  1
  O  O27  1  0.632424  0.040782  0.660919  1
  O  O28  1  0.948646  0.379052  0.842168  1
  O  O29  1  0.053109  0.626832  0.341182  1
  O  O30  1  0.591642  0.959218  0.339081  1
  O  O31  1  0.371299  0.419054  0.341398  1
