# generated using pymatgen
data_Yb4TlAgAu4
_symmetry_space_group_name_H-M   'P 1'
_cell_length_a   7.89773700
_cell_length_b   7.89773700
_cell_length_c   3.81675800
_cell_angle_alpha   90.00000000
_cell_angle_beta   90.00000000
_cell_angle_gamma   90.00000000
_symmetry_Int_Tables_number   1
_chemical_formula_structural   Yb4TlAgAu4
_chemical_formula_sum   'Yb4 Tl1 Ag1 Au4'
_cell_volume   238.06741662
_cell_formula_units_Z   1
loop_
 _symmetry_equiv_pos_site_id
 _symmetry_equiv_pos_as_xyz
  1  'x, y, z'
loop_
 _atom_site_type_symbol
 _atom_site_label
 _atom_site_symmetry_multiplicity
 _atom_site_fract_x
 _atom_site_fract_y
 _atom_site_fract_z
 _atom_site_occupancy
  Yb  Yb0  1  0.678674  0.162053  0.500000  1
  Yb  Yb1  1  0.321326  0.837947  0.500000  1
  Yb  Yb2  1  0.162053  0.321326  0.500000  1
  Yb  Yb3  1  0.837947  0.678674  0.500000  1
  Tl  Tl4  1  0.500000  0.500000  0.000000  1
  Ag  Ag5  1  0.000000  0.000000  0.000000  1
  Au  Au6  1  0.127680  0.630678  0.000000  1
  Au  Au7  1  0.872320  0.369322  0.000000  1
  Au  Au8  1  0.630678  0.872320  0.000000  1
  Au  Au9  1  0.369322  0.127680  0.000000  1
