# generated using pymatgen
data_Zr3BeTc3As2
_symmetry_space_group_name_H-M   'P 1'
_cell_length_a   7.75711787
_cell_length_b   7.75711790
_cell_length_c   7.75711937
_cell_angle_alpha   126.99525083
_cell_angle_beta   126.30650298
_cell_angle_gamma   78.82225898
_symmetry_Int_Tables_number   1
_chemical_formula_structural   Zr3BeTc3As2
_chemical_formula_sum   'Zr6 Be2 Tc6 As4'
_cell_volume   290.69973802
_cell_formula_units_Z   2
loop_
 _symmetry_equiv_pos_site_id
 _symmetry_equiv_pos_as_xyz
  1  'x, y, z'
loop_
 _atom_site_type_symbol
 _atom_site_label
 _atom_site_symmetry_multiplicity
 _atom_site_fract_x
 _atom_site_fract_y
 _atom_site_fract_z
 _atom_site_occupancy
  Zr  Zr0  1  0.443841  0.641215  0.697374  1
  Zr  Zr1  1  0.556159  0.253532  0.197374  1
  Zr  Zr2  1  0.749958  0.866070  0.616112  1
  Zr  Zr3  1  0.250042  0.866154  0.116112  1
  Zr  Zr4  1  0.056275  0.253515  0.697240  1
  Zr  Zr5  1  0.943725  0.640965  0.197240  1
  Be  Be6  1  0.250103  0.253129  0.503026  1
  Be  Be7  1  0.749897  0.252922  0.003026  1
  Tc  Tc8  1  0.500000  0.494571  0.994571  1
  Tc  Tc9  1  0.000000  0.494571  0.494571  1
  Tc  Tc10  1  0.121028  0.253704  0.132370  1
  Tc  Tc11  1  0.878972  0.011340  0.132675  1
  Tc  Tc12  1  0.378666  0.011340  0.632370  1
  Tc  Tc13  1  0.621334  0.253704  0.632675  1
  As  As14  1  0.333482  0.586743  0.253172  1
  As  As15  1  0.666518  0.919690  0.253261  1
  As  As16  1  0.166430  0.919690  0.753172  1
  As  As17  1  0.833570  0.586743  0.753261  1
