# generated using pymatgen
data_Er8Tm4Tc3Pt
_symmetry_space_group_name_H-M   'P 1'
_cell_length_a   6.23638619
_cell_length_b   7.36333506
_cell_length_c   9.05085306
_cell_angle_alpha   89.98684611
_cell_angle_beta   90.00067380
_cell_angle_gamma   89.98295636
_symmetry_Int_Tables_number   1
_chemical_formula_structural   Er8Tm4Tc3Pt
_chemical_formula_sum   'Er8 Tm4 Tc3 Pt1'
_cell_volume   415.62058355
_cell_formula_units_Z   1
loop_
 _symmetry_equiv_pos_site_id
 _symmetry_equiv_pos_as_xyz
  1  'x, y, z'
loop_
 _atom_site_type_symbol
 _atom_site_label
 _atom_site_symmetry_multiplicity
 _atom_site_fract_x
 _atom_site_fract_y
 _atom_site_fract_z
 _atom_site_occupancy
  Er  Er0  1  0.331217  0.675607  0.066348  1
  Er  Er1  1  0.163132  0.177328  0.436619  1
  Er  Er2  1  0.665609  0.318492  0.558499  1
  Er  Er3  1  0.839004  0.828049  0.940603  1
  Er  Er4  1  0.874449  0.542250  0.250014  1
  Er  Er5  1  0.620989  0.037369  0.250004  1
  Er  Er6  1  0.127347  0.455869  0.750026  1
  Er  Er7  1  0.373468  0.964986  0.750031  1
  Tm  Tm8  1  0.665599  0.318462  0.941625  1
  Tm  Tm9  1  0.838839  0.827887  0.559074  1
  Tm  Tm10  1  0.331096  0.675963  0.433861  1
  Tm  Tm11  1  0.163129  0.177389  0.063248  1
  Tc  Tc12  1  0.038132  0.884909  0.250250  1
  Tc  Tc13  1  0.464186  0.386101  0.249733  1
  Tc  Tc14  1  0.958288  0.115236  0.750302  1
  Pt  Pt15  1  0.545514  0.614103  0.749762  1
