# generated using pymatgen
data_La5Pr5(Pb3Cl)2
_symmetry_space_group_name_H-M   'P 1'
_cell_length_a   9.62554600
_cell_length_b   9.62371374
_cell_length_c   6.90956200
_cell_angle_alpha   90.00000000
_cell_angle_beta   90.00000000
_cell_angle_gamma   120.00630514
_symmetry_Int_Tables_number   1
_chemical_formula_structural   La5Pr5(Pb3Cl)2
_chemical_formula_sum   'La5 Pr5 Pb6 Cl2'
_cell_volume   554.27031972
_cell_formula_units_Z   1
loop_
 _symmetry_equiv_pos_site_id
 _symmetry_equiv_pos_as_xyz
  1  'x, y, z'
loop_
 _atom_site_type_symbol
 _atom_site_label
 _atom_site_symmetry_multiplicity
 _atom_site_fract_x
 _atom_site_fract_y
 _atom_site_fract_z
 _atom_site_occupancy
  La  La0  1  0.741769  0.000000  0.750000  1
  La  La1  1  0.999409  0.259498  0.250000  1
  La  La2  1  0.000457  0.741664  0.750000  1
  La  La3  1  0.739912  0.740502  0.250000  1
  La  La4  1  0.258792  0.258336  0.750000  1
  Pr  Pr5  1  0.259261  0.000000  0.250000  1
  Pr  Pr6  1  0.333248  0.667067  0.000602  1
  Pr  Pr7  1  0.666183  0.332933  0.000602  1
  Pr  Pr8  1  0.666183  0.332933  0.499398  1
  Pr  Pr9  1  0.333248  0.667067  0.499398  1
  Pb  Pb10  1  0.607933  0.000000  0.250000  1
  Pb  Pb11  1  0.390255  0.000000  0.750000  1
  Pb  Pb12  1  0.001499  0.612616  0.250000  1
  Pb  Pb13  1  0.000115  0.389933  0.750000  1
  Pb  Pb14  1  0.388883  0.387384  0.250000  1
  Pb  Pb15  1  0.610182  0.610067  0.750000  1
  Cl  Cl16  1  0.001335  0.000000  0.001884  1
  Cl  Cl17  1  0.001335  0.000000  0.498116  1
