# generated using pymatgen
data_Nd3Sn3Rh2Au
_symmetry_space_group_name_H-M   'P 1'
_cell_length_a   7.65104500
_cell_length_b   7.65104533
_cell_length_c   4.13757200
_cell_angle_alpha   90.00000000
_cell_angle_beta   90.00000000
_cell_angle_gamma   119.99999427
_symmetry_Int_Tables_number   1
_chemical_formula_structural   Nd3Sn3Rh2Au
_chemical_formula_sum   'Nd3 Sn3 Rh2 Au1'
_cell_volume   209.75762260
_cell_formula_units_Z   1
loop_
 _symmetry_equiv_pos_site_id
 _symmetry_equiv_pos_as_xyz
  1  'x, y, z'
loop_
 _atom_site_type_symbol
 _atom_site_label
 _atom_site_symmetry_multiplicity
 _atom_site_fract_x
 _atom_site_fract_y
 _atom_site_fract_z
 _atom_site_occupancy
  Nd  Nd0  1  0.011669  0.594637  0.000000  1
  Nd  Nd1  1  0.405363  0.417032  0.000000  1
  Nd  Nd2  1  0.582968  0.988331  0.000000  1
  Sn  Sn3  1  0.749292  0.756597  0.500000  1
  Sn  Sn4  1  0.007305  0.250708  0.500000  1
  Sn  Sn5  1  0.243403  0.992695  0.500000  1
  Rh  Rh6  1  0.000000  0.000000  0.000000  1
  Rh  Rh7  1  0.333333  0.666667  0.500000  1
  Au  Au8  1  0.666667  0.333333  0.500000  1
