# generated using pymatgen
data_CaNb5(B2Ru5)2
_symmetry_space_group_name_H-M   'P 1'
_cell_length_a   9.54232619
_cell_length_b   9.54232619
_cell_length_c   3.04668500
_cell_angle_alpha   90.00000000
_cell_angle_beta   90.00000000
_cell_angle_gamma   90.46388788
_symmetry_Int_Tables_number   1
_chemical_formula_structural   CaNb5(B2Ru5)2
_chemical_formula_sum   'Ca1 Nb5 B4 Ru10'
_cell_volume   277.40982361
_cell_formula_units_Z   1
loop_
 _symmetry_equiv_pos_site_id
 _symmetry_equiv_pos_as_xyz
  1  'x, y, z'
loop_
 _atom_site_type_symbol
 _atom_site_label
 _atom_site_symmetry_multiplicity
 _atom_site_fract_x
 _atom_site_fract_y
 _atom_site_fract_z
 _atom_site_occupancy
  Ca  Ca0  1  0.824504  0.675496  0.000000  1
  Nb  Nb1  1  0.178240  0.321760  0.000000  1
  Nb  Nb2  1  0.325146  0.823961  0.000000  1
  Nb  Nb3  1  0.676039  0.174854  0.000000  1
  Nb  Nb4  1  0.503500  0.501530  0.000000  1
  Nb  Nb5  1  0.998470  0.996500  0.000000  1
  B  B6  1  0.619433  0.880567  0.000000  1
  B  B7  1  0.376935  0.123065  0.000000  1
  B  B8  1  0.123027  0.619167  0.000000  1
  B  B9  1  0.880833  0.376973  0.000000  1
  Ru  Ru10  1  0.554479  0.727012  0.500000  1
  Ru  Ru11  1  0.426017  0.283631  0.500000  1
  Ru  Ru12  1  0.086455  0.783070  0.500000  1
  Ru  Ru13  1  0.930674  0.215536  0.500000  1
  Ru  Ru14  1  0.284464  0.569326  0.500000  1
  Ru  Ru15  1  0.716930  0.413545  0.500000  1
  Ru  Ru16  1  0.216369  0.073983  0.500000  1
  Ru  Ru17  1  0.772988  0.945521  0.500000  1
  Ru  Ru18  1  0.494997  0.005003  0.500000  1
  Ru  Ru19  1  0.010498  0.489502  0.500000  1
