# generated using pymatgen
data_Tb6Fe4Co13NiP12
_symmetry_space_group_name_H-M   'P 1'
_cell_length_a   3.71475800
_cell_length_b   10.56632100
_cell_length_c   12.15647800
_cell_angle_alpha   90.00000000
_cell_angle_beta   90.00000000
_cell_angle_gamma   90.00000000
_symmetry_Int_Tables_number   1
_chemical_formula_structural   Tb6Fe4Co13NiP12
_chemical_formula_sum   'Tb6 Fe4 Co13 Ni1 P12'
_cell_volume   477.15787449
_cell_formula_units_Z   1
loop_
 _symmetry_equiv_pos_site_id
 _symmetry_equiv_pos_as_xyz
  1  'x, y, z'
loop_
 _atom_site_type_symbol
 _atom_site_label
 _atom_site_symmetry_multiplicity
 _atom_site_fract_x
 _atom_site_fract_y
 _atom_site_fract_z
 _atom_site_occupancy
  Tb  Tb0  1  0.000000  0.500000  0.519846  1
  Tb  Tb1  1  0.500000  0.000000  0.478319  1
  Tb  Tb2  1  0.500000  0.819094  0.204478  1
  Tb  Tb3  1  0.500000  0.180906  0.204478  1
  Tb  Tb4  1  0.000000  0.682633  0.796394  1
  Tb  Tb5  1  0.000000  0.317367  0.796394  1
  Fe  Fe6  1  0.500000  0.500000  0.155193  1
  Fe  Fe7  1  0.000000  0.000000  0.844380  1
  Fe  Fe8  1  0.000000  0.500000  0.988936  1
  Fe  Fe9  1  0.500000  0.000000  0.011392  1
  Co  Co10  1  0.000000  0.000000  0.298167  1
  Co  Co11  1  0.500000  0.331841  0.994584  1
  Co  Co12  1  0.500000  0.668159  0.994584  1
  Co  Co13  1  0.000000  0.167937  0.005117  1
  Co  Co14  1  0.000000  0.832063  0.005117  1
  Co  Co15  1  0.500000  0.297156  0.430396  1
  Co  Co16  1  0.500000  0.702844  0.430396  1
  Co  Co17  1  0.000000  0.202853  0.569679  1
  Co  Co18  1  0.000000  0.797147  0.569679  1
  Co  Co19  1  0.500000  0.879086  0.709834  1
  Co  Co20  1  0.500000  0.120914  0.709834  1
  Co  Co21  1  0.000000  0.620658  0.290201  1
  Co  Co22  1  0.000000  0.379342  0.290201  1
  Ni  Ni23  1  0.500000  0.500000  0.702181  1
  P  P24  1  0.500000  0.500000  0.886577  1
  P  P25  1  0.000000  0.000000  0.115043  1
  P  P26  1  0.500000  0.500000  0.340754  1
  P  P27  1  0.000000  0.000000  0.658860  1
  P  P28  1  0.500000  0.308622  0.615400  1
  P  P29  1  0.500000  0.691378  0.615400  1
  P  P30  1  0.000000  0.190314  0.383735  1
  P  P31  1  0.000000  0.809686  0.383735  1
  P  P32  1  0.500000  0.847966  0.894043  1
  P  P33  1  0.500000  0.152034  0.894043  1
  P  P34  1  0.000000  0.652707  0.106315  1
  P  P35  1  0.000000  0.347293  0.106315  1
