# generated using pymatgen
data_Sr6MoIrO12
_symmetry_space_group_name_H-M   'P 1'
_cell_length_a   6.12476989
_cell_length_b   5.88010857
_cell_length_c   10.30142838
_cell_angle_alpha   54.97051141
_cell_angle_beta   89.89030131
_cell_angle_gamma   89.97194923
_symmetry_Int_Tables_number   1
_chemical_formula_structural   Sr6MoIrO12
_chemical_formula_sum   'Sr6 Mo1 Ir1 O12'
_cell_volume   303.79426888
_cell_formula_units_Z   1
loop_
 _symmetry_equiv_pos_site_id
 _symmetry_equiv_pos_as_xyz
  1  'x, y, z'
loop_
 _atom_site_type_symbol
 _atom_site_label
 _atom_site_symmetry_multiplicity
 _atom_site_fract_x
 _atom_site_fract_y
 _atom_site_fract_z
 _atom_site_occupancy
  Sr  Sr0  1  0.500000  0.500000  0.500000  1
  Sr  Sr1  1  0.949944  0.729312  0.255222  1
  Sr  Sr2  1  0.449618  0.266917  0.245833  1
  Sr  Sr3  1  0.000000  0.500000  0.000000  1
  Sr  Sr4  1  0.550382  0.733083  0.754167  1
  Sr  Sr5  1  0.050056  0.270688  0.744778  1
  Mo  Mo6  1  0.500000  0.000000  0.000000  1
  Ir  Ir7  1  0.000000  0.000000  0.500000  1
  O  O8  1  0.451956  0.116702  0.781849  1
  O  O9  1  0.236429  0.766637  0.065314  1
  O  O10  1  0.177666  0.314265  0.455323  1
  O  O11  1  0.674809  0.685579  0.044167  1
  O  O12  1  0.736872  0.235374  0.434853  1
  O  O13  1  0.952265  0.883636  0.718840  1
  O  O14  1  0.047735  0.116364  0.281160  1
  O  O15  1  0.263128  0.764626  0.565147  1
  O  O16  1  0.325191  0.314421  0.955833  1
  O  O17  1  0.822334  0.685735  0.544677  1
  O  O18  1  0.763571  0.233363  0.934686  1
  O  O19  1  0.548044  0.883298  0.218151  1
