# generated using pymatgen
data_Zr4Nb4AlP3
_symmetry_space_group_name_H-M   'P 1'
_cell_length_a   3.58386100
_cell_length_b   7.02441255
_cell_length_c   8.48219063
_cell_angle_alpha   89.32122955
_cell_angle_beta   90.00000000
_cell_angle_gamma   90.00000000
_symmetry_Int_Tables_number   1
_chemical_formula_structural   Zr4Nb4AlP3
_chemical_formula_sum   'Zr4 Nb4 Al1 P3'
_cell_volume   213.52007801
_cell_formula_units_Z   1
loop_
 _symmetry_equiv_pos_site_id
 _symmetry_equiv_pos_as_xyz
  1  'x, y, z'
loop_
 _atom_site_type_symbol
 _atom_site_label
 _atom_site_symmetry_multiplicity
 _atom_site_fract_x
 _atom_site_fract_y
 _atom_site_fract_z
 _atom_site_occupancy
  Zr  Zr0  1  0.250000  0.530615  0.840372  1
  Zr  Zr1  1  0.750000  0.960669  0.329594  1
  Zr  Zr2  1  0.250000  0.049765  0.669473  1
  Zr  Zr3  1  0.750000  0.463473  0.171521  1
  Nb  Nb4  1  0.250000  0.141657  0.060985  1
  Nb  Nb5  1  0.750000  0.869408  0.946076  1
  Nb  Nb6  1  0.250000  0.626511  0.431078  1
  Nb  Nb7  1  0.750000  0.359830  0.557038  1
  Al  Al8  1  0.750000  0.743557  0.640419  1
  P  P9  1  0.250000  0.762327  0.140235  1
  P  P10  1  0.750000  0.238204  0.855894  1
  P  P11  1  0.250000  0.253984  0.357317  1
