# generated using pymatgen
data_AcTe2Se
_symmetry_space_group_name_H-M   'P 1'
_cell_length_a   14.07783193
_cell_length_b   14.07783181
_cell_length_c   4.35341300
_cell_angle_alpha   90.00000000
_cell_angle_beta   90.00000000
_cell_angle_gamma   161.79187362
_symmetry_Int_Tables_number   1
_chemical_formula_structural   AcTe2Se
_chemical_formula_sum   'Ac2 Te4 Se2'
_cell_volume   269.59340359
_cell_formula_units_Z   2
loop_
 _symmetry_equiv_pos_site_id
 _symmetry_equiv_pos_as_xyz
  1  'x, y, z'
loop_
 _atom_site_type_symbol
 _atom_site_label
 _atom_site_symmetry_multiplicity
 _atom_site_fract_x
 _atom_site_fract_y
 _atom_site_fract_z
 _atom_site_occupancy
  Ac  Ac0  1  0.180371  0.819629  0.250000  1
  Ac  Ac1  1  0.819629  0.180371  0.750000  1
  Te  Te2  1  0.420529  0.579471  0.750000  1
  Te  Te3  1  0.579471  0.420529  0.250000  1
  Te  Te4  1  0.920175  0.079825  0.250000  1
  Te  Te5  1  0.079825  0.920175  0.750000  1
  Se  Se6  1  0.294163  0.705837  0.250000  1
  Se  Se7  1  0.705837  0.294163  0.750000  1
