# generated using pymatgen
data_HoTm11Ru7
_symmetry_space_group_name_H-M   'P 1'
_cell_length_a   11.15780100
_cell_length_b   8.28240384
_cell_length_c   11.12566436
_cell_angle_alpha   56.53617084
_cell_angle_beta   90.00000000
_cell_angle_gamma   90.00000000
_symmetry_Int_Tables_number   1
_chemical_formula_structural   HoTm11Ru7
_chemical_formula_sum   'Ho2 Tm22 Ru14'
_cell_volume   857.72664721
_cell_formula_units_Z   2
loop_
 _symmetry_equiv_pos_site_id
 _symmetry_equiv_pos_as_xyz
  1  'x, y, z'
loop_
 _atom_site_type_symbol
 _atom_site_label
 _atom_site_symmetry_multiplicity
 _atom_site_fract_x
 _atom_site_fract_y
 _atom_site_fract_z
 _atom_site_occupancy
  Ho  Ho0  1  0.705171  0.240266  0.532883  1
  Ho  Ho1  1  0.205171  0.759734  0.967117  1
  Tm  Tm2  1  0.844207  0.507537  0.655718  1
  Tm  Tm3  1  0.344207  0.492463  0.844282  1
  Tm  Tm4  1  0.155907  0.492333  0.344895  1
  Tm  Tm5  1  0.655907  0.507667  0.155105  1
  Tm  Tm6  1  0.006399  0.852012  0.361987  1
  Tm  Tm7  1  0.506399  0.147988  0.138013  1
  Tm  Tm8  1  0.993973  0.148328  0.637863  1
  Tm  Tm9  1  0.493973  0.851672  0.862137  1
  Tm  Tm10  1  0.794055  0.240705  0.032145  1
  Tm  Tm11  1  0.294055  0.759295  0.467855  1
  Tm  Tm12  1  0.930386  0.776916  0.090966  1
  Tm  Tm13  1  0.430386  0.223084  0.409034  1
  Tm  Tm14  1  0.068629  0.223633  0.909311  1
  Tm  Tm15  1  0.568629  0.776367  0.590689  1
  Tm  Tm16  1  0.301914  0.242825  0.674058  1
  Tm  Tm17  1  0.801914  0.757175  0.825942  1
  Tm  Tm18  1  0.698435  0.758066  0.325728  1
  Tm  Tm19  1  0.198435  0.241934  0.174272  1
  Tm  Tm20  1  0.925708  0.279324  0.293457  1
  Tm  Tm21  1  0.425708  0.720676  0.206543  1
  Tm  Tm22  1  0.074490  0.720904  0.705889  1
  Tm  Tm23  1  0.574490  0.279096  0.794111  1
  Ru  Ru24  1  0.499397  0.500601  0.500059  1
  Ru  Ru25  1  0.999397  0.499399  0.999941  1
  Ru  Ru26  1  0.648200  0.922419  0.034322  1
  Ru  Ru27  1  0.148200  0.077581  0.465678  1
  Ru  Ru28  1  0.351865  0.077827  0.966063  1
  Ru  Ru29  1  0.851865  0.922173  0.533937  1
  Ru  Ru30  1  0.398592  0.484913  0.103722  1
  Ru  Ru31  1  0.898592  0.515087  0.396278  1
  Ru  Ru32  1  0.601757  0.514615  0.896621  1
  Ru  Ru33  1  0.101757  0.485385  0.603379  1
  Ru  Ru34  1  0.821903  0.099742  0.847339  1
  Ru  Ru35  1  0.321903  0.900258  0.652661  1
  Ru  Ru36  1  0.179013  0.900693  0.153482  1
  Ru  Ru37  1  0.679013  0.099307  0.346518  1
