# generated using pymatgen
data_Er4Pa4Re3B24Mo
_symmetry_space_group_name_H-M   'P 1'
_cell_length_a   3.71680100
_cell_length_b   9.14546110
_cell_length_c   11.50450412
_cell_angle_alpha   89.98326186
_cell_angle_beta   90.00000000
_cell_angle_gamma   90.00000000
_symmetry_Int_Tables_number   1
_chemical_formula_structural   Er4Pa4Re3B24Mo
_chemical_formula_sum   'Er4 Pa4 Re3 B24 Mo1'
_cell_volume   391.05946478
_cell_formula_units_Z   1
loop_
 _symmetry_equiv_pos_site_id
 _symmetry_equiv_pos_as_xyz
  1  'x, y, z'
loop_
 _atom_site_type_symbol
 _atom_site_label
 _atom_site_symmetry_multiplicity
 _atom_site_fract_x
 _atom_site_fract_y
 _atom_site_fract_z
 _atom_site_occupancy
  Er  Er0  1  0.000000  0.944705  0.374244  1
  Er  Er1  1  0.000000  0.055219  0.625765  1
  Er  Er2  1  0.000000  0.445422  0.125825  1
  Er  Er3  1  0.000000  0.555230  0.874140  1
  Pa  Pa4  1  0.000000  0.322951  0.412893  1
  Pa  Pa5  1  0.000000  0.677793  0.585774  1
  Pa  Pa6  1  0.000000  0.821536  0.087584  1
  Pa  Pa7  1  0.000000  0.177617  0.913641  1
  Re  Re8  1  0.000000  0.360975  0.678954  1
  Re  Re9  1  0.000000  0.138769  0.178168  1
  Re  Re10  1  0.000000  0.861669  0.821519  1
  B  B11  1  0.500000  0.552852  0.433742  1
  B  B12  1  0.500000  0.446465  0.567149  1
  B  B13  1  0.500000  0.053364  0.066838  1
  B  B14  1  0.500000  0.946723  0.933183  1
  B  B15  1  0.500000  0.748858  0.420628  1
  B  B16  1  0.500000  0.251359  0.580095  1
  B  B17  1  0.500000  0.248998  0.080039  1
  B  B18  1  0.500000  0.751000  0.919829  1
  B  B19  1  0.500000  0.793808  0.264918  1
  B  B20  1  0.500000  0.206862  0.734441  1
  B  B21  1  0.500000  0.292719  0.234424  1
  B  B22  1  0.500000  0.707140  0.765583  1
  B  B23  1  0.500000  0.632909  0.184368  1
  B  B24  1  0.500000  0.367359  0.815188  1
  B  B25  1  0.500000  0.132350  0.314829  1
  B  B26  1  0.500000  0.867612  0.684909  1
  B  B27  1  0.500000  0.982667  0.213357  1
  B  B28  1  0.500000  0.017403  0.786519  1
  B  B29  1  0.500000  0.481553  0.286562  1
  B  B30  1  0.500000  0.517177  0.713506  1
  B  B31  1  0.500000  0.609332  0.029767  1
  B  B32  1  0.500000  0.390683  0.969682  1
  B  B33  1  0.500000  0.109161  0.469787  1
  B  B34  1  0.500000  0.891076  0.530836  1
  Mo  Mo35  1  0.000000  0.638687  0.321312  1
