# generated using pymatgen
data_Zr16Fe4RePt3
_symmetry_space_group_name_H-M   'P 1'
_cell_length_a   8.70571902
_cell_length_b   8.70571871
_cell_length_c   8.70571900
_cell_angle_alpha   60.04001382
_cell_angle_beta   60.04001500
_cell_angle_gamma   60.04001788
_symmetry_Int_Tables_number   1
_chemical_formula_structural   Zr16Fe4RePt3
_chemical_formula_sum   'Zr16 Fe4 Re1 Pt3'
_cell_volume   466.97395693
_cell_formula_units_Z   1
loop_
 _symmetry_equiv_pos_site_id
 _symmetry_equiv_pos_as_xyz
  1  'x, y, z'
loop_
 _atom_site_type_symbol
 _atom_site_label
 _atom_site_symmetry_multiplicity
 _atom_site_fract_x
 _atom_site_fract_y
 _atom_site_fract_z
 _atom_site_occupancy
  Zr  Zr0  1  0.051866  0.648605  0.648605  1
  Zr  Zr1  1  0.648605  0.051866  0.648605  1
  Zr  Zr2  1  0.648605  0.648605  0.051866  1
  Zr  Zr3  1  0.646298  0.646298  0.646298  1
  Zr  Zr4  1  0.803867  0.803867  0.196423  1
  Zr  Zr5  1  0.195973  0.195973  0.800986  1
  Zr  Zr6  1  0.803867  0.196423  0.803867  1
  Zr  Zr7  1  0.195973  0.800986  0.195973  1
  Zr  Zr8  1  0.196423  0.803867  0.803867  1
  Zr  Zr9  1  0.800986  0.195973  0.195973  1
  Zr  Zr10  1  0.438118  0.438118  0.070750  1
  Zr  Zr11  1  0.061669  0.061669  0.438536  1
  Zr  Zr12  1  0.438118  0.070750  0.438118  1
  Zr  Zr13  1  0.061669  0.438536  0.061669  1
  Zr  Zr14  1  0.070750  0.438118  0.438118  1
  Zr  Zr15  1  0.438536  0.061669  0.061669  1
  Fe  Fe16  1  0.420720  0.858763  0.858763  1
  Fe  Fe17  1  0.858763  0.420720  0.858763  1
  Fe  Fe18  1  0.858763  0.858763  0.420720  1
  Fe  Fe19  1  0.860879  0.860879  0.860879  1
  Re  Re20  1  0.418695  0.418695  0.418695  1
  Pt  Pt21  1  0.752485  0.414186  0.414186  1
  Pt  Pt22  1  0.414186  0.752485  0.414186  1
  Pt  Pt23  1  0.414186  0.414186  0.752485  1
