# generated using pymatgen
data_Li3Nd3Pu2O12
_symmetry_space_group_name_H-M   'P 1'
_cell_length_a   11.03936066
_cell_length_b   11.03936074
_cell_length_c   11.03936100
_cell_angle_alpha   109.47121560
_cell_angle_beta   109.47122126
_cell_angle_gamma   109.47121909
_symmetry_Int_Tables_number   1
_chemical_formula_structural   Li3Nd3Pu2O12
_chemical_formula_sum   'Li12 Nd12 Pu8 O48'
_cell_volume   1035.64264233
_cell_formula_units_Z   4
loop_
 _symmetry_equiv_pos_site_id
 _symmetry_equiv_pos_as_xyz
  1  'x, y, z'
loop_
 _atom_site_type_symbol
 _atom_site_label
 _atom_site_symmetry_multiplicity
 _atom_site_fract_x
 _atom_site_fract_y
 _atom_site_fract_z
 _atom_site_occupancy
  Li  Li0  1  0.250000  0.874999  0.124999  1
  Li  Li1  1  0.375000  0.250001  0.125000  1
  Li  Li2  1  0.125000  0.375000  0.250000  1
  Li  Li3  1  0.624999  0.874999  0.250000  1
  Li  Li4  1  0.750000  0.625000  0.375000  1
  Li  Li5  1  0.125001  0.750000  0.375000  1
  Li  Li6  1  0.874999  0.250000  0.624999  1
  Li  Li7  1  0.250001  0.375001  0.625000  1
  Li  Li8  1  0.874999  0.624999  0.750000  1
  Li  Li9  1  0.375001  0.125000  0.750000  1
  Li  Li10  1  0.624999  0.750000  0.874999  1
  Li  Li11  1  0.749999  0.125000  0.874999  1
  Nd  Nd12  1  0.874999  0.750000  0.124999  1
  Nd  Nd13  1  0.750000  0.375000  0.125001  1
  Nd  Nd14  1  0.374999  0.624999  0.249999  1
  Nd  Nd15  1  0.875000  0.125000  0.250000  1
  Nd  Nd16  1  0.250001  0.125001  0.375000  1
  Nd  Nd17  1  0.625000  0.250001  0.375000  1
  Nd  Nd18  1  0.375000  0.750000  0.624999  1
  Nd  Nd19  1  0.750000  0.875000  0.625000  1
  Nd  Nd20  1  0.124999  0.874999  0.750000  1
  Nd  Nd21  1  0.624999  0.375000  0.750000  1
  Nd  Nd22  1  0.250000  0.624999  0.874999  1
  Nd  Nd23  1  0.125000  0.250001  0.875000  1
  Pu  Pu24  1  0.000000  0.000000  0.000000  1
  Pu  Pu25  1  0.500001  0.000000  0.000000  1
  Pu  Pu26  1  0.000000  0.500000  0.000000  1
  Pu  Pu27  1  0.500000  0.500000  0.000000  1
  Pu  Pu28  1  0.000000  0.000000  0.500000  1
  Pu  Pu29  1  0.500000  0.500000  0.500000  1
  Pu  Pu30  1  0.000000  0.500000  0.500000  1
  Pu  Pu31  1  0.500000  0.000000  0.500000  1
  O  O32  1  0.824199  0.907794  0.029127  1
  O  O33  1  0.704929  0.121333  0.029127  1
  O  O34  1  0.204929  0.675802  0.083596  1
  O  O35  1  0.378668  0.407794  0.083596  1
  O  O36  1  0.470873  0.675802  0.092205  1
  O  O37  1  0.121333  0.416404  0.092206  1
  O  O38  1  0.529128  0.204930  0.121333  1
  O  O39  1  0.092206  0.916403  0.121333  1
  O  O40  1  0.970871  0.592204  0.175801  1
  O  O41  1  0.704929  0.583596  0.175802  1
  O  O42  1  0.083596  0.175801  0.204929  1
  O  O43  1  0.621333  0.029128  0.204929  1
  O  O44  1  0.970872  0.378666  0.295070  1
  O  O45  1  0.824198  0.916404  0.295071  1
  O  O46  1  0.407794  0.029127  0.324198  1
  O  O47  1  0.416403  0.295071  0.324198  1
  O  O48  1  0.083596  0.907795  0.378667  1
  O  O49  1  0.795070  0.470873  0.378667  1
  O  O50  1  0.324198  0.529127  0.407794  1
  O  O51  1  0.583597  0.878667  0.407795  1
  O  O52  1  0.592206  0.621334  0.416404  1
  O  O53  1  0.324199  0.795072  0.416404  1
  O  O54  1  0.878667  0.295071  0.470872  1
  O  O55  1  0.092206  0.175802  0.470873  1
  O  O56  1  0.121334  0.704930  0.529127  1
  O  O57  1  0.907795  0.824199  0.529128  1
  O  O58  1  0.407795  0.378667  0.583596  1
  O  O59  1  0.675802  0.204929  0.583596  1
  O  O60  1  0.416404  0.121334  0.592206  1
  O  O61  1  0.675802  0.470873  0.592206  1
  O  O62  1  0.916405  0.092206  0.621333  1
  O  O63  1  0.204929  0.529127  0.621333  1
  O  O64  1  0.583596  0.704929  0.675802  1
  O  O65  1  0.592205  0.970872  0.675802  1
  O  O66  1  0.029128  0.621333  0.704929  1
  O  O67  1  0.175802  0.083596  0.704929  1
  O  O68  1  0.916404  0.824199  0.795071  1
  O  O69  1  0.378668  0.970872  0.795071  1
  O  O70  1  0.029127  0.407794  0.824197  1
  O  O71  1  0.295071  0.416404  0.824198  1
  O  O72  1  0.470873  0.795072  0.878667  1
  O  O73  1  0.907795  0.083596  0.878667  1
  O  O74  1  0.878667  0.583596  0.907794  1
  O  O75  1  0.529127  0.324198  0.907794  1
  O  O76  1  0.621332  0.592205  0.916403  1
  O  O77  1  0.795071  0.324198  0.916404  1
  O  O78  1  0.295071  0.878667  0.970873  1
  O  O79  1  0.175802  0.092206  0.970873  1
