# generated using pymatgen
data_Dy5Ho5(AlSb2)2
_symmetry_space_group_name_H-M   'P 1'
_cell_length_a   8.88167501
_cell_length_b   8.88337822
_cell_length_c   6.39813500
_cell_angle_alpha   90.00127678
_cell_angle_beta   89.99912251
_cell_angle_gamma   120.02884936
_symmetry_Int_Tables_number   1
_chemical_formula_structural   Dy5Ho5(AlSb2)2
_chemical_formula_sum   'Dy5 Ho5 Al2 Sb4'
_cell_volume   437.04960991
_cell_formula_units_Z   1
loop_
 _symmetry_equiv_pos_site_id
 _symmetry_equiv_pos_as_xyz
  1  'x, y, z'
loop_
 _atom_site_type_symbol
 _atom_site_label
 _atom_site_symmetry_multiplicity
 _atom_site_fract_x
 _atom_site_fract_y
 _atom_site_fract_z
 _atom_site_occupancy
  Dy  Dy0  1  0.755845  0.998931  0.750001  1
  Dy  Dy1  1  0.755934  0.756991  0.250002  1
  Dy  Dy2  1  0.008420  0.242736  0.249997  1
  Dy  Dy3  1  0.008455  0.765668  0.749996  1
  Dy  Dy4  1  0.241413  0.232141  0.750004  1
  Ho  Ho5  1  0.335760  0.667911  0.000027  1
  Ho  Ho6  1  0.655814  0.327888  0.499977  1
  Ho  Ho7  1  0.655800  0.327884  0.000023  1
  Ho  Ho8  1  0.335755  0.667913  0.499976  1
  Ho  Ho9  1  0.241567  0.009253  0.249999  1
  Al  Al10  1  0.398235  0.997025  0.750000  1
  Al  Al11  1  0.398148  0.401004  0.250000  1
  Sb  Sb12  1  0.998758  0.606513  0.250000  1
  Sb  Sb13  1  0.998632  0.392354  0.749998  1
  Sb  Sb14  1  0.605810  0.604897  0.750002  1
  Sb  Sb15  1  0.605657  0.000888  0.249999  1
