# generated using pymatgen
data_Dy12ZnCdCo4
_symmetry_space_group_name_H-M   'P 1'
_cell_length_a   8.31025924
_cell_length_b   8.31006852
_cell_length_c   8.31025996
_cell_angle_alpha   112.53353357
_cell_angle_beta   109.90125673
_cell_angle_gamma   106.04491323
_symmetry_Int_Tables_number   1
_chemical_formula_structural   Dy12ZnCdCo4
_chemical_formula_sum   'Dy12 Zn1 Cd1 Co4'
_cell_volume   440.35688954
_cell_formula_units_Z   1
loop_
 _symmetry_equiv_pos_site_id
 _symmetry_equiv_pos_as_xyz
  1  'x, y, z'
loop_
 _atom_site_type_symbol
 _atom_site_label
 _atom_site_symmetry_multiplicity
 _atom_site_fract_x
 _atom_site_fract_y
 _atom_site_fract_z
 _atom_site_occupancy
  Dy  Dy0  1  0.430034  0.232497  0.197536  1
  Dy  Dy1  1  0.569966  0.767503  0.802464  1
  Dy  Dy2  1  0.034960  0.232497  0.802462  1
  Dy  Dy3  1  0.965040  0.767503  0.197538  1
  Dy  Dy4  1  0.180557  0.281618  0.462173  1
  Dy  Dy5  1  0.819443  0.718382  0.537827  1
  Dy  Dy6  1  0.180556  0.718382  0.898939  1
  Dy  Dy7  1  0.819444  0.281618  0.101061  1
  Dy  Dy8  1  0.324659  0.637815  0.313156  1
  Dy  Dy9  1  0.675341  0.362185  0.686844  1
  Dy  Dy10  1  0.324660  0.011503  0.686843  1
  Dy  Dy11  1  0.675340  0.988497  0.313157  1
  Zn  Zn12  1  0.000000  0.000000  0.000000  1
  Cd  Cd13  1  0.500000  0.500000  0.000000  1
  Co  Co14  1  0.337886  0.000000  0.337886  1
  Co  Co15  1  0.662114  0.000000  0.662114  1
  Co  Co16  1  0.114042  0.614041  0.499999  1
  Co  Co17  1  0.885958  0.385959  0.500001  1
