# generated using pymatgen
data_ThPaTe4
_symmetry_space_group_name_H-M   'P 1'
_cell_length_a   8.04599813
_cell_length_b   8.04599874
_cell_length_c   8.04599897
_cell_angle_alpha   149.74723173
_cell_angle_beta   133.43452419
_cell_angle_gamma   56.54125996
_symmetry_Int_Tables_number   1
_chemical_formula_structural   ThPaTe4
_chemical_formula_sum   'Th1 Pa1 Te4'
_cell_volume   189.27188197
_cell_formula_units_Z   1
loop_
 _symmetry_equiv_pos_site_id
 _symmetry_equiv_pos_as_xyz
  1  'x, y, z'
loop_
 _atom_site_type_symbol
 _atom_site_label
 _atom_site_symmetry_multiplicity
 _atom_site_fract_x
 _atom_site_fract_y
 _atom_site_fract_z
 _atom_site_occupancy
  Th  Th0  1  0.133024  0.133024  0.000000  1
  Pa  Pa1  1  0.867850  0.867850  0.000000  1
  Te  Te2  1  0.705009  0.205009  0.500000  1
  Te  Te3  1  0.300161  0.800161  0.500000  1
  Te  Te4  1  0.747174  0.496978  0.250197  1
  Te  Te5  1  0.246781  0.496978  0.749803  1
