# generated using pymatgen
data_Sm8SiSnI12
_symmetry_space_group_name_H-M   'P 1'
_cell_length_a   4.31058500
_cell_length_b   14.40806013
_cell_length_c   15.21843600
_cell_angle_alpha   89.77094846
_cell_angle_beta   90.00000000
_cell_angle_gamma   90.00000000
_symmetry_Int_Tables_number   1
_chemical_formula_structural   Sm8SiSnI12
_chemical_formula_sum   'Sm8 Si1 Sn1 I12'
_cell_volume   945.16640688
_cell_formula_units_Z   1
loop_
 _symmetry_equiv_pos_site_id
 _symmetry_equiv_pos_as_xyz
  1  'x, y, z'
loop_
 _atom_site_type_symbol
 _atom_site_label
 _atom_site_symmetry_multiplicity
 _atom_site_fract_x
 _atom_site_fract_y
 _atom_site_fract_z
 _atom_site_occupancy
  Sm  Sm0  1  0.500000  0.120298  0.339493  1
  Sm  Sm1  1  0.500000  0.879702  0.660507  1
  Sm  Sm2  1  0.500000  0.612593  0.150898  1
  Sm  Sm3  1  0.500000  0.387407  0.849102  1
  Sm  Sm4  1  0.000000  0.120794  0.581343  1
  Sm  Sm5  1  0.000000  0.879206  0.418657  1
  Sm  Sm6  1  0.000000  0.610399  0.925914  1
  Sm  Sm7  1  0.000000  0.389601  0.074086  1
  Si  Si8  1  0.500000  0.500000  0.000000  1
  Sn  Sn9  1  0.500000  0.000000  0.500000  1
  I  I10  1  0.500000  0.247544  0.161309  1
  I  I11  1  0.500000  0.752456  0.838691  1
  I  I12  1  0.500000  0.741917  0.334139  1
  I  I13  1  0.500000  0.258083  0.665861  1
  I  I14  1  0.000000  0.259646  0.414092  1
  I  I15  1  0.000000  0.740354  0.585908  1
  I  I16  1  0.000000  0.755922  0.084579  1
  I  I17  1  0.000000  0.244078  0.915421  1
  I  I18  1  0.000000  0.999660  0.239113  1
  I  I19  1  0.000000  0.000340  0.760887  1
  I  I20  1  0.000000  0.498484  0.257090  1
  I  I21  1  0.000000  0.501516  0.742910  1
