# generated using pymatgen
data_Er5Co16(Si4Ru)3
_symmetry_space_group_name_H-M   'P 1'
_cell_length_a   12.22674900
_cell_length_b   12.22674818
_cell_length_c   3.78040600
_cell_angle_alpha   90.00000000
_cell_angle_beta   90.00000000
_cell_angle_gamma   120.00000493
_symmetry_Int_Tables_number   1
_chemical_formula_structural   Er5Co16(Si4Ru)3
_chemical_formula_sum   'Er5 Co16 Si12 Ru3'
_cell_volume   489.43048674
_cell_formula_units_Z   1
loop_
 _symmetry_equiv_pos_site_id
 _symmetry_equiv_pos_as_xyz
  1  'x, y, z'
loop_
 _atom_site_type_symbol
 _atom_site_label
 _atom_site_symmetry_multiplicity
 _atom_site_fract_x
 _atom_site_fract_y
 _atom_site_fract_z
 _atom_site_occupancy
  Er  Er0  1  0.185152  0.185152  0.500000  1
  Er  Er1  1  0.814848  0.000000  0.500000  1
  Er  Er2  1  0.000000  0.814848  0.500000  1
  Er  Er3  1  0.333333  0.666667  0.000000  1
  Er  Er4  1  0.666667  0.333333  0.000000  1
  Co  Co5  1  0.720629  0.720629  0.500000  1
  Co  Co6  1  0.279371  0.000000  0.500000  1
  Co  Co7  1  0.000000  0.279371  0.500000  1
  Co  Co8  1  0.180973  0.376903  0.000000  1
  Co  Co9  1  0.623097  0.804069  0.000000  1
  Co  Co10  1  0.195931  0.819027  0.000000  1
  Co  Co11  1  0.804069  0.623097  0.000000  1
  Co  Co12  1  0.819027  0.195931  0.000000  1
  Co  Co13  1  0.376903  0.180973  0.000000  1
  Co  Co14  1  0.355431  0.479081  0.500000  1
  Co  Co15  1  0.520919  0.876350  0.500000  1
  Co  Co16  1  0.123650  0.644569  0.500000  1
  Co  Co17  1  0.876350  0.520919  0.500000  1
  Co  Co18  1  0.644569  0.123650  0.500000  1
  Co  Co19  1  0.479081  0.355431  0.500000  1
  Co  Co20  1  0.000000  0.000000  0.000000  1
  Si  Si21  1  0.816003  0.816003  0.000000  1
  Si  Si22  1  0.183997  0.000000  0.000000  1
  Si  Si23  1  0.000000  0.183997  0.000000  1
  Si  Si24  1  0.161978  0.477567  0.500000  1
  Si  Si25  1  0.522433  0.684413  0.500000  1
  Si  Si26  1  0.315587  0.838022  0.500000  1
  Si  Si27  1  0.684413  0.522433  0.500000  1
  Si  Si28  1  0.838022  0.315587  0.500000  1
  Si  Si29  1  0.477567  0.161978  0.500000  1
  Si  Si30  1  0.367666  0.367666  0.000000  1
  Si  Si31  1  0.632334  0.000000  0.000000  1
  Si  Si32  1  0.000000  0.632334  0.000000  1
  Ru  Ru33  1  0.559681  0.559681  0.000000  1
  Ru  Ru34  1  0.440319  0.000000  0.000000  1
  Ru  Ru35  1  0.000000  0.440319  0.000000  1
