# generated using pymatgen
data_K4Ga4Si3GeSe16
_symmetry_space_group_name_H-M   'P 1'
_cell_length_a   17.04123361
_cell_length_b   7.32336962
_cell_length_c   7.70649994
_cell_angle_alpha   68.95591947
_cell_angle_beta   90.18611487
_cell_angle_gamma   89.61327303
_symmetry_Int_Tables_number   1
_chemical_formula_structural   K4Ga4Si3GeSe16
_chemical_formula_sum   'K4 Ga4 Si3 Ge1 Se16'
_cell_volume   897.58292354
_cell_formula_units_Z   1
loop_
 _symmetry_equiv_pos_site_id
 _symmetry_equiv_pos_as_xyz
  1  'x, y, z'
loop_
 _atom_site_type_symbol
 _atom_site_label
 _atom_site_symmetry_multiplicity
 _atom_site_fract_x
 _atom_site_fract_y
 _atom_site_fract_z
 _atom_site_occupancy
  K  K0  1  0.394592  0.947872  0.182524  1
  K  K1  1  0.890071  0.050902  0.817021  1
  K  K2  1  0.602799  0.524874  0.822756  1
  K  K3  1  0.103573  0.482986  0.175913  1
  Ga  Ga4  1  0.586296  0.163833  0.487126  1
  Ga  Ga5  1  0.083873  0.835554  0.513775  1
  Ga  Ga6  1  0.273479  0.580816  0.704817  1
  Ga  Ga7  1  0.771630  0.417321  0.300613  1
  Si  Si8  1  0.422464  0.319201  0.531434  1
  Si  Si9  1  0.921198  0.680119  0.464231  1
  Si  Si10  1  0.725730  0.918600  0.278432  1
  Ge  Ge11  1  0.225896  0.082227  0.720650  1
  Se  Se12  1  0.600041  0.883029  0.390420  1
  Se  Se13  1  0.094437  0.120152  0.604819  1
  Se  Se14  1  0.411564  0.590902  0.612411  1
  Se  Se15  1  0.910676  0.406176  0.386372  1
  Se  Se16  1  0.803301  0.789834  0.545121  1
  Se  Se17  1  0.306146  0.213137  0.443986  1
  Se  Se18  1  0.200634  0.715418  0.420621  1
  Se  Se19  1  0.700695  0.285817  0.585302  1
  Se  Se20  1  0.757643  0.232488  0.091241  1
  Se  Se21  1  0.261867  0.758517  0.918327  1
  Se  Se22  1  0.239763  0.256393  0.926320  1
  Se  Se23  1  0.737836  0.748334  0.081716  1
  Se  Se24  1  0.992678  0.913937  0.244082  1
  Se  Se25  1  0.494027  0.080313  0.752126  1
  Se  Se26  1  0.992629  0.605679  0.733817  1
  Se  Se27  1  0.494463  0.395567  0.264028  1
