# generated using pymatgen
data_Li4La3TbIr4
_symmetry_space_group_name_H-M   'P 1'
_cell_length_a   7.11891560
_cell_length_b   4.05627600
_cell_length_c   8.54289602
_cell_angle_alpha   90.00000000
_cell_angle_beta   89.72844792
_cell_angle_gamma   90.00000000
_symmetry_Int_Tables_number   1
_chemical_formula_structural   Li4La3TbIr4
_chemical_formula_sum   'Li4 La3 Tb1 Ir4'
_cell_volume   246.68434233
_cell_formula_units_Z   1
loop_
 _symmetry_equiv_pos_site_id
 _symmetry_equiv_pos_as_xyz
  1  'x, y, z'
loop_
 _atom_site_type_symbol
 _atom_site_label
 _atom_site_symmetry_multiplicity
 _atom_site_fract_x
 _atom_site_fract_y
 _atom_site_fract_z
 _atom_site_occupancy
  Li  Li0  1  0.879962  0.250000  0.547597  1
  Li  Li1  1  0.373590  0.250000  0.948627  1
  Li  Li2  1  0.119539  0.750000  0.445277  1
  Li  Li3  1  0.630441  0.750000  0.053127  1
  La  La4  1  0.452561  0.250000  0.316741  1
  La  La5  1  0.046313  0.750000  0.825546  1
  La  La6  1  0.546988  0.750000  0.678427  1
  Tb  Tb7  1  0.949700  0.250000  0.178956  1
  Ir  Ir8  1  0.760697  0.250000  0.872611  1
  Ir  Ir9  1  0.260890  0.250000  0.633207  1
  Ir  Ir10  1  0.234332  0.750000  0.135632  1
  Ir  Ir11  1  0.744985  0.750000  0.364253  1
