# generated using pymatgen
data_Th6Al24PdRu7
_symmetry_space_group_name_H-M   'P 1'
_cell_length_a   8.98482450
_cell_length_b   8.98482383
_cell_length_c   9.57266177
_cell_angle_alpha   89.90187727
_cell_angle_beta   90.09811554
_cell_angle_gamma   119.82641368
_symmetry_Int_Tables_number   1
_chemical_formula_structural   Th6Al24PdRu7
_chemical_formula_sum   'Th6 Al24 Pd1 Ru7'
_cell_volume   670.40718577
_cell_formula_units_Z   1
loop_
 _symmetry_equiv_pos_site_id
 _symmetry_equiv_pos_as_xyz
  1  'x, y, z'
loop_
 _atom_site_type_symbol
 _atom_site_label
 _atom_site_symmetry_multiplicity
 _atom_site_fract_x
 _atom_site_fract_y
 _atom_site_fract_z
 _atom_site_occupancy
  Th  Th0  1  0.190885  0.387139  0.250907  1
  Th  Th1  1  0.809115  0.612861  0.749093  1
  Th  Th2  1  0.612861  0.809115  0.250907  1
  Th  Th3  1  0.387139  0.190885  0.749093  1
  Th  Th4  1  0.194209  0.805791  0.252238  1
  Th  Th5  1  0.805791  0.194209  0.747762  1
  Al  Al6  1  0.330861  0.669139  0.013626  1
  Al  Al7  1  0.669139  0.330861  0.986374  1
  Al  Al8  1  0.666509  0.333491  0.510782  1
  Al  Al9  1  0.333491  0.666509  0.489218  1
  Al  Al10  1  0.162824  0.325171  0.576640  1
  Al  Al11  1  0.837176  0.674829  0.423360  1
  Al  Al12  1  0.674829  0.837176  0.576640  1
  Al  Al13  1  0.842998  0.676514  0.078121  1
  Al  Al14  1  0.325171  0.162824  0.423360  1
  Al  Al15  1  0.157002  0.323486  0.921879  1
  Al  Al16  1  0.162884  0.837116  0.577568  1
  Al  Al17  1  0.323486  0.157002  0.078121  1
  Al  Al18  1  0.837116  0.162884  0.422432  1
  Al  Al19  1  0.676514  0.842998  0.921879  1
  Al  Al20  1  0.837117  0.162883  0.077340  1
  Al  Al21  1  0.162883  0.837117  0.922660  1
  Al  Al22  1  0.563121  0.126807  0.249446  1
  Al  Al23  1  0.436879  0.873193  0.750554  1
  Al  Al24  1  0.873193  0.436879  0.249446  1
  Al  Al25  1  0.126807  0.563121  0.750554  1
  Al  Al26  1  0.563697  0.436303  0.253117  1
  Al  Al27  1  0.436303  0.563697  0.746883  1
  Al  Al28  1  0.999435  0.000565  0.250351  1
  Al  Al29  1  0.000565  0.999435  0.749649  1
  Pd  Pd30  1  0.500000  0.500000  0.000000  1
  Ru  Ru31  1  0.500000  0.000000  0.000000  1
  Ru  Ru32  1  0.000000  0.500000  0.000000  1
  Ru  Ru33  1  0.500000  0.000000  0.500000  1
  Ru  Ru34  1  0.000000  0.500000  0.500000  1
  Ru  Ru35  1  0.500000  0.500000  0.500000  1
  Ru  Ru36  1  0.000000  0.000000  0.000000  1
  Ru  Ru37  1  0.000000  0.000000  0.500000  1
