# generated using pymatgen
data_LaScReB6
_symmetry_space_group_name_H-M   'P 1'
_cell_length_a   3.68653000
_cell_length_b   9.12803200
_cell_length_c   11.65323800
_cell_angle_alpha   90.00000000
_cell_angle_beta   90.00000000
_cell_angle_gamma   90.00000000
_symmetry_Int_Tables_number   1
_chemical_formula_structural   LaScReB6
_chemical_formula_sum   'La4 Sc4 Re4 B24'
_cell_volume   392.14035955
_cell_formula_units_Z   4
loop_
 _symmetry_equiv_pos_site_id
 _symmetry_equiv_pos_as_xyz
  1  'x, y, z'
loop_
 _atom_site_type_symbol
 _atom_site_label
 _atom_site_symmetry_multiplicity
 _atom_site_fract_x
 _atom_site_fract_y
 _atom_site_fract_z
 _atom_site_occupancy
  La  La0  1  0.000000  0.321425  0.414994  1
  La  La1  1  0.000000  0.678575  0.585006  1
  La  La2  1  0.000000  0.821425  0.085006  1
  La  La3  1  0.000000  0.178575  0.914994  1
  Sc  Sc4  1  0.000000  0.943513  0.367634  1
  Sc  Sc5  1  0.000000  0.056487  0.632366  1
  Sc  Sc6  1  0.000000  0.443513  0.132366  1
  Sc  Sc7  1  0.000000  0.556487  0.867634  1
  Re  Re8  1  0.000000  0.642388  0.316347  1
  Re  Re9  1  0.000000  0.357612  0.683653  1
  Re  Re10  1  0.000000  0.142388  0.183653  1
  Re  Re11  1  0.000000  0.857612  0.816347  1
  B  B12  1  0.500000  0.557693  0.427941  1
  B  B13  1  0.500000  0.442307  0.572059  1
  B  B14  1  0.500000  0.057693  0.072059  1
  B  B15  1  0.500000  0.942307  0.927941  1
  B  B16  1  0.500000  0.755194  0.414341  1
  B  B17  1  0.500000  0.244806  0.585659  1
  B  B18  1  0.500000  0.255194  0.085659  1
  B  B19  1  0.500000  0.744806  0.914341  1
  B  B20  1  0.500000  0.794608  0.265646  1
  B  B21  1  0.500000  0.205392  0.734354  1
  B  B22  1  0.500000  0.294608  0.234354  1
  B  B23  1  0.500000  0.705392  0.765646  1
  B  B24  1  0.500000  0.627829  0.184489  1
  B  B25  1  0.500000  0.372171  0.815511  1
  B  B26  1  0.500000  0.127829  0.315511  1
  B  B27  1  0.500000  0.872171  0.684489  1
  B  B28  1  0.500000  0.983835  0.215180  1
  B  B29  1  0.500000  0.016165  0.784820  1
  B  B30  1  0.500000  0.483835  0.284820  1
  B  B31  1  0.500000  0.516165  0.715180  1
  B  B32  1  0.500000  0.591906  0.024585  1
  B  B33  1  0.500000  0.408094  0.975415  1
  B  B34  1  0.500000  0.091906  0.475415  1
  B  B35  1  0.500000  0.908094  0.524585  1
