# generated using pymatgen
data_SmEr4(Hg2Pd)2
_symmetry_space_group_name_H-M   'P 1'
_cell_length_a   3.64067000
_cell_length_b   7.90960500
_cell_length_c   18.23416800
_cell_angle_alpha   90.00000000
_cell_angle_beta   90.00000000
_cell_angle_gamma   90.00000000
_symmetry_Int_Tables_number   1
_chemical_formula_structural   SmEr4(Hg2Pd)2
_chemical_formula_sum   'Sm2 Er8 Hg8 Pd4'
_cell_volume   525.07587243
_cell_formula_units_Z   2
loop_
 _symmetry_equiv_pos_site_id
 _symmetry_equiv_pos_as_xyz
  1  'x, y, z'
loop_
 _atom_site_type_symbol
 _atom_site_label
 _atom_site_symmetry_multiplicity
 _atom_site_fract_x
 _atom_site_fract_y
 _atom_site_fract_z
 _atom_site_occupancy
  Sm  Sm0  1  0.000000  0.500000  0.500000  1
  Sm  Sm1  1  0.000000  0.000000  0.000000  1
  Er  Er2  1  0.000000  0.736371  0.284672  1
  Er  Er3  1  0.000000  0.263629  0.715328  1
  Er  Er4  1  0.000000  0.763629  0.784672  1
  Er  Er5  1  0.000000  0.236371  0.215328  1
  Er  Er6  1  0.000000  0.615145  0.085386  1
  Er  Er7  1  0.000000  0.384855  0.914614  1
  Er  Er8  1  0.000000  0.884855  0.585386  1
  Er  Er9  1  0.000000  0.115145  0.414614  1
  Hg  Hg10  1  0.500000  0.705048  0.934033  1
  Hg  Hg11  1  0.500000  0.294952  0.065967  1
  Hg  Hg12  1  0.500000  0.794952  0.434033  1
  Hg  Hg13  1  0.500000  0.205048  0.565967  1
  Hg  Hg14  1  0.500000  0.582826  0.649863  1
  Hg  Hg15  1  0.500000  0.417174  0.350137  1
  Hg  Hg16  1  0.500000  0.917174  0.149863  1
  Hg  Hg17  1  0.500000  0.082826  0.850137  1
  Pd  Pd18  1  0.500000  0.527497  0.196411  1
  Pd  Pd19  1  0.500000  0.472503  0.803589  1
  Pd  Pd20  1  0.500000  0.972503  0.696411  1
  Pd  Pd21  1  0.500000  0.027497  0.303589  1
