# generated using pymatgen
data_Rb2Al(GaAu2)3
_symmetry_space_group_name_H-M   'P 1'
_cell_length_a   5.64918485
_cell_length_b   7.18723756
_cell_length_c   13.58892700
_cell_angle_alpha   90.00000000
_cell_angle_beta   90.00000000
_cell_angle_gamma   89.88546010
_symmetry_Int_Tables_number   1
_chemical_formula_structural   Rb2Al(GaAu2)3
_chemical_formula_sum   'Rb4 Al2 Ga6 Au12'
_cell_volume   551.73696692
_cell_formula_units_Z   2
loop_
 _symmetry_equiv_pos_site_id
 _symmetry_equiv_pos_as_xyz
  1  'x, y, z'
loop_
 _atom_site_type_symbol
 _atom_site_label
 _atom_site_symmetry_multiplicity
 _atom_site_fract_x
 _atom_site_fract_y
 _atom_site_fract_z
 _atom_site_occupancy
  Rb  Rb0  1  0.248924  0.101927  0.073575  1
  Rb  Rb1  1  0.251076  0.398073  0.573575  1
  Rb  Rb2  1  0.750001  0.897831  0.926373  1
  Rb  Rb3  1  0.749999  0.602169  0.426373  1
  Al  Al4  1  0.998481  0.899217  0.656264  1
  Al  Al5  1  0.501519  0.600783  0.156264  1
  Ga  Ga6  1  0.499164  0.103597  0.345139  1
  Ga  Ga7  1  0.000836  0.396403  0.845139  1
  Ga  Ga8  1  0.002022  0.103565  0.344193  1
  Ga  Ga9  1  0.497978  0.396435  0.844193  1
  Ga  Ga10  1  0.502871  0.895098  0.654828  1
  Ga  Ga11  1  0.997129  0.604902  0.154828  1
  Au  Au12  1  0.247789  0.107615  0.785144  1
  Au  Au13  1  0.252211  0.392385  0.285144  1
  Au  Au14  1  0.745248  0.887979  0.212622  1
  Au  Au15  1  0.754752  0.612021  0.712622  1
  Au  Au16  1  0.246131  0.700355  0.789317  1
  Au  Au17  1  0.253869  0.799645  0.289317  1
  Au  Au18  1  0.747267  0.301380  0.209693  1
  Au  Au19  1  0.752733  0.198620  0.709693  1
  Au  Au20  1  0.255809  0.582399  0.995580  1
  Au  Au21  1  0.244191  0.917601  0.495580  1
  Au  Au22  1  0.748133  0.419556  0.007273  1
  Au  Au23  1  0.751867  0.080444  0.507273  1
