# generated using pymatgen
data_Nb6BiBr18
_symmetry_space_group_name_H-M   'P 1'
_cell_length_a   10.78379876
_cell_length_b   10.78379881
_cell_length_c   10.78379796
_cell_angle_alpha   56.03465301
_cell_angle_beta   56.03464776
_cell_angle_gamma   56.03465228
_symmetry_Int_Tables_number   1
_chemical_formula_structural   Nb6BiBr18
_chemical_formula_sum   'Nb6 Bi1 Br18'
_cell_volume   805.29937083
_cell_formula_units_Z   1
loop_
 _symmetry_equiv_pos_site_id
 _symmetry_equiv_pos_as_xyz
  1  'x, y, z'
loop_
 _atom_site_type_symbol
 _atom_site_label
 _atom_site_symmetry_multiplicity
 _atom_site_fract_x
 _atom_site_fract_y
 _atom_site_fract_z
 _atom_site_occupancy
  Nb  Nb0  1  0.412093  0.308332  0.643639  1
  Nb  Nb1  1  0.356361  0.587907  0.691668  1
  Nb  Nb2  1  0.691668  0.356361  0.587907  1
  Nb  Nb3  1  0.308332  0.643639  0.412093  1
  Nb  Nb4  1  0.643639  0.412093  0.308332  1
  Nb  Nb5  1  0.587907  0.691668  0.356361  1
  Bi  Bi6  1  0.000000  0.000000  0.000000  1
  Br  Br7  1  0.568423  0.163576  0.441520  1
  Br  Br8  1  0.225071  0.371455  0.905629  1
  Br  Br9  1  0.905629  0.225071  0.371455  1
  Br  Br10  1  0.371455  0.905629  0.225071  1
  Br  Br11  1  0.774929  0.628545  0.094371  1
  Br  Br12  1  0.094371  0.774929  0.628545  1
  Br  Br13  1  0.693394  0.959788  0.163995  1
  Br  Br14  1  0.959788  0.163995  0.693394  1
  Br  Br15  1  0.163995  0.693394  0.959788  1
  Br  Br16  1  0.306606  0.040212  0.836005  1
  Br  Br17  1  0.040212  0.836005  0.306606  1
  Br  Br18  1  0.836005  0.306606  0.040212  1
  Br  Br19  1  0.558480  0.431577  0.836424  1
  Br  Br20  1  0.163576  0.441520  0.568423  1
  Br  Br21  1  0.441520  0.568423  0.163576  1
  Br  Br22  1  0.431577  0.836424  0.558480  1
  Br  Br23  1  0.836424  0.558480  0.431577  1
  Br  Br24  1  0.628545  0.094371  0.774929  1
