# generated using pymatgen
data_Er4GeB4Ir9
_symmetry_space_group_name_H-M   'P 1'
_cell_length_a   10.74231846
_cell_length_b   10.74231834
_cell_length_c   10.74231869
_cell_angle_alpha   29.74006630
_cell_angle_beta   29.74006701
_cell_angle_gamma   29.74007404
_symmetry_Int_Tables_number   1
_chemical_formula_structural   Er4GeB4Ir9
_chemical_formula_sum   'Er4 Ge1 B4 Ir9'
_cell_volume   270.10535242
_cell_formula_units_Z   1
loop_
 _symmetry_equiv_pos_site_id
 _symmetry_equiv_pos_as_xyz
  1  'x, y, z'
loop_
 _atom_site_type_symbol
 _atom_site_label
 _atom_site_symmetry_multiplicity
 _atom_site_fract_x
 _atom_site_fract_y
 _atom_site_fract_z
 _atom_site_occupancy
  Er  Er0  1  0.150051  0.150051  0.150051  1
  Er  Er1  1  0.950257  0.950257  0.950257  1
  Er  Er2  1  0.849949  0.849949  0.849949  1
  Er  Er3  1  0.049743  0.049743  0.049743  1
  Ge  Ge4  1  0.500000  0.500000  0.500000  1
  B  B5  1  0.615848  0.615848  0.615848  1
  B  B6  1  0.718000  0.718000  0.718000  1
  B  B7  1  0.384152  0.384152  0.384152  1
  B  B8  1  0.282000  0.282000  0.282000  1
  Ir  Ir9  1  0.401806  0.901386  0.401806  1
  Ir  Ir10  1  0.901386  0.401806  0.401806  1
  Ir  Ir11  1  0.500000  0.500000  0.000000  1
  Ir  Ir12  1  0.500000  0.000000  0.500000  1
  Ir  Ir13  1  0.000000  0.500000  0.500000  1
  Ir  Ir14  1  0.598194  0.098614  0.598194  1
  Ir  Ir15  1  0.598194  0.598194  0.098614  1
  Ir  Ir16  1  0.098614  0.598194  0.598194  1
  Ir  Ir17  1  0.401806  0.401806  0.901386  1
