# generated using pymatgen
data_Ca4P7Rh8
_symmetry_space_group_name_H-M   'P 1'
_cell_length_a   3.98873400
_cell_length_b   12.66946776
_cell_length_c   13.09830243
_cell_angle_alpha   81.04421657
_cell_angle_beta   90.00000000
_cell_angle_gamma   90.00000000
_symmetry_Int_Tables_number   1
_chemical_formula_structural   Ca4P7Rh8
_chemical_formula_sum   'Ca8 P14 Rh16'
_cell_volume   653.85483220
_cell_formula_units_Z   2
loop_
 _symmetry_equiv_pos_site_id
 _symmetry_equiv_pos_as_xyz
  1  'x, y, z'
loop_
 _atom_site_type_symbol
 _atom_site_label
 _atom_site_symmetry_multiplicity
 _atom_site_fract_x
 _atom_site_fract_y
 _atom_site_fract_z
 _atom_site_occupancy
  Ca  Ca0  1  0.750000  0.787325  0.564573  1
  Ca  Ca1  1  0.250000  0.212675  0.435427  1
  Ca  Ca2  1  0.750000  0.484642  0.707710  1
  Ca  Ca3  1  0.250000  0.515358  0.292290  1
  Ca  Ca4  1  0.750000  0.717554  0.895258  1
  Ca  Ca5  1  0.250000  0.103013  0.792456  1
  Ca  Ca6  1  0.750000  0.896987  0.207544  1
  Ca  Ca7  1  0.250000  0.282446  0.104742  1
  P  P8  1  0.250000  0.910261  0.413029  1
  P  P9  1  0.750000  0.474154  0.127991  1
  P  P10  1  0.250000  0.525846  0.872009  1
  P  P11  1  0.750000  0.089739  0.586971  1
  P  P12  1  0.250000  0.741277  0.079364  1
  P  P13  1  0.750000  0.258723  0.920636  1
  P  P14  1  0.750000  0.154669  0.282565  1
  P  P15  1  0.250000  0.845331  0.717435  1
  P  P16  1  0.250000  0.053583  0.098916  1
  P  P17  1  0.750000  0.946417  0.901084  1
  P  P18  1  0.250000  0.309536  0.687819  1
  P  P19  1  0.750000  0.690464  0.312181  1
  P  P20  1  0.250000  0.609778  0.561711  1
  P  P21  1  0.750000  0.390222  0.438289  1
  Rh  Rh22  1  0.250000  0.985059  0.575141  1
  Rh  Rh23  1  0.750000  0.014941  0.424859  1
  Rh  Rh24  1  0.250000  0.663465  0.726954  1
  Rh  Rh25  1  0.750000  0.336535  0.273046  1
  Rh  Rh26  1  0.250000  0.554382  0.046947  1
  Rh  Rh27  1  0.750000  0.445618  0.953053  1
  Rh  Rh28  1  0.250000  0.061009  0.274152  1
  Rh  Rh29  1  0.750000  0.938991  0.725848  1
  Rh  Rh30  1  0.250000  0.423598  0.527602  1
  Rh  Rh31  1  0.750000  0.576402  0.472398  1
  Rh  Rh32  1  0.250000  0.916812  0.998802  1
  Rh  Rh33  1  0.750000  0.083188  0.001198  1
  Rh  Rh34  1  0.250000  0.727771  0.396008  1
  Rh  Rh35  1  0.750000  0.272229  0.603992  1
  Rh  Rh36  1  0.250000  0.340452  0.858275  1
  Rh  Rh37  1  0.750000  0.659548  0.141725  1
