# generated using pymatgen
data_DyY4Si6P6Ir19
_symmetry_space_group_name_H-M   'P 1'
_cell_length_a   12.79972100
_cell_length_b   12.79972114
_cell_length_c   3.95150100
_cell_angle_alpha   90.00000000
_cell_angle_beta   90.00000000
_cell_angle_gamma   119.99999705
_symmetry_Int_Tables_number   1
_chemical_formula_structural   DyY4Si6P6Ir19
_chemical_formula_sum   'Dy1 Y4 Si6 P6 Ir19'
_cell_volume   560.65248596
_cell_formula_units_Z   1
loop_
 _symmetry_equiv_pos_site_id
 _symmetry_equiv_pos_as_xyz
  1  'x, y, z'
loop_
 _atom_site_type_symbol
 _atom_site_label
 _atom_site_symmetry_multiplicity
 _atom_site_fract_x
 _atom_site_fract_y
 _atom_site_fract_z
 _atom_site_occupancy
  Dy  Dy0  1  0.666667  0.333333  0.500000  1
  Y  Y1  1  0.333333  0.666667  0.500000  1
  Y  Y2  1  0.001524  0.816004  0.000000  1
  Y  Y3  1  0.183996  0.185519  0.000000  1
  Y  Y4  1  0.814481  0.998476  0.000000  1
  Si  Si5  1  0.000787  0.635793  0.500000  1
  Si  Si6  1  0.364207  0.364995  0.500000  1
  Si  Si7  1  0.635005  0.999213  0.500000  1
  Si  Si8  1  0.519657  0.682229  0.000000  1
  Si  Si9  1  0.317771  0.837428  0.000000  1
  Si  Si10  1  0.162572  0.480343  0.000000  1
  P  P11  1  0.483635  0.177596  0.000000  1
  P  P12  1  0.693961  0.516365  0.000000  1
  P  P13  1  0.822404  0.306039  0.000000  1
  P  P14  1  0.996331  0.176410  0.500000  1
  P  P15  1  0.823590  0.819921  0.500000  1
  P  P16  1  0.180079  0.003669  0.500000  1
  Ir  Ir17  1  0.515375  0.869051  0.000000  1
  Ir  Ir18  1  0.130949  0.646324  0.000000  1
  Ir  Ir19  1  0.353676  0.484625  0.000000  1
  Ir  Ir20  1  0.494471  0.368332  0.000000  1
  Ir  Ir21  1  0.873861  0.505529  0.000000  1
  Ir  Ir22  1  0.631668  0.126139  0.000000  1
  Ir  Ir23  1  0.014487  0.457511  0.500000  1
  Ir  Ir24  1  0.542489  0.556976  0.500000  1
  Ir  Ir25  1  0.443024  0.985513  0.500000  1
  Ir  Ir26  1  0.993667  0.277788  0.000000  1
  Ir  Ir27  1  0.722212  0.715879  0.000000  1
  Ir  Ir28  1  0.284121  0.006333  0.000000  1
  Ir  Ir29  1  0.632598  0.808721  0.500000  1
  Ir  Ir30  1  0.191279  0.823877  0.500000  1
  Ir  Ir31  1  0.176123  0.367402  0.500000  1
  Ir  Ir32  1  0.381844  0.182714  0.500000  1
  Ir  Ir33  1  0.800870  0.618156  0.500000  1
  Ir  Ir34  1  0.817286  0.199130  0.500000  1
  Ir  Ir35  1  0.000000  0.000000  0.500000  1
