# generated using pymatgen
data_Ce2DyHoSi3Rh4
_symmetry_space_group_name_H-M   'P 1'
_cell_length_a   10.69698865
_cell_length_b   10.69698853
_cell_length_c   7.82184109
_cell_angle_alpha   71.14039257
_cell_angle_beta   71.14039085
_cell_angle_gamma   29.76883018
_symmetry_Int_Tables_number   1
_chemical_formula_structural   Ce2DyHoSi3Rh4
_chemical_formula_sum   'Ce4 Dy2 Ho2 Si6 Rh8'
_cell_volume   418.78447684
_cell_formula_units_Z   2
loop_
 _symmetry_equiv_pos_site_id
 _symmetry_equiv_pos_as_xyz
  1  'x, y, z'
loop_
 _atom_site_type_symbol
 _atom_site_label
 _atom_site_symmetry_multiplicity
 _atom_site_fract_x
 _atom_site_fract_y
 _atom_site_fract_z
 _atom_site_occupancy
  Ce  Ce0  1  0.789023  0.080289  0.169715  1
  Ce  Ce1  1  0.919711  0.210977  0.330285  1
  Ce  Ce2  1  0.211022  0.919725  0.830192  1
  Ce  Ce3  1  0.080275  0.788978  0.669808  1
  Dy  Dy4  1  0.205253  0.453305  0.399463  1
  Dy  Dy5  1  0.546695  0.794747  0.100537  1
  Ho  Ho6  1  0.794451  0.546974  0.600628  1
  Ho  Ho7  1  0.453026  0.205549  0.899372  1
  Si  Si8  1  0.951714  0.702999  0.057066  1
  Si  Si9  1  0.297001  0.048286  0.442934  1
  Si  Si10  1  0.048167  0.297187  0.942494  1
  Si  Si11  1  0.702813  0.951833  0.557506  1
  Si  Si12  1  0.653401  0.346599  0.750000  1
  Si  Si13  1  0.346669  0.653331  0.250000  1
  Rh  Rh14  1  0.567654  0.303706  0.517563  1
  Rh  Rh15  1  0.696294  0.432346  0.982437  1
  Rh  Rh16  1  0.432504  0.696156  0.482828  1
  Rh  Rh17  1  0.303844  0.567496  0.017172  1
  Rh  Rh18  1  0.634481  0.924850  0.312298  1
  Rh  Rh19  1  0.075150  0.365519  0.187702  1
  Rh  Rh20  1  0.365696  0.074842  0.687826  1
  Rh  Rh21  1  0.925158  0.634304  0.812174  1
