# generated using pymatgen
data_Yb2Al2CuPd
_symmetry_space_group_name_H-M   'P 1'
_cell_length_a   4.22574500
_cell_length_b   7.02200800
_cell_length_c   7.93913200
_cell_angle_alpha   90.00000000
_cell_angle_beta   90.00000000
_cell_angle_gamma   90.00000000
_symmetry_Int_Tables_number   1
_chemical_formula_structural   Yb2Al2CuPd
_chemical_formula_sum   'Yb4 Al4 Cu2 Pd2'
_cell_volume   235.57957231
_cell_formula_units_Z   2
loop_
 _symmetry_equiv_pos_site_id
 _symmetry_equiv_pos_as_xyz
  1  'x, y, z'
loop_
 _atom_site_type_symbol
 _atom_site_label
 _atom_site_symmetry_multiplicity
 _atom_site_fract_x
 _atom_site_fract_y
 _atom_site_fract_z
 _atom_site_occupancy
  Yb  Yb0  1  0.250000  0.034088  0.329637  1
  Yb  Yb1  1  0.250000  0.534088  0.170363  1
  Yb  Yb2  1  0.750000  0.965959  0.675827  1
  Yb  Yb3  1  0.750000  0.465959  0.824173  1
  Al  Al4  1  0.250000  0.131789  0.940988  1
  Al  Al5  1  0.250000  0.631789  0.559012  1
  Al  Al6  1  0.750000  0.865969  0.056168  1
  Al  Al7  1  0.750000  0.365969  0.443832  1
  Cu  Cu8  1  0.250000  0.277882  0.632818  1
  Cu  Cu9  1  0.250000  0.777882  0.867182  1
  Pd  Pd10  1  0.750000  0.724313  0.370929  1
  Pd  Pd11  1  0.750000  0.224313  0.129071  1
