# generated using pymatgen
data_Tb3Ho8ErRu4
_symmetry_space_group_name_H-M   'P 1'
_cell_length_a   6.29611796
_cell_length_b   7.29884813
_cell_length_c   9.16451283
_cell_angle_alpha   89.99881349
_cell_angle_beta   89.95119814
_cell_angle_gamma   89.92690977
_symmetry_Int_Tables_number   1
_chemical_formula_structural   Tb3Ho8ErRu4
_chemical_formula_sum   'Tb3 Ho8 Er1 Ru4'
_cell_volume   421.14927322
_cell_formula_units_Z   1
loop_
 _symmetry_equiv_pos_site_id
 _symmetry_equiv_pos_as_xyz
  1  'x, y, z'
loop_
 _atom_site_type_symbol
 _atom_site_label
 _atom_site_symmetry_multiplicity
 _atom_site_fract_x
 _atom_site_fract_y
 _atom_site_fract_z
 _atom_site_occupancy
  Tb  Tb0  1  0.865940  0.539525  0.249848  1
  Tb  Tb1  1  0.634035  0.039184  0.249917  1
  Tb  Tb2  1  0.134637  0.460621  0.750109  1
  Ho  Ho3  1  0.169984  0.175772  0.435367  1
  Ho  Ho4  1  0.669092  0.323361  0.564893  1
  Ho  Ho5  1  0.829698  0.823844  0.934903  1
  Ho  Ho6  1  0.668994  0.323528  0.935189  1
  Ho  Ho7  1  0.829683  0.823894  0.565222  1
  Ho  Ho8  1  0.330576  0.676775  0.435124  1
  Ho  Ho9  1  0.170131  0.175875  0.064571  1
  Ho  Ho10  1  0.365491  0.960540  0.750087  1
  Er  Er11  1  0.330737  0.676668  0.064977  1
  Ru  Ru12  1  0.041798  0.884347  0.249826  1
  Ru  Ru13  1  0.458405  0.384542  0.249847  1
  Ru  Ru14  1  0.959920  0.115187  0.749943  1
  Ru  Ru15  1  0.540880  0.616338  0.750177  1
