# generated using pymatgen
data_PrNp9O20
_symmetry_space_group_name_H-M   'P 1'
_cell_length_a   6.63146838
_cell_length_b   7.65616601
_cell_length_c   8.55966008
_cell_angle_alpha   102.97216285
_cell_angle_beta   97.41971857
_cell_angle_gamma   106.75119329
_symmetry_Int_Tables_number   1
_chemical_formula_structural   PrNp9O20
_chemical_formula_sum   'Pr1 Np9 O20'
_cell_volume   396.68016098
_cell_formula_units_Z   1
loop_
 _symmetry_equiv_pos_site_id
 _symmetry_equiv_pos_as_xyz
  1  'x, y, z'
loop_
 _atom_site_type_symbol
 _atom_site_label
 _atom_site_symmetry_multiplicity
 _atom_site_fract_x
 _atom_site_fract_y
 _atom_site_fract_z
 _atom_site_occupancy
  Pr  Pr0  1  0.000000  0.500000  0.000000  1
  Np  Np1  1  0.798383  0.599877  0.599417  1
  Np  Np2  1  0.601426  0.199925  0.200432  1
  Np  Np3  1  0.799410  0.099447  0.599345  1
  Np  Np4  1  0.398574  0.800075  0.799568  1
  Np  Np5  1  0.600398  0.700658  0.199795  1
  Np  Np6  1  0.201617  0.400123  0.400583  1
  Np  Np7  1  0.399602  0.299342  0.800205  1
  Np  Np8  1  0.000000  0.000000  0.000000  1
  Np  Np9  1  0.200590  0.900553  0.400655  1
  O  O10  1  0.647637  0.925708  0.048919  1
  O  O11  1  0.446016  0.524927  0.647133  1
  O  O12  1  0.636928  0.421160  0.053880  1
  O  O13  1  0.737445  0.368978  0.739806  1
  O  O14  1  0.257269  0.126467  0.250886  1
  O  O15  1  0.445684  0.022227  0.649038  1
  O  O16  1  0.554316  0.977773  0.350962  1
  O  O17  1  0.048989  0.734659  0.843747  1
  O  O18  1  0.742731  0.873533  0.749114  1
  O  O19  1  0.363072  0.578840  0.946120  1
  O  O20  1  0.852735  0.325933  0.451003  1
  O  O21  1  0.262555  0.631022  0.260194  1
  O  O22  1  0.553984  0.475073  0.352867  1
  O  O23  1  0.150661  0.174533  0.547340  1
  O  O24  1  0.051670  0.212379  0.842939  1
  O  O25  1  0.948330  0.787621  0.157061  1
  O  O26  1  0.849339  0.825467  0.452660  1
  O  O27  1  0.352363  0.074292  0.951081  1
  O  O28  1  0.147265  0.674067  0.548997  1
  O  O29  1  0.951011  0.265341  0.156253  1
