# generated using pymatgen
data_Ho2Lu2BeOs7
_symmetry_space_group_name_H-M   'P 1'
_cell_length_a   5.22790769
_cell_length_b   5.22790806
_cell_length_c   8.75933100
_cell_angle_alpha   89.81017939
_cell_angle_beta   90.18982063
_cell_angle_gamma   118.79563087
_symmetry_Int_Tables_number   1
_chemical_formula_structural   Ho2Lu2BeOs7
_chemical_formula_sum   'Ho2 Lu2 Be1 Os7'
_cell_volume   209.79633622
_cell_formula_units_Z   1
loop_
 _symmetry_equiv_pos_site_id
 _symmetry_equiv_pos_as_xyz
  1  'x, y, z'
loop_
 _atom_site_type_symbol
 _atom_site_label
 _atom_site_symmetry_multiplicity
 _atom_site_fract_x
 _atom_site_fract_y
 _atom_site_fract_z
 _atom_site_occupancy
  Ho  Ho0  1  0.670227  0.329773  0.935644  1
  Ho  Ho1  1  0.334111  0.665889  0.065576  1
  Lu  Lu2  1  0.332881  0.667119  0.436016  1
  Lu  Lu3  1  0.669341  0.330659  0.563229  1
  Be  Be4  1  0.829071  0.170929  0.253279  1
  Os  Os5  1  0.003160  0.996840  0.495032  1
  Os  Os6  1  0.005160  0.994840  0.004138  1
  Os  Os7  1  0.820822  0.654418  0.252146  1
  Os  Os8  1  0.345582  0.179178  0.252146  1
  Os  Os9  1  0.164311  0.835689  0.747916  1
  Os  Os10  1  0.173958  0.348623  0.747441  1
  Os  Os11  1  0.651377  0.826042  0.747441  1
