# generated using pymatgen
data_La4YEr5Si8
_symmetry_space_group_name_H-M   'P 1'
_cell_length_a   7.79530900
_cell_length_b   7.79326983
_cell_length_c   14.51527844
_cell_angle_alpha   89.92127106
_cell_angle_beta   90.00000000
_cell_angle_gamma   90.00000000
_symmetry_Int_Tables_number   1
_chemical_formula_structural   La4YEr5Si8
_chemical_formula_sum   'La8 Y2 Er10 Si16'
_cell_volume   881.81607086
_cell_formula_units_Z   2
loop_
 _symmetry_equiv_pos_site_id
 _symmetry_equiv_pos_as_xyz
  1  'x, y, z'
loop_
 _atom_site_type_symbol
 _atom_site_label
 _atom_site_symmetry_multiplicity
 _atom_site_fract_x
 _atom_site_fract_y
 _atom_site_fract_z
 _atom_site_occupancy
  La  La0  1  0.988996  0.637868  0.043211  1
  La  La1  1  0.011037  0.362112  0.543569  1
  La  La2  1  0.638060  0.988861  0.956829  1
  La  La3  1  0.138060  0.511139  0.793171  1
  La  La4  1  0.862455  0.489417  0.293425  1
  La  La5  1  0.511037  0.137888  0.206431  1
  La  La6  1  0.488996  0.862132  0.706789  1
  La  La7  1  0.362455  0.010583  0.456575  1
  Y  Y8  1  0.363279  0.489766  0.374670  1
  Y  Y9  1  0.863279  0.010234  0.375330  1
  Er  Er10  1  0.990317  0.136339  0.124136  1
  Er  Er11  1  0.009411  0.863809  0.624932  1
  Er  Er12  1  0.636444  0.509494  0.874480  1
  Er  Er13  1  0.490317  0.363661  0.625864  1
  Er  Er14  1  0.509411  0.636191  0.125068  1
  Er  Er15  1  0.136444  0.990506  0.875520  1
  Er  Er16  1  0.684923  0.684413  0.500267  1
  Er  Er17  1  0.815644  0.184665  0.750181  1
  Er  Er18  1  0.184923  0.815587  0.249733  1
  Er  Er19  1  0.315644  0.315335  0.999819  1
  Si  Si20  1  0.068027  0.713809  0.438109  1
  Si  Si21  1  0.931844  0.286170  0.937346  1
  Si  Si22  1  0.713430  0.068386  0.563312  1
  Si  Si23  1  0.213431  0.431614  0.186688  1
  Si  Si24  1  0.786034  0.568068  0.687536  1
  Si  Si25  1  0.431844  0.213831  0.812654  1
  Si  Si26  1  0.568027  0.786191  0.311891  1
  Si  Si27  1  0.286034  0.931932  0.062464  1
  Si  Si28  1  0.843330  0.799971  0.806387  1
  Si  Si29  1  0.157336  0.199359  0.305000  1
  Si  Si30  1  0.799401  0.842865  0.192940  1
  Si  Si31  1  0.299401  0.657135  0.557060  1
  Si  Si32  1  0.700031  0.343235  0.056044  1
  Si  Si33  1  0.657336  0.300641  0.445000  1
  Si  Si34  1  0.343330  0.700029  0.943613  1
  Si  Si35  1  0.200031  0.156765  0.693956  1
