# generated using pymatgen
data_Er3Al3GaGeIr
_symmetry_space_group_name_H-M   'P 1'
_cell_length_a   6.91219200
_cell_length_b   6.91219125
_cell_length_c   4.25315300
_cell_angle_alpha   90.00000000
_cell_angle_beta   90.00000000
_cell_angle_gamma   120.00000360
_symmetry_Int_Tables_number   1
_chemical_formula_structural   Er3Al3GaGeIr
_chemical_formula_sum   'Er3 Al3 Ga1 Ge1 Ir1'
_cell_volume   175.98399032
_cell_formula_units_Z   1
loop_
 _symmetry_equiv_pos_site_id
 _symmetry_equiv_pos_as_xyz
  1  'x, y, z'
loop_
 _atom_site_type_symbol
 _atom_site_label
 _atom_site_symmetry_multiplicity
 _atom_site_fract_x
 _atom_site_fract_y
 _atom_site_fract_z
 _atom_site_occupancy
  Er  Er0  1  0.417274  0.000220  0.000000  1
  Er  Er1  1  0.999780  0.417054  0.000000  1
  Er  Er2  1  0.582945  0.582725  0.000000  1
  Al  Al3  1  0.771590  0.005125  0.499999  1
  Al  Al4  1  0.233536  0.228411  0.499999  1
  Al  Al5  1  0.994875  0.766464  0.499999  1
  Ga  Ga6  1  0.666666  0.333334  0.499999  1
  Ge  Ge7  1  0.333334  0.666667  0.499999  1
  Ir  Ir8  1  0.000000  0.000000  0.000000  1
