# generated using pymatgen
data_Ho2HfZr(Al3Rh)6
_symmetry_space_group_name_H-M   'P 1'
_cell_length_a   7.51013153
_cell_length_b   7.49425857
_cell_length_c   9.33564900
_cell_angle_alpha   90.00000000
_cell_angle_beta   90.00000000
_cell_angle_gamma   119.68227144
_symmetry_Int_Tables_number   1
_chemical_formula_structural   Ho2HfZr(Al3Rh)6
_chemical_formula_sum   'Ho2 Hf1 Zr1 Al18 Rh6'
_cell_volume   456.49175155
_cell_formula_units_Z   1
loop_
 _symmetry_equiv_pos_site_id
 _symmetry_equiv_pos_as_xyz
  1  'x, y, z'
loop_
 _atom_site_type_symbol
 _atom_site_label
 _atom_site_symmetry_multiplicity
 _atom_site_fract_x
 _atom_site_fract_y
 _atom_site_fract_z
 _atom_site_occupancy
  Ho  Ho0  1  0.670582  0.994189  0.250000  1
  Ho  Ho1  1  0.329291  0.005874  0.750000  1
  Hf  Hf2  1  0.004752  0.328144  0.750000  1
  Zr  Zr3  1  0.994787  0.670874  0.250000  1
  Al  Al4  1  0.125028  0.123369  0.250000  1
  Al  Al5  1  0.874490  0.876315  0.750000  1
  Al  Al6  1  0.999529  0.337235  0.074993  1
  Al  Al7  1  0.000583  0.662560  0.924748  1
  Al  Al8  1  0.000583  0.662560  0.575252  1
  Al  Al9  1  0.332173  0.998022  0.421783  1
  Al  Al10  1  0.999529  0.337235  0.425007  1
  Al  Al11  1  0.667972  0.002180  0.578672  1
  Al  Al12  1  0.667972  0.002180  0.921328  1
  Al  Al13  1  0.332173  0.998022  0.078217  1
  Al  Al14  1  0.330949  0.333612  0.556827  1
  Al  Al15  1  0.669006  0.666597  0.443996  1
  Al  Al16  1  0.669006  0.666597  0.056004  1
  Al  Al17  1  0.330949  0.333612  0.943173  1
  Al  Al18  1  0.334225  0.548904  0.250000  1
  Al  Al19  1  0.666020  0.451260  0.750000  1
  Al  Al20  1  0.555195  0.343380  0.250000  1
  Al  Al21  1  0.444382  0.656053  0.750000  1
  Rh  Rh22  1  0.672964  0.327633  0.999111  1
  Rh  Rh23  1  0.327146  0.672132  0.000136  1
  Rh  Rh24  1  0.327146  0.672132  0.499864  1
  Rh  Rh25  1  0.672964  0.327633  0.500889  1
  Rh  Rh26  1  0.000302  0.000852  0.999284  1
  Rh  Rh27  1  0.000302  0.000852  0.500716  1
