# generated using pymatgen
data_Ac2Ga3Tc14C3
_symmetry_space_group_name_H-M   'P 1'
_cell_length_a   6.98747375
_cell_length_b   6.98747241
_cell_length_c   6.98747200
_cell_angle_alpha   82.48839766
_cell_angle_beta   82.48839083
_cell_angle_gamma   82.48839215
_symmetry_Int_Tables_number   1
_chemical_formula_structural   Ac2Ga3Tc14C3
_chemical_formula_sum   'Ac2 Ga3 Tc14 C3'
_cell_volume   333.08284932
_cell_formula_units_Z   1
loop_
 _symmetry_equiv_pos_site_id
 _symmetry_equiv_pos_as_xyz
  1  'x, y, z'
loop_
 _atom_site_type_symbol
 _atom_site_label
 _atom_site_symmetry_multiplicity
 _atom_site_fract_x
 _atom_site_fract_y
 _atom_site_fract_z
 _atom_site_occupancy
  Ac  Ac0  1  0.657120  0.657120  0.657120  1
  Ac  Ac1  1  0.342880  0.342880  0.342880  1
  Ga  Ga2  1  0.000000  0.000000  0.500000  1
  Ga  Ga3  1  0.500000  0.000000  0.000000  1
  Ga  Ga4  1  0.000000  0.500000  0.000000  1
  Tc  Tc5  1  0.724473  0.275527  0.000000  1
  Tc  Tc6  1  0.000000  0.724473  0.275527  1
  Tc  Tc7  1  0.275527  0.000000  0.724473  1
  Tc  Tc8  1  0.000000  0.275527  0.724473  1
  Tc  Tc9  1  0.724473  0.000000  0.275527  1
  Tc  Tc10  1  0.275527  0.724473  0.000000  1
  Tc  Tc11  1  0.350406  0.350406  0.851746  1
  Tc  Tc12  1  0.851746  0.350406  0.350406  1
  Tc  Tc13  1  0.350406  0.851746  0.350406  1
  Tc  Tc14  1  0.649594  0.649594  0.148254  1
  Tc  Tc15  1  0.148254  0.649594  0.649594  1
  Tc  Tc16  1  0.649594  0.148254  0.649594  1
  Tc  Tc17  1  0.906118  0.906118  0.906118  1
  Tc  Tc18  1  0.093882  0.093882  0.093882  1
  C  C19  1  0.500000  0.500000  0.000000  1
  C  C20  1  0.000000  0.500000  0.500000  1
  C  C21  1  0.500000  0.000000  0.500000  1
