# generated using pymatgen
data_Tb7Ho3In8(CuNi)2
_symmetry_space_group_name_H-M   'P 1'
_cell_length_a   8.04537487
_cell_length_b   18.06177311
_cell_length_c   3.62805400
_cell_angle_alpha   90.00000000
_cell_angle_beta   90.00000000
_cell_angle_gamma   89.95253576
_symmetry_Int_Tables_number   1
_chemical_formula_structural   Tb7Ho3In8(CuNi)2
_chemical_formula_sum   'Tb7 Ho3 In8 Cu2 Ni2'
_cell_volume   527.20589830
_cell_formula_units_Z   1
loop_
 _symmetry_equiv_pos_site_id
 _symmetry_equiv_pos_as_xyz
  1  'x, y, z'
loop_
 _atom_site_type_symbol
 _atom_site_label
 _atom_site_symmetry_multiplicity
 _atom_site_fract_x
 _atom_site_fract_y
 _atom_site_fract_z
 _atom_site_occupancy
  Tb  Tb0  1  0.500005  0.500158  0.000000  1
  Tb  Tb1  1  0.999482  0.999906  0.000000  1
  Tb  Tb2  1  0.758464  0.282897  0.000000  1
  Tb  Tb3  1  0.241481  0.717098  0.000000  1
  Tb  Tb4  1  0.762086  0.777660  0.000000  1
  Tb  Tb5  1  0.238220  0.222524  0.000000  1
  Tb  Tb6  1  0.621351  0.083744  0.000000  1
  Ho  Ho7  1  0.378585  0.915426  0.000000  1
  Ho  Ho8  1  0.881171  0.587170  0.000000  1
  Ho  Ho9  1  0.118859  0.412904  0.000000  1
  In  In10  1  0.704500  0.929906  0.500000  1
  In  In11  1  0.294034  0.069416  0.500000  1
  In  In12  1  0.798109  0.433829  0.500000  1
  In  In13  1  0.201651  0.566210  0.500000  1
  In  In14  1  0.572147  0.651303  0.500000  1
  In  In15  1  0.427977  0.349069  0.500000  1
  In  In16  1  0.927646  0.151971  0.500000  1
  In  In17  1  0.073976  0.848448  0.500000  1
  Cu  Cu18  1  0.532393  0.198846  0.500000  1
  Cu  Cu19  1  0.466801  0.801614  0.500000  1
  Ni  Ni20  1  0.969138  0.695391  0.500000  1
  Ni  Ni21  1  0.031922  0.304512  0.500000  1
