# generated using pymatgen
data_Tm8Sc12Si15Sn
_symmetry_space_group_name_H-M   'P 1'
_cell_length_a   7.08393603
_cell_length_b   7.37433211
_cell_length_c   13.97863549
_cell_angle_alpha   89.98710870
_cell_angle_beta   89.56549074
_cell_angle_gamma   89.98487774
_symmetry_Int_Tables_number   1
_chemical_formula_structural   Tm8Sc12Si15Sn
_chemical_formula_sum   'Tm8 Sc12 Si15 Sn1'
_cell_volume   730.21304848
_cell_formula_units_Z   1
loop_
 _symmetry_equiv_pos_site_id
 _symmetry_equiv_pos_as_xyz
  1  'x, y, z'
loop_
 _atom_site_type_symbol
 _atom_site_label
 _atom_site_symmetry_multiplicity
 _atom_site_fract_x
 _atom_site_fract_y
 _atom_site_fract_z
 _atom_site_occupancy
  Tm  Tm0  1  0.012176  0.176815  0.096365  1
  Tm  Tm1  1  0.987775  0.823746  0.904568  1
  Tm  Tm2  1  0.488533  0.677080  0.904478  1
  Tm  Tm3  1  0.988429  0.829946  0.597984  1
  Tm  Tm4  1  0.511441  0.322924  0.096626  1
  Tm  Tm5  1  0.005876  0.170174  0.399406  1
  Tm  Tm6  1  0.513520  0.319325  0.399895  1
  Tm  Tm7  1  0.501159  0.685527  0.599563  1
  Sc  Sc8  1  0.161974  0.503088  0.755080  1
  Sc  Sc9  1  0.837365  0.496676  0.249369  1
  Sc  Sc10  1  0.337685  0.003603  0.249449  1
  Sc  Sc11  1  0.663710  0.996354  0.751572  1
  Sc  Sc12  1  0.342426  0.162231  0.630793  1
  Sc  Sc13  1  0.664613  0.825208  0.372695  1
  Sc  Sc14  1  0.163532  0.684015  0.369205  1
  Sc  Sc15  1  0.668168  0.822922  0.124235  1
  Sc  Sc16  1  0.823228  0.323096  0.626536  1
  Sc  Sc17  1  0.330587  0.176033  0.875551  1
  Sc  Sc18  1  0.830755  0.323108  0.875560  1
  Sc  Sc19  1  0.169121  0.677044  0.125119  1
  Si  Si20  1  0.034315  0.116254  0.751223  1
  Si  Si21  1  0.964115  0.887383  0.246883  1
  Si  Si22  1  0.466497  0.613291  0.248669  1
  Si  Si23  1  0.532005  0.387738  0.751997  1
  Si  Si24  1  0.285882  0.868020  0.752298  1
  Si  Si25  1  0.713030  0.129002  0.247590  1
  Si  Si26  1  0.212677  0.370542  0.249264  1
  Si  Si27  1  0.788660  0.630056  0.751355  1
  Si  Si28  1  0.828950  0.538360  0.458766  1
  Si  Si29  1  0.336840  0.964711  0.460177  1
  Si  Si30  1  0.841256  0.534116  0.039402  1
  Si  Si31  1  0.663411  0.036535  0.537970  1
  Si  Si32  1  0.157953  0.465231  0.961706  1
  Si  Si33  1  0.658295  0.034640  0.960711  1
  Si  Si34  1  0.340679  0.965867  0.039890  1
  Sn  Sn35  1  0.173360  0.459339  0.538050  1
