# generated using pymatgen
data_K16Si15Pb
_symmetry_space_group_name_H-M   'P 1'
_cell_length_a   11.53117193
_cell_length_b   11.66865015
_cell_length_c   11.57643528
_cell_angle_alpha   125.13234705
_cell_angle_beta   124.32194121
_cell_angle_gamma   82.31125856
_symmetry_Int_Tables_number   1
_chemical_formula_structural   K16Si15Pb
_chemical_formula_sum   'K16 Si15 Pb1'
_cell_volume   1009.28122730
_cell_formula_units_Z   1
loop_
 _symmetry_equiv_pos_site_id
 _symmetry_equiv_pos_as_xyz
  1  'x, y, z'
loop_
 _atom_site_type_symbol
 _atom_site_label
 _atom_site_symmetry_multiplicity
 _atom_site_fract_x
 _atom_site_fract_y
 _atom_site_fract_z
 _atom_site_occupancy
  K  K0  1  0.270695  0.877767  0.892309  1
  K  K1  1  0.767211  0.876119  0.391125  1
  K  K2  1  0.128824  0.020026  0.400393  1
  K  K3  1  0.623278  0.233822  0.108682  1
  K  K4  1  0.482980  0.373873  0.606756  1
  K  K5  1  0.985186  0.379760  0.112404  1
  K  K6  1  0.129379  0.506330  0.892377  1
  K  K7  1  0.616882  0.734960  0.600643  1
  K  K8  1  0.374922  0.374253  0.248687  1
  K  K9  1  0.867268  0.616293  0.004769  1
  K  K10  1  0.621340  0.126227  0.746944  1
  K  K11  1  0.123839  0.379297  0.503929  1
  K  K12  1  0.387517  0.875962  0.260185  1
  K  K13  1  0.873809  0.619789  0.487927  1
  K  K14  1  0.126482  0.126380  0.753920  1
  K  K15  1  0.631568  0.874571  0.999914  1
  Si  Si16  1  0.511268  0.547001  0.157178  1
  Si  Si17  1  0.104511  0.763322  0.464999  1
  Si  Si18  1  0.604487  0.138003  0.340583  1
  Si  Si19  1  0.739854  0.394409  0.535818  1
  Si  Si20  1  0.237776  0.702356  0.341899  1
  Si  Si21  1  0.645382  0.485396  0.035501  1
  Si  Si22  1  0.144731  0.121042  0.159293  1
  Si  Si23  1  0.389380  0.353475  0.841146  1
  Si  Si24  1  0.889284  0.065140  0.039386  1
  Si  Si25  1  0.795802  0.261792  0.656394  1
  Si  Si26  1  0.296124  0.641992  0.535571  1
  Si  Si27  1  0.360426  0.896727  0.658053  1
  Si  Si28  1  0.860689  0.201150  0.464171  1
  Si  Si29  1  0.950751  0.999714  0.843284  1
  Si  Si30  1  0.455688  0.608679  0.965664  1
  Pb  Pb31  1  0.002666  0.824372  0.950095  1
