# generated using pymatgen
data_TbHoFe8(MoP3)2
_symmetry_space_group_name_H-M   'P 1'
_cell_length_a   3.71323800
_cell_length_b   10.42674300
_cell_length_c   12.03919000
_cell_angle_alpha   90.00000000
_cell_angle_beta   90.00000000
_cell_angle_gamma   90.00000000
_symmetry_Int_Tables_number   1
_chemical_formula_structural   TbHoFe8(MoP3)2
_chemical_formula_sum   'Tb2 Ho2 Fe16 Mo4 P12'
_cell_volume   466.12105827
_cell_formula_units_Z   2
loop_
 _symmetry_equiv_pos_site_id
 _symmetry_equiv_pos_as_xyz
  1  'x, y, z'
loop_
 _atom_site_type_symbol
 _atom_site_label
 _atom_site_symmetry_multiplicity
 _atom_site_fract_x
 _atom_site_fract_y
 _atom_site_fract_z
 _atom_site_occupancy
  Tb  Tb0  1  0.750000  0.416755  0.291398  1
  Tb  Tb1  1  0.750000  0.083245  0.791398  1
  Ho  Ho2  1  0.250000  0.583254  0.708683  1
  Ho  Ho3  1  0.250000  0.916746  0.208683  1
  Fe  Fe4  1  0.250000  0.410873  0.493218  1
  Fe  Fe5  1  0.250000  0.089127  0.993218  1
  Fe  Fe6  1  0.750000  0.589283  0.507386  1
  Fe  Fe7  1  0.750000  0.910717  0.007386  1
  Fe  Fe8  1  0.250000  0.216822  0.176822  1
  Fe  Fe9  1  0.250000  0.283178  0.676822  1
  Fe  Fe10  1  0.750000  0.782598  0.823095  1
  Fe  Fe11  1  0.750000  0.717402  0.323095  1
  Fe  Fe12  1  0.250000  0.877096  0.700431  1
  Fe  Fe13  1  0.250000  0.622904  0.200431  1
  Fe  Fe14  1  0.750000  0.122123  0.299335  1
  Fe  Fe15  1  0.750000  0.377877  0.799335  1
  Fe  Fe16  1  0.250000  0.463862  0.933138  1
  Fe  Fe17  1  0.250000  0.036138  0.433138  1
  Fe  Fe18  1  0.750000  0.536471  0.066489  1
  Fe  Fe19  1  0.750000  0.963529  0.566489  1
  Mo  Mo20  1  0.250000  0.706572  0.988350  1
  Mo  Mo21  1  0.250000  0.793428  0.488350  1
  Mo  Mo22  1  0.750000  0.293458  0.011732  1
  Mo  Mo23  1  0.750000  0.206542  0.511732  1
  P  P24  1  0.250000  0.425095  0.112815  1
  P  P25  1  0.250000  0.074905  0.612815  1
  P  P26  1  0.750000  0.575045  0.886616  1
  P  P27  1  0.750000  0.924955  0.386616  1
  P  P28  1  0.250000  0.267760  0.866162  1
  P  P29  1  0.250000  0.232240  0.366162  1
  P  P30  1  0.750000  0.732915  0.134057  1
  P  P31  1  0.750000  0.767085  0.634057  1
  P  P32  1  0.250000  0.595601  0.387750  1
  P  P33  1  0.250000  0.904399  0.887750  1
  P  P34  1  0.750000  0.404992  0.612523  1
  P  P35  1  0.750000  0.095008  0.112523  1
