# generated using pymatgen
data_Ta2AlB2IrRu4
_symmetry_space_group_name_H-M   'P 1'
_cell_length_a   9.35604772
_cell_length_b   9.29836186
_cell_length_c   2.99011600
_cell_angle_alpha   90.00000000
_cell_angle_beta   90.00000000
_cell_angle_gamma   90.17433105
_symmetry_Int_Tables_number   1
_chemical_formula_structural   Ta2AlB2IrRu4
_chemical_formula_sum   'Ta4 Al2 B4 Ir2 Ru8'
_cell_volume   260.12668029
_cell_formula_units_Z   2
loop_
 _symmetry_equiv_pos_site_id
 _symmetry_equiv_pos_as_xyz
  1  'x, y, z'
loop_
 _atom_site_type_symbol
 _atom_site_label
 _atom_site_symmetry_multiplicity
 _atom_site_fract_x
 _atom_site_fract_y
 _atom_site_fract_z
 _atom_site_occupancy
  Ta  Ta0  1  0.827169  0.677244  0.000000  1
  Ta  Ta1  1  0.172831  0.322756  0.000000  1
  Ta  Ta2  1  0.317789  0.824041  0.000000  1
  Ta  Ta3  1  0.682211  0.175959  0.000000  1
  Al  Al4  1  0.500000  0.500000  0.000000  1
  Al  Al5  1  0.000000  0.000000  0.000000  1
  B  B6  1  0.627604  0.880352  0.000000  1
  B  B7  1  0.372396  0.119648  0.000000  1
  B  B8  1  0.124758  0.624901  0.000000  1
  B  B9  1  0.875242  0.375099  0.000000  1
  Ir  Ir10  1  0.568773  0.715206  0.500000  1
  Ir  Ir11  1  0.431227  0.284794  0.500000  1
  Ru  Ru12  1  0.069386  0.784843  0.500000  1
  Ru  Ru13  1  0.930614  0.215157  0.500000  1
  Ru  Ru14  1  0.285395  0.568356  0.500000  1
  Ru  Ru15  1  0.714605  0.431644  0.500000  1
  Ru  Ru16  1  0.215279  0.070576  0.500000  1
  Ru  Ru17  1  0.784721  0.929424  0.500000  1
  Ru  Ru18  1  0.500000  0.000000  0.500000  1
  Ru  Ru19  1  0.000000  0.500000  0.500000  1
