# generated using pymatgen
data_Y7Er13Cd3Hg3Ru2
_symmetry_space_group_name_H-M   'P 1'
_cell_length_a   9.56551800
_cell_length_b   9.57408180
_cell_length_c   9.73403532
_cell_angle_alpha   90.00000124
_cell_angle_beta   90.06862254
_cell_angle_gamma   120.02962041
_symmetry_Int_Tables_number   1
_chemical_formula_structural   Y7Er13Cd3Hg3Ru2
_chemical_formula_sum   'Y7 Er13 Cd3 Hg3 Ru2'
_cell_volume   771.78984074
_cell_formula_units_Z   1
loop_
 _symmetry_equiv_pos_site_id
 _symmetry_equiv_pos_as_xyz
  1  'x, y, z'
loop_
 _atom_site_type_symbol
 _atom_site_label
 _atom_site_symmetry_multiplicity
 _atom_site_fract_x
 _atom_site_fract_y
 _atom_site_fract_z
 _atom_site_occupancy
  Y  Y0  1  0.582021  0.791011  0.060192  1
  Y  Y1  1  0.540781  0.458800  0.250397  1
  Y  Y2  1  0.540781  0.081982  0.250397  1
  Y  Y3  1  0.918744  0.459372  0.250034  1
  Y  Y4  1  0.459006  0.540303  0.749496  1
  Y  Y5  1  0.459006  0.918702  0.749496  1
  Y  Y6  1  0.081669  0.540834  0.749993  1
  Er  Er7  1  0.000046  0.000023  0.490845  1
  Er  Er8  1  0.000736  0.000368  0.008914  1
  Er  Er9  1  0.209498  0.790338  0.439298  1
  Er  Er10  1  0.209498  0.419162  0.439298  1
  Er  Er11  1  0.580801  0.790401  0.439509  1
  Er  Er12  1  0.790336  0.209878  0.559901  1
  Er  Er13  1  0.790336  0.580459  0.559901  1
  Er  Er14  1  0.419306  0.209653  0.560039  1
  Er  Er15  1  0.790561  0.210228  0.939951  1
  Er  Er16  1  0.790561  0.580333  0.939951  1
  Er  Er17  1  0.419465  0.209732  0.939973  1
  Er  Er18  1  0.209169  0.790266  0.060878  1
  Er  Er19  1  0.209169  0.418903  0.060878  1
  Cd  Cd20  1  0.112800  0.887328  0.749955  1
  Cd  Cd21  1  0.112800  0.225473  0.749955  1
  Cd  Cd22  1  0.774500  0.887250  0.749881  1
  Hg  Hg23  1  0.880172  0.119890  0.250035  1
  Hg  Hg24  1  0.880172  0.760283  0.250035  1
  Hg  Hg25  1  0.239724  0.119863  0.250050  1
  Ru  Ru26  1  0.331760  0.665880  0.250786  1
  Ru  Ru27  1  0.666579  0.333289  0.749961  1
