# generated using pymatgen
data_Th3Ti(Co4P3)2
_symmetry_space_group_name_H-M   'P 1'
_cell_length_a   3.83545100
_cell_length_b   10.73345100
_cell_length_c   12.50148800
_cell_angle_alpha   90.00000000
_cell_angle_beta   90.00000000
_cell_angle_gamma   90.00000000
_symmetry_Int_Tables_number   1
_chemical_formula_structural   Th3Ti(Co4P3)2
_chemical_formula_sum   'Th6 Ti2 Co16 P12'
_cell_volume   514.65657457
_cell_formula_units_Z   2
loop_
 _symmetry_equiv_pos_site_id
 _symmetry_equiv_pos_as_xyz
  1  'x, y, z'
loop_
 _atom_site_type_symbol
 _atom_site_label
 _atom_site_symmetry_multiplicity
 _atom_site_fract_x
 _atom_site_fract_y
 _atom_site_fract_z
 _atom_site_occupancy
  Th  Th0  1  0.000000  0.500000  0.523819  1
  Th  Th1  1  0.500000  0.000000  0.476181  1
  Th  Th2  1  0.500000  0.818496  0.206325  1
  Th  Th3  1  0.500000  0.181504  0.206325  1
  Th  Th4  1  0.000000  0.681504  0.793675  1
  Th  Th5  1  0.000000  0.318496  0.793675  1
  Ti  Ti6  1  0.500000  0.500000  0.148994  1
  Ti  Ti7  1  0.000000  0.000000  0.851006  1
  Co  Co8  1  0.500000  0.500000  0.702837  1
  Co  Co9  1  0.000000  0.000000  0.297163  1
  Co  Co10  1  0.000000  0.500000  0.986512  1
  Co  Co11  1  0.500000  0.000000  0.013488  1
  Co  Co12  1  0.500000  0.332310  0.994203  1
  Co  Co13  1  0.500000  0.667690  0.994203  1
  Co  Co14  1  0.000000  0.167690  0.005797  1
  Co  Co15  1  0.000000  0.832310  0.005797  1
  Co  Co16  1  0.500000  0.299213  0.429287  1
  Co  Co17  1  0.500000  0.700787  0.429287  1
  Co  Co18  1  0.000000  0.200787  0.570713  1
  Co  Co19  1  0.000000  0.799213  0.570713  1
  Co  Co20  1  0.500000  0.880128  0.711584  1
  Co  Co21  1  0.500000  0.119872  0.711584  1
  Co  Co22  1  0.000000  0.619872  0.288416  1
  Co  Co23  1  0.000000  0.380128  0.288416  1
  P  P24  1  0.500000  0.500000  0.887695  1
  P  P25  1  0.000000  0.000000  0.112305  1
  P  P26  1  0.500000  0.500000  0.345687  1
  P  P27  1  0.000000  0.000000  0.654313  1
  P  P28  1  0.500000  0.304170  0.612370  1
  P  P29  1  0.500000  0.695830  0.612370  1
  P  P30  1  0.000000  0.195830  0.387630  1
  P  P31  1  0.000000  0.804170  0.387630  1
  P  P32  1  0.500000  0.845721  0.896671  1
  P  P33  1  0.500000  0.154279  0.896671  1
  P  P34  1  0.000000  0.654279  0.103329  1
  P  P35  1  0.000000  0.345721  0.103329  1
