# generated using pymatgen
data_ThGa2BRu2
_symmetry_space_group_name_H-M   'P 1'
_cell_length_a   4.21205605
_cell_length_b   4.21301202
_cell_length_c   5.55858508
_cell_angle_alpha   89.99880656
_cell_angle_beta   90.00028074
_cell_angle_gamma   90.00519489
_symmetry_Int_Tables_number   1
_chemical_formula_structural   ThGa2BRu2
_chemical_formula_sum   'Th1 Ga2 B1 Ru2'
_cell_volume   98.63955297
_cell_formula_units_Z   1
loop_
 _symmetry_equiv_pos_site_id
 _symmetry_equiv_pos_as_xyz
  1  'x, y, z'
loop_
 _atom_site_type_symbol
 _atom_site_label
 _atom_site_symmetry_multiplicity
 _atom_site_fract_x
 _atom_site_fract_y
 _atom_site_fract_z
 _atom_site_occupancy
  Th  Th0  1  0.999741  0.000313  0.500212  1
  Ga  Ga1  1  0.499920  0.500011  0.270008  1
  Ga  Ga2  1  0.500074  0.499994  0.729824  1
  B  B3  1  0.000153  0.999830  0.000216  1
  Ru  Ru4  1  0.500070  0.999940  0.999872  1
  Ru  Ru5  1  0.000037  0.499908  0.999868  1
