# generated using pymatgen
data_Ac(SiAu)2
_symmetry_space_group_name_H-M   'P 1'
_cell_length_a   6.05376692
_cell_length_b   6.05376666
_cell_length_c   6.05376757
_cell_angle_alpha   136.33465378
_cell_angle_beta   136.33465361
_cell_angle_gamma   63.46337851
_symmetry_Int_Tables_number   1
_chemical_formula_structural   Ac(SiAu)2
_chemical_formula_sum   'Ac1 Si2 Au2'
_cell_volume   104.39212684
_cell_formula_units_Z   1
loop_
 _symmetry_equiv_pos_site_id
 _symmetry_equiv_pos_as_xyz
  1  'x, y, z'
loop_
 _atom_site_type_symbol
 _atom_site_label
 _atom_site_symmetry_multiplicity
 _atom_site_fract_x
 _atom_site_fract_y
 _atom_site_fract_z
 _atom_site_occupancy
  Ac  Ac0  1  0.000000  0.000000  0.000000  1
  Si  Si1  1  0.617015  0.617015  0.000000  1
  Si  Si2  1  0.382986  0.382986  0.000000  1
  Au  Au3  1  0.750000  0.250000  0.500000  1
  Au  Au4  1  0.250000  0.750000  0.500000  1
