# generated using pymatgen
data_NdHo2Cu4Ni9B2
_symmetry_space_group_name_H-M   'P 1'
_cell_length_a   5.00216000
_cell_length_b   5.00216082
_cell_length_c   10.87556900
_cell_angle_alpha   90.00000000
_cell_angle_beta   90.00000000
_cell_angle_gamma   120.00000782
_symmetry_Int_Tables_number   1
_chemical_formula_structural   NdHo2Cu4Ni9B2
_chemical_formula_sum   'Nd1 Ho2 Cu4 Ni9 B2'
_cell_volume   235.66647974
_cell_formula_units_Z   1
loop_
 _symmetry_equiv_pos_site_id
 _symmetry_equiv_pos_as_xyz
  1  'x, y, z'
loop_
 _atom_site_type_symbol
 _atom_site_label
 _atom_site_symmetry_multiplicity
 _atom_site_fract_x
 _atom_site_fract_y
 _atom_site_fract_z
 _atom_site_occupancy
  Nd  Nd0  1  0.000000  0.000000  0.667750  1
  Ho  Ho1  1  0.000000  0.000000  0.002219  1
  Ho  Ho2  1  0.000000  0.000000  0.330705  1
  Cu  Cu3  1  0.666667  0.333333  0.682568  1
  Cu  Cu4  1  0.333333  0.666667  0.682568  1
  Cu  Cu5  1  0.333333  0.666667  0.316626  1
  Cu  Cu6  1  0.666667  0.333333  0.316626  1
  Ni  Ni7  1  0.500000  0.500000  0.497759  1
  Ni  Ni8  1  0.500000  0.000000  0.497759  1
  Ni  Ni9  1  0.000000  0.500000  0.497759  1
  Ni  Ni10  1  0.500000  0.500000  0.871440  1
  Ni  Ni11  1  0.500000  0.000000  0.871440  1
  Ni  Ni12  1  0.000000  0.500000  0.871440  1
  Ni  Ni13  1  0.500000  0.500000  0.130579  1
  Ni  Ni14  1  0.500000  0.000000  0.130579  1
  Ni  Ni15  1  0.000000  0.500000  0.130579  1
  B  B16  1  0.666667  0.333333  0.000801  1
  B  B17  1  0.333333  0.666667  0.000801  1
