# generated using pymatgen
data_Y9Sc(SiHg)4
_symmetry_space_group_name_H-M   'P 1'
_cell_length_a   8.78488234
_cell_length_b   8.78488336
_cell_length_c   7.50193101
_cell_angle_alpha   89.99776645
_cell_angle_beta   89.99777378
_cell_angle_gamma   129.58448017
_symmetry_Int_Tables_number   1
_chemical_formula_structural   Y9Sc(SiHg)4
_chemical_formula_sum   'Y9 Sc1 Si4 Hg4'
_cell_volume   446.19265037
_cell_formula_units_Z   1
loop_
 _symmetry_equiv_pos_site_id
 _symmetry_equiv_pos_as_xyz
  1  'x, y, z'
loop_
 _atom_site_type_symbol
 _atom_site_label
 _atom_site_symmetry_multiplicity
 _atom_site_fract_x
 _atom_site_fract_y
 _atom_site_fract_z
 _atom_site_occupancy
  Y  Y0  1  0.053220  0.307631  0.321079  1
  Y  Y1  1  0.946780  0.692369  0.678921  1
  Y  Y2  1  0.441969  0.187818  0.825319  1
  Y  Y3  1  0.812182  0.558031  0.174681  1
  Y  Y4  1  0.558031  0.812182  0.174681  1
  Y  Y5  1  0.187818  0.441969  0.825319  1
  Y  Y6  1  0.692369  0.946780  0.678921  1
  Y  Y7  1  0.307631  0.053220  0.321079  1
  Y  Y8  1  0.500000  0.500000  0.500000  1
  Sc  Sc9  1  0.000000  0.000000  0.000000  1
  Si  Si10  1  0.377493  0.377493  0.120217  1
  Si  Si11  1  0.622507  0.622507  0.879783  1
  Si  Si12  1  0.117196  0.117196  0.625356  1
  Si  Si13  1  0.882804  0.882804  0.374644  1
  Hg  Hg14  1  0.780908  0.219092  0.000000  1
  Hg  Hg15  1  0.219092  0.780908  0.000000  1
  Hg  Hg16  1  0.717994  0.282006  0.500000  1
  Hg  Hg17  1  0.282006  0.717994  0.500000  1
