# generated using pymatgen
data_Be8AlOs3
_symmetry_space_group_name_H-M   'P 1'
_cell_length_a   4.34811600
_cell_length_b   4.34811657
_cell_length_c   7.11160900
_cell_angle_alpha   90.00000000
_cell_angle_beta   90.00000000
_cell_angle_gamma   120.00001085
_symmetry_Int_Tables_number   1
_chemical_formula_structural   Be8AlOs3
_chemical_formula_sum   'Be8 Al1 Os3'
_cell_volume   116.43961370
_cell_formula_units_Z   1
loop_
 _symmetry_equiv_pos_site_id
 _symmetry_equiv_pos_as_xyz
  1  'x, y, z'
loop_
 _atom_site_type_symbol
 _atom_site_label
 _atom_site_symmetry_multiplicity
 _atom_site_fract_x
 _atom_site_fract_y
 _atom_site_fract_z
 _atom_site_occupancy
  Be  Be0  1  0.171335  0.342668  0.753456  1
  Be  Be1  1  0.171335  0.828665  0.753456  1
  Be  Be2  1  0.334652  0.167326  0.245814  1
  Be  Be3  1  0.832674  0.665348  0.245814  1
  Be  Be4  1  0.000000  0.000000  0.995187  1
  Be  Be5  1  0.657332  0.828665  0.753456  1
  Be  Be6  1  0.832674  0.167326  0.245814  1
  Be  Be7  1  0.000000  0.000000  0.497579  1
  Al  Al8  1  0.666667  0.333333  0.566787  1
  Os  Os9  1  0.333333  0.666667  0.443056  1
  Os  Os10  1  0.666667  0.333333  0.935799  1
  Os  Os11  1  0.333333  0.666667  0.063784  1
