# generated using pymatgen
data_Pr12IrRh2AuBr12
_symmetry_space_group_name_H-M   'P 1'
_cell_length_a   10.66764996
_cell_length_b   10.68112717
_cell_length_c   10.68112627
_cell_angle_alpha   109.96529665
_cell_angle_beta   109.81287994
_cell_angle_gamma   109.81288667
_symmetry_Int_Tables_number   1
_chemical_formula_structural   Pr12IrRh2AuBr12
_chemical_formula_sum   'Pr12 Ir1 Rh2 Au1 Br12'
_cell_volume   923.00767189
_cell_formula_units_Z   1
loop_
 _symmetry_equiv_pos_site_id
 _symmetry_equiv_pos_as_xyz
  1  'x, y, z'
loop_
 _atom_site_type_symbol
 _atom_site_label
 _atom_site_symmetry_multiplicity
 _atom_site_fract_x
 _atom_site_fract_y
 _atom_site_fract_z
 _atom_site_occupancy
  Pr  Pr0  1  0.471239  0.492957  0.230436  1
  Pr  Pr1  1  0.750000  0.233650  0.266350  1
  Pr  Pr2  1  0.750000  0.014582  0.485418  1
  Pr  Pr3  1  0.230865  0.471353  0.492670  1
  Pr  Pr4  1  0.266033  0.748938  0.233087  1
  Pr  Pr5  1  0.028761  0.269564  0.007043  1
  Pr  Pr6  1  0.007256  0.028685  0.269337  1
  Pr  Pr7  1  0.485063  0.749442  0.014336  1
  Pr  Pr8  1  0.492744  0.230663  0.471315  1
  Pr  Pr9  1  0.014937  0.485664  0.750558  1
  Pr  Pr10  1  0.269135  0.007330  0.028647  1
  Pr  Pr11  1  0.233967  0.266913  0.751062  1
  Ir  Ir12  1  0.250000  0.501879  0.998121  1
  Rh  Rh13  1  0.502291  0.999436  0.250531  1
  Rh  Rh14  1  0.997709  0.249469  0.500564  1
  Au  Au15  1  0.250000  0.249532  0.250468  1
  Br  Br16  1  0.250000  0.755518  0.744482  1
  Br  Br17  1  0.506962  0.502371  0.752175  1
  Br  Br18  1  0.993038  0.747825  0.997629  1
  Br  Br19  1  0.744324  0.249824  0.755321  1
  Br  Br20  1  0.997698  0.992980  0.747634  1
  Br  Br21  1  0.250000  0.997980  0.502020  1
  Br  Br22  1  0.752094  0.506622  0.502137  1
  Br  Br23  1  0.502104  0.249764  0.997849  1
  Br  Br24  1  0.755676  0.744679  0.250176  1
  Br  Br25  1  0.747906  0.997863  0.993378  1
  Br  Br26  1  0.997896  0.502151  0.250236  1
  Br  Br27  1  0.502302  0.752366  0.507020  1
