# generated using pymatgen
data_BeNb4Co4P3
_symmetry_space_group_name_H-M   'P 1'
_cell_length_a   3.56451300
_cell_length_b   6.11781548
_cell_length_c   6.98841788
_cell_angle_alpha   89.87848174
_cell_angle_beta   90.00000000
_cell_angle_gamma   90.00000000
_symmetry_Int_Tables_number   1
_chemical_formula_structural   BeNb4Co4P3
_chemical_formula_sum   'Be1 Nb4 Co4 P3'
_cell_volume   152.39631533
_cell_formula_units_Z   1
loop_
 _symmetry_equiv_pos_site_id
 _symmetry_equiv_pos_as_xyz
  1  'x, y, z'
loop_
 _atom_site_type_symbol
 _atom_site_label
 _atom_site_symmetry_multiplicity
 _atom_site_fract_x
 _atom_site_fract_y
 _atom_site_fract_z
 _atom_site_occupancy
  Be  Be0  1  0.250000  0.775643  0.380382  1
  Nb  Nb1  1  0.250000  0.023327  0.823318  1
  Nb  Nb2  1  0.250000  0.528999  0.671370  1
  Nb  Nb3  1  0.750000  0.970621  0.182717  1
  Nb  Nb4  1  0.750000  0.484258  0.325706  1
  Co  Co5  1  0.250000  0.141972  0.438621  1
  Co  Co6  1  0.250000  0.641093  0.058372  1
  Co  Co7  1  0.750000  0.859085  0.560591  1
  Co  Co8  1  0.750000  0.355376  0.938675  1
  P  P9  1  0.250000  0.274325  0.124436  1
  P  P10  1  0.750000  0.221744  0.616466  1
  P  P11  1  0.750000  0.723557  0.879346  1
