# generated using pymatgen
data_Y4Be3(BRu2)5
_symmetry_space_group_name_H-M   'P 1'
_cell_length_a   3.12240000
_cell_length_b   8.85431431
_cell_length_c   10.33728832
_cell_angle_alpha   90.39188238
_cell_angle_beta   90.00000000
_cell_angle_gamma   90.00000000
_symmetry_Int_Tables_number   1
_chemical_formula_structural   Y4Be3(BRu2)5
_chemical_formula_sum   'Y4 Be3 B5 Ru10'
_cell_volume   285.78533783
_cell_formula_units_Z   1
loop_
 _symmetry_equiv_pos_site_id
 _symmetry_equiv_pos_as_xyz
  1  'x, y, z'
loop_
 _atom_site_type_symbol
 _atom_site_label
 _atom_site_symmetry_multiplicity
 _atom_site_fract_x
 _atom_site_fract_y
 _atom_site_fract_z
 _atom_site_occupancy
  Y  Y0  1  0.500000  0.840835  0.183251  1
  Y  Y1  1  0.500000  0.161611  0.815893  1
  Y  Y2  1  0.500000  0.661002  0.681225  1
  Y  Y3  1  0.500000  0.341985  0.317255  1
  Be  Be4  1  0.500000  0.964877  0.593883  1
  Be  Be5  1  0.500000  0.036828  0.407050  1
  Be  Be6  1  0.500000  0.846002  0.902710  1
  B  B7  1  0.500000  0.145184  0.098422  1
  B  B8  1  0.500000  0.652862  0.403452  1
  B  B9  1  0.500000  0.348551  0.595558  1
  B  B10  1  0.500000  0.465716  0.911941  1
  B  B11  1  0.500000  0.530975  0.089169  1
  Ru  Ru12  1  0.000000  0.643274  0.960872  1
  Ru  Ru13  1  0.000000  0.340718  0.045143  1
  Ru  Ru14  1  0.000000  0.832033  0.448011  1
  Ru  Ru15  1  0.000000  0.170329  0.548339  1
  Ru  Ru16  1  0.000000  0.009070  0.001634  1
  Ru  Ru17  1  0.000000  0.409714  0.760641  1
  Ru  Ru18  1  0.000000  0.591450  0.239409  1
  Ru  Ru19  1  0.000000  0.501005  0.499874  1
  Ru  Ru20  1  0.000000  0.905750  0.744623  1
  Ru  Ru21  1  0.000000  0.100230  0.251643  1
