# generated using pymatgen
data_Ti12Ga5Ir3O4
_symmetry_space_group_name_H-M   'P 1'
_cell_length_a   6.86060626
_cell_length_b   6.86060626
_cell_length_c   6.86060626
_cell_angle_alpha   89.93425551
_cell_angle_beta   89.93425551
_cell_angle_gamma   89.93425551
_symmetry_Int_Tables_number   1
_chemical_formula_structural   Ti12Ga5Ir3O4
_chemical_formula_sum   'Ti12 Ga5 Ir3 O4'
_cell_volume   322.91381693
_cell_formula_units_Z   1
loop_
 _symmetry_equiv_pos_site_id
 _symmetry_equiv_pos_as_xyz
  1  'x, y, z'
loop_
 _atom_site_type_symbol
 _atom_site_label
 _atom_site_symmetry_multiplicity
 _atom_site_fract_x
 _atom_site_fract_y
 _atom_site_fract_z
 _atom_site_occupancy
  Ti  Ti0  1  0.799500  0.962533  0.369218  1
  Ti  Ti1  1  0.703755  0.047145  0.879395  1
  Ti  Ti2  1  0.205973  0.458323  0.122478  1
  Ti  Ti3  1  0.292250  0.540104  0.624279  1
  Ti  Ti4  1  0.962533  0.369218  0.799500  1
  Ti  Ti5  1  0.047145  0.879395  0.703755  1
  Ti  Ti6  1  0.458323  0.122478  0.205973  1
  Ti  Ti7  1  0.540104  0.624279  0.292250  1
  Ti  Ti8  1  0.369218  0.799500  0.962533  1
  Ti  Ti9  1  0.879395  0.703755  0.047145  1
  Ti  Ti10  1  0.122478  0.205973  0.458323  1
  Ti  Ti11  1  0.624279  0.292250  0.540104  1
  Ga  Ga12  1  0.681184  0.681184  0.681184  1
  Ga  Ga13  1  0.566093  0.430172  0.932732  1
  Ga  Ga14  1  0.430172  0.932732  0.566093  1
  Ga  Ga15  1  0.932732  0.566093  0.430172  1
  Ga  Ga16  1  0.069082  0.069082  0.069082  1
  Ir  Ir17  1  0.177469  0.820957  0.321782  1
  Ir  Ir18  1  0.321782  0.177469  0.820957  1
  Ir  Ir19  1  0.820957  0.321782  0.177469  1
  O  O20  1  0.871920  0.124831  0.627459  1
  O  O21  1  0.627459  0.871920  0.124831  1
  O  O22  1  0.124831  0.627459  0.871920  1
  O  O23  1  0.371368  0.371368  0.371368  1
