# generated using pymatgen
data_Dy5Nb2P12Ir11Rh6
_symmetry_space_group_name_H-M   'P 1'
_cell_length_a   12.61957334
_cell_length_b   12.79537583
_cell_length_c   3.97702300
_cell_angle_alpha   90.00000000
_cell_angle_beta   90.00000000
_cell_angle_gamma   119.52008247
_symmetry_Int_Tables_number   1
_chemical_formula_structural   Dy5Nb2P12Ir11Rh6
_chemical_formula_sum   'Dy5 Nb2 P12 Ir11 Rh6'
_cell_volume   558.81291979
_cell_formula_units_Z   1
loop_
 _symmetry_equiv_pos_site_id
 _symmetry_equiv_pos_as_xyz
  1  'x, y, z'
loop_
 _atom_site_type_symbol
 _atom_site_label
 _atom_site_symmetry_multiplicity
 _atom_site_fract_x
 _atom_site_fract_y
 _atom_site_fract_z
 _atom_site_occupancy
  Dy  Dy0  1  0.329998  0.660922  0.500000  1
  Dy  Dy1  1  0.667880  0.338017  0.500000  1
  Dy  Dy2  1  0.999439  0.812956  0.000000  1
  Dy  Dy3  1  0.186450  0.187178  0.000000  1
  Dy  Dy4  1  0.812604  0.000069  0.000000  1
  Nb  Nb5  1  0.998011  0.449605  0.500000  1
  Nb  Nb6  1  0.548451  0.551255  0.500000  1
  P  P7  1  0.002878  0.640943  0.500000  1
  P  P8  1  0.361728  0.359839  0.500000  1
  P  P9  1  0.640317  0.999022  0.500000  1
  P  P10  1  0.515328  0.683324  0.000000  1
  P  P11  1  0.311646  0.826727  0.000000  1
  P  P12  1  0.163067  0.481681  0.000000  1
  P  P13  1  0.484580  0.172499  0.000000  1
  P  P14  1  0.681482  0.518384  0.000000  1
  P  P15  1  0.831645  0.316236  0.000000  1
  P  P16  1  0.999513  0.175368  0.500000  1
  P  P17  1  0.824539  0.824598  0.500000  1
  P  P18  1  0.182975  0.999889  0.500000  1
  Ir  Ir19  1  0.126000  0.643133  0.000000  1
  Ir  Ir20  1  0.353865  0.491008  0.000000  1
  Ir  Ir21  1  0.484419  0.356694  0.000000  1
  Ir  Ir22  1  0.860790  0.506264  0.000000  1
  Ir  Ir23  1  0.644244  0.136955  0.000000  1
  Ir  Ir24  1  0.998115  0.280452  0.000000  1
  Ir  Ir25  1  0.717592  0.718891  0.000000  1
  Ir  Ir26  1  0.289199  0.000074  0.000000  1
  Ir  Ir27  1  0.809786  0.631515  0.500000  1
  Ir  Ir28  1  0.818387  0.192295  0.500000  1
  Ir  Ir29  1  0.004474  0.000488  0.500000  1
  Rh  Rh30  1  0.506321  0.862575  0.000000  1
  Rh  Rh31  1  0.461377  0.003716  0.500000  1
  Rh  Rh32  1  0.626376  0.807562  0.500000  1
  Rh  Rh33  1  0.201793  0.823404  0.500000  1
  Rh  Rh34  1  0.177444  0.369326  0.500000  1
  Rh  Rh35  1  0.377287  0.177135  0.500000  1
