# generated using pymatgen
data_LuPa7Ti11Si16Ru
_symmetry_space_group_name_H-M   'P 1'
_cell_length_a   7.01792018
_cell_length_b   7.01370129
_cell_length_c   12.91842403
_cell_angle_alpha   90.13038323
_cell_angle_beta   89.87282434
_cell_angle_gamma   89.84779062
_symmetry_Int_Tables_number   1
_chemical_formula_structural   LuPa7Ti11Si16Ru
_chemical_formula_sum   'Lu1 Pa7 Ti11 Si16 Ru1'
_cell_volume   635.85998124
_cell_formula_units_Z   1
loop_
 _symmetry_equiv_pos_site_id
 _symmetry_equiv_pos_as_xyz
  1  'x, y, z'
loop_
 _atom_site_type_symbol
 _atom_site_label
 _atom_site_symmetry_multiplicity
 _atom_site_fract_x
 _atom_site_fract_y
 _atom_site_fract_z
 _atom_site_occupancy
  Lu  Lu0  1  0.339674  0.999955  0.468457  1
  Pa  Pa1  1  0.493919  0.836009  0.719841  1
  Pa  Pa2  1  0.504133  0.164231  0.216377  1
  Pa  Pa3  1  0.835942  0.493014  0.280115  1
  Pa  Pa4  1  0.163713  0.502977  0.782480  1
  Pa  Pa5  1  0.661858  0.997395  0.968566  1
  Pa  Pa6  1  0.999866  0.340454  0.532222  1
  Pa  Pa7  1  0.995150  0.663723  0.031829  1
  Ti  Ti8  1  0.171090  0.827630  0.247128  1
  Ti  Ti9  1  0.829242  0.172156  0.751049  1
  Ti  Ti10  1  0.674455  0.665948  0.500350  1
  Ti  Ti11  1  0.156441  0.999059  0.876386  1
  Ti  Ti12  1  0.500810  0.660041  0.126343  1
  Ti  Ti13  1  0.499785  0.347562  0.626724  1
  Ti  Ti14  1  0.661540  0.500850  0.874738  1
  Ti  Ti15  1  0.344529  0.499673  0.373232  1
  Ti  Ti16  1  0.844467  0.999475  0.374949  1
  Ti  Ti17  1  0.999226  0.154837  0.124730  1
  Ti  Ti18  1  0.996255  0.843100  0.624301  1
  Si  Si19  1  0.200867  0.128309  0.683737  1
  Si  Si20  1  0.375350  0.700087  0.936252  1
  Si  Si21  1  0.626218  0.294375  0.434678  1
  Si  Si22  1  0.702546  0.375179  0.063557  1
  Si  Si23  1  0.296070  0.631320  0.564328  1
  Si  Si24  1  0.796370  0.872229  0.185097  1
  Si  Si25  1  0.132027  0.199315  0.316876  1
  Si  Si26  1  0.872380  0.797993  0.815448  1
  Si  Si27  1  0.288437  0.959847  0.064144  1
  Si  Si28  1  0.540775  0.791701  0.316842  1
  Si  Si29  1  0.456407  0.212220  0.818541  1
  Si  Si30  1  0.790742  0.541644  0.685304  1
  Si  Si31  1  0.211883  0.455331  0.180918  1
  Si  Si32  1  0.706019  0.042104  0.565412  1
  Si  Si33  1  0.958534  0.288319  0.935860  1
  Si  Si34  1  0.042529  0.710455  0.432619  1
  Ru  Ru35  1  0.330750  0.331486  0.000567  1
