# generated using pymatgen
data_Sc4CrFe(B2Ru5)2
_symmetry_space_group_name_H-M   'P 1'
_cell_length_a   9.32080300
_cell_length_b   9.32080300
_cell_length_c   3.01434800
_cell_angle_alpha   90.00000000
_cell_angle_beta   90.00000000
_cell_angle_gamma   90.00000000
_symmetry_Int_Tables_number   1
_chemical_formula_structural   Sc4CrFe(B2Ru5)2
_chemical_formula_sum   'Sc4 Cr1 Fe1 B4 Ru10'
_cell_volume   261.87862218
_cell_formula_units_Z   1
loop_
 _symmetry_equiv_pos_site_id
 _symmetry_equiv_pos_as_xyz
  1  'x, y, z'
loop_
 _atom_site_type_symbol
 _atom_site_label
 _atom_site_symmetry_multiplicity
 _atom_site_fract_x
 _atom_site_fract_y
 _atom_site_fract_z
 _atom_site_occupancy
  Sc  Sc0  1  0.674379  0.174678  0.000000  1
  Sc  Sc1  1  0.325621  0.825322  0.000000  1
  Sc  Sc2  1  0.174678  0.325621  0.000000  1
  Sc  Sc3  1  0.825322  0.674379  0.000000  1
  Cr  Cr4  1  0.000000  0.000000  0.000000  1
  Fe  Fe5  1  0.500000  0.500000  0.000000  1
  B  B6  1  0.124702  0.623255  0.000000  1
  B  B7  1  0.875298  0.376745  0.000000  1
  B  B8  1  0.623255  0.875298  0.000000  1
  B  B9  1  0.376745  0.124702  0.000000  1
  Ru  Ru10  1  0.210616  0.069813  0.500000  1
  Ru  Ru11  1  0.789384  0.930187  0.500000  1
  Ru  Ru12  1  0.069813  0.789384  0.500000  1
  Ru  Ru13  1  0.712597  0.429547  0.500000  1
  Ru  Ru14  1  0.930187  0.210616  0.500000  1
  Ru  Ru15  1  0.287403  0.570453  0.500000  1
  Ru  Ru16  1  0.570453  0.712597  0.500000  1
  Ru  Ru17  1  0.429547  0.287403  0.500000  1
  Ru  Ru18  1  0.500000  0.000000  0.500000  1
  Ru  Ru19  1  0.000000  0.500000  0.500000  1
