# generated using pymatgen
data_ZrSnPb4W2O13
_symmetry_space_group_name_H-M   'P 1'
_cell_length_a   7.61214749
_cell_length_b   7.62172140
_cell_length_c   7.61214773
_cell_angle_alpha   119.74737282
_cell_angle_beta   120.04620792
_cell_angle_gamma   90.14311393
_symmetry_Int_Tables_number   1
_chemical_formula_structural   ZrSnPb4W2O13
_chemical_formula_sum   'Zr1 Sn1 Pb4 W2 O13'
_cell_volume   312.86709627
_cell_formula_units_Z   1
loop_
 _symmetry_equiv_pos_site_id
 _symmetry_equiv_pos_as_xyz
  1  'x, y, z'
loop_
 _atom_site_type_symbol
 _atom_site_label
 _atom_site_symmetry_multiplicity
 _atom_site_fract_x
 _atom_site_fract_y
 _atom_site_fract_z
 _atom_site_occupancy
  Zr  Zr0  1  0.250420  0.501069  0.250649  1
  Sn  Sn1  1  0.249962  0.999793  0.749830  1
  Pb  Pb2  1  0.749704  0.001391  0.251686  1
  Pb  Pb3  1  0.750948  0.501858  0.750909  1
  Pb  Pb4  1  0.751472  0.000641  0.751289  1
  Pb  Pb5  1  0.249352  0.000641  0.249169  1
  W  W6  1  0.249961  0.500591  0.749413  1
  W  W7  1  0.751177  0.500591  0.250630  1
  O  O8  1  0.170246  0.168120  0.997874  1
  O  O9  1  0.569040  0.570455  0.001415  1
  O  O10  1  0.172637  0.570187  0.985794  1
  O  O11  1  0.581533  0.182474  0.011823  1
  O  O12  1  0.170652  0.182474  0.600941  1
  O  O13  1  0.584393  0.570187  0.397550  1
  O  O14  1  0.326028  0.827462  0.501433  1
  O  O15  1  0.933364  0.431398  0.498035  1
  O  O16  1  0.324161  0.432200  0.513099  1
  O  O17  1  0.920909  0.815088  0.487708  1
  O  O18  1  0.327380  0.815088  0.894179  1
  O  O19  1  0.919101  0.432200  0.108039  1
  O  O20  1  0.872563  0.871098  0.998535  1
