# generated using pymatgen
data_Sr2Tl2Os6O18F
_symmetry_space_group_name_H-M   'P 1'
_cell_length_a   8.14454825
_cell_length_b   8.03908052
_cell_length_c   8.03907977
_cell_angle_alpha   108.84668395
_cell_angle_beta   109.48762799
_cell_angle_gamma   109.54781407
_symmetry_Int_Tables_number   1
_chemical_formula_structural   Sr2Tl2Os6O18F
_chemical_formula_sum   'Sr2 Tl2 Os6 O18 F1'
_cell_volume   407.81142270
_cell_formula_units_Z   1
loop_
 _symmetry_equiv_pos_site_id
 _symmetry_equiv_pos_as_xyz
  1  'x, y, z'
loop_
 _atom_site_type_symbol
 _atom_site_label
 _atom_site_symmetry_multiplicity
 _atom_site_fract_x
 _atom_site_fract_y
 _atom_site_fract_z
 _atom_site_occupancy
  Sr  Sr0  1  0.687596  0.687683  0.686263  1
  Sr  Sr1  1  0.312404  0.998667  0.000087  1
  Tl  Tl2  1  0.002165  0.325697  0.001227  1
  Tl  Tl3  1  0.997835  0.999063  0.323533  1
  Os  Os4  1  0.500000  0.362576  0.862576  1
  Os  Os5  1  0.500000  0.636759  0.136759  1
  Os  Os6  1  0.363153  0.861476  0.498783  1
  Os  Os7  1  0.636847  0.135630  0.498323  1
  Os  Os8  1  0.865368  0.504421  0.364535  1
  Os  Os9  1  0.134632  0.499167  0.639053  1
  O  O10  1  0.706217  0.361713  0.069665  1
  O  O11  1  0.641217  0.352185  0.707460  1
  O  O12  1  0.285461  0.639706  0.935098  1
  O  O13  1  0.647232  0.295618  0.358375  1
  O  O14  1  0.352768  0.711143  0.648386  1
  O  O15  1  0.928352  0.287401  0.634246  1
  O  O16  1  0.071648  0.705893  0.359048  1
  O  O17  1  0.000000  0.666600  0.666600  1
  O  O18  1  0.655845  0.664932  0.992035  1
  O  O19  1  0.714539  0.649638  0.354245  1
  O  O20  1  0.358783  0.066244  0.710968  1
  O  O21  1  0.661274  0.993793  0.660755  1
  O  O22  1  0.000000  0.338968  0.338968  1
  O  O23  1  0.632308  0.931895  0.283292  1
  O  O24  1  0.367692  0.650984  0.299588  1
  O  O25  1  0.293783  0.363447  0.655496  1
  O  O26  1  0.338726  0.999481  0.332519  1
  O  O27  1  0.344155  0.336191  0.009088  1
  F  F28  1  0.000000  0.973031  0.973031  1
