# generated using pymatgen
data_Pr2B4Ru2Rh3
_symmetry_space_group_name_H-M   'P 1'
_cell_length_a   7.57417709
_cell_length_b   6.39032606
_cell_length_c   5.66215250
_cell_angle_alpha   77.60930575
_cell_angle_beta   55.49197845
_cell_angle_gamma   46.89873142
_symmetry_Int_Tables_number   1
_chemical_formula_structural   Pr2B4Ru2Rh3
_chemical_formula_sum   'Pr2 B4 Ru2 Rh3'
_cell_volume   157.96914665
_cell_formula_units_Z   1
loop_
 _symmetry_equiv_pos_site_id
 _symmetry_equiv_pos_as_xyz
  1  'x, y, z'
loop_
 _atom_site_type_symbol
 _atom_site_label
 _atom_site_symmetry_multiplicity
 _atom_site_fract_x
 _atom_site_fract_y
 _atom_site_fract_z
 _atom_site_occupancy
  Pr  Pr0  1  0.856282  0.856282  0.143718  1
  Pr  Pr1  1  0.143718  0.143718  0.856282  1
  B  B2  1  0.796520  0.468673  0.531327  1
  B  B3  1  0.203480  0.531327  0.468673  1
  B  B4  1  0.531327  0.203480  0.796520  1
  B  B5  1  0.468673  0.796520  0.203480  1
  Ru  Ru6  1  0.750000  0.750000  0.750000  1
  Ru  Ru7  1  0.250000  0.250000  0.250000  1
  Rh  Rh8  1  0.500000  0.500000  0.000000  1
  Rh  Rh9  1  0.500000  0.500000  0.500000  1
  Rh  Rh10  1  0.000000  0.000000  0.500000  1
