# generated using pymatgen
data_Ho2Co5Ni5P6
_symmetry_space_group_name_H-M   'P 1'
_cell_length_a   3.67879500
_cell_length_b   10.27184200
_cell_length_c   11.82486300
_cell_angle_alpha   90.00000000
_cell_angle_beta   90.00000000
_cell_angle_gamma   90.00000000
_symmetry_Int_Tables_number   1
_chemical_formula_structural   Ho2Co5Ni5P6
_chemical_formula_sum   'Ho4 Co10 Ni10 P12'
_cell_volume   446.83793476
_cell_formula_units_Z   2
loop_
 _symmetry_equiv_pos_site_id
 _symmetry_equiv_pos_as_xyz
  1  'x, y, z'
loop_
 _atom_site_type_symbol
 _atom_site_label
 _atom_site_symmetry_multiplicity
 _atom_site_fract_x
 _atom_site_fract_y
 _atom_site_fract_z
 _atom_site_occupancy
  Ho  Ho0  1  0.250000  0.581622  0.704242  1
  Ho  Ho1  1  0.250000  0.918378  0.204242  1
  Ho  Ho2  1  0.750000  0.418814  0.296506  1
  Ho  Ho3  1  0.750000  0.081186  0.796506  1
  Co  Co4  1  0.750000  0.777046  0.824521  1
  Co  Co5  1  0.750000  0.722954  0.324521  1
  Co  Co6  1  0.250000  0.879364  0.698182  1
  Co  Co7  1  0.250000  0.620636  0.198182  1
  Co  Co8  1  0.750000  0.119294  0.301509  1
  Co  Co9  1  0.750000  0.380706  0.801509  1
  Co  Co10  1  0.250000  0.466871  0.933001  1
  Co  Co11  1  0.250000  0.033129  0.433001  1
  Co  Co12  1  0.750000  0.533597  0.067380  1
  Co  Co13  1  0.750000  0.966403  0.567380  1
  Ni  Ni14  1  0.250000  0.711606  0.989306  1
  Ni  Ni15  1  0.250000  0.788394  0.489306  1
  Ni  Ni16  1  0.750000  0.285264  0.008510  1
  Ni  Ni17  1  0.750000  0.214736  0.508510  1
  Ni  Ni18  1  0.250000  0.408530  0.485856  1
  Ni  Ni19  1  0.250000  0.091470  0.985856  1
  Ni  Ni20  1  0.750000  0.592620  0.514646  1
  Ni  Ni21  1  0.750000  0.907380  0.014646  1
  Ni  Ni22  1  0.250000  0.223638  0.175804  1
  Ni  Ni23  1  0.250000  0.276362  0.675804  1
  P  P24  1  0.250000  0.424684  0.113546  1
  P  P25  1  0.250000  0.075316  0.613546  1
  P  P26  1  0.750000  0.578841  0.886292  1
  P  P27  1  0.750000  0.921159  0.386292  1
  P  P28  1  0.250000  0.271519  0.867460  1
  P  P29  1  0.250000  0.228481  0.367460  1
  P  P30  1  0.750000  0.729070  0.135081  1
  P  P31  1  0.750000  0.770930  0.635081  1
  P  P32  1  0.250000  0.606271  0.387699  1
  P  P33  1  0.250000  0.893729  0.887699  1
  P  P34  1  0.750000  0.398082  0.610456  1
  P  P35  1  0.750000  0.101918  0.110456  1
