# generated using pymatgen
data_Tb3YLuInAu4
_symmetry_space_group_name_H-M   'P 1'
_cell_length_a   8.08846361
_cell_length_b   8.08622561
_cell_length_c   3.76099100
_cell_angle_alpha   90.00000000
_cell_angle_beta   90.00000000
_cell_angle_gamma   90.07220647
_symmetry_Int_Tables_number   1
_chemical_formula_structural   Tb3YLuInAu4
_chemical_formula_sum   'Tb3 Y1 Lu1 In1 Au4'
_cell_volume   245.98795326
_cell_formula_units_Z   1
loop_
 _symmetry_equiv_pos_site_id
 _symmetry_equiv_pos_as_xyz
  1  'x, y, z'
loop_
 _atom_site_type_symbol
 _atom_site_label
 _atom_site_symmetry_multiplicity
 _atom_site_fract_x
 _atom_site_fract_y
 _atom_site_fract_z
 _atom_site_occupancy
  Tb  Tb0  1  0.685388  0.142174  0.500000  1
  Tb  Tb1  1  0.314546  0.857616  0.500000  1
  Tb  Tb2  1  0.142161  0.314875  0.500000  1
  Y  Y3  1  0.857966  0.685591  0.500000  1
  Lu  Lu4  1  0.499984  0.499935  0.000000  1
  In  In5  1  0.999891  0.999742  0.000000  1
  Au  Au6  1  0.148489  0.616599  0.000000  1
  Au  Au7  1  0.851613  0.383386  0.000000  1
  Au  Au8  1  0.616616  0.851608  0.000000  1
  Au  Au9  1  0.383345  0.148474  0.000000  1
