# generated using pymatgen
data_LaNd3Eu6(Si3H)2
_symmetry_space_group_name_H-M   'P 1'
_cell_length_a   9.13550108
_cell_length_b   9.13550116
_cell_length_c   9.12409806
_cell_angle_alpha   128.90682436
_cell_angle_beta   128.90682390
_cell_angle_gamma   75.07374232
_symmetry_Int_Tables_number   1
_chemical_formula_structural   LaNd3Eu6(Si3H)2
_chemical_formula_sum   'La1 Nd3 Eu6 Si6 H2'
_cell_volume   449.17261256
_cell_formula_units_Z   1
loop_
 _symmetry_equiv_pos_site_id
 _symmetry_equiv_pos_as_xyz
  1  'x, y, z'
loop_
 _atom_site_type_symbol
 _atom_site_label
 _atom_site_symmetry_multiplicity
 _atom_site_fract_x
 _atom_site_fract_y
 _atom_site_fract_z
 _atom_site_occupancy
  La  La0  1  0.527115  0.027115  0.853115  1
  Nd  Nd1  1  0.178215  0.678215  0.150953  1
  Nd  Nd2  1  0.028400  0.179658  0.502468  1
  Nd  Nd3  1  0.679658  0.528400  0.502468  1
  Eu  Eu4  1  0.512941  0.512799  0.999947  1
  Eu  Eu5  1  0.012799  0.012941  0.999947  1
  Eu  Eu6  1  0.479540  0.979540  0.166833  1
  Eu  Eu7  1  0.811990  0.311990  0.831088  1
  Eu  Eu8  1  0.977663  0.811543  0.498186  1
  Eu  Eu9  1  0.311543  0.477663  0.498186  1
  Si  Si10  1  0.250603  0.255737  0.001584  1
  Si  Si11  1  0.755737  0.750603  0.001584  1
  Si  Si12  1  0.882547  0.382547  0.281288  1
  Si  Si13  1  0.104516  0.604516  0.724158  1
  Si  Si14  1  0.380712  0.102976  0.498883  1
  Si  Si15  1  0.602976  0.880712  0.498883  1
  H  H16  1  0.249338  0.749338  0.493578  1
  H  H17  1  0.753705  0.253705  0.496851  1
