# generated using pymatgen
data_HoTh2(GaNi)3
_symmetry_space_group_name_H-M   'P 1'
_cell_length_a   7.05356298
_cell_length_b   6.98744449
_cell_length_c   3.96754200
_cell_angle_alpha   90.00000000
_cell_angle_beta   90.00000000
_cell_angle_gamma   119.69040731
_symmetry_Int_Tables_number   1
_chemical_formula_structural   HoTh2(GaNi)3
_chemical_formula_sum   'Ho1 Th2 Ga3 Ni3'
_cell_volume   169.87344695
_cell_formula_units_Z   1
loop_
 _symmetry_equiv_pos_site_id
 _symmetry_equiv_pos_as_xyz
  1  'x, y, z'
loop_
 _atom_site_type_symbol
 _atom_site_label
 _atom_site_symmetry_multiplicity
 _atom_site_fract_x
 _atom_site_fract_y
 _atom_site_fract_z
 _atom_site_occupancy
  Ho  Ho0  1  0.000000  0.414355  0.500000  1
  Th  Th1  1  0.582504  0.581256  0.500000  1
  Th  Th2  1  0.417496  0.998752  0.500000  1
  Ga  Ga3  1  0.000000  0.755998  0.000000  1
  Ga  Ga4  1  0.229164  0.238479  0.000000  1
  Ga  Ga5  1  0.770836  0.009315  0.000000  1
  Ni  Ni6  1  0.337776  0.671028  0.000000  1
  Ni  Ni7  1  0.662224  0.333251  0.000000  1
  Ni  Ni8  1  0.000000  0.997566  0.500000  1
