# generated using pymatgen
data_Pa4Al24Pt8Rh
_symmetry_space_group_name_H-M   'P 1'
_cell_length_a   7.57744944
_cell_length_b   7.58950268
_cell_length_c   13.13377801
_cell_angle_alpha   84.47171593
_cell_angle_beta   78.92670659
_cell_angle_gamma   59.93547664
_symmetry_Int_Tables_number   1
_chemical_formula_structural   Pa4Al24Pt8Rh
_chemical_formula_sum   'Pa4 Al24 Pt8 Rh1'
_cell_volume   641.52287482
_cell_formula_units_Z   1
loop_
 _symmetry_equiv_pos_site_id
 _symmetry_equiv_pos_as_xyz
  1  'x, y, z'
loop_
 _atom_site_type_symbol
 _atom_site_label
 _atom_site_symmetry_multiplicity
 _atom_site_fract_x
 _atom_site_fract_y
 _atom_site_fract_z
 _atom_site_occupancy
  Pa  Pa0  1  0.394806  0.168319  0.805487  1
  Pa  Pa1  1  0.605194  0.831681  0.194513  1
  Pa  Pa2  1  0.734647  0.498550  0.805475  1
  Pa  Pa3  1  0.265353  0.501450  0.194525  1
  Al  Al4  1  0.686131  0.830526  0.947655  1
  Al  Al5  1  0.313869  0.169474  0.052345  1
  Al  Al6  1  0.145812  0.833345  0.560698  1
  Al  Al7  1  0.854188  0.166655  0.439302  1
  Al  Al8  1  0.481360  0.166767  0.557954  1
  Al  Al9  1  0.518640  0.833233  0.442046  1
  Al  Al10  1  0.214166  0.165505  0.331137  1
  Al  Al11  1  0.785834  0.834495  0.668863  1
  Al  Al12  1  0.435146  0.509315  0.669074  1
  Al  Al13  1  0.564854  0.490685  0.330926  1
  Al  Al14  1  0.110631  0.157042  0.667452  1
  Al  Al15  1  0.889369  0.842958  0.332548  1
  Al  Al16  1  0.348561  0.499275  0.947655  1
  Al  Al17  1  0.651439  0.500725  0.052345  1
  Al  Al18  1  0.015610  0.171205  0.953294  1
  Al  Al19  1  0.984390  0.828795  0.046706  1
  Al  Al20  1  0.186339  0.500129  0.442109  1
  Al  Al21  1  0.813661  0.499871  0.557891  1
  Al  Al22  1  0.736108  0.164157  0.182143  1
  Al  Al23  1  0.263892  0.835843  0.817857  1
  Al  Al24  1  0.060289  0.630422  0.818744  1
  Al  Al25  1  0.939711  0.369578  0.181256  1
  Al  Al26  1  0.856712  0.039665  0.817496  1
  Al  Al27  1  0.143288  0.960335  0.182504  1
  Pt  Pt28  1  0.119992  0.491573  0.639693  1
  Pt  Pt29  1  0.880008  0.508427  0.360307  1
  Pt  Pt30  1  0.658594  0.170792  0.999852  1
  Pt  Pt31  1  0.341406  0.829208  0.000148  1
  Pt  Pt32  1  0.537403  0.166728  0.360779  1
  Pt  Pt33  1  0.462597  0.833272  0.639221  1
  Pt  Pt34  1  0.778446  0.175190  0.638373  1
  Pt  Pt35  1  0.221554  0.824810  0.361627  1
  Rh  Rh36  1  0.000000  0.500000  0.000000  1
