# generated using pymatgen
data_Pr2U(SnIr)3
_symmetry_space_group_name_H-M   'P 1'
_cell_length_a   7.69552601
_cell_length_b   7.58324039
_cell_length_c   4.02668900
_cell_angle_alpha   90.00000000
_cell_angle_beta   90.00000000
_cell_angle_gamma   120.48415812
_symmetry_Int_Tables_number   1
_chemical_formula_structural   Pr2U(SnIr)3
_chemical_formula_sum   'Pr2 U1 Sn3 Ir3'
_cell_volume   202.50340066
_cell_formula_units_Z   1
loop_
 _symmetry_equiv_pos_site_id
 _symmetry_equiv_pos_as_xyz
  1  'x, y, z'
loop_
 _atom_site_type_symbol
 _atom_site_label
 _atom_site_symmetry_multiplicity
 _atom_site_fract_x
 _atom_site_fract_y
 _atom_site_fract_z
 _atom_site_occupancy
  Pr  Pr0  1  0.001225  0.591234  0.000000  1
  Pr  Pr1  1  0.410033  0.408846  0.000000  1
  U  U2  1  0.585679  0.000041  0.000000  1
  Sn  Sn3  1  0.241116  0.000064  0.500000  1
  Sn  Sn4  1  0.007105  0.260322  0.500000  1
  Sn  Sn5  1  0.746515  0.739577  0.500000  1
  Ir  Ir6  1  0.370559  0.711586  0.500000  1
  Ir  Ir7  1  0.659097  0.288411  0.500000  1
  Ir  Ir8  1  0.978673  0.999919  0.000000  1
