# generated using pymatgen
data_Y14ErTmCd2(InRh2)2
_symmetry_space_group_name_H-M   'P 1'
_cell_length_a   9.69150946
_cell_length_b   9.69151818
_cell_length_c   9.71188800
_cell_angle_alpha   59.93179374
_cell_angle_beta   59.93151116
_cell_angle_gamma   59.85811311
_symmetry_Int_Tables_number   1
_chemical_formula_structural   Y14ErTmCd2(InRh2)2
_chemical_formula_sum   'Y14 Er1 Tm1 Cd2 In2 Rh4'
_cell_volume   643.65859685
_cell_formula_units_Z   1
loop_
 _symmetry_equiv_pos_site_id
 _symmetry_equiv_pos_as_xyz
  1  'x, y, z'
loop_
 _atom_site_type_symbol
 _atom_site_label
 _atom_site_symmetry_multiplicity
 _atom_site_fract_x
 _atom_site_fract_y
 _atom_site_fract_z
 _atom_site_occupancy
  Y  Y0  1  0.061690  0.064065  0.437425  1
  Y  Y1  1  0.437347  0.062890  0.437713  1
  Y  Y2  1  0.061078  0.437752  0.064574  1
  Y  Y3  1  0.050347  0.649437  0.650368  1
  Y  Y4  1  0.437193  0.438093  0.063384  1
  Y  Y5  1  0.649143  0.049915  0.650833  1
  Y  Y6  1  0.190613  0.810783  0.188960  1
  Y  Y7  1  0.189469  0.188969  0.810818  1
  Y  Y8  1  0.809189  0.809587  0.190622  1
  Y  Y9  1  0.437443  0.062350  0.063225  1
  Y  Y10  1  0.811637  0.189392  0.188128  1
  Y  Y11  1  0.061848  0.437642  0.437592  1
  Y  Y12  1  0.810179  0.190656  0.809596  1
  Y  Y13  1  0.191922  0.809266  0.808397  1
  Er  Er14  1  0.651067  0.651865  0.045239  1
  Tm  Tm15  1  0.650620  0.651310  0.652093  1
  Cd  Cd16  1  0.419139  0.417951  0.416751  1
  Cd  Cd17  1  0.746146  0.418480  0.417246  1
  In  In18  1  0.419171  0.746399  0.416781  1
  In  In19  1  0.418576  0.417295  0.747047  1
  Rh  Rh20  1  0.855713  0.855409  0.428854  1
  Rh  Rh21  1  0.856071  0.856019  0.859563  1
  Rh  Rh22  1  0.430371  0.853946  0.857549  1
  Rh  Rh23  1  0.854032  0.430529  0.857245  1
