# generated using pymatgen
data_Nd3NpO8
_symmetry_space_group_name_H-M   'P 1'
_cell_length_a   7.56009665
_cell_length_b   7.56009692
_cell_length_c   6.52456800
_cell_angle_alpha   90.00000000
_cell_angle_beta   90.00000000
_cell_angle_gamma   110.18836456
_symmetry_Int_Tables_number   1
_chemical_formula_structural   Nd3NpO8
_chemical_formula_sum   'Nd6 Np2 O16'
_cell_volume   350.00154415
_cell_formula_units_Z   2
loop_
 _symmetry_equiv_pos_site_id
 _symmetry_equiv_pos_as_xyz
  1  'x, y, z'
loop_
 _atom_site_type_symbol
 _atom_site_label
 _atom_site_symmetry_multiplicity
 _atom_site_fract_x
 _atom_site_fract_y
 _atom_site_fract_z
 _atom_site_occupancy
  Nd  Nd0  1  0.111170  0.326760  0.250000  1
  Nd  Nd1  1  0.888830  0.673240  0.750000  1
  Nd  Nd2  1  0.599944  0.400056  0.250000  1
  Nd  Nd3  1  0.400056  0.599944  0.750000  1
  Nd  Nd4  1  0.326760  0.111170  0.750000  1
  Nd  Nd5  1  0.673240  0.888830  0.250000  1
  Np  Np6  1  0.183196  0.816804  0.250000  1
  Np  Np7  1  0.816804  0.183196  0.750000  1
  O  O8  1  0.978481  0.021519  0.750000  1
  O  O9  1  0.021519  0.978481  0.250000  1
  O  O10  1  0.039803  0.434135  0.750000  1
  O  O11  1  0.960197  0.565865  0.250000  1
  O  O12  1  0.654829  0.345171  0.750000  1
  O  O13  1  0.345171  0.654829  0.250000  1
  O  O14  1  0.565865  0.960197  0.750000  1
  O  O15  1  0.434135  0.039803  0.250000  1
  O  O16  1  0.664873  0.664873  0.000000  1
  O  O17  1  0.335127  0.335127  0.500000  1
  O  O18  1  0.335127  0.335127  0.000000  1
  O  O19  1  0.664873  0.664873  0.500000  1
  O  O20  1  0.810457  0.189543  0.055602  1
  O  O21  1  0.189543  0.810457  0.555602  1
  O  O22  1  0.189543  0.810457  0.944398  1
  O  O23  1  0.810457  0.189543  0.444398  1
