# generated using pymatgen
data_LaTm3(Ir2O7)2
_symmetry_space_group_name_H-M   'P 1'
_cell_length_a   7.29678252
_cell_length_b   7.21868233
_cell_length_c   7.21868200
_cell_angle_alpha   60.00000153
_cell_angle_beta   60.35343911
_cell_angle_gamma   60.35344235
_symmetry_Int_Tables_number   1
_chemical_formula_structural   LaTm3(Ir2O7)2
_chemical_formula_sum   'La1 Tm3 Ir4 O14'
_cell_volume   270.29114715
_cell_formula_units_Z   1
loop_
 _symmetry_equiv_pos_site_id
 _symmetry_equiv_pos_as_xyz
  1  'x, y, z'
loop_
 _atom_site_type_symbol
 _atom_site_label
 _atom_site_symmetry_multiplicity
 _atom_site_fract_x
 _atom_site_fract_y
 _atom_site_fract_z
 _atom_site_occupancy
  La  La0  1  0.625000  0.125000  0.125000  1
  Tm  Tm1  1  0.125000  0.625000  0.125000  1
  Tm  Tm2  1  0.125000  0.125000  0.625000  1
  Tm  Tm3  1  0.125000  0.125000  0.125000  1
  Ir  Ir4  1  0.125000  0.625000  0.625000  1
  Ir  Ir5  1  0.625000  0.125000  0.625000  1
  Ir  Ir6  1  0.625000  0.625000  0.125000  1
  Ir  Ir7  1  0.625000  0.625000  0.625000  1
  O  O8  1  0.726634  0.697262  0.288052  1
  O  O9  1  0.286425  0.288324  0.712625  1
  O  O10  1  0.726634  0.288052  0.697262  1
  O  O11  1  0.286425  0.712625  0.288324  1
  O  O12  1  0.286425  0.712625  0.712625  1
  O  O13  1  0.726634  0.288052  0.288052  1
  O  O14  1  0.523366  0.552738  0.961948  1
  O  O15  1  0.963575  0.961676  0.537375  1
  O  O16  1  0.523366  0.961948  0.552738  1
  O  O17  1  0.963575  0.537375  0.961676  1
  O  O18  1  0.963575  0.537375  0.537375  1
  O  O19  1  0.523366  0.961948  0.961948  1
  O  O20  1  0.235222  0.254926  0.254926  1
  O  O21  1  0.014778  0.995074  0.995074  1
