# generated using pymatgen
data_PrTh3(CdNi2)2
_symmetry_space_group_name_H-M   'P 1'
_cell_length_a   7.66246750
_cell_length_b   7.66246750
_cell_length_c   3.70784900
_cell_angle_alpha   90.00000000
_cell_angle_beta   90.00000000
_cell_angle_gamma   88.80807169
_symmetry_Int_Tables_number   1
_chemical_formula_structural   PrTh3(CdNi2)2
_chemical_formula_sum   'Pr1 Th3 Cd2 Ni4'
_cell_volume   217.65334694
_cell_formula_units_Z   1
loop_
 _symmetry_equiv_pos_site_id
 _symmetry_equiv_pos_as_xyz
  1  'x, y, z'
loop_
 _atom_site_type_symbol
 _atom_site_label
 _atom_site_symmetry_multiplicity
 _atom_site_fract_x
 _atom_site_fract_y
 _atom_site_fract_z
 _atom_site_occupancy
  Pr  Pr0  1  0.672588  0.172588  0.500000  1
  Th  Th1  1  0.328481  0.828481  0.500000  1
  Th  Th2  1  0.827351  0.672104  0.500000  1
  Th  Th3  1  0.172104  0.327351  0.500000  1
  Cd  Cd4  1  0.997471  0.000969  0.000000  1
  Cd  Cd5  1  0.500969  0.497471  0.000000  1
  Ni  Ni6  1  0.365594  0.117182  0.000000  1
  Ni  Ni7  1  0.890416  0.390416  0.000000  1
  Ni  Ni8  1  0.127844  0.627844  0.000000  1
  Ni  Ni9  1  0.617182  0.865594  0.000000  1
