# generated using pymatgen
data_Ho2ErZn2In3Rh
_symmetry_space_group_name_H-M   'P 1'
_cell_length_a   7.74509940
_cell_length_b   7.74439745
_cell_length_c   3.80498400
_cell_angle_alpha   90.00000000
_cell_angle_beta   90.00000000
_cell_angle_gamma   120.03989710
_symmetry_Int_Tables_number   1
_chemical_formula_structural   Ho2ErZn2In3Rh
_chemical_formula_sum   'Ho2 Er1 Zn2 In3 Rh1'
_cell_volume   197.57107206
_cell_formula_units_Z   1
loop_
 _symmetry_equiv_pos_site_id
 _symmetry_equiv_pos_as_xyz
  1  'x, y, z'
loop_
 _atom_site_type_symbol
 _atom_site_label
 _atom_site_symmetry_multiplicity
 _atom_site_fract_x
 _atom_site_fract_y
 _atom_site_fract_z
 _atom_site_occupancy
  Ho  Ho0  1  0.024897  0.609002  0.500000  1
  Ho  Ho1  1  0.391134  0.415955  0.500000  1
  Er  Er2  1  0.583790  0.974633  0.500000  1
  Zn  Zn3  1  0.666579  0.333091  0.000000  1
  Zn  Zn4  1  0.999921  0.000015  0.500000  1
  In  In5  1  0.266055  0.004930  0.000000  1
  In  In6  1  0.738991  0.734310  0.000000  1
  In  In7  1  0.994913  0.260833  0.000000  1
  Rh  Rh8  1  0.333721  0.667231  0.000000  1
