# generated using pymatgen
data_Dy3Er(Tm4Bi3)4
_symmetry_space_group_name_H-M   'P 1'
_cell_length_a   8.18721735
_cell_length_b   9.43468500
_cell_length_c   11.90507600
_cell_angle_alpha   90.00000000
_cell_angle_beta   89.98324631
_cell_angle_gamma   90.00000000
_symmetry_Int_Tables_number   1
_chemical_formula_structural   Dy3Er(Tm4Bi3)4
_chemical_formula_sum   'Dy3 Er1 Tm16 Bi12'
_cell_volume   919.59346931
_cell_formula_units_Z   1
loop_
 _symmetry_equiv_pos_site_id
 _symmetry_equiv_pos_as_xyz
  1  'x, y, z'
loop_
 _atom_site_type_symbol
 _atom_site_label
 _atom_site_symmetry_multiplicity
 _atom_site_fract_x
 _atom_site_fract_y
 _atom_site_fract_z
 _atom_site_occupancy
  Dy  Dy0  1  0.313656  0.250000  0.217963  1
  Dy  Dy1  1  0.813553  0.250000  0.281984  1
  Dy  Dy2  1  0.686479  0.750000  0.782074  1
  Er  Er3  1  0.186852  0.750000  0.717540  1
  Tm  Tm4  1  0.352644  0.750000  0.217224  1
  Tm  Tm5  1  0.852823  0.750000  0.282757  1
  Tm  Tm6  1  0.647250  0.250000  0.782724  1
  Tm  Tm7  1  0.147228  0.250000  0.717262  1
  Tm  Tm8  1  0.691552  0.565815  0.059098  1
  Tm  Tm9  1  0.191654  0.934142  0.441066  1
  Tm  Tm10  1  0.308411  0.065856  0.940792  1
  Tm  Tm11  1  0.808296  0.434095  0.559095  1
  Tm  Tm12  1  0.308411  0.434144  0.940792  1
  Tm  Tm13  1  0.808296  0.065905  0.559095  1
  Tm  Tm14  1  0.691552  0.934185  0.059098  1
  Tm  Tm15  1  0.191654  0.565858  0.441066  1
  Tm  Tm16  1  0.477050  0.250000  0.489414  1
  Tm  Tm17  1  0.977198  0.250000  0.010564  1
  Tm  Tm18  1  0.522585  0.750000  0.510927  1
  Tm  Tm19  1  0.022986  0.750000  0.989262  1
  Bi  Bi20  1  0.402682  0.750000  0.958126  1
  Bi  Bi21  1  0.904019  0.750000  0.542210  1
  Bi  Bi22  1  0.596868  0.250000  0.041522  1
  Bi  Bi23  1  0.096779  0.250000  0.458495  1
  Bi  Bi24  1  0.565182  0.994708  0.325908  1
  Bi  Bi25  1  0.065069  0.505287  0.174144  1
  Bi  Bi26  1  0.434111  0.495371  0.674257  1
  Bi  Bi27  1  0.935399  0.004853  0.825618  1
  Bi  Bi28  1  0.434111  0.004629  0.674257  1
  Bi  Bi29  1  0.935399  0.495147  0.825618  1
  Bi  Bi30  1  0.565182  0.505292  0.325908  1
  Bi  Bi31  1  0.065069  0.994713  0.174144  1
