# generated using pymatgen
data_Eu2Al3Ge2Au3
_symmetry_space_group_name_H-M   'P 1'
_cell_length_a   8.77317186
_cell_length_b   8.77316997
_cell_length_c   8.77317000
_cell_angle_alpha   139.48057800
_cell_angle_beta   99.29263386
_cell_angle_gamma   94.49299933
_symmetry_Int_Tables_number   1
_chemical_formula_structural   Eu2Al3Ge2Au3
_chemical_formula_sum   'Eu4 Al6 Ge4 Au6'
_cell_volume   411.11725714
_cell_formula_units_Z   2
loop_
 _symmetry_equiv_pos_site_id
 _symmetry_equiv_pos_as_xyz
  1  'x, y, z'
loop_
 _atom_site_type_symbol
 _atom_site_label
 _atom_site_symmetry_multiplicity
 _atom_site_fract_x
 _atom_site_fract_y
 _atom_site_fract_z
 _atom_site_occupancy
  Eu  Eu0  1  0.623144  0.878086  0.745058  1
  Eu  Eu1  1  0.376856  0.121914  0.254942  1
  Eu  Eu2  1  0.866971  0.621914  0.245058  1
  Eu  Eu3  1  0.133029  0.378086  0.754942  1
  Al  Al4  1  0.000000  0.250000  0.250000  1
  Al  Al5  1  0.000000  0.750000  0.750000  1
  Al  Al6  1  0.252862  0.502862  0.250000  1
  Al  Al7  1  0.747138  0.997138  0.250000  1
  Al  Al8  1  0.747138  0.497138  0.750000  1
  Al  Al9  1  0.252862  0.002862  0.750000  1
  Ge  Ge10  1  0.486139  0.629223  0.856916  1
  Ge  Ge11  1  0.772308  0.129223  0.643084  1
  Ge  Ge12  1  0.227692  0.870777  0.356916  1
  Ge  Ge13  1  0.513861  0.370777  0.143084  1
  Au  Au14  1  0.999451  0.127813  0.871638  1
  Au  Au15  1  0.500000  0.750000  0.250000  1
  Au  Au16  1  0.256176  0.627813  0.628362  1
  Au  Au17  1  0.743824  0.372187  0.371638  1
  Au  Au18  1  0.000549  0.872187  0.128362  1
  Au  Au19  1  0.500000  0.250000  0.750000  1
