# generated using pymatgen
data_Sm6Y2Sc12Ga15Si
_symmetry_space_group_name_H-M   'P 1'
_cell_length_a   7.34987928
_cell_length_b   7.57070528
_cell_length_c   14.56755619
_cell_angle_alpha   89.94592256
_cell_angle_beta   89.96841030
_cell_angle_gamma   90.12163330
_symmetry_Int_Tables_number   1
_chemical_formula_structural   Sm6Y2Sc12Ga15Si
_chemical_formula_sum   'Sm6 Y2 Sc12 Ga15 Si1'
_cell_volume   810.59143241
_cell_formula_units_Z   1
loop_
 _symmetry_equiv_pos_site_id
 _symmetry_equiv_pos_as_xyz
  1  'x, y, z'
loop_
 _atom_site_type_symbol
 _atom_site_label
 _atom_site_symmetry_multiplicity
 _atom_site_fract_x
 _atom_site_fract_y
 _atom_site_fract_z
 _atom_site_occupancy
  Sm  Sm0  1  0.488405  0.676905  0.903548  1
  Sm  Sm1  1  0.986428  0.821779  0.596788  1
  Sm  Sm2  1  0.511790  0.323013  0.095226  1
  Sm  Sm3  1  0.012395  0.176097  0.404430  1
  Sm  Sm4  1  0.511949  0.323394  0.404688  1
  Sm  Sm5  1  0.488403  0.676349  0.596539  1
  Y  Y6  1  0.012010  0.176936  0.095546  1
  Y  Y7  1  0.986171  0.820372  0.903003  1
  Sc  Sc8  1  0.158590  0.501562  0.750205  1
  Sc  Sc9  1  0.837836  0.498666  0.249692  1
  Sc  Sc10  1  0.337953  0.000961  0.249741  1
  Sc  Sc11  1  0.663352  0.995852  0.750306  1
  Sc  Sc12  1  0.331959  0.173867  0.623885  1
  Sc  Sc13  1  0.669496  0.826706  0.375711  1
  Sc  Sc14  1  0.169748  0.673109  0.375101  1
  Sc  Sc15  1  0.670892  0.827080  0.123916  1
  Sc  Sc16  1  0.829716  0.329455  0.624427  1
  Sc  Sc17  1  0.330765  0.173476  0.876485  1
  Sc  Sc18  1  0.830180  0.329172  0.876019  1
  Sc  Sc19  1  0.169188  0.673414  0.124428  1
  Ga  Ga20  1  0.031879  0.121621  0.750500  1
  Ga  Ga21  1  0.968015  0.879846  0.249495  1
  Ga  Ga22  1  0.467763  0.621001  0.249792  1
  Ga  Ga23  1  0.532578  0.383623  0.750165  1
  Ga  Ga24  1  0.285680  0.876514  0.750745  1
  Ga  Ga25  1  0.715287  0.124498  0.249215  1
  Ga  Ga26  1  0.214139  0.374797  0.249656  1
  Ga  Ga27  1  0.158037  0.462935  0.540682  1
  Ga  Ga28  1  0.842039  0.537181  0.459623  1
  Ga  Ga29  1  0.341505  0.961970  0.460269  1
  Ga  Ga30  1  0.842515  0.536185  0.040364  1
  Ga  Ga31  1  0.659284  0.037013  0.540926  1
  Ga  Ga32  1  0.157558  0.464006  0.959461  1
  Ga  Ga33  1  0.661664  0.036156  0.958920  1
  Ga  Ga34  1  0.339429  0.962992  0.039978  1
  Si  Si35  1  0.785403  0.621494  0.750528  1
