# generated using pymatgen
data_Tm8Lu12Si15Hg
_symmetry_space_group_name_H-M   'P 1'
_cell_length_a   7.27621972
_cell_length_b   7.57165397
_cell_length_c   14.37371252
_cell_angle_alpha   89.91021705
_cell_angle_beta   89.43676378
_cell_angle_gamma   90.04254590
_symmetry_Int_Tables_number   1
_chemical_formula_structural   Tm8Lu12Si15Hg
_chemical_formula_sum   'Tm8 Lu12 Si15 Hg1'
_cell_volume   791.85174017
_cell_formula_units_Z   1
loop_
 _symmetry_equiv_pos_site_id
 _symmetry_equiv_pos_as_xyz
  1  'x, y, z'
loop_
 _atom_site_type_symbol
 _atom_site_label
 _atom_site_symmetry_multiplicity
 _atom_site_fract_x
 _atom_site_fract_y
 _atom_site_fract_z
 _atom_site_occupancy
  Tm  Tm0  1  0.015020  0.178096  0.097717  1
  Tm  Tm1  1  0.984425  0.822547  0.904301  1
  Tm  Tm2  1  0.484820  0.679588  0.903930  1
  Tm  Tm3  1  0.986782  0.829237  0.598410  1
  Tm  Tm4  1  0.514323  0.320684  0.096922  1
  Tm  Tm5  1  0.009889  0.173156  0.398231  1
  Tm  Tm6  1  0.512574  0.319821  0.398998  1
  Tm  Tm7  1  0.493833  0.684572  0.599885  1
  Lu  Lu8  1  0.163595  0.507737  0.753027  1
  Lu  Lu9  1  0.836176  0.492140  0.250498  1
  Lu  Lu10  1  0.336457  0.007497  0.249170  1
  Lu  Lu11  1  0.665851  0.989998  0.751311  1
  Lu  Lu12  1  0.339279  0.168634  0.626848  1
  Lu  Lu13  1  0.665187  0.824640  0.374740  1
  Lu  Lu14  1  0.167597  0.677931  0.372562  1
  Lu  Lu15  1  0.670328  0.822970  0.123128  1
  Lu  Lu16  1  0.827202  0.325466  0.624224  1
  Lu  Lu17  1  0.328672  0.176108  0.877590  1
  Lu  Lu18  1  0.828345  0.321915  0.877794  1
  Lu  Lu19  1  0.170060  0.677601  0.123666  1
  Si  Si20  1  0.035794  0.111999  0.752126  1
  Si  Si21  1  0.964377  0.892561  0.248033  1
  Si  Si22  1  0.466036  0.607234  0.247919  1
  Si  Si23  1  0.534125  0.393028  0.751833  1
  Si  Si24  1  0.282269  0.869524  0.752250  1
  Si  Si25  1  0.715755  0.131485  0.247587  1
  Si  Si26  1  0.216034  0.366916  0.247573  1
  Si  Si27  1  0.785275  0.631478  0.753149  1
  Si  Si28  1  0.830993  0.533497  0.458725  1
  Si  Si29  1  0.334109  0.966275  0.459556  1
  Si  Si30  1  0.842153  0.532708  0.038585  1
  Si  Si31  1  0.664711  0.034353  0.537868  1
  Si  Si32  1  0.157388  0.466527  0.962478  1
  Si  Si33  1  0.657655  0.031439  0.960826  1
  Si  Si34  1  0.341699  0.968507  0.039942  1
  Hg  Hg35  1  0.171211  0.462130  0.538598  1
