# generated using pymatgen
data_CsTiCuAs2
_symmetry_space_group_name_H-M   'P 1'
_cell_length_a   8.28354301
_cell_length_b   8.28354261
_cell_length_c   8.28354330
_cell_angle_alpha   151.25124355
_cell_angle_beta   151.25123673
_cell_angle_gamma   41.10776224
_symmetry_Int_Tables_number   1
_chemical_formula_structural   CsTiCuAs2
_chemical_formula_sum   'Cs1 Ti1 Cu1 As2'
_cell_volume   131.20344547
_cell_formula_units_Z   1
loop_
 _symmetry_equiv_pos_site_id
 _symmetry_equiv_pos_as_xyz
  1  'x, y, z'
loop_
 _atom_site_type_symbol
 _atom_site_label
 _atom_site_symmetry_multiplicity
 _atom_site_fract_x
 _atom_site_fract_y
 _atom_site_fract_z
 _atom_site_occupancy
  Cs  Cs0  1  0.000000  0.000000  0.000000  1
  Ti  Ti1  1  0.250000  0.750000  0.500000  1
  Cu  Cu2  1  0.750000  0.250000  0.500000  1
  As  As3  1  0.341761  0.341761  0.000000  1
  As  As4  1  0.658239  0.658239  0.000000  1
