# generated using pymatgen
data_Er3TmRu4F28
_symmetry_space_group_name_H-M   'P 1'
_cell_length_a   5.54183037
_cell_length_b   8.86639993
_cell_length_c   11.86708489
_cell_angle_alpha   63.46984839
_cell_angle_beta   90.02878767
_cell_angle_gamma   89.98487278
_symmetry_Int_Tables_number   1
_chemical_formula_structural   Er3TmRu4F28
_chemical_formula_sum   'Er3 Tm1 Ru4 F28'
_cell_volume   521.70095797
_cell_formula_units_Z   1
loop_
 _symmetry_equiv_pos_site_id
 _symmetry_equiv_pos_as_xyz
  1  'x, y, z'
loop_
 _atom_site_type_symbol
 _atom_site_label
 _atom_site_symmetry_multiplicity
 _atom_site_fract_x
 _atom_site_fract_y
 _atom_site_fract_z
 _atom_site_occupancy
  Er  Er0  1  0.257258  0.188257  0.729923  1
  Er  Er1  1  0.242529  0.189379  0.229568  1
  Er  Er2  1  0.742442  0.810196  0.270605  1
  Tm  Tm3  1  0.757504  0.810141  0.770664  1
  Ru  Ru4  1  0.754138  0.273420  0.953902  1
  Ru  Ru5  1  0.254232  0.727287  0.546692  1
  Ru  Ru6  1  0.245965  0.727172  0.045286  1
  Ru  Ru7  1  0.746056  0.272471  0.454300  1
  F  F8  1  0.455360  0.703587  0.920225  1
  F  F9  1  0.954700  0.296246  0.579441  1
  F  F10  1  0.545649  0.296485  0.079269  1
  F  F11  1  0.044679  0.703822  0.421655  1
  F  F12  1  0.454541  0.283778  0.546780  1
  F  F13  1  0.954149  0.716462  0.952280  1
  F  F14  1  0.544784  0.715723  0.453737  1
  F  F15  1  0.045900  0.284320  0.046322  1
  F  F16  1  0.764654  0.513681  0.857406  1
  F  F17  1  0.265518  0.487225  0.642660  1
  F  F18  1  0.234791  0.487228  0.141684  1
  F  F19  1  0.734589  0.512782  0.357978  1
  F  F20  1  0.754600  0.034908  0.047251  1
  F  F21  1  0.254307  0.965729  0.453132  1
  F  F22  1  0.245661  0.965978  0.951978  1
  F  F23  1  0.746219  0.034138  0.547375  1
  F  F24  1  0.970527  0.732977  0.644983  1
  F  F25  1  0.469954  0.267972  0.856161  1
  F  F26  1  0.030715  0.267819  0.356531  1
  F  F27  1  0.530073  0.732062  0.143270  1
  F  F28  1  0.041099  0.751034  0.172894  1
  F  F29  1  0.541545  0.249300  0.326402  1
  F  F30  1  0.958515  0.249765  0.826240  1
  F  F31  1  0.461003  0.751299  0.673702  1
  F  F32  1  0.430349  0.974979  0.234446  1
  F  F33  1  0.930418  0.024769  0.265540  1
  F  F34  1  0.569094  0.022846  0.765138  1
  F  F35  1  0.066483  0.974762  0.734578  1
