# generated using pymatgen
data_Pr4Ga4AgRu3
_symmetry_space_group_name_H-M   'P 1'
_cell_length_a   4.42425100
_cell_length_b   7.25975551
_cell_length_c   7.96560250
_cell_angle_alpha   88.77622355
_cell_angle_beta   90.00000000
_cell_angle_gamma   90.00000000
_symmetry_Int_Tables_number   1
_chemical_formula_structural   Pr4Ga4AgRu3
_chemical_formula_sum   'Pr4 Ga4 Ag1 Ru3'
_cell_volume   255.78867484
_cell_formula_units_Z   1
loop_
 _symmetry_equiv_pos_site_id
 _symmetry_equiv_pos_as_xyz
  1  'x, y, z'
loop_
 _atom_site_type_symbol
 _atom_site_label
 _atom_site_symmetry_multiplicity
 _atom_site_fract_x
 _atom_site_fract_y
 _atom_site_fract_z
 _atom_site_occupancy
  Pr  Pr0  1  0.250000  0.015149  0.680589  1
  Pr  Pr1  1  0.250000  0.530298  0.804812  1
  Pr  Pr2  1  0.750000  0.976221  0.306292  1
  Pr  Pr3  1  0.750000  0.487840  0.203766  1
  Ga  Ga4  1  0.250000  0.162996  0.086630  1
  Ga  Ga5  1  0.250000  0.666560  0.424659  1
  Ga  Ga6  1  0.750000  0.817451  0.925168  1
  Ga  Ga7  1  0.750000  0.338355  0.565321  1
  Ag  Ag8  1  0.750000  0.207491  0.901461  1
  Ru  Ru9  1  0.250000  0.289333  0.395535  1
  Ru  Ru10  1  0.250000  0.792245  0.099237  1
  Ru  Ru11  1  0.750000  0.716062  0.606529  1
