# generated using pymatgen
data_Zr4Ti3NbSb4
_symmetry_space_group_name_H-M   'P 1'
_cell_length_a   3.84579900
_cell_length_b   7.29545668
_cell_length_c   8.91937340
_cell_angle_alpha   89.87848816
_cell_angle_beta   90.00000000
_cell_angle_gamma   90.00000000
_symmetry_Int_Tables_number   1
_chemical_formula_structural   Zr4Ti3NbSb4
_chemical_formula_sum   'Zr4 Ti3 Nb1 Sb4'
_cell_volume   250.24904797
_cell_formula_units_Z   1
loop_
 _symmetry_equiv_pos_site_id
 _symmetry_equiv_pos_as_xyz
  1  'x, y, z'
loop_
 _atom_site_type_symbol
 _atom_site_label
 _atom_site_symmetry_multiplicity
 _atom_site_fract_x
 _atom_site_fract_y
 _atom_site_fract_z
 _atom_site_occupancy
  Zr  Zr0  1  0.250000  0.555189  0.832560  1
  Zr  Zr1  1  0.750000  0.944626  0.332463  1
  Zr  Zr2  1  0.250000  0.061693  0.666654  1
  Zr  Zr3  1  0.750000  0.446275  0.165454  1
  Ti  Ti4  1  0.250000  0.124109  0.060587  1
  Ti  Ti5  1  0.750000  0.872126  0.940289  1
  Ti  Ti6  1  0.250000  0.623372  0.441626  1
  Nb  Nb7  1  0.750000  0.371844  0.559884  1
  Sb  Sb8  1  0.750000  0.755497  0.639052  1
  Sb  Sb9  1  0.250000  0.747658  0.138991  1
  Sb  Sb10  1  0.750000  0.250735  0.866270  1
  Sb  Sb11  1  0.250000  0.246877  0.356169  1
