# generated using pymatgen
data_Nd12Cu11Si12Pd
_symmetry_space_group_name_H-M   'P 1'
_cell_length_a   4.17846700
_cell_length_b   7.22246568
_cell_length_c   24.37721971
_cell_angle_alpha   90.04693977
_cell_angle_beta   90.00000000
_cell_angle_gamma   90.00000000
_symmetry_Int_Tables_number   1
_chemical_formula_structural   Nd12Cu11Si12Pd
_chemical_formula_sum   'Nd12 Cu11 Si12 Pd1'
_cell_volume   735.67583263
_cell_formula_units_Z   1
loop_
 _symmetry_equiv_pos_site_id
 _symmetry_equiv_pos_as_xyz
  1  'x, y, z'
loop_
 _atom_site_type_symbol
 _atom_site_label
 _atom_site_symmetry_multiplicity
 _atom_site_fract_x
 _atom_site_fract_y
 _atom_site_fract_z
 _atom_site_occupancy
  Nd  Nd0  1  0.250000  0.750158  0.334613  1
  Nd  Nd1  1  0.750000  0.248991  0.665905  1
  Nd  Nd2  1  0.750000  0.250177  0.166290  1
  Nd  Nd3  1  0.250000  0.749151  0.833270  1
  Nd  Nd4  1  0.250000  0.750043  0.166376  1
  Nd  Nd5  1  0.750000  0.250144  0.833366  1
  Nd  Nd6  1  0.750000  0.250720  0.334264  1
  Nd  Nd7  1  0.250000  0.751262  0.666744  1
  Nd  Nd8  1  0.250000  0.749748  0.999641  1
  Nd  Nd9  1  0.750000  0.249935  0.999403  1
  Nd  Nd10  1  0.750000  0.249873  0.500857  1
  Nd  Nd11  1  0.250000  0.750604  0.499221  1
  Cu  Cu12  1  0.250000  0.417525  0.250233  1
  Cu  Cu13  1  0.750000  0.582202  0.749783  1
  Cu  Cu14  1  0.750000  0.917691  0.250094  1
  Cu  Cu15  1  0.250000  0.082867  0.750222  1
  Cu  Cu16  1  0.250000  0.417241  0.418698  1
  Cu  Cu17  1  0.750000  0.581387  0.583832  1
  Cu  Cu18  1  0.750000  0.917494  0.083124  1
  Cu  Cu19  1  0.250000  0.082267  0.916114  1
  Cu  Cu20  1  0.250000  0.417407  0.083046  1
  Cu  Cu21  1  0.750000  0.582231  0.916109  1
  Cu  Cu22  1  0.750000  0.918053  0.418111  1
  Si  Si23  1  0.250000  0.083023  0.081900  1
  Si  Si24  1  0.750000  0.916908  0.917194  1
  Si  Si25  1  0.750000  0.582374  0.417483  1
  Si  Si26  1  0.250000  0.425680  0.581782  1
  Si  Si27  1  0.250000  0.082198  0.250097  1
  Si  Si28  1  0.750000  0.917298  0.750465  1
  Si  Si29  1  0.750000  0.582872  0.250491  1
  Si  Si30  1  0.250000  0.417523  0.749592  1
  Si  Si31  1  0.250000  0.083803  0.416984  1
  Si  Si32  1  0.750000  0.907046  0.581171  1
  Si  Si33  1  0.750000  0.582501  0.081716  1
  Si  Si34  1  0.250000  0.417512  0.917213  1
  Pd  Pd35  1  0.250000  0.084092  0.584596  1
