# generated using pymatgen
data_Li7Y8Mg(Sn3Pb)2
_symmetry_space_group_name_H-M   'P 1'
_cell_length_a   9.47127202
_cell_length_b   9.47216888
_cell_length_c   7.32262199
_cell_angle_alpha   90.13850504
_cell_angle_beta   89.83530683
_cell_angle_gamma   119.94310169
_symmetry_Int_Tables_number   1
_chemical_formula_structural   Li7Y8Mg(Sn3Pb)2
_chemical_formula_sum   'Li7 Y8 Mg1 Sn6 Pb2'
_cell_volume   569.24815501
_cell_formula_units_Z   1
loop_
 _symmetry_equiv_pos_site_id
 _symmetry_equiv_pos_as_xyz
  1  'x, y, z'
loop_
 _atom_site_type_symbol
 _atom_site_label
 _atom_site_symmetry_multiplicity
 _atom_site_fract_x
 _atom_site_fract_y
 _atom_site_fract_z
 _atom_site_occupancy
  Li  Li0  1  0.334422  0.168384  0.693658  1
  Li  Li1  1  0.831621  0.665290  0.692058  1
  Li  Li2  1  0.165017  0.333978  0.191563  1
  Li  Li3  1  0.666804  0.834071  0.192285  1
  Li  Li4  1  0.833135  0.167244  0.691978  1
  Li  Li5  1  0.333618  0.665918  0.813786  1
  Li  Li6  1  0.669200  0.333375  0.313869  1
  Y  Y7  1  0.513503  0.489829  0.987869  1
  Y  Y8  1  0.023046  0.507380  0.491851  1
  Y  Y9  1  0.493200  0.975841  0.492301  1
  Y  Y10  1  0.521195  0.028444  0.988792  1
  Y  Y11  1  0.970432  0.479550  0.989767  1
  Y  Y12  1  0.488761  0.514102  0.495967  1
  Y  Y13  1  0.993993  0.003548  0.981866  1
  Y  Y14  1  0.995924  0.000825  0.485862  1
  Mg  Mg15  1  0.165523  0.831437  0.198267  1
  Sn  Sn16  1  0.826554  0.663266  0.258330  1
  Sn  Sn17  1  0.166904  0.333699  0.756314  1
  Sn  Sn18  1  0.666248  0.833069  0.756395  1
  Sn  Sn19  1  0.833353  0.166466  0.256581  1
  Sn  Sn20  1  0.337053  0.663073  0.226254  1
  Sn  Sn21  1  0.666605  0.333328  0.722347  1
  Pb  Pb22  1  0.166549  0.833508  0.753775  1
  Pb  Pb23  1  0.337340  0.174375  0.258271  1
