# generated using pymatgen
data_Y3Er5Mg2(SiB4)4
_symmetry_space_group_name_H-M   'P 1'
_cell_length_a   7.15080602
_cell_length_b   7.15091702
_cell_length_c   7.80213301
_cell_angle_alpha   89.99573157
_cell_angle_beta   89.99534831
_cell_angle_gamma   89.99242015
_symmetry_Int_Tables_number   1
_chemical_formula_structural   Y3Er5Mg2(SiB4)4
_chemical_formula_sum   'Y3 Er5 Mg2 Si4 B16'
_cell_volume   398.96066509
_cell_formula_units_Z   1
loop_
 _symmetry_equiv_pos_site_id
 _symmetry_equiv_pos_as_xyz
  1  'x, y, z'
loop_
 _atom_site_type_symbol
 _atom_site_label
 _atom_site_symmetry_multiplicity
 _atom_site_fract_x
 _atom_site_fract_y
 _atom_site_fract_z
 _atom_site_occupancy
  Y  Y0  1  0.682901  0.182696  0.765656  1
  Y  Y1  1  0.182808  0.317277  0.765685  1
  Y  Y2  1  0.182850  0.317276  0.234236  1
  Er  Er3  1  0.682971  0.182746  0.232347  1
  Er  Er4  1  0.317059  0.816834  0.767650  1
  Er  Er5  1  0.317143  0.816918  0.232283  1
  Er  Er6  1  0.816954  0.683183  0.232158  1
  Er  Er7  1  0.816950  0.683148  0.767726  1
  Mg  Mg8  1  0.999957  0.999615  0.499899  1
  Mg  Mg9  1  0.500238  0.500345  0.499928  1
  Si  Si10  1  0.114985  0.617570  0.499829  1
  Si  Si11  1  0.883449  0.386095  0.498979  1
  Si  Si12  1  0.384997  0.113648  0.499176  1
  Si  Si13  1  0.615757  0.882934  0.499185  1
  B  B14  1  0.173652  0.038905  0.000248  1
  B  B15  1  0.826224  0.959524  0.000423  1
  B  B16  1  0.959818  0.173195  0.000265  1
  B  B17  1  0.326552  0.540718  0.000226  1
  B  B18  1  0.039694  0.825793  0.000227  1
  B  B19  1  0.673955  0.460842  0.000256  1
  B  B20  1  0.539969  0.674162  0.000246  1
  B  B21  1  0.460589  0.326732  0.000424  1
  B  B22  1  0.089213  0.589670  0.000132  1
  B  B23  1  0.910464  0.410929  0.000280  1
  B  B24  1  0.410757  0.089012  0.000690  1
  B  B25  1  0.589300  0.910478  0.000687  1
  B  B26  1  0.999594  0.999245  0.163824  1
  B  B27  1  0.000252  0.998965  0.836760  1
  B  B28  1  0.500337  0.501101  0.836758  1
  B  B29  1  0.500613  0.500442  0.163819  1
