# generated using pymatgen
data_Tb3Ho(PS4)4
_symmetry_space_group_name_H-M   'P 1'
_cell_length_a   6.57765206
_cell_length_b   8.81906335
_cell_length_c   12.77647739
_cell_angle_alpha   59.20857218
_cell_angle_beta   89.94792654
_cell_angle_gamma   89.98635647
_symmetry_Int_Tables_number   1
_chemical_formula_structural   Tb3Ho(PS4)4
_chemical_formula_sum   'Tb3 Ho1 P4 S16'
_cell_volume   636.67223414
_cell_formula_units_Z   1
loop_
 _symmetry_equiv_pos_site_id
 _symmetry_equiv_pos_as_xyz
  1  'x, y, z'
loop_
 _atom_site_type_symbol
 _atom_site_label
 _atom_site_symmetry_multiplicity
 _atom_site_fract_x
 _atom_site_fract_y
 _atom_site_fract_z
 _atom_site_occupancy
  Tb  Tb0  1  0.318469  0.556614  0.834989  1
  Tb  Tb1  1  0.818868  0.444115  0.664658  1
  Tb  Tb2  1  0.681327  0.444484  0.164893  1
  Ho  Ho3  1  0.179270  0.554908  0.335668  1
  P  P4  1  0.229438  0.686794  0.040503  1
  P  P5  1  0.730038  0.314350  0.460596  1
  P  P6  1  0.770523  0.312292  0.961042  1
  P  P7  1  0.270322  0.686540  0.537818  1
  S  S8  1  0.232567  0.423959  0.587526  1
  S  S9  1  0.733411  0.575347  0.910817  1
  S  S10  1  0.770615  0.576846  0.410578  1
  S  S11  1  0.266932  0.424509  0.089164  1
  S  S12  1  0.254889  0.842227  0.355763  1
  S  S13  1  0.755112  0.155366  0.142876  1
  S  S14  1  0.744088  0.155914  0.642334  1
  S  S15  1  0.244804  0.844565  0.858625  1
  S  S16  1  0.536905  0.719344  0.610733  1
  S  S17  1  0.037699  0.280351  0.887954  1
  S  S18  1  0.462199  0.283515  0.387750  1
  S  S19  1  0.962958  0.718457  0.114299  1
  S  S20  1  0.052080  0.739257  0.631476  1
  S  S21  1  0.551463  0.260704  0.867546  1
  S  S22  1  0.949090  0.261911  0.367302  1
  S  S23  1  0.446933  0.737632  0.135089  1
