# generated using pymatgen
data_Er6VFe12Co5P12
_symmetry_space_group_name_H-M   'P 1'
_cell_length_a   3.69814900
_cell_length_b   10.49461998
_cell_length_c   12.17118418
_cell_angle_alpha   90.08459453
_cell_angle_beta   90.00000000
_cell_angle_gamma   90.00000000
_symmetry_Int_Tables_number   1
_chemical_formula_structural   Er6VFe12Co5P12
_chemical_formula_sum   'Er6 V1 Fe12 Co5 P12'
_cell_volume   472.37127818
_cell_formula_units_Z   1
loop_
 _symmetry_equiv_pos_site_id
 _symmetry_equiv_pos_as_xyz
  1  'x, y, z'
loop_
 _atom_site_type_symbol
 _atom_site_label
 _atom_site_symmetry_multiplicity
 _atom_site_fract_x
 _atom_site_fract_y
 _atom_site_fract_z
 _atom_site_occupancy
  Er  Er0  1  0.750000  0.250635  0.475203  1
  Er  Er1  1  0.250000  0.750673  0.525401  1
  Er  Er2  1  0.250000  0.928387  0.792841  1
  Er  Er3  1  0.250000  0.571127  0.792357  1
  Er  Er4  1  0.750000  0.070825  0.206028  1
  Er  Er5  1  0.750000  0.429747  0.206137  1
  V  V6  1  0.250000  0.249888  0.849269  1
  Fe  Fe7  1  0.750000  0.750727  0.154648  1
  Fe  Fe8  1  0.750000  0.250302  0.011359  1
  Fe  Fe9  1  0.250000  0.749878  0.990486  1
  Fe  Fe10  1  0.250000  0.424730  0.003647  1
  Fe  Fe11  1  0.250000  0.075421  0.003742  1
  Fe  Fe12  1  0.750000  0.579371  0.997424  1
  Fe  Fe13  1  0.750000  0.920483  0.997543  1
  Fe  Fe14  1  0.250000  0.452534  0.569299  1
  Fe  Fe15  1  0.250000  0.046839  0.568216  1
  Fe  Fe16  1  0.750000  0.549326  0.429605  1
  Fe  Fe17  1  0.250000  0.868434  0.293424  1
  Fe  Fe18  1  0.250000  0.632669  0.292550  1
  Co  Co19  1  0.250000  0.249826  0.299025  1
  Co  Co20  1  0.750000  0.749903  0.700688  1
  Co  Co21  1  0.750000  0.950849  0.429489  1
  Co  Co22  1  0.750000  0.128834  0.707334  1
  Co  Co23  1  0.750000  0.369985  0.707456  1
  P  P24  1  0.250000  0.250065  0.114761  1
  P  P25  1  0.750000  0.749880  0.884708  1
  P  P26  1  0.250000  0.249961  0.652093  1
  P  P27  1  0.750000  0.747665  0.341938  1
  P  P28  1  0.250000  0.442897  0.384854  1
  P  P29  1  0.250000  0.058600  0.384182  1
  P  P30  1  0.750000  0.557811  0.612914  1
  P  P31  1  0.750000  0.941868  0.614188  1
  P  P32  1  0.250000  0.899184  0.114048  1
  P  P33  1  0.250000  0.601031  0.113787  1
  P  P34  1  0.750000  0.096574  0.889883  1
  P  P35  1  0.750000  0.403071  0.889470  1
