# generated using pymatgen
data_Pr5NdAl18(Mo3Os4)2
_symmetry_space_group_name_H-M   'P 1'
_cell_length_a   8.95470400
_cell_length_b   8.95301048
_cell_length_c   9.78102500
_cell_angle_alpha   90.00000000
_cell_angle_beta   90.00000000
_cell_angle_gamma   120.00626483
_symmetry_Int_Tables_number   1
_chemical_formula_structural   Pr5NdAl18(Mo3Os4)2
_chemical_formula_sum   'Pr5 Nd1 Al18 Mo6 Os8'
_cell_volume   679.05962354
_cell_formula_units_Z   1
loop_
 _symmetry_equiv_pos_site_id
 _symmetry_equiv_pos_as_xyz
  1  'x, y, z'
loop_
 _atom_site_type_symbol
 _atom_site_label
 _atom_site_symmetry_multiplicity
 _atom_site_fract_x
 _atom_site_fract_y
 _atom_site_fract_z
 _atom_site_occupancy
  Pr  Pr0  1  0.806815  0.613631  0.750000  1
  Pr  Pr1  1  0.613987  0.807015  0.250000  1
  Pr  Pr2  1  0.386348  0.193124  0.750000  1
  Pr  Pr3  1  0.193028  0.807015  0.250000  1
  Pr  Pr4  1  0.806776  0.193124  0.750000  1
  Nd  Nd5  1  0.192975  0.385950  0.250000  1
  Al  Al6  1  0.333280  0.666560  0.004219  1
  Al  Al7  1  0.666652  0.333303  0.995763  1
  Al  Al8  1  0.666652  0.333303  0.504237  1
  Al  Al9  1  0.333280  0.666560  0.495781  1
  Al  Al10  1  0.164182  0.328363  0.575245  1
  Al  Al11  1  0.835793  0.671588  0.424654  1
  Al  Al12  1  0.671617  0.835829  0.575401  1
  Al  Al13  1  0.835793  0.671588  0.075346  1
  Al  Al14  1  0.328390  0.164322  0.424558  1
  Al  Al15  1  0.164182  0.328363  0.924755  1
  Al  Al16  1  0.164215  0.835829  0.575401  1
  Al  Al17  1  0.328390  0.164322  0.075442  1
  Al  Al18  1  0.835930  0.164322  0.424558  1
  Al  Al19  1  0.671617  0.835829  0.924599  1
  Al  Al20  1  0.835930  0.164322  0.075442  1
  Al  Al21  1  0.164215  0.835829  0.924599  1
  Al  Al22  1  0.000153  0.000307  0.250000  1
  Al  Al23  1  0.999998  0.999995  0.750000  1
  Mo  Mo24  1  0.570299  0.140598  0.250000  1
  Mo  Mo25  1  0.429681  0.859363  0.750000  1
  Mo  Mo26  1  0.859571  0.429575  0.250000  1
  Mo  Mo27  1  0.140651  0.570373  0.750000  1
  Mo  Mo28  1  0.570003  0.429575  0.250000  1
  Mo  Mo29  1  0.429722  0.570373  0.750000  1
  Os  Os30  1  0.499945  0.999890  0.000119  1
  Os  Os31  1  0.000199  0.499965  0.000290  1
  Os  Os32  1  0.499945  0.999890  0.499881  1
  Os  Os33  1  0.499767  0.499965  0.000290  1
  Os  Os34  1  0.000199  0.499965  0.499710  1
  Os  Os35  1  0.499767  0.499965  0.499710  1
  Os  Os36  1  0.000028  0.000056  0.000127  1
  Os  Os37  1  0.000028  0.000056  0.499873  1
