# generated using pymatgen
data_Sr10FeNiRu3O20
_symmetry_space_group_name_H-M   'P 1'
_cell_length_a   8.91153740
_cell_length_b   8.91153679
_cell_length_c   8.92153195
_cell_angle_alpha   120.51925720
_cell_angle_beta   120.69959492
_cell_angle_gamma   88.88226166
_symmetry_Int_Tables_number   1
_chemical_formula_structural   Sr10FeNiRu3O20
_chemical_formula_sum   'Sr10 Fe1 Ni1 Ru3 O20'
_cell_volume   496.56108793
_cell_formula_units_Z   1
loop_
 _symmetry_equiv_pos_site_id
 _symmetry_equiv_pos_as_xyz
  1  'x, y, z'
loop_
 _atom_site_type_symbol
 _atom_site_label
 _atom_site_symmetry_multiplicity
 _atom_site_fract_x
 _atom_site_fract_y
 _atom_site_fract_z
 _atom_site_occupancy
  Sr  Sr0  1  0.754867  0.139967  0.182656  1
  Sr  Sr1  1  0.359471  0.349637  0.998193  1
  Sr  Sr2  1  0.947216  0.565566  0.806012  1
  Sr  Sr3  1  0.565304  0.767814  0.619560  1
  Sr  Sr4  1  0.150255  0.953647  0.393689  1
  Sr  Sr5  1  0.648556  0.638722  0.998193  1
  Sr  Sr6  1  0.240445  0.858795  0.806012  1
  Sr  Sr7  1  0.851745  0.054256  0.619560  1
  Sr  Sr8  1  0.440042  0.243434  0.393689  1
  Sr  Sr9  1  0.042690  0.427790  0.182656  1
  Fe  Fe10  1  0.602007  0.198548  0.800554  1
  Ni  Ni11  1  0.998344  0.000449  0.998792  1
  Ru  Ru12  1  0.200088  0.400869  0.600955  1
  Ru  Ru13  1  0.803070  0.598614  0.401686  1
  Ru  Ru14  1  0.397728  0.800572  0.198300  1
  O  O15  1  0.558976  0.957349  0.199790  1
  O  O16  1  0.170184  0.167591  0.002400  1
  O  O17  1  0.757991  0.363474  0.796623  1
  O  O18  1  0.358826  0.559818  0.601092  1
  O  O19  1  0.958971  0.757706  0.399731  1
  O  O20  1  0.834810  0.832216  0.002400  1
  O  O21  1  0.433149  0.038631  0.796623  1
  O  O22  1  0.041273  0.242265  0.601092  1
  O  O23  1  0.642025  0.440760  0.399731  1
  O  O24  1  0.242442  0.640814  0.199790  1
  O  O25  1  0.700566  0.402686  0.103251  1
  O  O26  1  0.300449  0.600530  0.900979  1
  O  O27  1  0.898796  0.794460  0.693256  1
  O  O28  1  0.496049  0.994519  0.490567  1
  O  O29  1  0.104063  0.207791  0.311853  1
  O  O30  1  0.999528  0.499725  0.499253  1
  O  O31  1  0.604077  0.699354  0.303431  1
  O  O32  1  0.205358  0.897729  0.103088  1
  O  O33  1  0.796175  0.101850  0.898024  1
  O  O34  1  0.394468  0.302053  0.696521  1
