# generated using pymatgen
data_Er3Tm7(InBi2)2
_symmetry_space_group_name_H-M   'P 1'
_cell_length_a   6.46491300
_cell_length_b   8.99926919
_cell_length_c   8.98570355
_cell_angle_alpha   120.04995729
_cell_angle_beta   89.99997475
_cell_angle_gamma   90.00004123
_symmetry_Int_Tables_number   1
_chemical_formula_structural   Er3Tm7(InBi2)2
_chemical_formula_sum   'Er3 Tm7 In2 Bi4'
_cell_volume   452.51585543
_cell_formula_units_Z   1
loop_
 _symmetry_equiv_pos_site_id
 _symmetry_equiv_pos_as_xyz
  1  'x, y, z'
loop_
 _atom_site_type_symbol
 _atom_site_label
 _atom_site_symmetry_multiplicity
 _atom_site_fract_x
 _atom_site_fract_y
 _atom_site_fract_z
 _atom_site_occupancy
  Er  Er0  1  0.750007  0.236719  0.000000  1
  Er  Er1  1  0.750019  0.764061  0.762465  1
  Er  Er2  1  0.750019  0.001596  0.237535  1
  Tm  Tm3  1  0.497742  0.332352  0.660071  1
  Tm  Tm4  1  0.497742  0.672281  0.339929  1
  Tm  Tm5  1  0.002247  0.672283  0.339928  1
  Tm  Tm6  1  0.002247  0.332354  0.660072  1
  Tm  Tm7  1  0.250010  0.767250  0.000000  1
  Tm  Tm8  1  0.249988  0.232433  0.242436  1
  Tm  Tm9  1  0.249988  0.989997  0.757564  1
  In  In10  1  0.250001  0.604362  0.605988  1
  In  In11  1  0.250001  0.998373  0.394012  1
  Bi  Bi12  1  0.749998  0.606412  0.000000  1
  Bi  Bi13  1  0.749992  0.396209  0.392403  1
  Bi  Bi14  1  0.749992  0.003806  0.607597  1
  Bi  Bi15  1  0.250004  0.389513  0.000000  1
