# generated using pymatgen
data_Pr2ZnGa5Pd2
_symmetry_space_group_name_H-M   'P 1'
_cell_length_a   8.74941908
_cell_length_b   8.74941922
_cell_length_c   8.74942900
_cell_angle_alpha   141.00233288
_cell_angle_beta   107.86842398
_cell_angle_gamma   85.18118478
_symmetry_Int_Tables_number   1
_chemical_formula_structural   Pr2ZnGa5Pd2
_chemical_formula_sum   'Pr4 Zn2 Ga10 Pd4'
_cell_volume   387.59066249
_cell_formula_units_Z   2
loop_
 _symmetry_equiv_pos_site_id
 _symmetry_equiv_pos_as_xyz
  1  'x, y, z'
loop_
 _atom_site_type_symbol
 _atom_site_label
 _atom_site_symmetry_multiplicity
 _atom_site_fract_x
 _atom_site_fract_y
 _atom_site_fract_z
 _atom_site_occupancy
  Pr  Pr0  1  0.865674  0.634204  0.231483  1
  Pr  Pr1  1  0.134326  0.365796  0.768517  1
  Pr  Pr2  1  0.597280  0.865808  0.731483  1
  Pr  Pr3  1  0.402720  0.134192  0.268517  1
  Zn  Zn4  1  0.999999  0.749999  0.750000  1
  Zn  Zn5  1  0.000001  0.250001  0.250000  1
  Ga  Ga6  1  0.499997  0.749997  0.250000  1
  Ga  Ga7  1  0.500003  0.250003  0.750000  1
  Ga  Ga8  1  0.214964  0.964964  0.750000  1
  Ga  Ga9  1  0.785041  0.535041  0.750000  1
  Ga  Ga10  1  0.785036  0.035036  0.250000  1
  Ga  Ga11  1  0.214959  0.464959  0.250000  1
  Ga  Ga12  1  0.056910  0.892217  0.164691  1
  Ga  Ga13  1  0.943090  0.107783  0.835309  1
  Ga  Ga14  1  0.272474  0.607780  0.664691  1
  Ga  Ga15  1  0.727526  0.392220  0.335309  1
  Pd  Pd16  1  0.264406  0.859736  0.404674  1
  Pd  Pd17  1  0.735594  0.140264  0.595326  1
  Pd  Pd18  1  0.544938  0.640268  0.904674  1
  Pd  Pd19  1  0.455062  0.359732  0.095326  1
