# generated using pymatgen
data_Ba2LaNd3O8
_symmetry_space_group_name_H-M   'P 1'
_cell_length_a   7.39498586
_cell_length_b   7.34045901
_cell_length_c   7.34045900
_cell_angle_alpha   60.00000455
_cell_angle_beta   60.24361929
_cell_angle_gamma   60.24361750
_symmetry_Int_Tables_number   1
_chemical_formula_structural   Ba2LaNd3O8
_chemical_formula_sum   'Ba2 La1 Nd3 O8'
_cell_volume   282.78620686
_cell_formula_units_Z   1
loop_
 _symmetry_equiv_pos_site_id
 _symmetry_equiv_pos_as_xyz
  1  'x, y, z'
loop_
 _atom_site_type_symbol
 _atom_site_label
 _atom_site_symmetry_multiplicity
 _atom_site_fract_x
 _atom_site_fract_y
 _atom_site_fract_z
 _atom_site_occupancy
  Ba  Ba0  1  0.500043  0.499986  0.499986  1
  Ba  Ba1  1  0.749957  0.750014  0.750014  1
  La  La2  1  0.625000  0.125000  0.125000  1
  Nd  Nd3  1  0.125000  0.125000  0.125000  1
  Nd  Nd4  1  0.125000  0.625000  0.125000  1
  Nd  Nd5  1  0.125000  0.125000  0.625000  1
  O  O6  1  0.352790  0.358069  0.931070  1
  O  O7  1  0.931056  0.356314  0.356314  1
  O  O8  1  0.352790  0.931070  0.358069  1
  O  O9  1  0.897210  0.891931  0.891931  1
  O  O10  1  0.352790  0.358069  0.358069  1
  O  O11  1  0.897210  0.318930  0.891931  1
  O  O12  1  0.318944  0.893686  0.893686  1
  O  O13  1  0.897210  0.891931  0.318930  1
