# generated using pymatgen
data_Y4Zn4Ni3Rh
_symmetry_space_group_name_H-M   'P 1'
_cell_length_a   4.03111300
_cell_length_b   6.82906710
_cell_length_c   7.96669324
_cell_angle_alpha   89.84614383
_cell_angle_beta   90.00000000
_cell_angle_gamma   90.00000000
_symmetry_Int_Tables_number   1
_chemical_formula_structural   Y4Zn4Ni3Rh
_chemical_formula_sum   'Y4 Zn4 Ni3 Rh1'
_cell_volume   219.31224559
_cell_formula_units_Z   1
loop_
 _symmetry_equiv_pos_site_id
 _symmetry_equiv_pos_as_xyz
  1  'x, y, z'
loop_
 _atom_site_type_symbol
 _atom_site_label
 _atom_site_symmetry_multiplicity
 _atom_site_fract_x
 _atom_site_fract_y
 _atom_site_fract_z
 _atom_site_occupancy
  Y  Y0  1  0.250000  0.538475  0.183054  1
  Y  Y1  1  0.750000  0.462744  0.814009  1
  Y  Y2  1  0.750000  0.961494  0.688467  1
  Y  Y3  1  0.250000  0.034173  0.314655  1
  Zn  Zn4  1  0.250000  0.648687  0.561704  1
  Zn  Zn5  1  0.750000  0.361149  0.429406  1
  Zn  Zn6  1  0.750000  0.855052  0.062653  1
  Zn  Zn7  1  0.250000  0.142031  0.944454  1
  Ni  Ni8  1  0.250000  0.764392  0.881879  1
  Ni  Ni9  1  0.750000  0.238222  0.121481  1
  Ni  Ni10  1  0.750000  0.737886  0.378421  1
  Rh  Rh11  1  0.250000  0.255694  0.619817  1
