# generated using pymatgen
data_Zr2P2IrRh
_symmetry_space_group_name_H-M   'P 1'
_cell_length_a   3.83576100
_cell_length_b   6.55733400
_cell_length_c   7.45033800
_cell_angle_alpha   90.00000000
_cell_angle_beta   90.00000000
_cell_angle_gamma   90.00000000
_symmetry_Int_Tables_number   1
_chemical_formula_structural   Zr2P2IrRh
_chemical_formula_sum   'Zr4 P4 Ir2 Rh2'
_cell_volume   187.39362836
_cell_formula_units_Z   2
loop_
 _symmetry_equiv_pos_site_id
 _symmetry_equiv_pos_as_xyz
  1  'x, y, z'
loop_
 _atom_site_type_symbol
 _atom_site_label
 _atom_site_symmetry_multiplicity
 _atom_site_fract_x
 _atom_site_fract_y
 _atom_site_fract_z
 _atom_site_occupancy
  Zr  Zr0  1  0.250000  0.026835  0.821272  1
  Zr  Zr1  1  0.250000  0.526835  0.678728  1
  Zr  Zr2  1  0.750000  0.973012  0.178275  1
  Zr  Zr3  1  0.750000  0.473012  0.321725  1
  P  P4  1  0.250000  0.761897  0.376985  1
  P  P5  1  0.250000  0.261897  0.123015  1
  P  P6  1  0.750000  0.239077  0.623105  1
  P  P7  1  0.750000  0.739077  0.876895  1
  Ir  Ir8  1  0.250000  0.144380  0.437457  1
  Ir  Ir9  1  0.250000  0.644380  0.062543  1
  Rh  Rh10  1  0.750000  0.854798  0.562496  1
  Rh  Rh11  1  0.750000  0.354798  0.937504  1
