# generated using pymatgen
data_Tb6Ho3Zr3Ga20
_symmetry_space_group_name_H-M   'P 1'
_cell_length_a   6.05482737
_cell_length_b   9.50829732
_cell_length_c   11.34217768
_cell_angle_alpha   90.00090844
_cell_angle_beta   90.13346073
_cell_angle_gamma   90.02963477
_symmetry_Int_Tables_number   1
_chemical_formula_structural   Tb6Ho3Zr3Ga20
_chemical_formula_sum   'Tb6 Ho3 Zr3 Ga20'
_cell_volume   652.97977295
_cell_formula_units_Z   1
loop_
 _symmetry_equiv_pos_site_id
 _symmetry_equiv_pos_as_xyz
  1  'x, y, z'
loop_
 _atom_site_type_symbol
 _atom_site_label
 _atom_site_symmetry_multiplicity
 _atom_site_fract_x
 _atom_site_fract_y
 _atom_site_fract_z
 _atom_site_occupancy
  Tb  Tb0  1  0.111519  0.010603  0.648683  1
  Tb  Tb1  1  0.388885  0.488946  0.147277  1
  Tb  Tb2  1  0.111534  0.489452  0.648245  1
  Tb  Tb3  1  0.388813  0.011026  0.146867  1
  Tb  Tb4  1  0.887588  0.989054  0.352528  1
  Tb  Tb5  1  0.613523  0.512336  0.853695  1
  Ho  Ho6  1  0.348485  0.250053  0.423682  1
  Ho  Ho7  1  0.887506  0.510916  0.352502  1
  Ho  Ho8  1  0.613482  0.987680  0.853676  1
  Zr  Zr9  1  0.857850  0.750064  0.075152  1
  Zr  Zr10  1  0.642314  0.749964  0.577401  1
  Zr  Zr11  1  0.144891  0.249968  0.924345  1
  Ga  Ga12  1  0.874244  0.049842  0.086856  1
  Ga  Ga13  1  0.624452  0.451271  0.590868  1
  Ga  Ga14  1  0.125385  0.552214  0.912157  1
  Ga  Ga15  1  0.375875  0.940995  0.411289  1
  Ga  Ga16  1  0.125741  0.948020  0.911978  1
  Ga  Ga17  1  0.375583  0.558687  0.411111  1
  Ga  Ga18  1  0.874439  0.450181  0.087612  1
  Ga  Ga19  1  0.624346  0.048725  0.591643  1
  Ga  Ga20  1  0.166942  0.749579  0.250375  1
  Ga  Ga21  1  0.332623  0.750460  0.751378  1
  Ga  Ga22  1  0.832760  0.249499  0.751031  1
  Ga  Ga23  1  0.677074  0.250545  0.247086  1
  Ga  Ga24  1  0.382017  0.750250  0.004523  1
  Ga  Ga25  1  0.112932  0.749777  0.506086  1
  Ga  Ga26  1  0.620919  0.249438  0.992590  1
  Ga  Ga27  1  0.871029  0.250562  0.498045  1
  Ga  Ga28  1  0.603836  0.749341  0.291660  1
  Ga  Ga29  1  0.899762  0.750660  0.794856  1
  Ga  Ga30  1  0.402728  0.249860  0.709688  1
  Ga  Ga31  1  0.100924  0.250030  0.195119  1
