# generated using pymatgen
data_Y2Ho2Al17GaIr6
_symmetry_space_group_name_H-M   'P 1'
_cell_length_a   7.54274505
_cell_length_b   7.54274570
_cell_length_c   9.49362000
_cell_angle_alpha   90.00000000
_cell_angle_beta   90.00000000
_cell_angle_gamma   119.39679899
_symmetry_Int_Tables_number   1
_chemical_formula_structural   Y2Ho2Al17GaIr6
_chemical_formula_sum   'Y2 Ho2 Al17 Ga1 Ir6'
_cell_volume   470.57533630
_cell_formula_units_Z   1
loop_
 _symmetry_equiv_pos_site_id
 _symmetry_equiv_pos_as_xyz
  1  'x, y, z'
loop_
 _atom_site_type_symbol
 _atom_site_label
 _atom_site_symmetry_multiplicity
 _atom_site_fract_x
 _atom_site_fract_y
 _atom_site_fract_z
 _atom_site_occupancy
  Y  Y0  1  0.993760  0.674729  0.250000  1
  Y  Y1  1  0.674729  0.993760  0.250000  1
  Ho  Ho2  1  0.004868  0.327531  0.750000  1
  Ho  Ho3  1  0.327531  0.004868  0.750000  1
  Al  Al4  1  0.869709  0.869709  0.750000  1
  Al  Al5  1  0.001519  0.335911  0.073130  1
  Al  Al6  1  0.998751  0.664199  0.925515  1
  Al  Al7  1  0.998751  0.664199  0.574485  1
  Al  Al8  1  0.335911  0.001519  0.426870  1
  Al  Al9  1  0.001519  0.335911  0.426870  1
  Al  Al10  1  0.664199  0.998751  0.574485  1
  Al  Al11  1  0.664199  0.998751  0.925515  1
  Al  Al12  1  0.335911  0.001519  0.073130  1
  Al  Al13  1  0.333005  0.333005  0.553898  1
  Al  Al14  1  0.665667  0.665667  0.449849  1
  Al  Al15  1  0.665667  0.665667  0.050151  1
  Al  Al16  1  0.333005  0.333005  0.946102  1
  Al  Al17  1  0.338884  0.549669  0.250000  1
  Al  Al18  1  0.660584  0.450814  0.750000  1
  Al  Al19  1  0.549669  0.338884  0.250000  1
  Al  Al20  1  0.450814  0.660584  0.750000  1
  Ga  Ga21  1  0.134908  0.134908  0.250000  1
  Ir  Ir22  1  0.671266  0.327543  0.000020  1
  Ir  Ir23  1  0.327543  0.671266  0.000020  1
  Ir  Ir24  1  0.327543  0.671266  0.499980  1
  Ir  Ir25  1  0.671266  0.327543  0.499980  1
  Ir  Ir26  1  0.999410  0.999410  0.997466  1
  Ir  Ir27  1  0.999410  0.999410  0.502534  1
