# generated using pymatgen
data_Tb5YbYPtI12
_symmetry_space_group_name_H-M   'P 1'
_cell_length_a   9.82168565
_cell_length_b   9.81696289
_cell_length_c   9.81253847
_cell_angle_alpha   107.02794676
_cell_angle_beta   107.04504619
_cell_angle_gamma   107.04578653
_symmetry_Int_Tables_number   1
_chemical_formula_structural   Tb5YbYPtI12
_chemical_formula_sum   'Tb5 Yb1 Y1 Pt1 I12'
_cell_volume   787.08217567
_cell_formula_units_Z   1
loop_
 _symmetry_equiv_pos_site_id
 _symmetry_equiv_pos_as_xyz
  1  'x, y, z'
loop_
 _atom_site_type_symbol
 _atom_site_label
 _atom_site_symmetry_multiplicity
 _atom_site_fract_x
 _atom_site_fract_y
 _atom_site_fract_z
 _atom_site_occupancy
  Tb  Tb0  1  0.303461  0.099339  0.028155  1
  Tb  Tb1  1  0.027906  0.303334  0.099386  1
  Tb  Tb2  1  0.900586  0.972119  0.696486  1
  Tb  Tb3  1  0.696758  0.900706  0.972331  1
  Tb  Tb4  1  0.972197  0.696724  0.900943  1
  Yb  Yb5  1  0.499995  0.499989  0.500032  1
  Y  Y6  1  0.099223  0.028024  0.303223  1
  Pt  Pt7  1  0.000030  0.000071  0.000105  1
  I  I8  1  0.073436  0.679805  0.224309  1
  I  I9  1  0.224054  0.073266  0.678585  1
  I  I10  1  0.679393  0.224227  0.073411  1
  I  I11  1  0.926686  0.320557  0.775908  1
  I  I12  1  0.776407  0.926807  0.320557  1
  I  I13  1  0.320637  0.775829  0.926641  1
  I  I14  1  0.460262  0.153699  0.383378  1
  I  I15  1  0.383577  0.460930  0.154130  1
  I  I16  1  0.153867  0.383041  0.460744  1
  I  I17  1  0.539056  0.845939  0.616560  1
  I  I18  1  0.616433  0.539054  0.845916  1
  I  I19  1  0.846037  0.616541  0.539198  1
