# generated using pymatgen
data_Tb2Ta(NbSi2)2
_symmetry_space_group_name_H-M   'P 1'
_cell_length_a   7.07456300
_cell_length_b   7.07456300
_cell_length_c   13.09362400
_cell_angle_alpha   90.00000000
_cell_angle_beta   90.00000000
_cell_angle_gamma   90.00000000
_symmetry_Int_Tables_number   1
_chemical_formula_structural   Tb2Ta(NbSi2)2
_chemical_formula_sum   'Tb8 Ta4 Nb8 Si16'
_cell_volume   655.32857026
_cell_formula_units_Z   4
loop_
 _symmetry_equiv_pos_site_id
 _symmetry_equiv_pos_as_xyz
  1  'x, y, z'
loop_
 _atom_site_type_symbol
 _atom_site_label
 _atom_site_symmetry_multiplicity
 _atom_site_fract_x
 _atom_site_fract_y
 _atom_site_fract_z
 _atom_site_occupancy
  Tb  Tb0  1  0.342133  0.003428  0.467171  1
  Tb  Tb1  1  0.496572  0.842133  0.717171  1
  Tb  Tb2  1  0.503428  0.157867  0.217171  1
  Tb  Tb3  1  0.842133  0.496572  0.282829  1
  Tb  Tb4  1  0.157867  0.503428  0.782829  1
  Tb  Tb5  1  0.657867  0.996572  0.967171  1
  Tb  Tb6  1  0.003428  0.342133  0.532829  1
  Tb  Tb7  1  0.996572  0.657867  0.032829  1
  Ta  Ta8  1  0.327575  0.327575  0.000000  1
  Ta  Ta9  1  0.172425  0.827575  0.250000  1
  Ta  Ta10  1  0.827575  0.172425  0.750000  1
  Ta  Ta11  1  0.672425  0.672425  0.500000  1
  Nb  Nb12  1  0.153596  0.007515  0.874299  1
  Nb  Nb13  1  0.492485  0.653596  0.124299  1
  Nb  Nb14  1  0.507515  0.346404  0.624299  1
  Nb  Nb15  1  0.653596  0.492485  0.875701  1
  Nb  Nb16  1  0.346404  0.507515  0.375701  1
  Nb  Nb17  1  0.846404  0.992485  0.374299  1
  Nb  Nb18  1  0.007515  0.153596  0.125701  1
  Nb  Nb19  1  0.992485  0.846404  0.625701  1
  Si  Si20  1  0.202184  0.133700  0.683782  1
  Si  Si21  1  0.366300  0.702184  0.933782  1
  Si  Si22  1  0.633700  0.297816  0.433782  1
  Si  Si23  1  0.702184  0.366300  0.066218  1
  Si  Si24  1  0.297816  0.633700  0.566218  1
  Si  Si25  1  0.797816  0.866300  0.183782  1
  Si  Si26  1  0.133700  0.202184  0.316218  1
  Si  Si27  1  0.866300  0.797816  0.816218  1
  Si  Si28  1  0.292722  0.953828  0.063731  1
  Si  Si29  1  0.546172  0.792722  0.313731  1
  Si  Si30  1  0.453828  0.207278  0.813731  1
  Si  Si31  1  0.792722  0.546172  0.686269  1
  Si  Si32  1  0.207278  0.453828  0.186269  1
  Si  Si33  1  0.707278  0.046172  0.563731  1
  Si  Si34  1  0.953828  0.292722  0.936269  1
  Si  Si35  1  0.046172  0.707278  0.436269  1
