# generated using pymatgen
data_Er6Zn21Ag2Ge
_symmetry_space_group_name_H-M   'P 1'
_cell_length_a   9.08345479
_cell_length_b   9.07459302
_cell_length_c   9.07459300
_cell_angle_alpha   59.99999642
_cell_angle_beta   60.03226361
_cell_angle_gamma   60.03226694
_symmetry_Int_Tables_number   1
_chemical_formula_structural   Er6Zn21Ag2Ge
_chemical_formula_sum   'Er6 Zn21 Ag2 Ge1'
_cell_volume   529.17825614
_cell_formula_units_Z   1
loop_
 _symmetry_equiv_pos_site_id
 _symmetry_equiv_pos_as_xyz
  1  'x, y, z'
loop_
 _atom_site_type_symbol
 _atom_site_label
 _atom_site_symmetry_multiplicity
 _atom_site_fract_x
 _atom_site_fract_y
 _atom_site_fract_z
 _atom_site_occupancy
  Er  Er0  1  0.716583  0.283858  0.283858  1
  Er  Er1  1  0.716583  0.283858  0.715701  1
  Er  Er2  1  0.716583  0.715701  0.283858  1
  Er  Er3  1  0.283118  0.716911  0.716911  1
  Er  Er4  1  0.283118  0.716911  0.283060  1
  Er  Er5  1  0.283118  0.283060  0.716911  1
  Zn  Zn6  1  0.125434  0.623588  0.125489  1
  Zn  Zn7  1  0.125434  0.125489  0.623588  1
  Zn  Zn8  1  0.125434  0.125489  0.125489  1
  Zn  Zn9  1  0.376418  0.874527  0.874527  1
  Zn  Zn10  1  0.873840  0.375682  0.875239  1
  Zn  Zn11  1  0.873840  0.875239  0.375682  1
  Zn  Zn12  1  0.873840  0.875239  0.875239  1
  Zn  Zn13  1  0.498570  0.999084  0.999084  1
  Zn  Zn14  1  0.498570  0.999084  0.503262  1
  Zn  Zn15  1  0.498570  0.503262  0.999084  1
  Zn  Zn16  1  0.999820  0.500131  0.500131  1
  Zn  Zn17  1  0.999820  0.500131  0.999918  1
  Zn  Zn18  1  0.999820  0.999918  0.500131  1
  Zn  Zn19  1  0.002298  0.332567  0.332567  1
  Zn  Zn20  1  0.331632  0.001836  0.333265  1
  Zn  Zn21  1  0.331632  0.333265  0.001836  1
  Zn  Zn22  1  0.331632  0.333265  0.333265  1
  Zn  Zn23  1  0.997775  0.667409  0.667409  1
  Zn  Zn24  1  0.667486  0.997322  0.667597  1
  Zn  Zn25  1  0.667486  0.667597  0.997322  1
  Zn  Zn26  1  0.667486  0.667597  0.667597  1
  Ag  Ag27  1  0.626996  0.124335  0.124335  1
  Ag  Ag28  1  0.007674  0.997442  0.997442  1
  Ge  Ge29  1  0.499388  0.500204  0.500204  1
