# generated using pymatgen
data_Gd3In3RuPt2
_symmetry_space_group_name_H-M   'P 1'
_cell_length_a   7.68957600
_cell_length_b   7.68957723
_cell_length_c   3.88357100
_cell_angle_alpha   90.00000000
_cell_angle_beta   90.00000000
_cell_angle_gamma   120.00000332
_symmetry_Int_Tables_number   1
_chemical_formula_structural   Gd3In3RuPt2
_chemical_formula_sum   'Gd3 In3 Ru1 Pt2'
_cell_volume   198.86883205
_cell_formula_units_Z   1
loop_
 _symmetry_equiv_pos_site_id
 _symmetry_equiv_pos_as_xyz
  1  'x, y, z'
loop_
 _atom_site_type_symbol
 _atom_site_label
 _atom_site_symmetry_multiplicity
 _atom_site_fract_x
 _atom_site_fract_y
 _atom_site_fract_z
 _atom_site_occupancy
  Gd  Gd0  1  0.402936  0.402936  0.000000  1
  Gd  Gd1  1  0.597064  0.000000  0.000000  1
  Gd  Gd2  1  0.000000  0.597064  0.000000  1
  In  In3  1  0.000000  0.257921  0.500000  1
  In  In4  1  0.742079  0.742079  0.500000  1
  In  In5  1  0.257921  0.000000  0.500000  1
  Ru  Ru6  1  0.000000  0.000000  0.000000  1
  Pt  Pt7  1  0.333333  0.666667  0.500000  1
  Pt  Pt8  1  0.666667  0.333333  0.500000  1
