# generated using pymatgen
data_Cs4Pm4AuSe7
_symmetry_space_group_name_H-M   'P 1'
_cell_length_a   8.72637057
_cell_length_b   8.73518363
_cell_length_c   7.53278100
_cell_angle_alpha   90.05696007
_cell_angle_beta   98.19701534
_cell_angle_gamma   75.50981932
_symmetry_Int_Tables_number   1
_chemical_formula_structural   Cs4Pm4AuSe7
_chemical_formula_sum   'Cs4 Pm4 Au1 Se7'
_cell_volume   549.89220002
_cell_formula_units_Z   1
loop_
 _symmetry_equiv_pos_site_id
 _symmetry_equiv_pos_as_xyz
  1  'x, y, z'
loop_
 _atom_site_type_symbol
 _atom_site_label
 _atom_site_symmetry_multiplicity
 _atom_site_fract_x
 _atom_site_fract_y
 _atom_site_fract_z
 _atom_site_occupancy
  Cs  Cs0  1  0.995266  0.535485  0.004134  1
  Cs  Cs1  1  0.995224  0.280368  0.496957  1
  Cs  Cs2  1  0.000982  0.781082  0.497592  1
  Cs  Cs3  1  0.993800  0.032794  0.001534  1
  Pm  Pm4  1  0.497543  0.656729  0.245449  1
  Pm  Pm5  1  0.507379  0.154012  0.268572  1
  Pm  Pm6  1  0.505029  0.891463  0.743367  1
  Pm  Pm7  1  0.504266  0.418061  0.744064  1
  Au  Au8  1  0.314133  0.203042  0.884842  1
  Se  Se9  1  0.686633  0.358977  0.112722  1
  Se  Se10  1  0.308582  0.955339  0.385237  1
  Se  Se11  1  0.690796  0.108035  0.622606  1
  Se  Se12  1  0.304403  0.706497  0.882707  1
  Se  Se13  1  0.686960  0.860116  0.112449  1
  Se  Se14  1  0.309042  0.452579  0.385700  1
  Se  Se15  1  0.699960  0.605418  0.612065  1
