# generated using pymatgen
data_Sr3Pr4As12Pd17
_symmetry_space_group_name_H-M   'P 1'
_cell_length_a   12.89617671
_cell_length_b   12.89617781
_cell_length_c   14.17945801
_cell_angle_alpha   68.40144554
_cell_angle_beta   68.40144306
_cell_angle_gamma   18.71190884
_symmetry_Int_Tables_number   1
_chemical_formula_structural   Sr3Pr4As12Pd17
_chemical_formula_sum   'Sr3 Pr4 As12 Pd17'
_cell_volume   701.91795869
_cell_formula_units_Z   1
loop_
 _symmetry_equiv_pos_site_id
 _symmetry_equiv_pos_as_xyz
  1  'x, y, z'
loop_
 _atom_site_type_symbol
 _atom_site_label
 _atom_site_symmetry_multiplicity
 _atom_site_fract_x
 _atom_site_fract_y
 _atom_site_fract_z
 _atom_site_occupancy
  Sr  Sr0  1  0.500000  0.500000  0.500000  1
  Sr  Sr1  1  0.367304  0.367304  0.999350  1
  Sr  Sr2  1  0.632696  0.632696  0.000650  1
  Pr  Pr3  1  0.232878  0.232878  0.314646  1
  Pr  Pr4  1  0.767122  0.767122  0.685354  1
  Pr  Pr5  1  0.419742  0.419742  0.259840  1
  Pr  Pr6  1  0.580258  0.580258  0.740160  1
  As  As7  1  0.061290  0.061290  0.925173  1
  As  As8  1  0.938710  0.938710  0.074827  1
  As  As9  1  0.886447  0.886447  0.826013  1
  As  As10  1  0.113553  0.113553  0.173987  1
  As  As11  1  0.189707  0.189707  0.618044  1
  As  As12  1  0.810293  0.810293  0.381956  1
  As  As13  1  0.365179  0.365179  0.580467  1
  As  As14  1  0.634821  0.634821  0.419533  1
  As  As15  1  0.011414  0.011414  0.672914  1
  As  As16  1  0.988586  0.988586  0.327086  1
  As  As17  1  0.234071  0.234071  0.882844  1
  As  As18  1  0.765929  0.765929  0.117156  1
  Pd  Pd19  1  0.837609  0.837609  0.195714  1
  Pd  Pd20  1  0.162391  0.162391  0.804286  1
  Pd  Pd21  1  0.024156  0.024156  0.128310  1
  Pd  Pd22  1  0.975844  0.975844  0.871690  1
  Pd  Pd23  1  0.887094  0.887094  0.458760  1
  Pd  Pd24  1  0.112906  0.112906  0.541240  1
  Pd  Pd25  1  0.500000  0.500000  0.000000  1
  Pd  Pd26  1  0.548483  0.548483  0.256685  1
  Pd  Pd27  1  0.451517  0.451517  0.743315  1
  Pd  Pd28  1  0.296104  0.296104  0.489380  1
  Pd  Pd29  1  0.703896  0.703896  0.510620  1
  Pd  Pd30  1  0.664705  0.664705  0.223975  1
  Pd  Pd31  1  0.335295  0.335295  0.776025  1
  Pd  Pd32  1  0.905039  0.905039  0.641033  1
  Pd  Pd33  1  0.094961  0.094961  0.358967  1
  Pd  Pd34  1  0.220629  0.220629  0.071536  1
  Pd  Pd35  1  0.779371  0.779371  0.928464  1
