# generated using pymatgen
data_Pa4Zn4Ga16Pt11
_symmetry_space_group_name_H-M   'P 1'
_cell_length_a   4.26389338
_cell_length_b   10.88448831
_cell_length_c   13.70736761
_cell_angle_alpha   82.47323857
_cell_angle_beta   80.81067857
_cell_angle_gamma   78.47055212
_symmetry_Int_Tables_number   1
_chemical_formula_structural   Pa4Zn4Ga16Pt11
_chemical_formula_sum   'Pa4 Zn4 Ga16 Pt11'
_cell_volume   612.09066475
_cell_formula_units_Z   1
loop_
 _symmetry_equiv_pos_site_id
 _symmetry_equiv_pos_as_xyz
  1  'x, y, z'
loop_
 _atom_site_type_symbol
 _atom_site_label
 _atom_site_symmetry_multiplicity
 _atom_site_fract_x
 _atom_site_fract_y
 _atom_site_fract_z
 _atom_site_occupancy
  Pa  Pa0  1  0.122325  0.085089  0.670509  1
  Pa  Pa1  1  0.877675  0.914911  0.329491  1
  Pa  Pa2  1  0.769956  0.627685  0.823865  1
  Pa  Pa3  1  0.230044  0.372315  0.176135  1
  Zn  Zn4  1  0.010828  0.068143  0.914877  1
  Zn  Zn5  1  0.989172  0.931857  0.085123  1
  Zn  Zn6  1  0.060647  0.680820  0.191626  1
  Zn  Zn7  1  0.939353  0.319180  0.808374  1
  Ga  Ga8  1  0.103813  0.342537  0.451690  1
  Ga  Ga9  1  0.896187  0.657463  0.548310  1
  Ga  Ga10  1  0.194771  0.609484  0.998096  1
  Ga  Ga11  1  0.805229  0.390516  0.001904  1
  Ga  Ga12  1  0.260007  0.776477  0.696775  1
  Ga  Ga13  1  0.739993  0.223523  0.303225  1
  Ga  Ga14  1  0.301208  0.899119  0.494861  1
  Ga  Ga15  1  0.698792  0.100881  0.505139  1
  Ga  Ga16  1  0.387777  0.519383  0.699802  1
  Ga  Ga17  1  0.612223  0.480617  0.300198  1
  Ga  Ga18  1  0.400339  0.200839  0.994292  1
  Ga  Ga19  1  0.599661  0.799161  0.005708  1
  Ga  Ga20  1  0.542329  0.285914  0.628349  1
  Ga  Ga21  1  0.457671  0.714086  0.371651  1
  Ga  Ga22  1  0.636925  0.929539  0.801511  1
  Ga  Ga23  1  0.363075  0.070461  0.198489  1
  Pt  Pt24  1  0.500000  0.500000  0.500000  1
  Pt  Pt25  1  0.026713  0.576709  0.372735  1
  Pt  Pt26  1  0.973287  0.423291  0.627265  1
  Pt  Pt27  1  0.148357  0.823838  0.885567  1
  Pt  Pt28  1  0.851643  0.176162  0.114433  1
  Pt  Pt29  1  0.244698  0.125644  0.390631  1
  Pt  Pt30  1  0.755302  0.874356  0.609369  1
  Pt  Pt31  1  0.343937  0.426726  0.888400  1
  Pt  Pt32  1  0.656063  0.573274  0.111600  1
  Pt  Pt33  1  0.515010  0.167388  0.809025  1
  Pt  Pt34  1  0.484990  0.832612  0.190975  1
