# generated using pymatgen
data_Y10Hg3Ru
_symmetry_space_group_name_H-M   'P 1'
_cell_length_a   9.67030000
_cell_length_b   9.67026525
_cell_length_c   9.68897000
_cell_angle_alpha   90.00000000
_cell_angle_beta   90.00000000
_cell_angle_gamma   119.99991551
_symmetry_Int_Tables_number   1
_chemical_formula_structural   Y10Hg3Ru
_chemical_formula_sum   'Y20 Hg6 Ru2'
_cell_volume   784.66981586
_cell_formula_units_Z   2
loop_
 _symmetry_equiv_pos_site_id
 _symmetry_equiv_pos_as_xyz
  1  'x, y, z'
loop_
 _atom_site_type_symbol
 _atom_site_label
 _atom_site_symmetry_multiplicity
 _atom_site_fract_x
 _atom_site_fract_y
 _atom_site_fract_z
 _atom_site_occupancy
  Y  Y0  1  0.000000  0.000000  0.500000  1
  Y  Y1  1  0.000000  0.000000  0.000000  1
  Y  Y2  1  0.209450  0.790550  0.439711  1
  Y  Y3  1  0.209450  0.418900  0.439710  1
  Y  Y4  1  0.581099  0.790549  0.439710  1
  Y  Y5  1  0.790550  0.209450  0.560289  1
  Y  Y6  1  0.790550  0.581100  0.560290  1
  Y  Y7  1  0.418901  0.209451  0.560290  1
  Y  Y8  1  0.790550  0.209450  0.939711  1
  Y  Y9  1  0.790550  0.581100  0.939710  1
  Y  Y10  1  0.418901  0.209451  0.939710  1
  Y  Y11  1  0.209450  0.790550  0.060289  1
  Y  Y12  1  0.209450  0.418900  0.060290  1
  Y  Y13  1  0.581099  0.790549  0.060290  1
  Y  Y14  1  0.541212  0.458787  0.250000  1
  Y  Y15  1  0.541212  0.082425  0.250000  1
  Y  Y16  1  0.917574  0.458788  0.250000  1
  Y  Y17  1  0.458788  0.541213  0.750000  1
  Y  Y18  1  0.458788  0.917575  0.750000  1
  Y  Y19  1  0.082426  0.541212  0.750000  1
  Hg  Hg20  1  0.881613  0.118388  0.250000  1
  Hg  Hg21  1  0.881611  0.763225  0.250000  1
  Hg  Hg22  1  0.236775  0.118388  0.250000  1
  Hg  Hg23  1  0.118387  0.881612  0.750000  1
  Hg  Hg24  1  0.118389  0.236775  0.750000  1
  Hg  Hg25  1  0.763225  0.881612  0.750000  1
  Ru  Ru26  1  0.333333  0.666662  0.250000  1
  Ru  Ru27  1  0.666667  0.333338  0.750000  1
