# generated using pymatgen
data_Ho3TmCo18(P6Ru)2
_symmetry_space_group_name_H-M   'P 1'
_cell_length_a   3.66779200
_cell_length_b   10.32252611
_cell_length_c   11.74775012
_cell_angle_alpha   89.98347750
_cell_angle_beta   90.00000000
_cell_angle_gamma   90.00000000
_symmetry_Int_Tables_number   1
_chemical_formula_structural   Ho3TmCo18(P6Ru)2
_chemical_formula_sum   'Ho3 Tm1 Co18 P12 Ru2'
_cell_volume   444.78012360
_cell_formula_units_Z   1
loop_
 _symmetry_equiv_pos_site_id
 _symmetry_equiv_pos_as_xyz
  1  'x, y, z'
loop_
 _atom_site_type_symbol
 _atom_site_label
 _atom_site_symmetry_multiplicity
 _atom_site_fract_x
 _atom_site_fract_y
 _atom_site_fract_z
 _atom_site_occupancy
  Ho  Ho0  1  0.250000  0.582245  0.702139  1
  Ho  Ho1  1  0.250000  0.917681  0.202236  1
  Ho  Ho2  1  0.750000  0.086121  0.795490  1
  Tm  Tm3  1  0.750000  0.414019  0.295542  1
  Co  Co4  1  0.750000  0.283413  0.008393  1
  Co  Co5  1  0.750000  0.216691  0.508288  1
  Co  Co6  1  0.250000  0.406000  0.486874  1
  Co  Co7  1  0.250000  0.093959  0.987746  1
  Co  Co8  1  0.750000  0.590408  0.510258  1
  Co  Co9  1  0.750000  0.909328  0.010481  1
  Co  Co10  1  0.250000  0.221174  0.176906  1
  Co  Co11  1  0.250000  0.279413  0.676608  1
  Co  Co12  1  0.750000  0.778321  0.822994  1
  Co  Co13  1  0.750000  0.721414  0.322891  1
  Co  Co14  1  0.250000  0.886732  0.701827  1
  Co  Co15  1  0.250000  0.612618  0.202204  1
  Co  Co16  1  0.750000  0.116810  0.300724  1
  Co  Co17  1  0.750000  0.383663  0.800915  1
  Co  Co18  1  0.250000  0.464516  0.932680  1
  Co  Co19  1  0.250000  0.035784  0.432191  1
  Co  Co20  1  0.750000  0.532489  0.069568  1
  Co  Co21  1  0.750000  0.967247  0.569015  1
  P  P22  1  0.250000  0.417095  0.112900  1
  P  P23  1  0.250000  0.082977  0.612122  1
  P  P24  1  0.750000  0.578627  0.887047  1
  P  P25  1  0.750000  0.921379  0.386791  1
  P  P26  1  0.250000  0.270241  0.869312  1
  P  P27  1  0.250000  0.230633  0.368906  1
  P  P28  1  0.750000  0.729003  0.132799  1
  P  P29  1  0.750000  0.770944  0.632757  1
  P  P30  1  0.250000  0.593919  0.390032  1
  P  P31  1  0.250000  0.905432  0.890325  1
  P  P32  1  0.750000  0.397193  0.608666  1
  P  P33  1  0.750000  0.102824  0.108658  1
  Ru  Ru34  1  0.250000  0.715503  0.992009  1
  Ru  Ru35  1  0.250000  0.784186  0.491703  1
