# generated using pymatgen
data_TbHo(In2Rh)2
_symmetry_space_group_name_H-M   'P 1'
_cell_length_a   5.51328629
_cell_length_b   5.51328589
_cell_length_c   8.24555600
_cell_angle_alpha   90.00000000
_cell_angle_beta   90.00000000
_cell_angle_gamma   134.94489811
_symmetry_Int_Tables_number   1
_chemical_formula_structural   TbHo(In2Rh)2
_chemical_formula_sum   'Tb1 Ho1 In4 Rh2'
_cell_volume   177.39577374
_cell_formula_units_Z   1
loop_
 _symmetry_equiv_pos_site_id
 _symmetry_equiv_pos_as_xyz
  1  'x, y, z'
loop_
 _atom_site_type_symbol
 _atom_site_label
 _atom_site_symmetry_multiplicity
 _atom_site_fract_x
 _atom_site_fract_y
 _atom_site_fract_z
 _atom_site_occupancy
  Tb  Tb0  1  0.932176  0.067824  0.750000  1
  Ho  Ho1  1  0.068133  0.931867  0.250000  1
  In  In2  1  0.643797  0.356203  0.548314  1
  In  In3  1  0.356252  0.643748  0.450440  1
  In  In4  1  0.643797  0.356203  0.951686  1
  In  In5  1  0.356252  0.643748  0.049560  1
  Rh  Rh6  1  0.222791  0.777209  0.750000  1
  Rh  Rh7  1  0.776804  0.223196  0.250000  1
