# generated using pymatgen
data_NdLuB(Pt2Rh)2
_symmetry_space_group_name_H-M   'P 1'
_cell_length_a   4.24447500
_cell_length_b   4.24447500
_cell_length_c   8.17001800
_cell_angle_alpha   90.00000000
_cell_angle_beta   90.00000000
_cell_angle_gamma   90.00000000
_symmetry_Int_Tables_number   1
_chemical_formula_structural   NdLuB(Pt2Rh)2
_chemical_formula_sum   'Nd1 Lu1 B1 Pt4 Rh2'
_cell_volume   147.18751505
_cell_formula_units_Z   1
loop_
 _symmetry_equiv_pos_site_id
 _symmetry_equiv_pos_as_xyz
  1  'x, y, z'
loop_
 _atom_site_type_symbol
 _atom_site_label
 _atom_site_symmetry_multiplicity
 _atom_site_fract_x
 _atom_site_fract_y
 _atom_site_fract_z
 _atom_site_occupancy
  Nd  Nd0  1  0.000000  0.000000  0.498271  1
  Lu  Lu1  1  0.000000  0.000000  0.996298  1
  B  B2  1  0.500000  0.500000  0.257533  1
  Pt  Pt3  1  0.500000  0.500000  0.993761  1
  Pt  Pt4  1  0.500000  0.500000  0.515169  1
  Pt  Pt5  1  0.500000  0.000000  0.758461  1
  Pt  Pt6  1  0.000000  0.500000  0.758461  1
  Rh  Rh7  1  0.500000  0.000000  0.236023  1
  Rh  Rh8  1  0.000000  0.500000  0.236023  1
