# generated using pymatgen
data_Ho2LuBi5O14
_symmetry_space_group_name_H-M   'P 1'
_cell_length_a   6.60464720
_cell_length_b   6.72403381
_cell_length_c   7.77455264
_cell_angle_alpha   106.76515205
_cell_angle_beta   89.45146212
_cell_angle_gamma   98.99269064
_symmetry_Int_Tables_number   1
_chemical_formula_structural   Ho2LuBi5O14
_chemical_formula_sum   'Ho2 Lu1 Bi5 O14'
_cell_volume   326.29751506
_cell_formula_units_Z   1
loop_
 _symmetry_equiv_pos_site_id
 _symmetry_equiv_pos_as_xyz
  1  'x, y, z'
loop_
 _atom_site_type_symbol
 _atom_site_label
 _atom_site_symmetry_multiplicity
 _atom_site_fract_x
 _atom_site_fract_y
 _atom_site_fract_z
 _atom_site_occupancy
  Ho  Ho0  1  0.538500  0.995005  0.751847  1
  Ho  Ho1  1  0.263994  0.538374  0.885907  1
  Lu  Lu2  1  0.462863  0.002728  0.252647  1
  Bi  Bi3  1  0.002988  0.007525  0.501569  1
  Bi  Bi4  1  0.003556  0.001068  0.000276  1
  Bi  Bi5  1  0.735460  0.476769  0.115502  1
  Bi  Bi6  1  0.721474  0.463515  0.613385  1
  Bi  Bi7  1  0.267566  0.527921  0.390279  1
  O  O8  1  0.449702  0.658541  0.166580  1
  O  O9  1  0.537310  0.343495  0.824448  1
  O  O10  1  0.305963  0.919871  0.953146  1
  O  O11  1  0.695673  0.052589  0.052524  1
  O  O12  1  0.302450  0.923058  0.511945  1
  O  O13  1  0.698497  0.080513  0.486088  1
  O  O14  1  0.529636  0.349133  0.347538  1
  O  O15  1  0.454728  0.643573  0.659482  1
  O  O16  1  0.937304  0.667209  0.956551  1
  O  O17  1  0.085569  0.325687  0.031356  1
  O  O18  1  0.094704  0.336455  0.625419  1
  O  O19  1  0.905186  0.680230  0.372955  1
  O  O20  1  0.874679  0.927351  0.731708  1
  O  O21  1  0.132195  0.079391  0.268846  1
