# generated using pymatgen
data_NaPr9S10
_symmetry_space_group_name_H-M   'P 1'
_cell_length_a   7.06141017
_cell_length_b   8.17249913
_cell_length_c   9.18490900
_cell_angle_alpha   103.24702540
_cell_angle_beta   97.19610407
_cell_angle_gamma   106.79192271
_symmetry_Int_Tables_number   1
_chemical_formula_structural   NaPr9S10
_chemical_formula_sum   'Na1 Pr9 S10'
_cell_volume   483.41278289
_cell_formula_units_Z   1
loop_
 _symmetry_equiv_pos_site_id
 _symmetry_equiv_pos_as_xyz
  1  'x, y, z'
loop_
 _atom_site_type_symbol
 _atom_site_label
 _atom_site_symmetry_multiplicity
 _atom_site_fract_x
 _atom_site_fract_y
 _atom_site_fract_z
 _atom_site_occupancy
  Na  Na0  1  0.000000  0.500000  0.000000  1
  Pr  Pr1  1  0.799387  0.601040  0.601541  1
  Pr  Pr2  1  0.605214  0.202050  0.205418  1
  Pr  Pr3  1  0.394786  0.797950  0.794582  1
  Pr  Pr4  1  0.600549  0.702719  0.203732  1
  Pr  Pr5  1  0.200613  0.398960  0.398459  1
  Pr  Pr6  1  0.399451  0.297281  0.796268  1
  Pr  Pr7  1  0.000000  0.000000  0.000000  1
  Pr  Pr8  1  0.201166  0.901670  0.403520  1
  Pr  Pr9  1  0.798834  0.098330  0.596480  1
  S  S10  1  0.699108  0.649111  0.903007  1
  S  S11  1  0.501215  0.251621  0.500081  1
  S  S12  1  0.701211  0.152337  0.902247  1
  S  S13  1  0.298789  0.847663  0.097753  1
  S  S14  1  0.498785  0.748379  0.499919  1
  S  S15  1  0.096733  0.449196  0.702748  1
  S  S16  1  0.300892  0.350889  0.096993  1
  S  S17  1  0.903683  0.049721  0.298535  1
  S  S18  1  0.096317  0.950279  0.701465  1
  S  S19  1  0.903267  0.550804  0.297252  1
