# generated using pymatgen
data_TbHo3(MnAl3)2
_symmetry_space_group_name_H-M   'P 1'
_cell_length_a   9.38627086
_cell_length_b   9.38627021
_cell_length_c   9.38627015
_cell_angle_alpha   34.42120131
_cell_angle_beta   34.42120768
_cell_angle_gamma   34.42120648
_symmetry_Int_Tables_number   1
_chemical_formula_structural   TbHo3(MnAl3)2
_chemical_formula_sum   'Tb1 Ho3 Mn2 Al6'
_cell_volume   235.70120783
_cell_formula_units_Z   1
loop_
 _symmetry_equiv_pos_site_id
 _symmetry_equiv_pos_as_xyz
  1  'x, y, z'
loop_
 _atom_site_type_symbol
 _atom_site_label
 _atom_site_symmetry_multiplicity
 _atom_site_fract_x
 _atom_site_fract_y
 _atom_site_fract_z
 _atom_site_occupancy
  Tb  Tb0  1  0.813228  0.813228  0.813228  1
  Ho  Ho1  1  0.313287  0.313287  0.313287  1
  Ho  Ho2  1  0.686668  0.686668  0.686668  1
  Ho  Ho3  1  0.186718  0.186718  0.186718  1
  Mn  Mn4  1  0.500044  0.500044  0.500044  1
  Mn  Mn5  1  0.999996  0.999996  0.999996  1
  Al  Al6  1  0.249927  0.249927  0.749813  1
  Al  Al7  1  0.750057  0.750057  0.250276  1
  Al  Al8  1  0.249927  0.749813  0.249927  1
  Al  Al9  1  0.750057  0.250276  0.750057  1
  Al  Al10  1  0.749813  0.249927  0.249927  1
  Al  Al11  1  0.250276  0.750057  0.750057  1
