# generated using pymatgen
data_Tb3Th5(CdTc)2
_symmetry_space_group_name_H-M   'P 1'
_cell_length_a   9.85490791
_cell_length_b   9.85490768
_cell_length_c   9.85490800
_cell_angle_alpha   59.99999222
_cell_angle_beta   59.99999299
_cell_angle_gamma   59.99999843
_symmetry_Int_Tables_number   1
_chemical_formula_structural   Tb3Th5(CdTc)2
_chemical_formula_sum   'Tb6 Th10 Cd4 Tc4'
_cell_volume   676.77242227
_cell_formula_units_Z   2
loop_
 _symmetry_equiv_pos_site_id
 _symmetry_equiv_pos_as_xyz
  1  'x, y, z'
loop_
 _atom_site_type_symbol
 _atom_site_label
 _atom_site_symmetry_multiplicity
 _atom_site_fract_x
 _atom_site_fract_y
 _atom_site_fract_z
 _atom_site_occupancy
  Tb  Tb0  1  0.935888  0.564112  0.564112  1
  Tb  Tb1  1  0.564112  0.935888  0.935888  1
  Tb  Tb2  1  0.564112  0.935888  0.564112  1
  Tb  Tb3  1  0.935888  0.564112  0.935888  1
  Tb  Tb4  1  0.564112  0.564112  0.935888  1
  Tb  Tb5  1  0.935888  0.935888  0.564112  1
  Th  Th6  1  0.347121  0.347121  0.347121  1
  Th  Th7  1  0.347121  0.347121  0.958637  1
  Th  Th8  1  0.347121  0.958637  0.347121  1
  Th  Th9  1  0.958637  0.347121  0.347121  1
  Th  Th10  1  0.809502  0.190498  0.190498  1
  Th  Th11  1  0.190498  0.809502  0.809502  1
  Th  Th12  1  0.190498  0.809502  0.190498  1
  Th  Th13  1  0.809502  0.190498  0.809502  1
  Th  Th14  1  0.190498  0.190498  0.809502  1
  Th  Th15  1  0.809502  0.809502  0.190498  1
  Cd  Cd16  1  0.582187  0.582187  0.582187  1
  Cd  Cd17  1  0.582187  0.582187  0.253437  1
  Cd  Cd18  1  0.582187  0.253437  0.582187  1
  Cd  Cd19  1  0.253437  0.582187  0.582187  1
  Tc  Tc20  1  0.137103  0.137103  0.137103  1
  Tc  Tc21  1  0.137103  0.137103  0.588692  1
  Tc  Tc22  1  0.137103  0.588692  0.137103  1
  Tc  Tc23  1  0.588692  0.137103  0.137103  1
