# generated using pymatgen
data_Er4Ta2CoOs5
_symmetry_space_group_name_H-M   'P 1'
_cell_length_a   5.52395861
_cell_length_b   5.52395972
_cell_length_c   8.35835200
_cell_angle_alpha   90.00000000
_cell_angle_beta   90.00000000
_cell_angle_gamma   119.91156697
_symmetry_Int_Tables_number   1
_chemical_formula_structural   Er4Ta2CoOs5
_chemical_formula_sum   'Er4 Ta2 Co1 Os5'
_cell_volume   221.07443423
_cell_formula_units_Z   1
loop_
 _symmetry_equiv_pos_site_id
 _symmetry_equiv_pos_as_xyz
  1  'x, y, z'
loop_
 _atom_site_type_symbol
 _atom_site_label
 _atom_site_symmetry_multiplicity
 _atom_site_fract_x
 _atom_site_fract_y
 _atom_site_fract_z
 _atom_site_occupancy
  Er  Er0  1  0.331960  0.668040  0.434327  1
  Er  Er1  1  0.666578  0.333422  0.561773  1
  Er  Er2  1  0.666578  0.333422  0.938227  1
  Er  Er3  1  0.331960  0.668040  0.065673  1
  Ta  Ta4  1  0.999255  0.000745  0.495292  1
  Ta  Ta5  1  0.999255  0.000745  0.004708  1
  Co  Co6  1  0.832510  0.167490  0.250000  1
  Os  Os7  1  0.820109  0.646193  0.250000  1
  Os  Os8  1  0.353807  0.179891  0.250000  1
  Os  Os9  1  0.173511  0.826489  0.750000  1
  Os  Os10  1  0.171300  0.346821  0.750000  1
  Os  Os11  1  0.653179  0.828700  0.750000  1
