# generated using pymatgen
data_La12Pr8Si15Au
_symmetry_space_group_name_H-M   'P 1'
_cell_length_a   7.99132204
_cell_length_b   8.00063007
_cell_length_c   15.41423100
_cell_angle_alpha   89.97069552
_cell_angle_beta   89.70622539
_cell_angle_gamma   89.99517341
_symmetry_Int_Tables_number   1
_chemical_formula_structural   La12Pr8Si15Au
_chemical_formula_sum   'La12 Pr8 Si15 Au1'
_cell_volume   985.50519773
_cell_formula_units_Z   1
loop_
 _symmetry_equiv_pos_site_id
 _symmetry_equiv_pos_as_xyz
  1  'x, y, z'
loop_
 _atom_site_type_symbol
 _atom_site_label
 _atom_site_symmetry_multiplicity
 _atom_site_fract_x
 _atom_site_fract_y
 _atom_site_fract_z
 _atom_site_occupancy
  La  La0  1  0.306261  0.306144  0.999611  1
  La  La1  1  0.191529  0.808548  0.249653  1
  La  La2  1  0.808853  0.185964  0.751743  1
  La  La3  1  0.694246  0.688255  0.499070  1
  La  La4  1  0.373800  0.011496  0.447463  1
  La  La5  1  0.490442  0.871610  0.699714  1
  La  La6  1  0.510676  0.123265  0.197559  1
  La  La7  1  0.876521  0.488245  0.300406  1
  La  La8  1  0.123416  0.517089  0.802007  1
  La  La9  1  0.626745  0.987201  0.949658  1
  La  La10  1  0.003297  0.380566  0.549019  1
  La  La11  1  0.988644  0.625996  0.051767  1
  Pr  Pr12  1  0.132076  0.985059  0.878181  1
  Pr  Pr13  1  0.515557  0.630024  0.126156  1
  Pr  Pr14  1  0.484328  0.370717  0.626661  1
  Pr  Pr15  1  0.628327  0.517075  0.874770  1
  Pr  Pr16  1  0.372548  0.484523  0.372788  1
  Pr  Pr17  1  0.872000  0.018636  0.375339  1
  Pr  Pr18  1  0.983792  0.127397  0.124336  1
  Pr  Pr19  1  0.014475  0.867822  0.622657  1
  Si  Si20  1  0.333879  0.697113  0.950581  1
  Si  Si21  1  0.662677  0.301060  0.450801  1
  Si  Si22  1  0.699263  0.336030  0.050015  1
  Si  Si23  1  0.303316  0.667739  0.548622  1
  Si  Si24  1  0.803317  0.832950  0.201871  1
  Si  Si25  1  0.167385  0.199029  0.298915  1
  Si  Si26  1  0.835400  0.801568  0.799165  1
  Si  Si27  1  0.288338  0.919992  0.059039  1
  Si  Si28  1  0.580315  0.787882  0.308844  1
  Si  Si29  1  0.431880  0.210597  0.813331  1
  Si  Si30  1  0.786415  0.580279  0.691611  1
  Si  Si31  1  0.212033  0.420875  0.190940  1
  Si  Si32  1  0.706343  0.076986  0.557849  1
  Si  Si33  1  0.920216  0.289523  0.942152  1
  Si  Si34  1  0.080855  0.713363  0.440826  1
  Au  Au35  1  0.190839  0.169381  0.696881  1
