# generated using pymatgen
data_DyYPa2(ReB6)2
_symmetry_space_group_name_H-M   'P 1'
_cell_length_a   3.71845100
_cell_length_b   9.19608701
_cell_length_c   11.53180301
_cell_angle_alpha   90.00508590
_cell_angle_beta   90.00000000
_cell_angle_gamma   90.00000000
_symmetry_Int_Tables_number   1
_chemical_formula_structural   DyYPa2(ReB6)2
_chemical_formula_sum   'Dy2 Y2 Pa4 Re4 B24'
_cell_volume   394.33229650
_cell_formula_units_Z   2
loop_
 _symmetry_equiv_pos_site_id
 _symmetry_equiv_pos_as_xyz
  1  'x, y, z'
loop_
 _atom_site_type_symbol
 _atom_site_label
 _atom_site_symmetry_multiplicity
 _atom_site_fract_x
 _atom_site_fract_y
 _atom_site_fract_z
 _atom_site_occupancy
  Dy  Dy0  1  0.000000  0.445239  0.125084  1
  Dy  Dy1  1  0.000000  0.554761  0.874916  1
  Y  Y2  1  0.000000  0.945300  0.374976  1
  Y  Y3  1  0.000000  0.054700  0.625024  1
  Pa  Pa4  1  0.000000  0.323566  0.412779  1
  Pa  Pa5  1  0.000000  0.676434  0.587221  1
  Pa  Pa6  1  0.000000  0.823446  0.087186  1
  Pa  Pa7  1  0.000000  0.176554  0.912814  1
  Re  Re8  1  0.000000  0.638139  0.322244  1
  Re  Re9  1  0.000000  0.361861  0.677756  1
  Re  Re10  1  0.000000  0.138304  0.177661  1
  Re  Re11  1  0.000000  0.861696  0.822339  1
  B  B12  1  0.500000  0.552298  0.433420  1
  B  B13  1  0.500000  0.447702  0.566580  1
  B  B14  1  0.500000  0.052330  0.066548  1
  B  B15  1  0.500000  0.947670  0.933452  1
  B  B16  1  0.500000  0.747180  0.420631  1
  B  B17  1  0.500000  0.252820  0.579369  1
  B  B18  1  0.500000  0.247392  0.079412  1
  B  B19  1  0.500000  0.752608  0.920588  1
  B  B20  1  0.500000  0.793229  0.266330  1
  B  B21  1  0.500000  0.206771  0.733670  1
  B  B22  1  0.500000  0.293388  0.233489  1
  B  B23  1  0.500000  0.706612  0.766511  1
  B  B24  1  0.500000  0.633936  0.185652  1
  B  B25  1  0.500000  0.366064  0.814348  1
  B  B26  1  0.500000  0.134122  0.314266  1
  B  B27  1  0.500000  0.865878  0.685734  1
  B  B28  1  0.500000  0.982780  0.213417  1
  B  B29  1  0.500000  0.017220  0.786583  1
  B  B30  1  0.500000  0.482750  0.286401  1
  B  B31  1  0.500000  0.517250  0.713599  1
  B  B32  1  0.500000  0.615145  0.031847  1
  B  B33  1  0.500000  0.384855  0.968153  1
  B  B34  1  0.500000  0.115491  0.468048  1
  B  B35  1  0.500000  0.884509  0.531952  1
