# generated using pymatgen
data_Be8CrOsRu2
_symmetry_space_group_name_H-M   'P 1'
_cell_length_a   4.30253400
_cell_length_b   4.30253336
_cell_length_c   7.01903200
_cell_angle_alpha   90.00000000
_cell_angle_beta   90.00000000
_cell_angle_gamma   120.00000496
_symmetry_Int_Tables_number   1
_chemical_formula_structural   Be8CrOsRu2
_chemical_formula_sum   'Be8 Cr1 Os1 Ru2'
_cell_volume   112.52690894
_cell_formula_units_Z   1
loop_
 _symmetry_equiv_pos_site_id
 _symmetry_equiv_pos_as_xyz
  1  'x, y, z'
loop_
 _atom_site_type_symbol
 _atom_site_label
 _atom_site_symmetry_multiplicity
 _atom_site_fract_x
 _atom_site_fract_y
 _atom_site_fract_z
 _atom_site_occupancy
  Be  Be0  1  0.000000  0.000000  0.499430  1
  Be  Be1  1  0.000000  0.000000  0.000823  1
  Be  Be2  1  0.830227  0.169773  0.249034  1
  Be  Be3  1  0.830227  0.660454  0.249034  1
  Be  Be4  1  0.339546  0.169773  0.249034  1
  Be  Be5  1  0.168670  0.831330  0.750175  1
  Be  Be6  1  0.168670  0.337339  0.750175  1
  Be  Be7  1  0.662661  0.831330  0.750175  1
  Cr  Cr8  1  0.333333  0.666667  0.437315  1
  Os  Os9  1  0.666667  0.333333  0.550870  1
  Ru  Ru10  1  0.666667  0.333333  0.938312  1
  Ru  Ru11  1  0.333333  0.666667  0.075621  1
