# generated using pymatgen
data_Si3Ni5W4
_symmetry_space_group_name_H-M   'P 1'
_cell_length_a   4.74512927
_cell_length_b   4.74512970
_cell_length_c   7.60769400
_cell_angle_alpha   90.00000000
_cell_angle_beta   90.00000000
_cell_angle_gamma   119.99577452
_symmetry_Int_Tables_number   1
_chemical_formula_structural   Si3Ni5W4
_chemical_formula_sum   'Si3 Ni5 W4'
_cell_volume   148.35366965
_cell_formula_units_Z   1
loop_
 _symmetry_equiv_pos_site_id
 _symmetry_equiv_pos_as_xyz
  1  'x, y, z'
loop_
 _atom_site_type_symbol
 _atom_site_label
 _atom_site_symmetry_multiplicity
 _atom_site_fract_x
 _atom_site_fract_y
 _atom_site_fract_z
 _atom_site_occupancy
  Si  Si0  1  0.991964  0.008036  0.242414  1
  Si  Si1  1  0.991964  0.008036  0.757586  1
  Si  Si2  1  0.185366  0.814634  0.500000  1
  Ni  Ni3  1  0.676443  0.825047  0.500000  1
  Ni  Ni4  1  0.174953  0.323557  0.500000  1
  Ni  Ni5  1  0.825515  0.174485  0.000000  1
  Ni  Ni6  1  0.335439  0.173955  0.000000  1
  Ni  Ni7  1  0.826045  0.664561  0.000000  1
  W  W8  1  0.328121  0.671879  0.815117  1
  W  W9  1  0.668047  0.331953  0.686806  1
  W  W10  1  0.668047  0.331953  0.313194  1
  W  W11  1  0.328121  0.671879  0.184883  1
