# generated using pymatgen
data_Nd2PdPtF14
_symmetry_space_group_name_H-M   'P 1'
_cell_length_a   5.67085719
_cell_length_b   9.14256345
_cell_length_c   12.24324270
_cell_angle_alpha   62.04601054
_cell_angle_beta   89.99989853
_cell_angle_gamma   90.06294967
_symmetry_Int_Tables_number   1
_chemical_formula_structural   Nd2PdPtF14
_chemical_formula_sum   'Nd4 Pd2 Pt2 F28'
_cell_volume   560.70315376
_cell_formula_units_Z   2
loop_
 _symmetry_equiv_pos_site_id
 _symmetry_equiv_pos_as_xyz
  1  'x, y, z'
loop_
 _atom_site_type_symbol
 _atom_site_label
 _atom_site_symmetry_multiplicity
 _atom_site_fract_x
 _atom_site_fract_y
 _atom_site_fract_z
 _atom_site_occupancy
  Nd  Nd0  1  0.260448  0.812149  0.263180  1
  Nd  Nd1  1  0.739552  0.187851  0.736820  1
  Nd  Nd2  1  0.761600  0.189645  0.234126  1
  Nd  Nd3  1  0.238400  0.810355  0.765874  1
  Pd  Pd4  1  0.757828  0.726425  0.043301  1
  Pd  Pd5  1  0.242172  0.273575  0.956699  1
  Pt  Pt6  1  0.258434  0.273380  0.456718  1
  Pt  Pt7  1  0.741566  0.726620  0.543282  1
  F  F8  1  0.930084  0.705632  0.416462  1
  F  F9  1  0.069916  0.294368  0.583538  1
  F  F10  1  0.428464  0.294261  0.082255  1
  F  F11  1  0.571536  0.705739  0.917745  1
  F  F12  1  0.470191  0.726669  0.130130  1
  F  F13  1  0.529809  0.273331  0.869870  1
  F  F14  1  0.969110  0.274045  0.368037  1
  F  F15  1  0.030890  0.725955  0.631963  1
  F  F16  1  0.940357  0.742175  0.172535  1
  F  F17  1  0.059643  0.257825  0.827465  1
  F  F18  1  0.442198  0.257285  0.326387  1
  F  F19  1  0.557802  0.742715  0.673613  1
  F  F20  1  0.770097  0.485654  0.138342  1
  F  F21  1  0.229903  0.514346  0.861658  1
  F  F22  1  0.271224  0.516277  0.360291  1
  F  F23  1  0.728776  0.483723  0.639709  1
  F  F24  1  0.949432  0.280890  0.037848  1
  F  F25  1  0.050568  0.719110  0.962152  1
  F  F26  1  0.446776  0.720078  0.460380  1
  F  F27  1  0.553224  0.279922  0.539620  1
  F  F28  1  0.743729  0.969844  0.450936  1
  F  F29  1  0.256271  0.030156  0.549064  1
  F  F30  1  0.243472  0.032911  0.047284  1
  F  F31  1  0.756528  0.967089  0.952716  1
  F  F32  1  0.592923  0.967427  0.230493  1
  F  F33  1  0.407077  0.032573  0.769507  1
  F  F34  1  0.092774  0.033084  0.268844  1
  F  F35  1  0.907226  0.966916  0.731156  1
