# generated using pymatgen
data_MnTc3Br16
_symmetry_space_group_name_H-M   'P 1'
_cell_length_a   7.98578511
_cell_length_b   7.98127720
_cell_length_c   11.88768907
_cell_angle_alpha   72.33185802
_cell_angle_beta   72.03571431
_cell_angle_gamma   89.26735596
_symmetry_Int_Tables_number   1
_chemical_formula_structural   MnTc3Br16
_chemical_formula_sum   'Mn1 Tc3 Br16'
_cell_volume   684.01208186
_cell_formula_units_Z   1
loop_
 _symmetry_equiv_pos_site_id
 _symmetry_equiv_pos_as_xyz
  1  'x, y, z'
loop_
 _atom_site_type_symbol
 _atom_site_label
 _atom_site_symmetry_multiplicity
 _atom_site_fract_x
 _atom_site_fract_y
 _atom_site_fract_z
 _atom_site_occupancy
  Mn  Mn0  1  0.190778  0.940022  0.375437  1
  Tc  Tc1  1  0.061325  0.810457  0.124802  1
  Tc  Tc2  1  0.810600  0.058157  0.623563  1
  Tc  Tc3  1  0.939418  0.190714  0.876229  1
  Br  Br4  1  0.056408  0.835605  0.605626  1
  Br  Br5  1  0.047267  0.272385  0.639613  1
  Br  Br6  1  0.727350  0.952163  0.860708  1
  Br  Br7  1  0.596127  0.836912  0.634626  1
  Br  Br8  1  0.162057  0.402557  0.866687  1
  Br  Br9  1  0.958722  0.731733  0.360505  1
  Br  Br10  1  0.706798  0.388128  0.887660  1
  Br  Br11  1  0.167138  0.947089  0.888171  1
  Br  Br12  1  0.396084  0.153674  0.365820  1
  Br  Br13  1  0.837606  0.598666  0.135025  1
  Br  Br14  1  0.382480  0.717499  0.386408  1
  Br  Br15  1  0.613077  0.291263  0.612765  1
  Br  Br16  1  0.951098  0.161430  0.388160  1
  Br  Br17  1  0.293334  0.612590  0.110352  1
  Br  Br18  1  0.832604  0.054474  0.112543  1
  Br  Br19  1  0.269728  0.044483  0.145300  1
