# generated using pymatgen
data_Er3Lu2CoSb2
_symmetry_space_group_name_H-M   'P 1'
_cell_length_a   7.72303200
_cell_length_b   8.70698600
_cell_length_c   12.03329100
_cell_angle_alpha   90.00000000
_cell_angle_beta   90.00000000
_cell_angle_gamma   90.00000000
_symmetry_Int_Tables_number   1
_chemical_formula_structural   Er3Lu2CoSb2
_chemical_formula_sum   'Er12 Lu8 Co4 Sb8'
_cell_volume   809.17060906
_cell_formula_units_Z   4
loop_
 _symmetry_equiv_pos_site_id
 _symmetry_equiv_pos_as_xyz
  1  'x, y, z'
loop_
 _atom_site_type_symbol
 _atom_site_label
 _atom_site_symmetry_multiplicity
 _atom_site_fract_x
 _atom_site_fract_y
 _atom_site_fract_z
 _atom_site_occupancy
  Er  Er0  1  0.157410  0.750000  0.204620  1
  Er  Er1  1  0.657410  0.250000  0.295380  1
  Er  Er2  1  0.842590  0.250000  0.795380  1
  Er  Er3  1  0.342590  0.750000  0.704620  1
  Er  Er4  1  0.449619  0.750000  0.997938  1
  Er  Er5  1  0.949619  0.250000  0.502062  1
  Er  Er6  1  0.550381  0.250000  0.002062  1
  Er  Er7  1  0.050381  0.750000  0.497938  1
  Er  Er8  1  0.622608  0.750000  0.308619  1
  Er  Er9  1  0.122608  0.250000  0.191381  1
  Er  Er10  1  0.377392  0.250000  0.691381  1
  Er  Er11  1  0.877392  0.750000  0.808619  1
  Lu  Lu12  1  0.825229  0.961896  0.065448  1
  Lu  Lu13  1  0.325229  0.038104  0.434552  1
  Lu  Lu14  1  0.174771  0.461896  0.934552  1
  Lu  Lu15  1  0.674771  0.538104  0.565448  1
  Lu  Lu16  1  0.174771  0.038104  0.934552  1
  Lu  Lu17  1  0.674771  0.961896  0.565448  1
  Lu  Lu18  1  0.825229  0.538104  0.065448  1
  Lu  Lu19  1  0.325229  0.461896  0.434552  1
  Co  Co20  1  0.430436  0.750000  0.490502  1
  Co  Co21  1  0.930436  0.250000  0.009498  1
  Co  Co22  1  0.569564  0.250000  0.509498  1
  Co  Co23  1  0.069564  0.750000  0.990502  1
  Sb  Sb24  1  0.931778  0.991547  0.327391  1
  Sb  Sb25  1  0.431778  0.008453  0.172609  1
  Sb  Sb26  1  0.068222  0.491547  0.672609  1
  Sb  Sb27  1  0.568222  0.508453  0.827391  1
  Sb  Sb28  1  0.068222  0.008453  0.672609  1
  Sb  Sb29  1  0.568222  0.991547  0.827391  1
  Sb  Sb30  1  0.931778  0.508453  0.327391  1
  Sb  Sb31  1  0.431778  0.491547  0.172609  1
