# generated using pymatgen
data_Er5In2SnO
_symmetry_space_group_name_H-M   'P 1'
_cell_length_a   9.00876613
_cell_length_b   9.00876518
_cell_length_c   9.00157000
_cell_angle_alpha   125.80878041
_cell_angle_beta   125.80877606
_cell_angle_gamma   80.25959908
_symmetry_Int_Tables_number   1
_chemical_formula_structural   Er5In2SnO
_chemical_formula_sum   'Er10 In4 Sn2 O2'
_cell_volume   463.51860926
_cell_formula_units_Z   2
loop_
 _symmetry_equiv_pos_site_id
 _symmetry_equiv_pos_as_xyz
  1  'x, y, z'
loop_
 _atom_site_type_symbol
 _atom_site_label
 _atom_site_symmetry_multiplicity
 _atom_site_fract_x
 _atom_site_fract_y
 _atom_site_fract_z
 _atom_site_occupancy
  Er  Er0  1  0.999326  0.200011  0.500051  1
  Er  Er1  1  0.801629  0.301629  0.800648  1
  Er  Er2  1  0.498954  0.998954  0.800578  1
  Er  Er3  1  0.501046  0.001046  0.199422  1
  Er  Er4  1  0.000674  0.799989  0.499949  1
  Er  Er5  1  0.500000  0.500000  0.000000  1
  Er  Er6  1  0.198371  0.698371  0.199352  1
  Er  Er7  1  0.700011  0.499326  0.500051  1
  Er  Er8  1  0.299989  0.500674  0.499949  1
  Er  Er9  1  0.000000  0.000000  0.000000  1
  In  In10  1  0.355584  0.144416  0.500000  1
  In  In11  1  0.750003  0.749997  0.000000  1
  In  In12  1  0.644416  0.855584  0.500000  1
  In  In13  1  0.249997  0.250003  0.000000  1
  Sn  Sn14  1  0.852999  0.352999  0.206059  1
  Sn  Sn15  1  0.147001  0.647001  0.793941  1
  O  O16  1  0.750680  0.250680  0.500068  1
  O  O17  1  0.249320  0.749320  0.499932  1
