# generated using pymatgen
data_Dy4Ga16Rh3
_symmetry_space_group_name_H-M   'P 1'
_cell_length_a   6.15448700
_cell_length_b   6.15448700
_cell_length_c   11.24840700
_cell_angle_alpha   90.00000000
_cell_angle_beta   90.00000000
_cell_angle_gamma   90.00000000
_symmetry_Int_Tables_number   1
_chemical_formula_structural   Dy4Ga16Rh3
_chemical_formula_sum   'Dy4 Ga16 Rh3'
_cell_volume   426.06390093
_cell_formula_units_Z   1
loop_
 _symmetry_equiv_pos_site_id
 _symmetry_equiv_pos_as_xyz
  1  'x, y, z'
loop_
 _atom_site_type_symbol
 _atom_site_label
 _atom_site_symmetry_multiplicity
 _atom_site_fract_x
 _atom_site_fract_y
 _atom_site_fract_z
 _atom_site_occupancy
  Dy  Dy0  1  0.500000  0.000000  0.807302  1
  Dy  Dy1  1  0.000000  0.500000  0.807302  1
  Dy  Dy2  1  0.500000  0.000000  0.192698  1
  Dy  Dy3  1  0.000000  0.500000  0.192698  1
  Ga  Ga4  1  0.249638  0.249638  0.619770  1
  Ga  Ga5  1  0.750362  0.750362  0.619770  1
  Ga  Ga6  1  0.750362  0.249638  0.619770  1
  Ga  Ga7  1  0.249638  0.750362  0.619770  1
  Ga  Ga8  1  0.750362  0.750362  0.380230  1
  Ga  Ga9  1  0.249638  0.249638  0.380230  1
  Ga  Ga10  1  0.249638  0.750362  0.380230  1
  Ga  Ga11  1  0.750362  0.249638  0.380230  1
  Ga  Ga12  1  0.287135  0.287135  0.000000  1
  Ga  Ga13  1  0.712865  0.712865  0.000000  1
  Ga  Ga14  1  0.712865  0.287135  0.000000  1
  Ga  Ga15  1  0.287135  0.712865  0.000000  1
  Ga  Ga16  1  0.500000  0.500000  0.803994  1
  Ga  Ga17  1  0.500000  0.500000  0.196006  1
  Ga  Ga18  1  0.000000  0.000000  0.776461  1
  Ga  Ga19  1  0.000000  0.000000  0.223539  1
  Rh  Rh20  1  0.500000  0.000000  0.500000  1
  Rh  Rh21  1  0.000000  0.500000  0.500000  1
  Rh  Rh22  1  0.000000  0.000000  0.000000  1
