# generated using pymatgen
data_AcLaMgZn4Sn
_symmetry_space_group_name_H-M   'P 1'
_cell_length_a   8.95739209
_cell_length_b   8.95739186
_cell_length_c   9.39371500
_cell_angle_alpha   90.00000000
_cell_angle_beta   90.00000000
_cell_angle_gamma   149.95216624
_symmetry_Int_Tables_number   1
_chemical_formula_structural   AcLaMgZn4Sn
_chemical_formula_sum   'Ac2 La2 Mg2 Zn8 Sn2'
_cell_volume   377.39655685
_cell_formula_units_Z   2
loop_
 _symmetry_equiv_pos_site_id
 _symmetry_equiv_pos_as_xyz
  1  'x, y, z'
loop_
 _atom_site_type_symbol
 _atom_site_label
 _atom_site_symmetry_multiplicity
 _atom_site_fract_x
 _atom_site_fract_y
 _atom_site_fract_z
 _atom_site_occupancy
  Ac  Ac0  1  0.000000  0.000000  0.500000  1
  Ac  Ac1  1  0.000000  0.000000  0.000000  1
  La  La2  1  0.207311  0.792689  0.250000  1
  La  La3  1  0.792689  0.207311  0.750000  1
  Mg  Mg4  1  0.398808  0.601192  0.250000  1
  Mg  Mg5  1  0.601192  0.398808  0.750000  1
  Zn  Zn6  1  0.813060  0.186940  0.390155  1
  Zn  Zn7  1  0.186940  0.813060  0.609845  1
  Zn  Zn8  1  0.813060  0.186940  0.109845  1
  Zn  Zn9  1  0.186940  0.813060  0.890155  1
  Zn  Zn10  1  0.663224  0.336776  0.481087  1
  Zn  Zn11  1  0.336776  0.663224  0.518913  1
  Zn  Zn12  1  0.663224  0.336776  0.018913  1
  Zn  Zn13  1  0.336776  0.663224  0.981087  1
  Sn  Sn14  1  0.564899  0.435101  0.250000  1
  Sn  Sn15  1  0.435101  0.564899  0.750000  1
