# generated using pymatgen
data_Y4Lu(SiHg)2
_symmetry_space_group_name_H-M   'P 1'
_cell_length_a   8.79940088
_cell_length_b   8.79940264
_cell_length_c   7.51734600
_cell_angle_alpha   90.00000000
_cell_angle_beta   90.00000000
_cell_angle_gamma   129.59547793
_symmetry_Int_Tables_number   1
_chemical_formula_structural   Y4Lu(SiHg)2
_chemical_formula_sum   'Y8 Lu2 Si4 Hg4'
_cell_volume   448.51739873
_cell_formula_units_Z   2
loop_
 _symmetry_equiv_pos_site_id
 _symmetry_equiv_pos_as_xyz
  1  'x, y, z'
loop_
 _atom_site_type_symbol
 _atom_site_label
 _atom_site_symmetry_multiplicity
 _atom_site_fract_x
 _atom_site_fract_y
 _atom_site_fract_z
 _atom_site_occupancy
  Y  Y0  1  0.055634  0.310259  0.323815  1
  Y  Y1  1  0.944366  0.689741  0.676185  1
  Y  Y2  1  0.444366  0.189741  0.823815  1
  Y  Y3  1  0.810259  0.555634  0.176185  1
  Y  Y4  1  0.555634  0.810259  0.176185  1
  Y  Y5  1  0.189741  0.444366  0.823815  1
  Y  Y6  1  0.689741  0.944366  0.676185  1
  Y  Y7  1  0.310259  0.055634  0.323815  1
  Lu  Lu8  1  0.000000  0.000000  0.000000  1
  Lu  Lu9  1  0.500000  0.500000  0.500000  1
  Si  Si10  1  0.380308  0.380308  0.123039  1
  Si  Si11  1  0.619692  0.619692  0.876961  1
  Si  Si12  1  0.119692  0.119692  0.623039  1
  Si  Si13  1  0.880308  0.880308  0.376961  1
  Hg  Hg14  1  0.782020  0.217980  0.000000  1
  Hg  Hg15  1  0.217980  0.782020  0.000000  1
  Hg  Hg16  1  0.717980  0.282020  0.500000  1
  Hg  Hg17  1  0.282020  0.717980  0.500000  1
