# generated using pymatgen
data_V5GaSi2H
_symmetry_space_group_name_H-M   'P 1'
_cell_length_a   4.86940300
_cell_length_b   7.20065671
_cell_length_c   7.17117115
_cell_angle_alpha   119.88444433
_cell_angle_beta   90.00002776
_cell_angle_gamma   89.99990558
_symmetry_Int_Tables_number   1
_chemical_formula_structural   V5GaSi2H
_chemical_formula_sum   'V10 Ga2 Si4 H2'
_cell_volume   218.00831967
_cell_formula_units_Z   2
loop_
 _symmetry_equiv_pos_site_id
 _symmetry_equiv_pos_as_xyz
  1  'x, y, z'
loop_
 _atom_site_type_symbol
 _atom_site_label
 _atom_site_symmetry_multiplicity
 _atom_site_fract_x
 _atom_site_fract_y
 _atom_site_fract_z
 _atom_site_occupancy
  V  V0  1  0.496224  0.327201  0.665507  1
  V  V1  1  0.496271  0.672840  0.338201  1
  V  V2  1  0.003729  0.672840  0.338200  1
  V  V3  1  0.003776  0.327201  0.665508  1
  V  V4  1  0.750000  0.232084  0.993357  1
  V  V5  1  0.750001  0.767882  0.761520  1
  V  V6  1  0.750000  0.999996  0.239434  1
  V  V7  1  0.250001  0.765717  0.001622  1
  V  V8  1  0.250003  0.234024  0.235839  1
  V  V9  1  0.250001  0.000045  0.759366  1
  Ga  Ga10  1  0.750000  0.599770  0.998485  1
  Ga  Ga11  1  0.750001  0.400313  0.398800  1
  Si  Si12  1  0.750000  0.000049  0.598607  1
  Si  Si13  1  0.250000  0.399850  0.002588  1
  Si  Si14  1  0.250000  0.600358  0.603206  1
  Si  Si15  1  0.250001  0.999988  0.397734  1
  H  H16  1  0.501707  0.999922  0.001013  1
  H  H17  1  0.998289  0.999919  0.001013  1
