# generated using pymatgen
data_CsAc3Te5
_symmetry_space_group_name_H-M   'P 1'
_cell_length_a   4.82684400
_cell_length_b   14.35852400
_cell_length_c   25.30510200
_cell_angle_alpha   90.00000000
_cell_angle_beta   90.00000000
_cell_angle_gamma   90.00000000
_symmetry_Int_Tables_number   1
_chemical_formula_structural   CsAc3Te5
_chemical_formula_sum   'Cs4 Ac12 Te20'
_cell_volume   1753.80439311
_cell_formula_units_Z   4
loop_
 _symmetry_equiv_pos_site_id
 _symmetry_equiv_pos_as_xyz
  1  'x, y, z'
loop_
 _atom_site_type_symbol
 _atom_site_label
 _atom_site_symmetry_multiplicity
 _atom_site_fract_x
 _atom_site_fract_y
 _atom_site_fract_z
 _atom_site_occupancy
  Cs  Cs0  1  0.250000  0.319244  0.112480  1
  Cs  Cs1  1  0.750000  0.680756  0.887520  1
  Cs  Cs2  1  0.750000  0.819244  0.387520  1
  Cs  Cs3  1  0.250000  0.180756  0.612480  1
  Ac  Ac4  1  0.250000  0.486499  0.703065  1
  Ac  Ac5  1  0.750000  0.513501  0.296935  1
  Ac  Ac6  1  0.750000  0.986499  0.796935  1
  Ac  Ac7  1  0.250000  0.013501  0.203065  1
  Ac  Ac8  1  0.250000  0.823587  0.664181  1
  Ac  Ac9  1  0.750000  0.176413  0.335819  1
  Ac  Ac10  1  0.750000  0.323587  0.835819  1
  Ac  Ac11  1  0.250000  0.676413  0.164181  1
  Ac  Ac12  1  0.250000  0.382231  0.450976  1
  Ac  Ac13  1  0.750000  0.617769  0.549024  1
  Ac  Ac14  1  0.750000  0.882231  0.049024  1
  Ac  Ac15  1  0.250000  0.117769  0.950976  1
  Te  Te16  1  0.250000  0.458321  0.573193  1
  Te  Te17  1  0.750000  0.541679  0.426807  1
  Te  Te18  1  0.750000  0.958321  0.926807  1
  Te  Te19  1  0.250000  0.041679  0.073193  1
  Te  Te20  1  0.250000  0.772952  0.536364  1
  Te  Te21  1  0.750000  0.227048  0.463636  1
  Te  Te22  1  0.750000  0.272952  0.963636  1
  Te  Te23  1  0.250000  0.727048  0.036364  1
  Te  Te24  1  0.250000  0.832341  0.795533  1
  Te  Te25  1  0.750000  0.167659  0.204467  1
  Te  Te26  1  0.750000  0.332341  0.704467  1
  Te  Te27  1  0.250000  0.667659  0.295533  1
  Te  Te28  1  0.250000  0.479365  0.834889  1
  Te  Te29  1  0.750000  0.520635  0.165111  1
  Te  Te30  1  0.750000  0.979365  0.665111  1
  Te  Te31  1  0.250000  0.020635  0.334889  1
  Te  Te32  1  0.250000  0.346773  0.318179  1
  Te  Te33  1  0.750000  0.653227  0.681821  1
  Te  Te34  1  0.750000  0.846773  0.181821  1
  Te  Te35  1  0.250000  0.153227  0.818179  1
