# generated using pymatgen
data_CeZn10Pt
_symmetry_space_group_name_H-M   'P 1'
_cell_length_a   8.28948698
_cell_length_b   8.28948700
_cell_length_c   8.25724093
_cell_angle_alpha   99.77429123
_cell_angle_beta   99.77429413
_cell_angle_gamma   131.08457275
_symmetry_Int_Tables_number   1
_chemical_formula_structural   CeZn10Pt
_chemical_formula_sum   'Ce2 Zn20 Pt2'
_cell_volume   390.06593857
_cell_formula_units_Z   2
loop_
 _symmetry_equiv_pos_site_id
 _symmetry_equiv_pos_as_xyz
  1  'x, y, z'
loop_
 _atom_site_type_symbol
 _atom_site_label
 _atom_site_symmetry_multiplicity
 _atom_site_fract_x
 _atom_site_fract_y
 _atom_site_fract_z
 _atom_site_occupancy
  Ce  Ce0  1  0.005014  0.994986  0.000000  1
  Ce  Ce1  1  0.244986  0.755014  0.500000  1
  Zn  Zn2  1  0.759157  0.173428  0.828425  1
  Zn  Zn3  1  0.070826  0.242921  0.414241  1
  Zn  Zn4  1  0.349315  0.176454  0.416312  1
  Zn  Zn5  1  0.068850  0.652600  0.825723  1
  Zn  Zn6  1  0.900685  0.573546  0.083688  1
  Zn  Zn7  1  0.347400  0.931150  0.174277  1
  Zn  Zn8  1  0.754878  0.245122  0.500000  1
  Zn  Zn9  1  0.902600  0.818850  0.325723  1
  Zn  Zn10  1  0.495122  0.504878  0.000000  1
  Zn  Zn11  1  0.426454  0.099315  0.916312  1
  Zn  Zn12  1  0.625000  0.375000  0.250000  1
  Zn  Zn13  1  0.490843  0.576572  0.671575  1
  Zn  Zn14  1  0.181150  0.097400  0.674277  1
  Zn  Zn15  1  0.757079  0.929174  0.585759  1
  Zn  Zn16  1  0.823546  0.650685  0.583688  1
  Zn  Zn17  1  0.423428  0.509157  0.328425  1
  Zn  Zn18  1  0.492921  0.820826  0.914241  1
  Zn  Zn19  1  0.179174  0.507079  0.085759  1
  Zn  Zn20  1  0.826572  0.240843  0.171575  1
  Zn  Zn21  1  0.625000  0.375000  0.750000  1
  Pt  Pt22  1  0.625000  0.875000  0.250000  1
  Pt  Pt23  1  0.125000  0.375000  0.750000  1
