# generated using pymatgen
data_Tm2PaSn3PtRh2
_symmetry_space_group_name_H-M   'P 1'
_cell_length_a   7.48838324
_cell_length_b   7.49619293
_cell_length_c   3.96026800
_cell_angle_alpha   90.00000000
_cell_angle_beta   90.00000000
_cell_angle_gamma   120.44488919
_symmetry_Int_Tables_number   1
_chemical_formula_structural   Tm2PaSn3PtRh2
_chemical_formula_sum   'Tm2 Pa1 Sn3 Pt1 Rh2'
_cell_volume   191.65474502
_cell_formula_units_Z   1
loop_
 _symmetry_equiv_pos_site_id
 _symmetry_equiv_pos_as_xyz
  1  'x, y, z'
loop_
 _atom_site_type_symbol
 _atom_site_label
 _atom_site_symmetry_multiplicity
 _atom_site_fract_x
 _atom_site_fract_y
 _atom_site_fract_z
 _atom_site_occupancy
  Tm  Tm0  1  0.594704  0.594505  0.000000  1
  Tm  Tm1  1  0.404194  0.999095  0.000000  1
  Pa  Pa2  1  0.008846  0.415341  0.000000  1
  Sn  Sn3  1  0.268026  0.256441  0.500000  1
  Sn  Sn4  1  0.004327  0.758014  0.500000  1
  Sn  Sn5  1  0.728701  0.983276  0.500000  1
  Pt  Pt6  1  0.683868  0.334388  0.500000  1
  Rh  Rh7  1  0.308543  0.644550  0.500000  1
  Rh  Rh8  1  0.998791  0.014389  0.000000  1
