# generated using pymatgen
data_NdLuSBr2
_symmetry_space_group_name_H-M   'P 1'
_cell_length_a   10.81576836
_cell_length_b   10.81576713
_cell_length_c   10.81576800
_cell_angle_alpha   21.59797016
_cell_angle_beta   21.59797232
_cell_angle_gamma   21.59797544
_symmetry_Int_Tables_number   1
_chemical_formula_structural   NdLuSBr2
_chemical_formula_sum   'Nd1 Lu1 S1 Br2'
_cell_volume   150.21908664
_cell_formula_units_Z   1
loop_
 _symmetry_equiv_pos_site_id
 _symmetry_equiv_pos_as_xyz
  1  'x, y, z'
loop_
 _atom_site_type_symbol
 _atom_site_label
 _atom_site_symmetry_multiplicity
 _atom_site_fract_x
 _atom_site_fract_y
 _atom_site_fract_z
 _atom_site_occupancy
  Nd  Nd0  1  0.878678  0.878678  0.878678  1
  Lu  Lu1  1  0.121573  0.121573  0.121573  1
  S  S2  1  0.493716  0.493716  0.493716  1
  Br  Br3  1  0.273107  0.273107  0.273107  1
  Br  Br4  1  0.732925  0.732925  0.732925  1
