# generated using pymatgen
data_Nd2Ho7TmBi6
_symmetry_space_group_name_H-M   'P 1'
_cell_length_a   8.34409600
_cell_length_b   9.50259400
_cell_length_c   12.15968800
_cell_angle_alpha   90.00000000
_cell_angle_beta   90.00000000
_cell_angle_gamma   90.00000000
_symmetry_Int_Tables_number   1
_chemical_formula_structural   Nd2Ho7TmBi6
_chemical_formula_sum   'Nd4 Ho14 Tm2 Bi12'
_cell_volume   964.14842942
_cell_formula_units_Z   2
loop_
 _symmetry_equiv_pos_site_id
 _symmetry_equiv_pos_as_xyz
  1  'x, y, z'
loop_
 _atom_site_type_symbol
 _atom_site_label
 _atom_site_symmetry_multiplicity
 _atom_site_fract_x
 _atom_site_fract_y
 _atom_site_fract_z
 _atom_site_occupancy
  Nd  Nd0  1  0.171737  0.750000  0.226419  1
  Nd  Nd1  1  0.328263  0.750000  0.726419  1
  Nd  Nd2  1  0.828260  0.250000  0.773570  1
  Nd  Nd3  1  0.671740  0.250000  0.273570  1
  Ho  Ho4  1  0.810073  0.563221  0.064663  1
  Ho  Ho5  1  0.689927  0.936779  0.564663  1
  Ho  Ho6  1  0.189767  0.063037  0.935316  1
  Ho  Ho7  1  0.310233  0.436963  0.435316  1
  Ho  Ho8  1  0.189767  0.436963  0.935316  1
  Ho  Ho9  1  0.310233  0.063037  0.435316  1
  Ho  Ho10  1  0.810073  0.936779  0.064663  1
  Ho  Ho11  1  0.689927  0.563221  0.564663  1
  Ho  Ho12  1  0.523201  0.250000  0.996108  1
  Ho  Ho13  1  0.976799  0.250000  0.496108  1
  Ho  Ho14  1  0.664150  0.750000  0.289240  1
  Ho  Ho15  1  0.835850  0.750000  0.789240  1
  Ho  Ho16  1  0.335816  0.250000  0.710696  1
  Ho  Ho17  1  0.164184  0.250000  0.210696  1
  Tm  Tm18  1  0.477043  0.750000  0.003936  1
  Tm  Tm19  1  0.022957  0.750000  0.503936  1
  Bi  Bi20  1  0.402460  0.750000  0.467595  1
  Bi  Bi21  1  0.097540  0.750000  0.967595  1
  Bi  Bi22  1  0.596818  0.250000  0.532472  1
  Bi  Bi23  1  0.903182  0.250000  0.032472  1
  Bi  Bi24  1  0.935333  0.507471  0.328305  1
  Bi  Bi25  1  0.564667  0.992529  0.828305  1
  Bi  Bi26  1  0.064906  0.006777  0.671698  1
  Bi  Bi27  1  0.435094  0.493223  0.171698  1
  Bi  Bi28  1  0.064906  0.493223  0.671698  1
  Bi  Bi29  1  0.435094  0.006777  0.171698  1
  Bi  Bi30  1  0.935333  0.992529  0.328305  1
  Bi  Bi31  1  0.564667  0.507471  0.828305  1
