# generated using pymatgen
data_BaSiHgSe4
_symmetry_space_group_name_H-M   'P 1'
_cell_length_a   6.75274800
_cell_length_b   11.17300600
_cell_length_c   11.49312100
_cell_angle_alpha   90.00000000
_cell_angle_beta   90.00000000
_cell_angle_gamma   90.00000000
_symmetry_Int_Tables_number   1
_chemical_formula_structural   BaSiHgSe4
_chemical_formula_sum   'Ba4 Si4 Hg4 Se16'
_cell_volume   867.13866990
_cell_formula_units_Z   4
loop_
 _symmetry_equiv_pos_site_id
 _symmetry_equiv_pos_as_xyz
  1  'x, y, z'
loop_
 _atom_site_type_symbol
 _atom_site_label
 _atom_site_symmetry_multiplicity
 _atom_site_fract_x
 _atom_site_fract_y
 _atom_site_fract_z
 _atom_site_occupancy
  Ba  Ba0  1  0.056463  0.000000  0.500000  1
  Ba  Ba1  1  0.556463  0.500000  0.000000  1
  Ba  Ba2  1  0.061079  0.000000  0.000000  1
  Ba  Ba3  1  0.561079  0.500000  0.500000  1
  Si  Si4  1  0.042028  0.283770  0.249312  1
  Si  Si5  1  0.042028  0.716230  0.750688  1
  Si  Si6  1  0.542028  0.216230  0.749312  1
  Si  Si7  1  0.542028  0.783770  0.250688  1
  Hg  Hg8  1  0.492175  0.167787  0.254244  1
  Hg  Hg9  1  0.492175  0.832213  0.745756  1
  Hg  Hg10  1  0.992175  0.332213  0.754244  1
  Hg  Hg11  1  0.992175  0.667787  0.245756  1
  Se  Se12  1  0.246621  0.272555  0.088622  1
  Se  Se13  1  0.246621  0.727445  0.911378  1
  Se  Se14  1  0.746621  0.227445  0.588622  1
  Se  Se15  1  0.746621  0.772555  0.411378  1
  Se  Se16  1  0.242850  0.274442  0.412327  1
  Se  Se17  1  0.242850  0.725558  0.587673  1
  Se  Se18  1  0.742850  0.225558  0.912327  1
  Se  Se19  1  0.742850  0.774442  0.087673  1
  Se  Se20  1  0.862141  0.105493  0.249272  1
  Se  Se21  1  0.862141  0.894507  0.750728  1
  Se  Se22  1  0.362141  0.394507  0.749272  1
  Se  Se23  1  0.362141  0.605493  0.250728  1
  Se  Se24  1  0.815014  0.434392  0.248766  1
  Se  Se25  1  0.815014  0.565608  0.751234  1
  Se  Se26  1  0.315014  0.065608  0.748766  1
  Se  Se27  1  0.315014  0.934392  0.251234  1
