# generated using pymatgen
data_TcTe2F12
_symmetry_space_group_name_H-M   'P 1'
_cell_length_a   5.83664662
_cell_length_b   6.39293299
_cell_length_c   9.11001522
_cell_angle_alpha   69.51424899
_cell_angle_beta   74.31317679
_cell_angle_gamma   62.65933265
_symmetry_Int_Tables_number   1
_chemical_formula_structural   TcTe2F12
_chemical_formula_sum   'Tc1 Te2 F12'
_cell_volume   280.39029513
_cell_formula_units_Z   1
loop_
 _symmetry_equiv_pos_site_id
 _symmetry_equiv_pos_as_xyz
  1  'x, y, z'
loop_
 _atom_site_type_symbol
 _atom_site_label
 _atom_site_symmetry_multiplicity
 _atom_site_fract_x
 _atom_site_fract_y
 _atom_site_fract_z
 _atom_site_occupancy
  Tc  Tc0  1  0.000000  0.000000  0.000000  1
  Te  Te1  1  0.754769  0.741340  0.760702  1
  Te  Te2  1  0.245231  0.258660  0.239298  1
  F  F3  1  0.005829  0.704117  0.580596  1
  F  F4  1  0.994171  0.295883  0.419404  1
  F  F5  1  0.590672  0.591084  0.703862  1
  F  F6  1  0.381373  0.819619  0.962472  1
  F  F7  1  0.618627  0.180381  0.037528  1
  F  F8  1  0.038857  0.028197  0.199451  1
  F  F9  1  0.961143  0.971803  0.800549  1
  F  F10  1  0.035597  0.311751  0.893020  1
  F  F11  1  0.964403  0.688249  0.106980  1
  F  F12  1  0.459222  0.949994  0.353278  1
  F  F13  1  0.540778  0.050006  0.646722  1
  F  F14  1  0.409328  0.408916  0.296138  1
