# generated using pymatgen
data_DyY19(IrRh5)2
_symmetry_space_group_name_H-M   'P 1'
_cell_length_a   10.94567500
_cell_length_b   10.94639801
_cell_length_c   6.38439501
_cell_angle_alpha   90.00560030
_cell_angle_beta   90.00094390
_cell_angle_gamma   89.99987442
_symmetry_Int_Tables_number   1
_chemical_formula_structural   DyY19(IrRh5)2
_chemical_formula_sum   'Dy1 Y19 Ir2 Rh10'
_cell_volume   764.95084993
_cell_formula_units_Z   1
loop_
 _symmetry_equiv_pos_site_id
 _symmetry_equiv_pos_as_xyz
  1  'x, y, z'
loop_
 _atom_site_type_symbol
 _atom_site_label
 _atom_site_symmetry_multiplicity
 _atom_site_fract_x
 _atom_site_fract_y
 _atom_site_fract_z
 _atom_site_occupancy
  Dy  Dy0  1  0.499627  0.500239  0.499947  1
  Y  Y1  1  0.291246  0.090192  0.378955  1
  Y  Y2  1  0.291239  0.909717  0.878912  1
  Y  Y3  1  0.708779  0.088793  0.878778  1
  Y  Y4  1  0.708778  0.911299  0.378807  1
  Y  Y5  1  0.587514  0.790522  0.878917  1
  Y  Y6  1  0.587425  0.209508  0.378912  1
  Y  Y7  1  0.410682  0.790647  0.379737  1
  Y  Y8  1  0.410604  0.209329  0.879771  1
  Y  Y9  1  0.210111  0.412207  0.620394  1
  Y  Y10  1  0.210091  0.587885  0.120378  1
  Y  Y11  1  0.791302  0.410954  0.120884  1
  Y  Y12  1  0.791272  0.588974  0.620908  1
  Y  Y13  1  0.911260  0.708960  0.121067  1
  Y  Y14  1  0.911348  0.291044  0.621026  1
  Y  Y15  1  0.090324  0.708544  0.621270  1
  Y  Y16  1  0.090422  0.291451  0.121309  1
  Y  Y17  1  0.999926  0.999768  0.500021  1
  Y  Y18  1  0.999932  0.000233  0.000023  1
  Y  Y19  1  0.499701  0.499763  0.999947  1
  Ir  Ir20  1  0.346247  0.345610  0.250447  1
  Ir  Ir21  1  0.346216  0.654351  0.749437  1
  Rh  Rh22  1  0.845835  0.153845  0.250216  1
  Rh  Rh23  1  0.845843  0.846146  0.750087  1
  Rh  Rh24  1  0.153243  0.153532  0.749738  1
  Rh  Rh25  1  0.153249  0.846472  0.249870  1
  Rh  Rh26  1  0.654445  0.346129  0.749686  1
  Rh  Rh27  1  0.654427  0.653877  0.250484  1
  Rh  Rh28  1  0.500491  0.999802  0.125002  1
  Rh  Rh29  1  0.500486  0.000202  0.624938  1
  Rh  Rh30  1  0.998966  0.499924  0.875034  1
  Rh  Rh31  1  0.998970  0.500082  0.375102  1
