# generated using pymatgen
data_Tb9Y7(ErPb4)4
_symmetry_space_group_name_H-M   'P 1'
_cell_length_a   8.22043527
_cell_length_b   8.30714820
_cell_length_c   15.70437301
_cell_angle_alpha   90.00103853
_cell_angle_beta   90.01132468
_cell_angle_gamma   90.04020918
_symmetry_Int_Tables_number   1
_chemical_formula_structural   Tb9Y7(ErPb4)4
_chemical_formula_sum   'Tb9 Y7 Er4 Pb16'
_cell_volume   1072.42581374
_cell_formula_units_Z   1
loop_
 _symmetry_equiv_pos_site_id
 _symmetry_equiv_pos_as_xyz
  1  'x, y, z'
loop_
 _atom_site_type_symbol
 _atom_site_label
 _atom_site_symmetry_multiplicity
 _atom_site_fract_x
 _atom_site_fract_y
 _atom_site_fract_z
 _atom_site_occupancy
  Tb  Tb0  1  0.876726  0.659384  0.879541  1
  Tb  Tb1  1  0.534138  0.322928  0.900125  1
  Tb  Tb2  1  0.034274  0.176842  0.599777  1
  Tb  Tb3  1  0.465805  0.676894  0.400058  1
  Tb  Tb4  1  0.965663  0.823403  0.100267  1
  Tb  Tb5  1  0.465971  0.676722  0.099998  1
  Tb  Tb6  1  0.965707  0.823187  0.400039  1
  Tb  Tb7  1  0.534072  0.323047  0.599873  1
  Tb  Tb8  1  0.034267  0.176657  0.899996  1
  Y  Y9  1  0.376286  0.840953  0.879068  1
  Y  Y10  1  0.876358  0.658926  0.620820  1
  Y  Y11  1  0.623656  0.158890  0.379137  1
  Y  Y12  1  0.123517  0.341183  0.120819  1
  Y  Y13  1  0.623328  0.158855  0.121225  1
  Y  Y14  1  0.123565  0.340983  0.379121  1
  Y  Y15  1  0.376539  0.841099  0.620703  1
  Er  Er16  1  0.208455  0.503967  0.749919  1
  Er  Er17  1  0.708349  0.996058  0.749846  1
  Er  Er18  1  0.791626  0.495728  0.250140  1
  Er  Er19  1  0.291560  0.004139  0.249967  1
  Pb  Pb20  1  0.281939  0.033692  0.042991  1
  Pb  Pb21  1  0.782096  0.466319  0.456939  1
  Pb  Pb22  1  0.717952  0.966232  0.542981  1
  Pb  Pb23  1  0.218696  0.533425  0.956873  1
  Pb  Pb24  1  0.717478  0.966694  0.956835  1
  Pb  Pb25  1  0.217795  0.533736  0.543044  1
  Pb  Pb26  1  0.282037  0.033751  0.456889  1
  Pb  Pb27  1  0.782104  0.466258  0.043287  1
  Pb  Pb28  1  0.571289  0.626287  0.749816  1
  Pb  Pb29  1  0.071453  0.873996  0.749782  1
  Pb  Pb30  1  0.428628  0.373819  0.250082  1
  Pb  Pb31  1  0.928761  0.126347  0.250025  1
  Pb  Pb32  1  0.345478  0.153041  0.749943  1
  Pb  Pb33  1  0.845475  0.346583  0.749944  1
  Pb  Pb34  1  0.654465  0.846768  0.250060  1
  Pb  Pb35  1  0.154488  0.653210  0.250070  1
