# generated using pymatgen
data_Er5(CoHg)2
_symmetry_space_group_name_H-M   'P 1'
_cell_length_a   7.80109899
_cell_length_b   7.80109907
_cell_length_c   15.28496600
_cell_angle_alpha   90.00000000
_cell_angle_beta   90.00000000
_cell_angle_gamma   152.91366805
_symmetry_Int_Tables_number   1
_chemical_formula_structural   Er5(CoHg)2
_chemical_formula_sum   'Er10 Co4 Hg4'
_cell_volume   423.55005204
_cell_formula_units_Z   2
loop_
 _symmetry_equiv_pos_site_id
 _symmetry_equiv_pos_as_xyz
  1  'x, y, z'
loop_
 _atom_site_type_symbol
 _atom_site_label
 _atom_site_symmetry_multiplicity
 _atom_site_fract_x
 _atom_site_fract_y
 _atom_site_fract_z
 _atom_site_occupancy
  Er  Er0  1  0.607882  0.392118  0.250000  1
  Er  Er1  1  0.744955  0.255045  0.628945  1
  Er  Er2  1  0.961208  0.038792  0.126059  1
  Er  Er3  1  0.038792  0.961208  0.873941  1
  Er  Er4  1  0.392118  0.607882  0.750000  1
  Er  Er5  1  0.961208  0.038792  0.373941  1
  Er  Er6  1  0.038792  0.961208  0.626059  1
  Er  Er7  1  0.255045  0.744955  0.128945  1
  Er  Er8  1  0.255045  0.744955  0.371055  1
  Er  Er9  1  0.744955  0.255045  0.871055  1
  Co  Co10  1  0.409232  0.590768  0.250000  1
  Co  Co11  1  0.590768  0.409232  0.750000  1
  Co  Co12  1  0.813165  0.186835  0.250000  1
  Co  Co13  1  0.186835  0.813165  0.750000  1
  Hg  Hg14  1  0.611661  0.388339  0.032149  1
  Hg  Hg15  1  0.611661  0.388339  0.467851  1
  Hg  Hg16  1  0.388339  0.611661  0.532149  1
  Hg  Hg17  1  0.388339  0.611661  0.967851  1
