# generated using pymatgen
data_CeScCrB6
_symmetry_space_group_name_H-M   'P 1'
_cell_length_a   3.52542000
_cell_length_b   9.04410700
_cell_length_c   11.45013000
_cell_angle_alpha   90.00000000
_cell_angle_beta   90.00000000
_cell_angle_gamma   90.00000000
_symmetry_Int_Tables_number   1
_chemical_formula_structural   CeScCrB6
_chemical_formula_sum   'Ce4 Sc4 Cr4 B24'
_cell_volume   365.07910172
_cell_formula_units_Z   4
loop_
 _symmetry_equiv_pos_site_id
 _symmetry_equiv_pos_as_xyz
  1  'x, y, z'
loop_
 _atom_site_type_symbol
 _atom_site_label
 _atom_site_symmetry_multiplicity
 _atom_site_fract_x
 _atom_site_fract_y
 _atom_site_fract_z
 _atom_site_occupancy
  Ce  Ce0  1  0.000000  0.821878  0.084947  1
  Ce  Ce1  1  0.000000  0.178122  0.915053  1
  Ce  Ce2  1  0.000000  0.321878  0.415053  1
  Ce  Ce3  1  0.000000  0.678122  0.584947  1
  Sc  Sc4  1  0.000000  0.444411  0.129411  1
  Sc  Sc5  1  0.000000  0.555589  0.870589  1
  Sc  Sc6  1  0.000000  0.944411  0.370589  1
  Sc  Sc7  1  0.000000  0.055589  0.629411  1
  Cr  Cr8  1  0.000000  0.141643  0.182414  1
  Cr  Cr9  1  0.000000  0.858357  0.817586  1
  Cr  Cr10  1  0.000000  0.641643  0.317586  1
  Cr  Cr11  1  0.000000  0.358357  0.682414  1
  B  B12  1  0.500000  0.056201  0.070276  1
  B  B13  1  0.500000  0.943799  0.929724  1
  B  B14  1  0.500000  0.556201  0.429724  1
  B  B15  1  0.500000  0.443799  0.570276  1
  B  B16  1  0.500000  0.253416  0.083895  1
  B  B17  1  0.500000  0.746584  0.916105  1
  B  B18  1  0.500000  0.753416  0.416105  1
  B  B19  1  0.500000  0.246584  0.583895  1
  B  B20  1  0.500000  0.293854  0.234947  1
  B  B21  1  0.500000  0.706146  0.765053  1
  B  B22  1  0.500000  0.793854  0.265053  1
  B  B23  1  0.500000  0.206146  0.734947  1
  B  B24  1  0.500000  0.129375  0.316218  1
  B  B25  1  0.500000  0.870625  0.683782  1
  B  B26  1  0.500000  0.629375  0.183782  1
  B  B27  1  0.500000  0.370625  0.816218  1
  B  B28  1  0.500000  0.483423  0.285375  1
  B  B29  1  0.500000  0.516577  0.714625  1
  B  B30  1  0.500000  0.983423  0.214625  1
  B  B31  1  0.500000  0.016577  0.785375  1
  B  B32  1  0.500000  0.096746  0.474024  1
  B  B33  1  0.500000  0.903254  0.525976  1
  B  B34  1  0.500000  0.596746  0.025976  1
  B  B35  1  0.500000  0.403254  0.974024  1
