# generated using pymatgen
data_Er11Tm(Si3Pt)4
_symmetry_space_group_name_H-M   'P 1'
_cell_length_a   4.22518900
_cell_length_b   10.60350804
_cell_length_c   12.23521104
_cell_angle_alpha   89.99069140
_cell_angle_beta   90.00000000
_cell_angle_gamma   90.00000000
_symmetry_Int_Tables_number   1
_chemical_formula_structural   Er11Tm(Si3Pt)4
_chemical_formula_sum   'Er11 Tm1 Si12 Pt4'
_cell_volume   548.15978288
_cell_formula_units_Z   1
loop_
 _symmetry_equiv_pos_site_id
 _symmetry_equiv_pos_as_xyz
  1  'x, y, z'
loop_
 _atom_site_type_symbol
 _atom_site_label
 _atom_site_symmetry_multiplicity
 _atom_site_fract_x
 _atom_site_fract_y
 _atom_site_fract_z
 _atom_site_occupancy
  Er  Er0  1  0.250000  0.878071  0.020534  1
  Er  Er1  1  0.250000  0.621974  0.520563  1
  Er  Er2  1  0.750000  0.121985  0.979307  1
  Er  Er3  1  0.750000  0.377962  0.479508  1
  Er  Er4  1  0.250000  0.919626  0.601633  1
  Er  Er5  1  0.250000  0.580513  0.101584  1
  Er  Er6  1  0.750000  0.080503  0.398529  1
  Er  Er7  1  0.750000  0.419399  0.898328  1
  Er  Er8  1  0.250000  0.660149  0.801035  1
  Er  Er9  1  0.250000  0.839874  0.301032  1
  Er  Er10  1  0.750000  0.339851  0.198961  1
  Tm  Tm11  1  0.750000  0.160237  0.699050  1
  Si  Si12  1  0.250000  0.016210  0.823320  1
  Si  Si13  1  0.250000  0.483981  0.323496  1
  Si  Si14  1  0.750000  0.983998  0.176517  1
  Si  Si15  1  0.750000  0.516049  0.676495  1
  Si  Si16  1  0.250000  0.245803  0.843071  1
  Si  Si17  1  0.250000  0.254033  0.343390  1
  Si  Si18  1  0.750000  0.754032  0.156669  1
  Si  Si19  1  0.750000  0.745955  0.656674  1
  Si  Si20  1  0.250000  0.192891  0.541819  1
  Si  Si21  1  0.250000  0.306975  0.041300  1
  Si  Si22  1  0.750000  0.806949  0.458665  1
  Si  Si23  1  0.750000  0.692999  0.958639  1
  Pt  Pt24  1  0.250000  0.388815  0.680193  1
  Pt  Pt25  1  0.250000  0.111077  0.180222  1
  Pt  Pt26  1  0.750000  0.611060  0.319786  1
  Pt  Pt27  1  0.750000  0.889030  0.819680  1
