# generated using pymatgen
data_Y3Er3Th2(MgIr)2
_symmetry_space_group_name_H-M   'P 1'
_cell_length_a   9.79150519
_cell_length_b   9.79150577
_cell_length_c   9.79150600
_cell_angle_alpha   59.99999922
_cell_angle_beta   59.99999726
_cell_angle_gamma   60.00000014
_symmetry_Int_Tables_number   1
_chemical_formula_structural   Y3Er3Th2(MgIr)2
_chemical_formula_sum   'Y6 Er6 Th4 Mg4 Ir4'
_cell_volume   663.79416120
_cell_formula_units_Z   2
loop_
 _symmetry_equiv_pos_site_id
 _symmetry_equiv_pos_as_xyz
  1  'x, y, z'
loop_
 _atom_site_type_symbol
 _atom_site_label
 _atom_site_symmetry_multiplicity
 _atom_site_fract_x
 _atom_site_fract_y
 _atom_site_fract_z
 _atom_site_occupancy
  Y  Y0  1  0.185486  0.814514  0.814514  1
  Y  Y1  1  0.814514  0.185486  0.185486  1
  Y  Y2  1  0.814514  0.185486  0.814514  1
  Y  Y3  1  0.185486  0.814514  0.185486  1
  Y  Y4  1  0.814514  0.814514  0.185486  1
  Y  Y5  1  0.185486  0.185486  0.814514  1
  Er  Er6  1  0.063419  0.436581  0.436581  1
  Er  Er7  1  0.436581  0.063419  0.063419  1
  Er  Er8  1  0.436581  0.063419  0.436581  1
  Er  Er9  1  0.063419  0.436581  0.063419  1
  Er  Er10  1  0.436581  0.436581  0.063419  1
  Er  Er11  1  0.063419  0.063419  0.436581  1
  Th  Th12  1  0.598200  0.598200  0.598200  1
  Th  Th13  1  0.598200  0.598200  0.205400  1
  Th  Th14  1  0.598200  0.205400  0.598200  1
  Th  Th15  1  0.205400  0.598200  0.598200  1
  Mg  Mg16  1  0.830413  0.830413  0.830413  1
  Mg  Mg17  1  0.830413  0.830413  0.508762  1
  Mg  Mg18  1  0.830413  0.508762  0.830413  1
  Mg  Mg19  1  0.508762  0.830413  0.830413  1
  Ir  Ir20  1  0.392786  0.392786  0.392786  1
  Ir  Ir21  1  0.392786  0.392786  0.821642  1
  Ir  Ir22  1  0.392786  0.821642  0.392786  1
  Ir  Ir23  1  0.821642  0.392786  0.392786  1
