# generated using pymatgen
data_La3Nd13Cd4IrPd3
_symmetry_space_group_name_H-M   'P 1'
_cell_length_a   10.07543779
_cell_length_b   10.04253228
_cell_length_c   10.04253200
_cell_angle_alpha   60.00000091
_cell_angle_beta   60.10797780
_cell_angle_gamma   60.10797822
_symmetry_Int_Tables_number   1
_chemical_formula_structural   La3Nd13Cd4IrPd3
_chemical_formula_sum   'La3 Nd13 Cd4 Ir1 Pd3'
_cell_volume   719.68470518
_cell_formula_units_Z   1
loop_
 _symmetry_equiv_pos_site_id
 _symmetry_equiv_pos_as_xyz
  1  'x, y, z'
loop_
 _atom_site_type_symbol
 _atom_site_label
 _atom_site_symmetry_multiplicity
 _atom_site_fract_x
 _atom_site_fract_y
 _atom_site_fract_z
 _atom_site_occupancy
  La  La0  1  0.351828  0.347099  0.347099  1
  La  La1  1  0.351828  0.347099  0.953974  1
  La  La2  1  0.351828  0.953974  0.347099  1
  Nd  Nd3  1  0.938278  0.353907  0.353907  1
  Nd  Nd4  1  0.807233  0.189482  0.189482  1
  Nd  Nd5  1  0.195697  0.807744  0.807744  1
  Nd  Nd6  1  0.195697  0.807744  0.188814  1
  Nd  Nd7  1  0.807233  0.189482  0.813802  1
  Nd  Nd8  1  0.195697  0.188814  0.807744  1
  Nd  Nd9  1  0.807233  0.813802  0.189482  1
  Nd  Nd10  1  0.935635  0.565721  0.565721  1
  Nd  Nd11  1  0.569194  0.934857  0.934857  1
  Nd  Nd12  1  0.569194  0.934857  0.561092  1
  Nd  Nd13  1  0.935635  0.565721  0.932923  1
  Nd  Nd14  1  0.569194  0.561092  0.934857  1
  Nd  Nd15  1  0.935635  0.932923  0.565721  1
  Cd  Cd16  1  0.578934  0.580700  0.580700  1
  Cd  Cd17  1  0.578934  0.580700  0.259665  1
  Cd  Cd18  1  0.578934  0.259665  0.580700  1
  Cd  Cd19  1  0.260832  0.579722  0.579722  1
  Ir  Ir20  1  0.571210  0.142930  0.142930  1
  Pd  Pd21  1  0.138039  0.144746  0.144746  1
  Pd  Pd22  1  0.138039  0.144746  0.572467  1
  Pd  Pd23  1  0.138039  0.572467  0.144746  1
