# generated using pymatgen
data_Ce2Os3Ru
_symmetry_space_group_name_H-M   'P 1'
_cell_length_a   5.30733700
_cell_length_b   5.30733790
_cell_length_c   9.07788500
_cell_angle_alpha   90.00000000
_cell_angle_beta   90.00000000
_cell_angle_gamma   119.99998814
_symmetry_Int_Tables_number   1
_chemical_formula_structural   Ce2Os3Ru
_chemical_formula_sum   'Ce4 Os6 Ru2'
_cell_volume   221.44647118
_cell_formula_units_Z   2
loop_
 _symmetry_equiv_pos_site_id
 _symmetry_equiv_pos_as_xyz
  1  'x, y, z'
loop_
 _atom_site_type_symbol
 _atom_site_label
 _atom_site_symmetry_multiplicity
 _atom_site_fract_x
 _atom_site_fract_y
 _atom_site_fract_z
 _atom_site_occupancy
  Ce  Ce0  1  0.333333  0.666667  0.929158  1
  Ce  Ce1  1  0.666667  0.333333  0.070842  1
  Ce  Ce2  1  0.666667  0.333333  0.429158  1
  Ce  Ce3  1  0.333333  0.666667  0.570842  1
  Os  Os4  1  0.829704  0.170296  0.750000  1
  Os  Os5  1  0.829704  0.659408  0.750000  1
  Os  Os6  1  0.340592  0.170296  0.750000  1
  Os  Os7  1  0.170296  0.829704  0.250000  1
  Os  Os8  1  0.170296  0.340592  0.250000  1
  Os  Os9  1  0.659408  0.829704  0.250000  1
  Ru  Ru10  1  0.000000  0.000000  0.000000  1
  Ru  Ru11  1  0.000000  0.000000  0.500000  1
