# generated using pymatgen
data_Ho5Hf3(Co4As3)4
_symmetry_space_group_name_H-M   'P 1'
_cell_length_a   12.71029100
_cell_length_b   12.71029184
_cell_length_c   3.82346300
_cell_angle_alpha   90.00000000
_cell_angle_beta   90.00000000
_cell_angle_gamma   120.00000562
_symmetry_Int_Tables_number   1
_chemical_formula_structural   Ho5Hf3(Co4As3)4
_chemical_formula_sum   'Ho5 Hf3 Co16 As12'
_cell_volume   534.93192206
_cell_formula_units_Z   1
loop_
 _symmetry_equiv_pos_site_id
 _symmetry_equiv_pos_as_xyz
  1  'x, y, z'
loop_
 _atom_site_type_symbol
 _atom_site_label
 _atom_site_symmetry_multiplicity
 _atom_site_fract_x
 _atom_site_fract_y
 _atom_site_fract_z
 _atom_site_occupancy
  Ho  Ho0  1  0.182862  0.182862  0.500000  1
  Ho  Ho1  1  0.817138  0.000000  0.500000  1
  Ho  Ho2  1  0.000000  0.817138  0.500000  1
  Ho  Ho3  1  0.333333  0.666667  0.000000  1
  Ho  Ho4  1  0.666667  0.333333  0.000000  1
  Hf  Hf5  1  0.561193  0.561193  0.000000  1
  Hf  Hf6  1  0.438807  0.000000  0.000000  1
  Hf  Hf7  1  0.000000  0.438807  0.000000  1
  Co  Co8  1  0.718354  0.718354  0.500000  1
  Co  Co9  1  0.281646  0.000000  0.500000  1
  Co  Co10  1  0.000000  0.281646  0.500000  1
  Co  Co11  1  0.177094  0.374232  0.000000  1
  Co  Co12  1  0.625768  0.802862  0.000000  1
  Co  Co13  1  0.197138  0.822906  0.000000  1
  Co  Co14  1  0.802862  0.625768  0.000000  1
  Co  Co15  1  0.822906  0.197138  0.000000  1
  Co  Co16  1  0.374232  0.177094  0.000000  1
  Co  Co17  1  0.357944  0.480445  0.500000  1
  Co  Co18  1  0.519555  0.877500  0.500000  1
  Co  Co19  1  0.122500  0.642056  0.500000  1
  Co  Co20  1  0.877500  0.519555  0.500000  1
  Co  Co21  1  0.642056  0.122500  0.500000  1
  Co  Co22  1  0.480445  0.357944  0.500000  1
  Co  Co23  1  0.000000  0.000000  0.000000  1
  As  As24  1  0.822801  0.822801  0.000000  1
  As  As25  1  0.177199  0.000000  0.000000  1
  As  As26  1  0.000000  0.177199  0.000000  1
  As  As27  1  0.173338  0.482631  0.500000  1
  As  As28  1  0.517369  0.690708  0.500000  1
  As  As29  1  0.309292  0.826662  0.500000  1
  As  As30  1  0.690708  0.517369  0.500000  1
  As  As31  1  0.826662  0.309292  0.500000  1
  As  As32  1  0.482631  0.173338  0.500000  1
  As  As33  1  0.352146  0.352146  0.000000  1
  As  As34  1  0.647854  0.000000  0.000000  1
  As  As35  1  0.000000  0.647854  0.000000  1
