# generated using pymatgen
data_Al13RuPt12
_symmetry_space_group_name_H-M   'P 1'
_cell_length_a   5.36013603
_cell_length_b   9.25324676
_cell_length_c   9.25324816
_cell_angle_alpha   116.36412637
_cell_angle_beta   101.13318785
_cell_angle_gamma   101.13317287
_symmetry_Int_Tables_number   1
_chemical_formula_structural   Al13RuPt12
_chemical_formula_sum   'Al13 Ru1 Pt12'
_cell_volume   382.64237049
_cell_formula_units_Z   1
loop_
 _symmetry_equiv_pos_site_id
 _symmetry_equiv_pos_as_xyz
  1  'x, y, z'
loop_
 _atom_site_type_symbol
 _atom_site_label
 _atom_site_symmetry_multiplicity
 _atom_site_fract_x
 _atom_site_fract_y
 _atom_site_fract_z
 _atom_site_occupancy
  Al  Al0  1  0.000000  0.000000  0.000000  1
  Al  Al1  1  0.442872  0.286507  0.041132  1
  Al  Al2  1  0.247961  0.597955  0.154662  1
  Al  Al3  1  0.401739  0.958867  0.245374  1
  Al  Al4  1  0.843635  0.245375  0.286507  1
  Al  Al5  1  0.650005  0.556707  0.402045  1
  Al  Al6  1  0.093299  0.845338  0.443292  1
  Al  Al7  1  0.906701  0.154662  0.556707  1
  Al  Al8  1  0.349996  0.443293  0.597955  1
  Al  Al9  1  0.156365  0.754625  0.713492  1
  Al  Al10  1  0.598259  0.041131  0.754625  1
  Al  Al11  1  0.752037  0.402044  0.845337  1
  Al  Al12  1  0.557129  0.713493  0.958868  1
  Ru  Ru13  1  0.500001  0.000000  0.000000  1
  Pt  Pt14  1  0.937427  0.285742  0.036932  1
  Pt  Pt15  1  0.743896  0.595917  0.152910  1
  Pt  Pt16  1  0.900494  0.963068  0.248810  1
  Pt  Pt17  1  0.348315  0.248809  0.285741  1
  Pt  Pt18  1  0.147979  0.556993  0.404083  1
  Pt  Pt19  1  0.590985  0.847090  0.443007  1
  Pt  Pt20  1  0.409013  0.152909  0.556993  1
  Pt  Pt21  1  0.852021  0.443007  0.595917  1
  Pt  Pt22  1  0.651685  0.751191  0.714258  1
  Pt  Pt23  1  0.099504  0.036931  0.751189  1
  Pt  Pt24  1  0.256105  0.404083  0.847089  1
  Pt  Pt25  1  0.062574  0.714258  0.963068  1
