# generated using pymatgen
data_TmTh3(Ge2Ir)4
_symmetry_space_group_name_H-M   'P 1'
_cell_length_a   9.52311550
_cell_length_b   9.52311420
_cell_length_c   9.52311411
_cell_angle_alpha   153.31525585
_cell_angle_beta   124.11132911
_cell_angle_gamma   62.98050027
_symmetry_Int_Tables_number   1
_chemical_formula_structural   TmTh3(Ge2Ir)4
_chemical_formula_sum   'Tm1 Th3 Ge8 Ir4'
_cell_volume   318.56721639
_cell_formula_units_Z   1
loop_
 _symmetry_equiv_pos_site_id
 _symmetry_equiv_pos_as_xyz
  1  'x, y, z'
loop_
 _atom_site_type_symbol
 _atom_site_label
 _atom_site_symmetry_multiplicity
 _atom_site_fract_x
 _atom_site_fract_y
 _atom_site_fract_z
 _atom_site_occupancy
  Tm  Tm0  1  0.705410  0.205410  0.500000  1
  Th  Th1  1  0.292939  0.792939  0.500000  1
  Th  Th2  1  0.272888  0.001061  0.271827  1
  Th  Th3  1  0.729234  0.001061  0.728173  1
  Ge  Ge4  1  0.580151  0.580151  0.000000  1
  Ge  Ge5  1  0.949033  0.799055  0.149977  1
  Ge  Ge6  1  0.649078  0.799055  0.850023  1
  Ge  Ge7  1  0.038262  0.198643  0.839619  1
  Ge  Ge8  1  0.922093  0.422093  0.500000  1
  Ge  Ge9  1  0.425286  0.425286  0.000000  1
  Ge  Ge10  1  0.076541  0.576541  0.500000  1
  Ge  Ge11  1  0.359024  0.198643  0.160381  1
  Ir  Ir12  1  0.899496  0.646885  0.252609  1
  Ir  Ir13  1  0.099624  0.353145  0.746478  1
  Ir  Ir14  1  0.606665  0.353145  0.253522  1
  Ir  Ir15  1  0.394277  0.646885  0.747391  1
