# generated using pymatgen
data_Ho(P2Ru3)2
_symmetry_space_group_name_H-M   'P 1'
_cell_length_a   6.94129100
_cell_length_b   6.94129045
_cell_length_c   3.74291600
_cell_angle_alpha   90.00000000
_cell_angle_beta   90.00000000
_cell_angle_gamma   119.99999783
_symmetry_Int_Tables_number   1
_chemical_formula_structural   Ho(P2Ru3)2
_chemical_formula_sum   'Ho1 P4 Ru6'
_cell_volume   156.17847977
_cell_formula_units_Z   1
loop_
 _symmetry_equiv_pos_site_id
 _symmetry_equiv_pos_as_xyz
  1  'x, y, z'
loop_
 _atom_site_type_symbol
 _atom_site_label
 _atom_site_symmetry_multiplicity
 _atom_site_fract_x
 _atom_site_fract_y
 _atom_site_fract_z
 _atom_site_occupancy
  Ho  Ho0  1  0.000000  0.000000  0.000000  1
  P  P1  1  0.189890  0.379779  0.500000  1
  P  P2  1  0.620221  0.810110  0.500000  1
  P  P3  1  0.189890  0.810110  0.500000  1
  P  P4  1  0.666667  0.333333  0.000000  1
  Ru  Ru5  1  0.801142  0.602285  0.500000  1
  Ru  Ru6  1  0.397715  0.198858  0.500000  1
  Ru  Ru7  1  0.801142  0.198858  0.500000  1
  Ru  Ru8  1  0.465115  0.930230  0.000000  1
  Ru  Ru9  1  0.069770  0.534885  0.000000  1
  Ru  Ru10  1  0.465115  0.534885  0.000000  1
