# generated using pymatgen
data_Y4MgCo17(P6Ru)2
_symmetry_space_group_name_H-M   'P 1'
_cell_length_a   3.69486200
_cell_length_b   10.38406744
_cell_length_c   11.85692480
_cell_angle_alpha   90.10720686
_cell_angle_beta   90.00000000
_cell_angle_gamma   90.00000000
_symmetry_Int_Tables_number   1
_chemical_formula_structural   Y4MgCo17(P6Ru)2
_chemical_formula_sum   'Y4 Mg1 Co17 P12 Ru2'
_cell_volume   454.92209216
_cell_formula_units_Z   1
loop_
 _symmetry_equiv_pos_site_id
 _symmetry_equiv_pos_as_xyz
  1  'x, y, z'
loop_
 _atom_site_type_symbol
 _atom_site_label
 _atom_site_symmetry_multiplicity
 _atom_site_fract_x
 _atom_site_fract_y
 _atom_site_fract_z
 _atom_site_occupancy
  Y  Y0  1  0.250000  0.914674  0.201170  1
  Y  Y1  1  0.750000  0.082399  0.798741  1
  Y  Y2  1  0.750000  0.416468  0.294820  1
  Y  Y3  1  0.250000  0.583163  0.706634  1
  Mg  Mg4  1  0.250000  0.795141  0.490230  1
  Co  Co5  1  0.250000  0.716360  0.992601  1
  Co  Co6  1  0.250000  0.091647  0.990651  1
  Co  Co7  1  0.750000  0.906519  0.013756  1
  Co  Co8  1  0.750000  0.591045  0.512759  1
  Co  Co9  1  0.250000  0.405003  0.488666  1
  Co  Co10  1  0.250000  0.277741  0.676931  1
  Co  Co11  1  0.750000  0.719728  0.320627  1
  Co  Co12  1  0.750000  0.780083  0.829483  1
  Co  Co13  1  0.250000  0.222093  0.175963  1
  Co  Co14  1  0.250000  0.614165  0.196503  1
  Co  Co15  1  0.750000  0.386720  0.797839  1
  Co  Co16  1  0.750000  0.116455  0.297797  1
  Co  Co17  1  0.250000  0.884623  0.702426  1
  Co  Co18  1  0.250000  0.036771  0.431262  1
  Co  Co19  1  0.750000  0.964778  0.566483  1
  Co  Co20  1  0.750000  0.534217  0.066358  1
  Co  Co21  1  0.250000  0.466799  0.930644  1
  P  P22  1  0.250000  0.078834  0.613496  1
  P  P23  1  0.750000  0.923197  0.381055  1
  P  P24  1  0.750000  0.582121  0.888974  1
  P  P25  1  0.250000  0.420483  0.110875  1
  P  P26  1  0.250000  0.231058  0.365938  1
  P  P27  1  0.750000  0.771678  0.643226  1
  P  P28  1  0.750000  0.727590  0.130500  1
  P  P29  1  0.250000  0.271634  0.866662  1
  P  P30  1  0.250000  0.898327  0.895276  1
  P  P31  1  0.750000  0.096510  0.109221  1
  P  P32  1  0.750000  0.403091  0.608714  1
  P  P33  1  0.250000  0.593887  0.386984  1
  Ru  Ru34  1  0.750000  0.210677  0.509837  1
  Ru  Ru35  1  0.750000  0.284327  0.006899  1
