# generated using pymatgen
data_Yb11SmPdRu3
_symmetry_space_group_name_H-M   'P 1'
_cell_length_a   6.27150400
_cell_length_b   7.67884002
_cell_length_c   9.29546900
_cell_angle_alpha   90.00000000
_cell_angle_beta   90.00000000
_cell_angle_gamma   90.26319840
_symmetry_Int_Tables_number   1
_chemical_formula_structural   Yb11SmPdRu3
_chemical_formula_sum   'Yb11 Sm1 Pd1 Ru3'
_cell_volume   447.64531935
_cell_formula_units_Z   1
loop_
 _symmetry_equiv_pos_site_id
 _symmetry_equiv_pos_as_xyz
  1  'x, y, z'
loop_
 _atom_site_type_symbol
 _atom_site_label
 _atom_site_symmetry_multiplicity
 _atom_site_fract_x
 _atom_site_fract_y
 _atom_site_fract_z
 _atom_site_occupancy
  Yb  Yb0  1  0.350593  0.661737  0.063409  1
  Yb  Yb1  1  0.155188  0.175476  0.437039  1
  Yb  Yb2  1  0.654115  0.331695  0.566842  1
  Yb  Yb3  1  0.845183  0.831085  0.930104  1
  Yb  Yb4  1  0.654115  0.331695  0.933158  1
  Yb  Yb5  1  0.845183  0.831085  0.569896  1
  Yb  Yb6  1  0.350593  0.661737  0.436591  1
  Yb  Yb7  1  0.155188  0.175476  0.062961  1
  Yb  Yb8  1  0.865161  0.532099  0.250000  1
  Yb  Yb9  1  0.623194  0.044394  0.250000  1
  Yb  Yb10  1  0.130680  0.460834  0.750000  1
  Sm  Sm11  1  0.370267  0.958099  0.750000  1
  Pd  Pd12  1  0.050141  0.876960  0.250000  1
  Ru  Ru13  1  0.455654  0.375575  0.250000  1
  Ru  Ru14  1  0.959598  0.117304  0.750000  1
  Ru  Ru15  1  0.535147  0.634748  0.750000  1
