# generated using pymatgen
data_EuFe3P12Ir
_symmetry_space_group_name_H-M   'P 1'
_cell_length_a   6.81089708
_cell_length_b   6.83081868
_cell_length_c   6.83081963
_cell_angle_alpha   109.53023221
_cell_angle_beta   109.41216220
_cell_angle_gamma   109.41213975
_symmetry_Int_Tables_number   1
_chemical_formula_structural   EuFe3P12Ir
_chemical_formula_sum   'Eu1 Fe3 P12 Ir1'
_cell_volume   244.81839557
_cell_formula_units_Z   1
loop_
 _symmetry_equiv_pos_site_id
 _symmetry_equiv_pos_as_xyz
  1  'x, y, z'
loop_
 _atom_site_type_symbol
 _atom_site_label
 _atom_site_symmetry_multiplicity
 _atom_site_fract_x
 _atom_site_fract_y
 _atom_site_fract_z
 _atom_site_occupancy
  Eu  Eu0  1  0.000000  0.000000  0.000000  1
  Fe  Fe1  1  0.000000  0.000000  0.500000  1
  Fe  Fe2  1  0.000000  0.500000  0.000000  1
  Fe  Fe3  1  0.500000  0.500000  0.500000  1
  P  P4  1  0.497900  0.843646  0.632441  1
  P  P5  1  0.201157  0.850300  0.351812  1
  P  P6  1  0.798843  0.149700  0.648188  1
  P  P7  1  0.150655  0.351812  0.501512  1
  P  P8  1  0.350856  0.501512  0.149700  1
  P  P9  1  0.502100  0.156354  0.367559  1
  P  P10  1  0.134541  0.632441  0.788794  1
  P  P11  1  0.345746  0.211206  0.843646  1
  P  P12  1  0.849345  0.648188  0.498488  1
  P  P13  1  0.654254  0.788794  0.156354  1
  P  P14  1  0.865459  0.367559  0.211206  1
  P  P15  1  0.649144  0.498488  0.850300  1
  Ir  Ir16  1  0.500000  0.000000  0.000000  1
