# generated using pymatgen
data_Dy3Tm5(AlRu)2
_symmetry_space_group_name_H-M   'P 1'
_cell_length_a   9.44030033
_cell_length_b   9.44030030
_cell_length_c   9.44030100
_cell_angle_alpha   60.00000106
_cell_angle_beta   60.00000116
_cell_angle_gamma   60.00000068
_symmetry_Int_Tables_number   1
_chemical_formula_structural   Dy3Tm5(AlRu)2
_chemical_formula_sum   'Dy6 Tm10 Al4 Ru4'
_cell_volume   594.89795259
_cell_formula_units_Z   2
loop_
 _symmetry_equiv_pos_site_id
 _symmetry_equiv_pos_as_xyz
  1  'x, y, z'
loop_
 _atom_site_type_symbol
 _atom_site_label
 _atom_site_symmetry_multiplicity
 _atom_site_fract_x
 _atom_site_fract_y
 _atom_site_fract_z
 _atom_site_occupancy
  Dy  Dy0  1  0.190280  0.809720  0.809720  1
  Dy  Dy1  1  0.809720  0.190280  0.190280  1
  Dy  Dy2  1  0.809720  0.190280  0.809720  1
  Dy  Dy3  1  0.190280  0.809720  0.190280  1
  Dy  Dy4  1  0.809720  0.809720  0.190280  1
  Dy  Dy5  1  0.190280  0.190280  0.809720  1
  Tm  Tm6  1  0.600881  0.600881  0.600881  1
  Tm  Tm7  1  0.600881  0.600881  0.197356  1
  Tm  Tm8  1  0.600881  0.197356  0.600881  1
  Tm  Tm9  1  0.197356  0.600881  0.600881  1
  Tm  Tm10  1  0.056625  0.443375  0.443375  1
  Tm  Tm11  1  0.443375  0.056625  0.056625  1
  Tm  Tm12  1  0.443375  0.056625  0.443375  1
  Tm  Tm13  1  0.056625  0.443375  0.056625  1
  Tm  Tm14  1  0.443375  0.443375  0.056625  1
  Tm  Tm15  1  0.056625  0.056625  0.443375  1
  Al  Al16  1  0.826650  0.826650  0.826650  1
  Al  Al17  1  0.826650  0.826650  0.520050  1
  Al  Al18  1  0.826650  0.520050  0.826650  1
  Al  Al19  1  0.520050  0.826650  0.826650  1
  Ru  Ru20  1  0.390321  0.390321  0.390321  1
  Ru  Ru21  1  0.390321  0.390321  0.829037  1
  Ru  Ru22  1  0.390321  0.829037  0.390321  1
  Ru  Ru23  1  0.829037  0.390321  0.390321  1
