# generated using pymatgen
data_Co6SiTcMo5
_symmetry_space_group_name_H-M   'P 1'
_cell_length_a   8.85428451
_cell_length_b   8.85428534
_cell_length_c   8.85428574
_cell_angle_alpha   31.09518993
_cell_angle_beta   31.09518119
_cell_angle_gamma   31.09517838
_symmetry_Int_Tables_number   1
_chemical_formula_structural   Co6SiTcMo5
_chemical_formula_sum   'Co6 Si1 Tc1 Mo5'
_cell_volume   164.27826026
_cell_formula_units_Z   1
loop_
 _symmetry_equiv_pos_site_id
 _symmetry_equiv_pos_as_xyz
  1  'x, y, z'
loop_
 _atom_site_type_symbol
 _atom_site_label
 _atom_site_symmetry_multiplicity
 _atom_site_fract_x
 _atom_site_fract_y
 _atom_site_fract_z
 _atom_site_occupancy
  Co  Co0  1  0.090566  0.090566  0.588839  1
  Co  Co1  1  0.413728  0.908132  0.908132  1
  Co  Co2  1  0.588839  0.090566  0.090566  1
  Co  Co3  1  0.908132  0.908132  0.413728  1
  Co  Co4  1  0.908132  0.413728  0.908132  1
  Co  Co5  1  0.090566  0.588839  0.090566  1
  Si  Si6  1  0.000307  0.000307  0.000307  1
  Tc  Tc7  1  0.831471  0.831471  0.831471  1
  Mo  Mo8  1  0.652803  0.652803  0.652803  1
  Mo  Mo9  1  0.451101  0.451101  0.451101  1
  Mo  Mo10  1  0.549079  0.549079  0.549079  1
  Mo  Mo11  1  0.168295  0.168295  0.168295  1
  Mo  Mo12  1  0.346982  0.346982  0.346982  1
