# generated using pymatgen
data_Lu4Ni5(Ge3Ru)2
_symmetry_space_group_name_H-M   'P 1'
_cell_length_a   7.04803008
_cell_length_b   7.04803022
_cell_length_c   7.04803086
_cell_angle_alpha   108.74162307
_cell_angle_beta   109.83724115
_cell_angle_gamma   109.83724888
_symmetry_Int_Tables_number   1
_chemical_formula_structural   Lu4Ni5(Ge3Ru)2
_chemical_formula_sum   'Lu4 Ni5 Ge6 Ru2'
_cell_volume   269.48133561
_cell_formula_units_Z   1
loop_
 _symmetry_equiv_pos_site_id
 _symmetry_equiv_pos_as_xyz
  1  'x, y, z'
loop_
 _atom_site_type_symbol
 _atom_site_label
 _atom_site_symmetry_multiplicity
 _atom_site_fract_x
 _atom_site_fract_y
 _atom_site_fract_z
 _atom_site_occupancy
  Lu  Lu0  1  0.998570  0.999285  0.499285  1
  Lu  Lu1  1  0.001430  0.500715  0.000715  1
  Lu  Lu2  1  0.500000  0.999285  0.000715  1
  Lu  Lu3  1  0.500000  0.500715  0.499285  1
  Ni  Ni4  1  0.753333  0.254018  0.500685  1
  Ni  Ni5  1  0.753333  0.499315  0.252647  1
  Ni  Ni6  1  0.500000  0.250000  0.750000  1
  Ni  Ni7  1  0.246667  0.499315  0.745982  1
  Ni  Ni8  1  0.246667  0.747353  0.500685  1
  Ge  Ge9  1  0.679045  0.677370  0.998325  1
  Ge  Ge10  1  0.320955  0.001675  0.322630  1
  Ge  Ge11  1  0.000000  0.322772  0.322772  1
  Ge  Ge12  1  0.320955  0.319280  0.998325  1
  Ge  Ge13  1  0.679045  0.001675  0.680720  1
  Ge  Ge14  1  0.000000  0.677228  0.677228  1
  Ru  Ru15  1  0.500000  0.750000  0.250000  1
  Ru  Ru16  1  0.000000  0.000000  0.000000  1
