# generated using pymatgen
data_Li8Ca3Al
_symmetry_space_group_name_H-M   'P 1'
_cell_length_a   5.95286700
_cell_length_b   5.95286671
_cell_length_c   19.06915300
_cell_angle_alpha   90.00000000
_cell_angle_beta   90.00000000
_cell_angle_gamma   119.99999606
_symmetry_Int_Tables_number   1
_chemical_formula_structural   Li8Ca3Al
_chemical_formula_sum   'Li16 Ca6 Al2'
_cell_volume   585.21357285
_cell_formula_units_Z   2
loop_
 _symmetry_equiv_pos_site_id
 _symmetry_equiv_pos_as_xyz
  1  'x, y, z'
loop_
 _atom_site_type_symbol
 _atom_site_label
 _atom_site_symmetry_multiplicity
 _atom_site_fract_x
 _atom_site_fract_y
 _atom_site_fract_z
 _atom_site_occupancy
  Li  Li0  1  0.324360  0.162180  0.122938  1
  Li  Li1  1  0.837822  0.162180  0.122938  1
  Li  Li2  1  0.837821  0.675641  0.122938  1
  Li  Li3  1  0.000000  0.000000  0.250000  1
  Li  Li4  1  0.666668  0.333334  0.250000  1
  Li  Li5  1  0.324360  0.162180  0.377062  1
  Li  Li6  1  0.837822  0.162180  0.377062  1
  Li  Li7  1  0.837821  0.675641  0.377062  1
  Li  Li8  1  0.162179  0.324358  0.622938  1
  Li  Li9  1  0.162180  0.837821  0.622938  1
  Li  Li10  1  0.675642  0.837821  0.622938  1
  Li  Li11  1  0.000000  0.000000  0.750000  1
  Li  Li12  1  0.333334  0.666668  0.750000  1
  Li  Li13  1  0.162179  0.324358  0.877061  1
  Li  Li14  1  0.162180  0.837821  0.877061  1
  Li  Li15  1  0.675642  0.837821  0.877061  1
  Ca  Ca16  1  0.333334  0.666668  0.035246  1
  Ca  Ca17  1  0.333334  0.666668  0.250000  1
  Ca  Ca18  1  0.333334  0.666668  0.464754  1
  Ca  Ca19  1  0.666668  0.333334  0.535246  1
  Ca  Ca20  1  0.666668  0.333334  0.750000  1
  Ca  Ca21  1  0.666668  0.333334  0.964754  1
  Al  Al22  1  0.000000  0.000000  0.000000  1
  Al  Al23  1  0.000000  0.000000  0.500000  1
