# generated using pymatgen
data_Li2LaYSb2
_symmetry_space_group_name_H-M   'P 1'
_cell_length_a   4.72344100
_cell_length_b   4.72344134
_cell_length_c   7.50345300
_cell_angle_alpha   90.00000000
_cell_angle_beta   90.00000000
_cell_angle_gamma   120.00000464
_symmetry_Int_Tables_number   1
_chemical_formula_structural   Li2LaYSb2
_chemical_formula_sum   'Li2 La1 Y1 Sb2'
_cell_volume   144.98023486
_cell_formula_units_Z   1
loop_
 _symmetry_equiv_pos_site_id
 _symmetry_equiv_pos_as_xyz
  1  'x, y, z'
loop_
 _atom_site_type_symbol
 _atom_site_label
 _atom_site_symmetry_multiplicity
 _atom_site_fract_x
 _atom_site_fract_y
 _atom_site_fract_z
 _atom_site_occupancy
  Li  Li0  1  0.666667  0.333333  0.285586  1
  Li  Li1  1  0.333333  0.666667  0.714414  1
  La  La2  1  0.000000  0.000000  0.000000  1
  Y  Y3  1  0.000000  0.000000  0.500000  1
  Sb  Sb4  1  0.333333  0.666667  0.266173  1
  Sb  Sb5  1  0.666667  0.333333  0.733827  1
