# generated using pymatgen
data_KSF5
_symmetry_space_group_name_H-M   'P 1'
_cell_length_a   6.09308700
_cell_length_b   7.65188300
_cell_length_c   9.92955400
_cell_angle_alpha   90.00000000
_cell_angle_beta   90.00000000
_cell_angle_gamma   90.00000000
_symmetry_Int_Tables_number   1
_chemical_formula_structural   KSF5
_chemical_formula_sum   'K4 S4 F20'
_cell_volume   462.95144299
_cell_formula_units_Z   4
loop_
 _symmetry_equiv_pos_site_id
 _symmetry_equiv_pos_as_xyz
  1  'x, y, z'
loop_
 _atom_site_type_symbol
 _atom_site_label
 _atom_site_symmetry_multiplicity
 _atom_site_fract_x
 _atom_site_fract_y
 _atom_site_fract_z
 _atom_site_occupancy
  K  K0  1  0.250000  0.655996  0.653855  1
  K  K1  1  0.750000  0.344004  0.346145  1
  K  K2  1  0.750000  0.155996  0.846145  1
  K  K3  1  0.250000  0.844004  0.153855  1
  S  S4  1  0.250000  0.158211  0.596201  1
  S  S5  1  0.750000  0.841789  0.403799  1
  S  S6  1  0.750000  0.658211  0.903799  1
  S  S7  1  0.250000  0.341789  0.096201  1
  F  F8  1  0.250000  0.230208  0.749505  1
  F  F9  1  0.750000  0.769792  0.250495  1
  F  F10  1  0.750000  0.730208  0.750495  1
  F  F11  1  0.250000  0.269792  0.249505  1
  F  F12  1  0.957434  0.680116  0.433118  1
  F  F13  1  0.457434  0.319884  0.566882  1
  F  F14  1  0.042566  0.180116  0.066882  1
  F  F15  1  0.542566  0.819884  0.933118  1
  F  F16  1  0.453800  0.490145  0.152241  1
  F  F17  1  0.953800  0.509855  0.847759  1
  F  F18  1  0.546200  0.990145  0.347759  1
  F  F19  1  0.046200  0.009855  0.652241  1
  F  F20  1  0.546200  0.509855  0.847759  1
  F  F21  1  0.046200  0.490145  0.152241  1
  F  F22  1  0.453800  0.009855  0.652241  1
  F  F23  1  0.953800  0.990145  0.347759  1
  F  F24  1  0.457434  0.180116  0.066882  1
  F  F25  1  0.957434  0.819884  0.933118  1
  F  F26  1  0.542566  0.680116  0.433118  1
  F  F27  1  0.042566  0.319884  0.566882  1
