# generated using pymatgen
data_Tb4ReSi4Ir
_symmetry_space_group_name_H-M   'P 1'
_cell_length_a   5.78486348
_cell_length_b   5.78486456
_cell_length_c   10.13269553
_cell_angle_alpha   62.88220693
_cell_angle_beta   62.88220379
_cell_angle_gamma   42.98959979
_symmetry_Int_Tables_number   1
_chemical_formula_structural   Tb4ReSi4Ir
_chemical_formula_sum   'Tb4 Re1 Si4 Ir1'
_cell_volume   201.56645479
_cell_formula_units_Z   1
loop_
 _symmetry_equiv_pos_site_id
 _symmetry_equiv_pos_as_xyz
  1  'x, y, z'
loop_
 _atom_site_type_symbol
 _atom_site_label
 _atom_site_symmetry_multiplicity
 _atom_site_fract_x
 _atom_site_fract_y
 _atom_site_fract_z
 _atom_site_occupancy
  Tb  Tb0  1  0.185948  0.185948  0.888988  1
  Tb  Tb1  1  0.816044  0.816044  0.108756  1
  Tb  Tb2  1  0.989510  0.989510  0.680159  1
  Tb  Tb3  1  0.007268  0.007268  0.320474  1
  Re  Re4  1  0.273668  0.273668  0.374661  1
  Si  Si5  1  0.495101  0.495101  0.875200  1
  Si  Si6  1  0.502308  0.502308  0.122890  1
  Si  Si7  1  0.357200  0.357200  0.562523  1
  Si  Si8  1  0.645181  0.645181  0.439005  1
  Ir  Ir9  1  0.727773  0.727773  0.627343  1
