# generated using pymatgen
data_TbGd(WF7)2
_symmetry_space_group_name_H-M   'P 1'
_cell_length_a   5.77244800
_cell_length_b   9.16775554
_cell_length_c   12.35491000
_cell_angle_alpha   62.55663658
_cell_angle_beta   90.00000000
_cell_angle_gamma   90.00000000
_symmetry_Int_Tables_number   1
_chemical_formula_structural   TbGd(WF7)2
_chemical_formula_sum   'Tb2 Gd2 W4 F28'
_cell_volume   580.24949656
_cell_formula_units_Z   2
loop_
 _symmetry_equiv_pos_site_id
 _symmetry_equiv_pos_as_xyz
  1  'x, y, z'
loop_
 _atom_site_type_symbol
 _atom_site_label
 _atom_site_symmetry_multiplicity
 _atom_site_fract_x
 _atom_site_fract_y
 _atom_site_fract_z
 _atom_site_occupancy
  Tb  Tb0  1  0.762443  0.814538  0.765105  1
  Tb  Tb1  1  0.262443  0.185462  0.734895  1
  Gd  Gd2  1  0.237264  0.187857  0.234240  1
  Gd  Gd3  1  0.737264  0.812143  0.265760  1
  W  W4  1  0.757293  0.274441  0.954319  1
  W  W5  1  0.257293  0.725559  0.545681  1
  W  W6  1  0.243745  0.728656  0.041049  1
  W  W7  1  0.743745  0.271344  0.458951  1
  F  F8  1  0.457447  0.710273  0.920052  1
  F  F9  1  0.957447  0.289727  0.579948  1
  F  F10  1  0.549517  0.291480  0.077539  1
  F  F11  1  0.049517  0.708520  0.422461  1
  F  F12  1  0.451378  0.276392  0.553838  1
  F  F13  1  0.951378  0.723608  0.946162  1
  F  F14  1  0.548391  0.719035  0.449750  1
  F  F15  1  0.048391  0.280965  0.050250  1
  F  F16  1  0.765839  0.519624  0.857875  1
  F  F17  1  0.265839  0.480376  0.642125  1
  F  F18  1  0.237970  0.483870  0.139967  1
  F  F19  1  0.737970  0.516130  0.360033  1
  F  F20  1  0.754062  0.030519  0.052449  1
  F  F21  1  0.254062  0.969481  0.447551  1
  F  F22  1  0.239534  0.973101  0.943524  1
  F  F23  1  0.739534  0.026899  0.556476  1
  F  F24  1  0.977175  0.733899  0.647195  1
  F  F25  1  0.477175  0.266101  0.852805  1
  F  F26  1  0.022462  0.267720  0.356260  1
  F  F27  1  0.522462  0.732280  0.143740  1
  F  F28  1  0.036150  0.748494  0.164870  1
  F  F29  1  0.536150  0.251506  0.335130  1
  F  F30  1  0.962437  0.252449  0.830777  1
  F  F31  1  0.462437  0.747551  0.669223  1
  F  F32  1  0.426023  0.975781  0.233902  1
  F  F33  1  0.926023  0.024219  0.266098  1
  F  F34  1  0.570867  0.022831  0.766358  1
  F  F35  1  0.070867  0.977169  0.733642  1
