# generated using pymatgen
data_NiPRu
_symmetry_space_group_name_H-M   'P 1'
_cell_length_a   3.68315200
_cell_length_b   5.66594200
_cell_length_c   6.86104300
_cell_angle_alpha   90.00000000
_cell_angle_beta   90.00000000
_cell_angle_gamma   90.00000000
_symmetry_Int_Tables_number   1
_chemical_formula_structural   NiPRu
_chemical_formula_sum   'Ni4 P4 Ru4'
_cell_volume   143.17985155
_cell_formula_units_Z   4
loop_
 _symmetry_equiv_pos_site_id
 _symmetry_equiv_pos_as_xyz
  1  'x, y, z'
loop_
 _atom_site_type_symbol
 _atom_site_label
 _atom_site_symmetry_multiplicity
 _atom_site_fract_x
 _atom_site_fract_y
 _atom_site_fract_z
 _atom_site_occupancy
  Ni  Ni0  1  0.750000  0.364194  0.566654  1
  Ni  Ni1  1  0.750000  0.864194  0.933346  1
  Ni  Ni2  1  0.250000  0.635806  0.433346  1
  Ni  Ni3  1  0.250000  0.135806  0.066654  1
  P  P4  1  0.750000  0.250853  0.879476  1
  P  P5  1  0.750000  0.750853  0.620524  1
  P  P6  1  0.250000  0.749147  0.120524  1
  P  P7  1  0.250000  0.249147  0.379476  1
  Ru  Ru8  1  0.750000  0.476222  0.168626  1
  Ru  Ru9  1  0.750000  0.976222  0.331374  1
  Ru  Ru10  1  0.250000  0.523778  0.831374  1
  Ru  Ru11  1  0.250000  0.023778  0.668626  1
