# generated using pymatgen
data_TbSm8Lu11Pb16
_symmetry_space_group_name_H-M   'P 1'
_cell_length_a   8.18031828
_cell_length_b   8.26614039
_cell_length_c   15.57014616
_cell_angle_alpha   89.98384954
_cell_angle_beta   89.99593031
_cell_angle_gamma   89.89742329
_symmetry_Int_Tables_number   1
_chemical_formula_structural   TbSm8Lu11Pb16
_chemical_formula_sum   'Tb1 Sm8 Lu11 Pb16'
_cell_volume   1052.84624856
_cell_formula_units_Z   1
loop_
 _symmetry_equiv_pos_site_id
 _symmetry_equiv_pos_as_xyz
  1  'x, y, z'
loop_
 _atom_site_type_symbol
 _atom_site_label
 _atom_site_symmetry_multiplicity
 _atom_site_fract_x
 _atom_site_fract_y
 _atom_site_fract_z
 _atom_site_occupancy
  Tb  Tb0  1  0.627197  0.158689  0.621893  1
  Sm  Sm1  1  0.467426  0.677427  0.598629  1
  Sm  Sm2  1  0.967504  0.822171  0.901467  1
  Sm  Sm3  1  0.532673  0.322309  0.098615  1
  Sm  Sm4  1  0.032365  0.177487  0.401415  1
  Sm  Sm5  1  0.532434  0.322560  0.400945  1
  Sm  Sm6  1  0.032576  0.177757  0.098609  1
  Sm  Sm7  1  0.467357  0.677665  0.901520  1
  Sm  Sm8  1  0.967740  0.822006  0.598516  1
  Lu  Lu9  1  0.127266  0.341649  0.878011  1
  Lu  Lu10  1  0.372566  0.841504  0.122197  1
  Lu  Lu11  1  0.872643  0.658436  0.377640  1
  Lu  Lu12  1  0.372678  0.841732  0.377919  1
  Lu  Lu13  1  0.872530  0.658351  0.122138  1
  Lu  Lu14  1  0.627396  0.158357  0.877994  1
  Lu  Lu15  1  0.127539  0.341451  0.622161  1
  Lu  Lu16  1  0.795340  0.494281  0.750302  1
  Lu  Lu17  1  0.294540  0.006172  0.750258  1
  Lu  Lu18  1  0.204994  0.506269  0.249998  1
  Lu  Lu19  1  0.704993  0.993540  0.249928  1
  Pb  Pb20  1  0.712333  0.961652  0.456097  1
  Pb  Pb21  1  0.212084  0.537619  0.043224  1
  Pb  Pb22  1  0.288029  0.037534  0.956840  1
  Pb  Pb23  1  0.788684  0.463743  0.542944  1
  Pb  Pb24  1  0.286697  0.037173  0.542962  1
  Pb  Pb25  1  0.787952  0.462445  0.956847  1
  Pb  Pb26  1  0.712059  0.962448  0.043175  1
  Pb  Pb27  1  0.211997  0.537602  0.456786  1
  Pb  Pb28  1  0.431670  0.371501  0.750450  1
  Pb  Pb29  1  0.932945  0.129197  0.750323  1
  Pb  Pb30  1  0.567619  0.629326  0.249975  1
  Pb  Pb31  1  0.067823  0.870707  0.249965  1
  Pb  Pb32  1  0.657155  0.847504  0.750250  1
  Pb  Pb33  1  0.157182  0.651702  0.750017  1
  Pb  Pb34  1  0.343014  0.151897  0.249998  1
  Pb  Pb35  1  0.843004  0.348136  0.249994  1
