# generated using pymatgen
data_NdSmMn3Co9P7
_symmetry_space_group_name_H-M   'P 1'
_cell_length_a   9.12869900
_cell_length_b   9.12869954
_cell_length_c   3.62665100
_cell_angle_alpha   90.00000000
_cell_angle_beta   90.00000000
_cell_angle_gamma   120.00000890
_symmetry_Int_Tables_number   1
_chemical_formula_structural   NdSmMn3Co9P7
_chemical_formula_sum   'Nd1 Sm1 Mn3 Co9 P7'
_cell_volume   261.73039337
_cell_formula_units_Z   1
loop_
 _symmetry_equiv_pos_site_id
 _symmetry_equiv_pos_as_xyz
  1  'x, y, z'
loop_
 _atom_site_type_symbol
 _atom_site_label
 _atom_site_symmetry_multiplicity
 _atom_site_fract_x
 _atom_site_fract_y
 _atom_site_fract_z
 _atom_site_occupancy
  Nd  Nd0  1  0.333333  0.666667  0.500000  1
  Sm  Sm1  1  0.666667  0.333333  0.000000  1
  Mn  Mn2  1  0.219219  0.102745  0.000000  1
  Mn  Mn3  1  0.897255  0.116475  0.000000  1
  Mn  Mn4  1  0.883525  0.780781  0.000000  1
  Co  Co5  1  0.428582  0.059990  0.500000  1
  Co  Co6  1  0.940010  0.368593  0.500000  1
  Co  Co7  1  0.631407  0.571418  0.500000  1
  Co  Co8  1  0.156105  0.273040  0.500000  1
  Co  Co9  1  0.726960  0.883064  0.500000  1
  Co  Co10  1  0.116936  0.843895  0.500000  1
  Co  Co11  1  0.386314  0.434074  0.000000  1
  Co  Co12  1  0.565926  0.952239  0.000000  1
  Co  Co13  1  0.047761  0.613686  0.000000  1
  P  P14  1  0.110969  0.400501  0.000000  1
  P  P15  1  0.599499  0.710467  0.000000  1
  P  P16  1  0.289533  0.889031  0.000000  1
  P  P17  1  0.000000  0.000000  0.500000  1
  P  P18  1  0.410060  0.301592  0.500000  1
  P  P19  1  0.698408  0.108467  0.500000  1
  P  P20  1  0.891533  0.589940  0.500000  1
