# generated using pymatgen
data_LaNp7F30
_symmetry_space_group_name_H-M   'P 1'
_cell_length_a   8.74209288
_cell_length_b   8.73833125
_cell_length_c   8.74209365
_cell_angle_alpha   100.43006545
_cell_angle_beta   100.68039505
_cell_angle_gamma   100.43006128
_symmetry_Int_Tables_number   1
_chemical_formula_structural   LaNp7F30
_chemical_formula_sum   'La1 Np7 F30'
_cell_volume   629.29661451
_cell_formula_units_Z   1
loop_
 _symmetry_equiv_pos_site_id
 _symmetry_equiv_pos_as_xyz
  1  'x, y, z'
loop_
 _atom_site_type_symbol
 _atom_site_label
 _atom_site_symmetry_multiplicity
 _atom_site_fract_x
 _atom_site_fract_y
 _atom_site_fract_z
 _atom_site_occupancy
  La  La0  1  0.823008  0.250000  0.676992  1
  Np  Np1  1  0.250115  0.250000  0.249885  1
  Np  Np2  1  0.177395  0.750000  0.322605  1
  Np  Np3  1  0.250779  0.679975  0.823180  1
  Np  Np4  1  0.676820  0.820025  0.249221  1
  Np  Np5  1  0.749869  0.750000  0.750131  1
  Np  Np6  1  0.323523  0.178748  0.747998  1
  Np  Np7  1  0.752002  0.321252  0.176477  1
  F  F8  1  0.968887  0.531938  0.251802  1
  F  F9  1  0.816792  0.346338  0.436950  1
  F  F10  1  0.490455  0.718544  0.721534  1
  F  F11  1  0.339628  0.448214  0.822903  1
  F  F12  1  0.010927  0.782603  0.784863  1
  F  F13  1  0.752117  0.023024  0.458981  1
  F  F14  1  0.944287  0.833422  0.316769  1
  F  F15  1  0.222542  0.219395  0.991603  1
  F  F16  1  0.777568  0.004677  0.785845  1
  F  F17  1  0.322972  0.948374  0.838720  1
  F  F18  1  0.279684  0.282213  0.510379  1
  F  F19  1  0.445712  0.819389  0.336129  1
  F  F20  1  0.533243  0.250000  0.966757  1
  F  F21  1  0.278705  0.510672  0.283901  1
  F  F22  1  0.163871  0.680611  0.054288  1
  F  F23  1  0.844874  0.326198  0.959169  1
  F  F24  1  0.714155  0.495323  0.722432  1
  F  F25  1  0.467645  0.750000  0.032355  1
  F  F26  1  0.540831  0.173802  0.655126  1
  F  F27  1  0.715137  0.717397  0.489073  1
  F  F28  1  0.677097  0.051786  0.160372  1
  F  F29  1  0.216099  0.989328  0.221295  1
  F  F30  1  0.778466  0.781456  0.009545  1
  F  F31  1  0.063050  0.153662  0.683208  1
  F  F32  1  0.248198  0.968062  0.531113  1
  F  F33  1  0.989621  0.217787  0.220316  1
  F  F34  1  0.661280  0.551626  0.177028  1
  F  F35  1  0.508397  0.280605  0.277458  1
  F  F36  1  0.183231  0.666578  0.555713  1
  F  F37  1  0.041019  0.476976  0.747883  1
