# generated using pymatgen
data_Mn4Cu2SiPd9
_symmetry_space_group_name_H-M   'P 1'
_cell_length_a   6.73517010
_cell_length_b   6.73517060
_cell_length_c   6.73516973
_cell_angle_alpha   106.10709249
_cell_angle_beta   106.10709459
_cell_angle_gamma   116.43183654
_symmetry_Int_Tables_number   1
_chemical_formula_structural   Mn4Cu2SiPd9
_chemical_formula_sum   'Mn4 Cu2 Si1 Pd9'
_cell_volume   232.55891572
_cell_formula_units_Z   1
loop_
 _symmetry_equiv_pos_site_id
 _symmetry_equiv_pos_as_xyz
  1  'x, y, z'
loop_
 _atom_site_type_symbol
 _atom_site_label
 _atom_site_symmetry_multiplicity
 _atom_site_fract_x
 _atom_site_fract_y
 _atom_site_fract_z
 _atom_site_occupancy
  Mn  Mn0  1  0.232414  0.232414  0.464831  1
  Mn  Mn1  1  0.767586  0.767586  0.535169  1
  Mn  Mn2  1  0.232414  0.767586  0.000000  1
  Mn  Mn3  1  0.767586  0.232414  0.000000  1
  Cu  Cu4  1  0.500000  0.000000  0.500000  1
  Cu  Cu5  1  0.000000  0.500000  0.500000  1
  Si  Si6  1  0.500000  0.500000  0.000000  1
  Pd  Pd7  1  0.523798  0.275345  0.248452  1
  Pd  Pd8  1  0.476202  0.724655  0.751548  1
  Pd  Pd9  1  0.026893  0.275345  0.751548  1
  Pd  Pd10  1  0.275345  0.026893  0.751548  1
  Pd  Pd11  1  0.973107  0.724655  0.248452  1
  Pd  Pd12  1  0.724655  0.973107  0.248452  1
  Pd  Pd13  1  0.275345  0.523798  0.248452  1
  Pd  Pd14  1  0.724655  0.476202  0.751548  1
  Pd  Pd15  1  0.000000  0.000000  0.000000  1
