# generated using pymatgen
data_Sm3Dy(CuP2)4
_symmetry_space_group_name_H-M   'P 1'
_cell_length_a   3.73379400
_cell_length_b   3.81455830
_cell_length_c   19.73148673
_cell_angle_alpha   90.06598542
_cell_angle_beta   90.00000000
_cell_angle_gamma   90.00000000
_symmetry_Int_Tables_number   1
_chemical_formula_structural   Sm3Dy(CuP2)4
_chemical_formula_sum   'Sm3 Dy1 Cu4 P8'
_cell_volume   281.03093774
_cell_formula_units_Z   1
loop_
 _symmetry_equiv_pos_site_id
 _symmetry_equiv_pos_as_xyz
  1  'x, y, z'
loop_
 _atom_site_type_symbol
 _atom_site_label
 _atom_site_symmetry_multiplicity
 _atom_site_fract_x
 _atom_site_fract_y
 _atom_site_fract_z
 _atom_site_occupancy
  Sm  Sm0  1  0.250000  0.713375  0.379912  1
  Sm  Sm1  1  0.250000  0.785669  0.884617  1
  Sm  Sm2  1  0.750000  0.287336  0.618395  1
  Dy  Dy3  1  0.750000  0.212428  0.118417  1
  Cu  Cu4  1  0.250000  0.214031  0.246716  1
  Cu  Cu5  1  0.750000  0.786642  0.751794  1
  Cu  Cu6  1  0.250000  0.286911  0.751262  1
  Cu  Cu7  1  0.750000  0.713886  0.247259  1
  P  P8  1  0.750000  0.813280  0.501470  1
  P  P9  1  0.750000  0.687007  0.005733  1
  P  P10  1  0.250000  0.187854  0.496829  1
  P  P11  1  0.250000  0.311717  0.001092  1
  P  P12  1  0.250000  0.712877  0.171003  1
  P  P13  1  0.750000  0.213058  0.322547  1
  P  P14  1  0.750000  0.286487  0.826996  1
  P  P15  1  0.250000  0.787443  0.675958  1
