# generated using pymatgen
data_MgU2(Ni10B3)2
_symmetry_space_group_name_H-M   'P 1'
_cell_length_a   7.51631100
_cell_length_b   7.51640817
_cell_length_c   7.51631100
_cell_angle_alpha   120.00056827
_cell_angle_beta   89.99932919
_cell_angle_gamma   120.00056827
_symmetry_Int_Tables_number   1
_chemical_formula_structural   MgU2(Ni10B3)2
_chemical_formula_sum   'Mg1 U2 Ni20 B6'
_cell_volume   300.26168878
_cell_formula_units_Z   1
loop_
 _symmetry_equiv_pos_site_id
 _symmetry_equiv_pos_as_xyz
  1  'x, y, z'
loop_
 _atom_site_type_symbol
 _atom_site_label
 _atom_site_symmetry_multiplicity
 _atom_site_fract_x
 _atom_site_fract_y
 _atom_site_fract_z
 _atom_site_occupancy
  Mg  Mg0  1  0.000002  0.000004  0.000002  1
  U  U1  1  0.749999  0.499998  0.250000  1
  U  U2  1  0.250000  0.499998  0.749999  1
  Ni  Ni3  1  0.343852  0.999999  0.000001  1
  Ni  Ni4  1  0.656143  0.999994  0.999999  1
  Ni  Ni5  1  0.000008  0.343859  0.000008  1
  Ni  Ni6  1  0.343861  0.343864  0.000005  1
  Ni  Ni7  1  0.000004  0.656159  0.000004  1
  Ni  Ni8  1  0.656137  0.656141  0.000003  1
  Ni  Ni9  1  0.385506  0.771004  0.156505  1
  Ni  Ni10  1  0.000001  0.999999  0.343852  1
  Ni  Ni11  1  0.000005  0.343864  0.343861  1
  Ni  Ni12  1  0.343857  0.343860  0.343857  1
  Ni  Ni13  1  0.614494  0.228998  0.385497  1
  Ni  Ni14  1  0.156505  0.771004  0.385506  1
  Ni  Ni15  1  0.614495  0.770989  0.385494  1
  Ni  Ni16  1  0.843517  0.229007  0.614494  1
  Ni  Ni17  1  0.385497  0.228998  0.614494  1
  Ni  Ni18  1  0.385494  0.770989  0.614495  1
  Ni  Ni19  1  0.999999  0.999994  0.656143  1
  Ni  Ni20  1  0.000003  0.656141  0.656137  1
  Ni  Ni21  1  0.656140  0.656141  0.656140  1
  Ni  Ni22  1  0.614494  0.229007  0.843517  1
  B  B23  1  0.264737  0.999995  0.264737  1
  B  B24  1  0.264738  0.529478  0.264738  1
  B  B25  1  0.735260  0.999998  0.264738  1
  B  B26  1  0.735260  0.000002  0.735260  1
  B  B27  1  0.264738  0.999998  0.735260  1
  B  B28  1  0.735262  0.470521  0.735262  1
