# generated using pymatgen
data_Zr6Ta3NbSi8
_symmetry_space_group_name_H-M   'P 1'
_cell_length_a   6.96848375
_cell_length_b   6.96987529
_cell_length_c   12.85955113
_cell_angle_alpha   90.38026804
_cell_angle_beta   89.97756400
_cell_angle_gamma   89.98453764
_symmetry_Int_Tables_number   1
_chemical_formula_structural   Zr6Ta3NbSi8
_chemical_formula_sum   'Zr12 Ta6 Nb2 Si16'
_cell_volume   624.56766175
_cell_formula_units_Z   2
loop_
 _symmetry_equiv_pos_site_id
 _symmetry_equiv_pos_as_xyz
  1  'x, y, z'
loop_
 _atom_site_type_symbol
 _atom_site_label
 _atom_site_symmetry_multiplicity
 _atom_site_fract_x
 _atom_site_fract_y
 _atom_site_fract_z
 _atom_site_occupancy
  Zr  Zr0  1  0.650274  0.497139  0.876348  1
  Zr  Zr1  1  0.502477  0.351625  0.622607  1
  Zr  Zr2  1  0.499486  0.647797  0.125360  1
  Zr  Zr3  1  0.147164  0.999289  0.873818  1
  Zr  Zr4  1  0.001479  0.653208  0.036402  1
  Zr  Zr5  1  0.000926  0.345929  0.529709  1
  Zr  Zr6  1  0.654170  0.999319  0.967710  1
  Zr  Zr7  1  0.151412  0.498847  0.781778  1
  Zr  Zr8  1  0.847043  0.500857  0.282760  1
  Zr  Zr9  1  0.500985  0.153467  0.220477  1
  Zr  Zr10  1  0.501180  0.846618  0.714237  1
  Zr  Zr11  1  0.343379  0.000991  0.467123  1
  Ta  Ta12  1  0.007125  0.148148  0.127047  1
  Ta  Ta13  1  0.995031  0.851606  0.624539  1
  Ta  Ta14  1  0.673566  0.674124  0.498581  1
  Ta  Ta15  1  0.828616  0.171018  0.748196  1
  Ta  Ta16  1  0.171308  0.830737  0.251685  1
  Ta  Ta17  1  0.326573  0.324478  0.001877  1
  Nb  Nb18  1  0.349989  0.507560  0.375548  1
  Nb  Nb19  1  0.853739  0.996630  0.374319  1
  Si  Si20  1  0.046649  0.703528  0.436419  1
  Si  Si21  1  0.954857  0.298800  0.938087  1
  Si  Si22  1  0.704475  0.045840  0.561579  1
  Si  Si23  1  0.201264  0.450035  0.187858  1
  Si  Si24  1  0.801614  0.549678  0.683691  1
  Si  Si25  1  0.452600  0.198299  0.813964  1
  Si  Si26  1  0.549003  0.799659  0.315628  1
  Si  Si27  1  0.299385  0.954740  0.065890  1
  Si  Si28  1  0.854469  0.797059  0.817523  1
  Si  Si29  1  0.138845  0.208081  0.323021  1
  Si  Si30  1  0.798180  0.864092  0.180007  1
  Si  Si31  1  0.290664  0.643498  0.570809  1
  Si  Si32  1  0.708863  0.352125  0.074156  1
  Si  Si33  1  0.638513  0.294192  0.424892  1
  Si  Si34  1  0.353951  0.700996  0.929987  1
  Si  Si35  1  0.200745  0.139991  0.676364  1
