# generated using pymatgen
data_Tm4HfZrSn5
_symmetry_space_group_name_H-M   'P 1'
_cell_length_a   11.27129533
_cell_length_b   11.27129465
_cell_length_c   11.27353800
_cell_angle_alpha   148.26370580
_cell_angle_beta   132.36970265
_cell_angle_gamma   58.35239794
_symmetry_Int_Tables_number   1
_chemical_formula_structural   Tm4HfZrSn5
_chemical_formula_sum   'Tm8 Hf2 Zr2 Sn10'
_cell_volume   552.24775141
_cell_formula_units_Z   2
loop_
 _symmetry_equiv_pos_site_id
 _symmetry_equiv_pos_as_xyz
  1  'x, y, z'
loop_
 _atom_site_type_symbol
 _atom_site_label
 _atom_site_symmetry_multiplicity
 _atom_site_fract_x
 _atom_site_fract_y
 _atom_site_fract_z
 _atom_site_occupancy
  Tm  Tm0  1  0.673755  0.438481  0.235520  1
  Tm  Tm1  1  0.326245  0.561519  0.764480  1
  Tm  Tm2  1  0.202963  0.938234  0.264480  1
  Tm  Tm3  1  0.797037  0.061766  0.735520  1
  Tm  Tm4  1  0.259511  0.145538  0.114765  1
  Tm  Tm5  1  0.740489  0.854462  0.885235  1
  Tm  Tm6  1  0.030772  0.644746  0.385235  1
  Tm  Tm7  1  0.969228  0.355254  0.614765  1
  Hf  Hf8  1  0.693116  0.943116  0.250000  1
  Hf  Hf9  1  0.306884  0.056884  0.750000  1
  Zr  Zr10  1  0.306755  0.556755  0.250000  1
  Zr  Zr11  1  0.693245  0.443245  0.750000  1
  Sn  Sn12  1  0.590347  0.286469  0.297739  1
  Sn  Sn13  1  0.409653  0.713531  0.702261  1
  Sn  Sn14  1  0.988731  0.792608  0.202261  1
  Sn  Sn15  1  0.011269  0.207392  0.797739  1
  Sn  Sn16  1  0.000239  0.250239  0.250000  1
  Sn  Sn17  1  0.999761  0.749761  0.750000  1
  Sn  Sn18  1  0.476118  0.072914  0.399491  1
  Sn  Sn19  1  0.523882  0.927086  0.600509  1
  Sn  Sn20  1  0.673423  0.576626  0.100509  1
  Sn  Sn21  1  0.326577  0.423374  0.899491  1
