# generated using pymatgen
data_ErFe4MoP3
_symmetry_space_group_name_H-M   'P 1'
_cell_length_a   3.70715900
_cell_length_b   10.39129600
_cell_length_c   12.04909800
_cell_angle_alpha   90.00000000
_cell_angle_beta   90.00000000
_cell_angle_gamma   90.00000000
_symmetry_Int_Tables_number   1
_chemical_formula_structural   ErFe4MoP3
_chemical_formula_sum   'Er4 Fe16 Mo4 P12'
_cell_volume   464.15760017
_cell_formula_units_Z   4
loop_
 _symmetry_equiv_pos_site_id
 _symmetry_equiv_pos_as_xyz
  1  'x, y, z'
loop_
 _atom_site_type_symbol
 _atom_site_label
 _atom_site_symmetry_multiplicity
 _atom_site_fract_x
 _atom_site_fract_y
 _atom_site_fract_z
 _atom_site_occupancy
  Er  Er0  1  0.250000  0.583055  0.709172  1
  Er  Er1  1  0.250000  0.916945  0.209172  1
  Er  Er2  1  0.750000  0.416945  0.290828  1
  Er  Er3  1  0.750000  0.083055  0.790828  1
  Fe  Fe4  1  0.250000  0.410741  0.492923  1
  Fe  Fe5  1  0.250000  0.089260  0.992923  1
  Fe  Fe6  1  0.750000  0.589259  0.507077  1
  Fe  Fe7  1  0.750000  0.910741  0.007077  1
  Fe  Fe8  1  0.250000  0.217206  0.177357  1
  Fe  Fe9  1  0.250000  0.282794  0.677357  1
  Fe  Fe10  1  0.750000  0.782794  0.822643  1
  Fe  Fe11  1  0.750000  0.717206  0.322643  1
  Fe  Fe12  1  0.250000  0.877377  0.700602  1
  Fe  Fe13  1  0.250000  0.622623  0.200602  1
  Fe  Fe14  1  0.750000  0.122623  0.299398  1
  Fe  Fe15  1  0.750000  0.377377  0.799398  1
  Fe  Fe16  1  0.250000  0.463617  0.933177  1
  Fe  Fe17  1  0.250000  0.036383  0.433177  1
  Fe  Fe18  1  0.750000  0.536383  0.066823  1
  Fe  Fe19  1  0.750000  0.963617  0.566823  1
  Mo  Mo20  1  0.250000  0.706966  0.988245  1
  Mo  Mo21  1  0.250000  0.793034  0.488245  1
  Mo  Mo22  1  0.750000  0.293034  0.011755  1
  Mo  Mo23  1  0.750000  0.206966  0.511755  1
  P  P24  1  0.250000  0.424917  0.113520  1
  P  P25  1  0.250000  0.075083  0.613520  1
  P  P26  1  0.750000  0.575083  0.886480  1
  P  P27  1  0.750000  0.924917  0.386480  1
  P  P28  1  0.250000  0.266455  0.866005  1
  P  P29  1  0.250000  0.233545  0.366005  1
  P  P30  1  0.750000  0.733545  0.133995  1
  P  P31  1  0.750000  0.766455  0.633995  1
  P  P32  1  0.250000  0.594549  0.386993  1
  P  P33  1  0.250000  0.905451  0.886993  1
  P  P34  1  0.750000  0.405451  0.613007  1
  P  P35  1  0.750000  0.094549  0.113007  1
