# generated using pymatgen
data_SrPb2(IO)2
_symmetry_space_group_name_H-M   'P 1'
_cell_length_a   6.25215500
_cell_length_b   11.03592400
_cell_length_c   12.57102000
_cell_angle_alpha   90.00000000
_cell_angle_beta   90.00000000
_cell_angle_gamma   90.00000000
_symmetry_Int_Tables_number   1
_chemical_formula_structural   SrPb2(IO)2
_chemical_formula_sum   'Sr4 Pb8 I8 O8'
_cell_volume   867.37910250
_cell_formula_units_Z   4
loop_
 _symmetry_equiv_pos_site_id
 _symmetry_equiv_pos_as_xyz
  1  'x, y, z'
loop_
 _atom_site_type_symbol
 _atom_site_label
 _atom_site_symmetry_multiplicity
 _atom_site_fract_x
 _atom_site_fract_y
 _atom_site_fract_z
 _atom_site_occupancy
  Sr  Sr0  1  0.250000  0.056145  0.074411  1
  Sr  Sr1  1  0.750000  0.943855  0.925589  1
  Sr  Sr2  1  0.750000  0.556145  0.425589  1
  Sr  Sr3  1  0.250000  0.443855  0.574411  1
  Pb  Pb4  1  0.250000  0.357532  0.298674  1
  Pb  Pb5  1  0.750000  0.642468  0.701326  1
  Pb  Pb6  1  0.750000  0.857532  0.201326  1
  Pb  Pb7  1  0.250000  0.142468  0.798674  1
  Pb  Pb8  1  0.250000  0.770566  0.563018  1
  Pb  Pb9  1  0.750000  0.229434  0.436982  1
  Pb  Pb10  1  0.750000  0.270566  0.936982  1
  Pb  Pb11  1  0.250000  0.729434  0.063018  1
  I  I12  1  0.250000  0.065869  0.353769  1
  I  I13  1  0.750000  0.934131  0.646231  1
  I  I14  1  0.750000  0.565869  0.146231  1
  I  I15  1  0.250000  0.434131  0.853769  1
  I  I16  1  0.250000  0.815957  0.821046  1
  I  I17  1  0.750000  0.184043  0.178954  1
  I  I18  1  0.750000  0.315957  0.678954  1
  I  I19  1  0.250000  0.684043  0.321046  1
  O  O20  1  0.000627  0.380992  0.424579  1
  O  O21  1  0.500627  0.619008  0.575421  1
  O  O22  1  0.999373  0.880992  0.075421  1
  O  O23  1  0.499373  0.119008  0.924579  1
  O  O24  1  0.999373  0.619008  0.575421  1
  O  O25  1  0.499373  0.380992  0.424579  1
  O  O26  1  0.000627  0.119008  0.924579  1
  O  O27  1  0.500627  0.880992  0.075421  1
