# generated using pymatgen
data_Pr2Sb4Pd3
_symmetry_space_group_name_H-M   'P 1'
_cell_length_a   4.64569400
_cell_length_b   11.45592000
_cell_length_c   16.38785500
_cell_angle_alpha   90.00000000
_cell_angle_beta   90.00000000
_cell_angle_gamma   90.00000000
_symmetry_Int_Tables_number   1
_chemical_formula_structural   Pr2Sb4Pd3
_chemical_formula_sum   'Pr8 Sb16 Pd12'
_cell_volume   872.17309507
_cell_formula_units_Z   4
loop_
 _symmetry_equiv_pos_site_id
 _symmetry_equiv_pos_as_xyz
  1  'x, y, z'
loop_
 _atom_site_type_symbol
 _atom_site_label
 _atom_site_symmetry_multiplicity
 _atom_site_fract_x
 _atom_site_fract_y
 _atom_site_fract_z
 _atom_site_occupancy
  Pr  Pr0  1  0.250000  0.745418  0.503886  1
  Pr  Pr1  1  0.250000  0.754582  0.003886  1
  Pr  Pr2  1  0.750000  0.254582  0.496114  1
  Pr  Pr3  1  0.750000  0.245418  0.996114  1
  Pr  Pr4  1  0.250000  0.592943  0.754395  1
  Pr  Pr5  1  0.250000  0.907057  0.254395  1
  Pr  Pr6  1  0.750000  0.407057  0.245605  1
  Pr  Pr7  1  0.750000  0.092943  0.745605  1
  Sb  Sb8  1  0.250000  0.270612  0.649884  1
  Sb  Sb9  1  0.250000  0.229388  0.149884  1
  Sb  Sb10  1  0.750000  0.729388  0.350116  1
  Sb  Sb11  1  0.750000  0.770612  0.850116  1
  Sb  Sb12  1  0.250000  0.884405  0.711948  1
  Sb  Sb13  1  0.250000  0.615595  0.211948  1
  Sb  Sb14  1  0.750000  0.115595  0.288052  1
  Sb  Sb15  1  0.750000  0.384405  0.788052  1
  Sb  Sb16  1  0.250000  0.068284  0.895856  1
  Sb  Sb17  1  0.250000  0.431716  0.395856  1
  Sb  Sb18  1  0.750000  0.931716  0.104144  1
  Sb  Sb19  1  0.750000  0.568284  0.604144  1
  Sb  Sb20  1  0.250000  0.444952  0.930459  1
  Sb  Sb21  1  0.250000  0.055048  0.430459  1
  Sb  Sb22  1  0.750000  0.555048  0.069541  1
  Sb  Sb23  1  0.750000  0.944952  0.569541  1
  Pd  Pd24  1  0.250000  0.465058  0.559262  1
  Pd  Pd25  1  0.250000  0.034942  0.059262  1
  Pd  Pd26  1  0.750000  0.534942  0.440738  1
  Pd  Pd27  1  0.750000  0.965058  0.940738  1
  Pd  Pd28  1  0.250000  0.055792  0.592788  1
  Pd  Pd29  1  0.250000  0.444208  0.092788  1
  Pd  Pd30  1  0.750000  0.944208  0.407212  1
  Pd  Pd31  1  0.750000  0.555792  0.907212  1
  Pd  Pd32  1  0.250000  0.274263  0.817825  1
  Pd  Pd33  1  0.250000  0.225737  0.317825  1
  Pd  Pd34  1  0.750000  0.725737  0.182175  1
  Pd  Pd35  1  0.750000  0.774263  0.682175  1
