# generated using pymatgen
data_La5Pr2Pa(AlRh)8
_symmetry_space_group_name_H-M   'P 1'
_cell_length_a   4.25954000
_cell_length_b   7.23020046
_cell_length_c   16.24953040
_cell_angle_alpha   88.99479294
_cell_angle_beta   90.00000000
_cell_angle_gamma   90.00000000
_symmetry_Int_Tables_number   1
_chemical_formula_structural   La5Pr2Pa(AlRh)8
_chemical_formula_sum   'La5 Pr2 Pa1 Al8 Rh8'
_cell_volume   500.36510321
_cell_formula_units_Z   1
loop_
 _symmetry_equiv_pos_site_id
 _symmetry_equiv_pos_as_xyz
  1  'x, y, z'
loop_
 _atom_site_type_symbol
 _atom_site_label
 _atom_site_symmetry_multiplicity
 _atom_site_fract_x
 _atom_site_fract_y
 _atom_site_fract_z
 _atom_site_occupancy
  La  La0  1  0.750000  0.477724  0.219585  1
  La  La1  1  0.750000  0.976889  0.280787  1
  La  La2  1  0.750000  0.338989  0.440832  1
  La  La3  1  0.750000  0.848003  0.058553  1
  La  La4  1  0.250000  0.165393  0.937463  1
  Pr  Pr5  1  0.250000  0.025491  0.721645  1
  Pr  Pr6  1  0.250000  0.651562  0.562004  1
  Pa  Pa7  1  0.250000  0.528441  0.779819  1
  Al  Al8  1  0.250000  0.649690  0.353114  1
  Al  Al9  1  0.750000  0.345810  0.648461  1
  Al  Al10  1  0.750000  0.843796  0.848742  1
  Al  Al11  1  0.250000  0.149209  0.146450  1
  Al  Al12  1  0.250000  0.507379  0.059594  1
  Al  Al13  1  0.750000  0.500418  0.939829  1
  Al  Al14  1  0.750000  0.987238  0.563847  1
  Al  Al15  1  0.250000  0.997277  0.440392  1
  Rh  Rh16  1  0.250000  0.768298  0.178465  1
  Rh  Rh17  1  0.750000  0.278218  0.814226  1
  Rh  Rh18  1  0.750000  0.704902  0.694684  1
  Rh  Rh19  1  0.250000  0.270070  0.320896  1
  Rh  Rh20  1  0.250000  0.712247  0.918993  1
  Rh  Rh21  1  0.750000  0.281894  0.071981  1
  Rh  Rh22  1  0.750000  0.779689  0.429733  1
  Rh  Rh23  1  0.250000  0.211370  0.569902  1
