# generated using pymatgen
data_TmLu3(HfNi)4
_symmetry_space_group_name_H-M   'P 1'
_cell_length_a   4.55329500
_cell_length_b   6.81948182
_cell_length_c   7.84843815
_cell_angle_alpha   90.07938087
_cell_angle_beta   90.00000000
_cell_angle_gamma   90.00000000
_symmetry_Int_Tables_number   1
_chemical_formula_structural   TmLu3(HfNi)4
_chemical_formula_sum   'Tm1 Lu3 Hf4 Ni4'
_cell_volume   243.70250196
_cell_formula_units_Z   1
loop_
 _symmetry_equiv_pos_site_id
 _symmetry_equiv_pos_as_xyz
  1  'x, y, z'
loop_
 _atom_site_type_symbol
 _atom_site_label
 _atom_site_symmetry_multiplicity
 _atom_site_fract_x
 _atom_site_fract_y
 _atom_site_fract_z
 _atom_site_occupancy
  Tm  Tm0  1  0.250000  0.023139  0.327319  1
  Lu  Lu1  1  0.250000  0.523721  0.173233  1
  Lu  Lu2  1  0.750000  0.476555  0.826621  1
  Lu  Lu3  1  0.750000  0.976105  0.673526  1
  Hf  Hf4  1  0.250000  0.640489  0.580832  1
  Hf  Hf5  1  0.750000  0.359218  0.419779  1
  Hf  Hf6  1  0.750000  0.859012  0.079777  1
  Hf  Hf7  1  0.250000  0.141331  0.919292  1
  Ni  Ni8  1  0.250000  0.772352  0.904641  1
  Ni  Ni9  1  0.750000  0.228365  0.094008  1
  Ni  Ni10  1  0.750000  0.727626  0.405206  1
  Ni  Ni11  1  0.250000  0.272087  0.595765  1
