# generated using pymatgen
data_Nd2ThSn3IrRh2
_symmetry_space_group_name_H-M   'P 1'
_cell_length_a   7.55851586
_cell_length_b   7.64523770
_cell_length_c   4.10046100
_cell_angle_alpha   90.00000000
_cell_angle_beta   90.00000000
_cell_angle_gamma   120.32686590
_symmetry_Int_Tables_number   1
_chemical_formula_structural   Nd2ThSn3IrRh2
_chemical_formula_sum   'Nd2 Th1 Sn3 Ir1 Rh2'
_cell_volume   204.52714285
_cell_formula_units_Z   1
loop_
 _symmetry_equiv_pos_site_id
 _symmetry_equiv_pos_as_xyz
  1  'x, y, z'
loop_
 _atom_site_type_symbol
 _atom_site_label
 _atom_site_symmetry_multiplicity
 _atom_site_fract_x
 _atom_site_fract_y
 _atom_site_fract_z
 _atom_site_occupancy
  Nd  Nd0  1  0.410944  0.410317  0.000000  1
  Nd  Nd1  1  0.590641  0.003035  0.000000  1
  Th  Th2  1  0.999169  0.584191  0.000000  1
  Sn  Sn3  1  0.738693  0.748795  0.500000  1
  Sn  Sn4  1  0.001353  0.242154  0.500000  1
  Sn  Sn5  1  0.259883  0.008012  0.500000  1
  Ir  Ir6  1  0.688479  0.352108  0.500000  1
  Rh  Rh7  1  0.999375  0.987443  0.000000  1
  Rh  Rh8  1  0.311463  0.663945  0.500000  1
