# generated using pymatgen
data_Na2YbCeB24
_symmetry_space_group_name_H-M   'P 1'
_cell_length_a   4.13874000
_cell_length_b   5.85970400
_cell_length_c   11.68938100
_cell_angle_alpha   90.00000000
_cell_angle_beta   90.00000000
_cell_angle_gamma   90.00000000
_symmetry_Int_Tables_number   1
_chemical_formula_structural   Na2YbCeB24
_chemical_formula_sum   'Na2 Yb1 Ce1 B24'
_cell_volume   283.48842882
_cell_formula_units_Z   1
loop_
 _symmetry_equiv_pos_site_id
 _symmetry_equiv_pos_as_xyz
  1  'x, y, z'
loop_
 _atom_site_type_symbol
 _atom_site_label
 _atom_site_symmetry_multiplicity
 _atom_site_fract_x
 _atom_site_fract_y
 _atom_site_fract_z
 _atom_site_occupancy
  Na  Na0  1  0.000000  0.500000  0.240258  1
  Na  Na1  1  0.000000  0.500000  0.759742  1
  Yb  Yb2  1  0.000000  0.000000  0.000000  1
  Ce  Ce3  1  0.000000  0.000000  0.500000  1
  B  B4  1  0.200532  0.500000  0.500000  1
  B  B5  1  0.200673  0.000000  0.748956  1
  B  B6  1  0.200287  0.500000  0.000000  1
  B  B7  1  0.200673  0.000000  0.251044  1
  B  B8  1  0.500000  0.648324  0.575360  1
  B  B9  1  0.500000  0.150211  0.823984  1
  B  B10  1  0.500000  0.649917  0.074823  1
  B  B11  1  0.500000  0.149756  0.325546  1
  B  B12  1  0.500000  0.351676  0.575360  1
  B  B13  1  0.500000  0.849789  0.823984  1
  B  B14  1  0.500000  0.350083  0.074823  1
  B  B15  1  0.500000  0.850244  0.325546  1
  B  B16  1  0.500000  0.351676  0.424640  1
  B  B17  1  0.500000  0.850244  0.674454  1
  B  B18  1  0.500000  0.350083  0.925177  1
  B  B19  1  0.500000  0.849789  0.176016  1
  B  B20  1  0.500000  0.648324  0.424640  1
  B  B21  1  0.500000  0.149756  0.674454  1
  B  B22  1  0.500000  0.649917  0.925177  1
  B  B23  1  0.500000  0.150211  0.176016  1
  B  B24  1  0.799468  0.500000  0.500000  1
  B  B25  1  0.799327  0.000000  0.748956  1
  B  B26  1  0.799713  0.500000  0.000000  1
  B  B27  1  0.799327  0.000000  0.251044  1
