# generated using pymatgen
data_Ca4Nd8Zr4Sc(Ga5O16)3
_symmetry_space_group_name_H-M   'P 1'
_cell_length_a   10.99279573
_cell_length_b   11.05456772
_cell_length_c   11.06620800
_cell_angle_alpha   109.36635368
_cell_angle_beta   109.42802146
_cell_angle_gamma   109.29921767
_symmetry_Int_Tables_number   1
_chemical_formula_structural   Ca4Nd8Zr4Sc(Ga5O16)3
_chemical_formula_sum   'Ca4 Nd8 Zr4 Sc1 Ga15 O48'
_cell_volume   1039.27424068
_cell_formula_units_Z   1
loop_
 _symmetry_equiv_pos_site_id
 _symmetry_equiv_pos_as_xyz
  1  'x, y, z'
loop_
 _atom_site_type_symbol
 _atom_site_label
 _atom_site_symmetry_multiplicity
 _atom_site_fract_x
 _atom_site_fract_y
 _atom_site_fract_z
 _atom_site_occupancy
  Ca  Ca0  1  0.622818  0.237333  0.371132  1
  Ca  Ca1  1  0.873177  0.119964  0.242149  1
  Ca  Ca2  1  0.126823  0.880035  0.757852  1
  Ca  Ca3  1  0.377182  0.762669  0.628868  1
  Nd  Nd4  1  0.247358  0.623782  0.875063  1
  Nd  Nd5  1  0.629454  0.370130  0.748811  1
  Nd  Nd6  1  0.124476  0.250696  0.881263  1
  Nd  Nd7  1  0.250565  0.122439  0.369769  1
  Nd  Nd8  1  0.875520  0.749303  0.118739  1
  Nd  Nd9  1  0.749434  0.877560  0.630230  1
  Nd  Nd10  1  0.370541  0.629868  0.251187  1
  Nd  Nd11  1  0.752641  0.376219  0.124934  1
  Zr  Zr12  1  0.000004  0.000003  0.500003  1
  Zr  Zr13  1  0.500001  0.000001  0.000002  1
  Zr  Zr14  1  0.999998  0.499999  0.499999  1
  Zr  Zr15  1  0.500001  0.500000  0.500000  1
  Sc  Sc16  1  0.499999  0.499999  0.999999  1
  Ga  Ga17  1  0.884379  0.636974  0.762479  1
  Ga  Ga18  1  0.627250  0.752524  0.872964  1
  Ga  Ga19  1  0.868130  0.252540  0.628297  1
  Ga  Ga20  1  0.246463  0.870194  0.128381  1
  Ga  Ga21  1  0.250924  0.373908  0.628865  1
  Ga  Ga22  1  0.999999  0.999998  0.999998  1
  Ga  Ga23  1  0.624846  0.878151  0.252565  1
  Ga  Ga24  1  0.375155  0.121848  0.747436  1
  Ga  Ga25  1  0.499999  0.000000  0.499999  1
  Ga  Ga26  1  0.753536  0.129804  0.871619  1
  Ga  Ga27  1  0.749077  0.626093  0.371136  1
  Ga  Ga28  1  0.131870  0.747460  0.371702  1
  Ga  Ga29  1  0.000000  0.500000  0.000000  1
  Ga  Ga30  1  0.372750  0.247477  0.127035  1
  Ga  Ga31  1  0.115624  0.363028  0.237519  1
  O  O32  1  0.295508  0.877236  0.983120  1
  O  O33  1  0.418341  0.290320  0.321204  1
  O  O34  1  0.689990  0.488468  0.609114  1
  O  O35  1  0.028696  0.626623  0.710997  1
  O  O36  1  0.474776  0.791133  0.877641  1
  O  O37  1  0.207008  0.521099  0.623199  1
  O  O38  1  0.878583  0.296679  0.482664  1
  O  O39  1  0.020342  0.403377  0.821572  1
  O  O40  1  0.672633  0.201889  0.581676  1
  O  O41  1  0.398942  0.015957  0.320295  1
  O  O42  1  0.624993  0.024921  0.206373  1
  O  O43  1  0.622028  0.597910  0.911778  1
  O  O44  1  0.081112  0.173838  0.199251  1
  O  O45  1  0.403814  0.377090  0.587125  1
  O  O46  1  0.290142  0.413562  0.819181  1
  O  O47  1  0.102718  0.183052  0.477866  1
  O  O48  1  0.883175  0.584076  0.907142  1
  O  O49  1  0.820887  0.902011  0.018944  1
  O  O50  1  0.914484  0.100369  0.623991  1
  O  O51  1  0.199071  0.674789  0.081371  1
  O  O52  1  0.586108  0.882081  0.406352  1
  O  O53  1  0.817117  0.913167  0.291249  1
  O  O54  1  0.525689  0.315471  0.900002  1
  O  O55  1  0.094653  0.915462  0.120009  1
  O  O56  1  0.905347  0.084538  0.879991  1
  O  O57  1  0.474309  0.684528  0.099997  1
  O  O58  1  0.182886  0.086835  0.708751  1
  O  O59  1  0.413892  0.117919  0.593648  1
  O  O60  1  0.800928  0.325210  0.918627  1
  O  O61  1  0.085517  0.899631  0.376010  1
  O  O62  1  0.179113  0.097989  0.981056  1
  O  O63  1  0.116825  0.415922  0.092863  1
  O  O64  1  0.897284  0.816951  0.522135  1
  O  O65  1  0.709857  0.586439  0.180821  1
  O  O66  1  0.596188  0.622910  0.412874  1
  O  O67  1  0.918888  0.826157  0.800749  1
  O  O68  1  0.377970  0.402090  0.088221  1
  O  O69  1  0.375010  0.975079  0.793629  1
  O  O70  1  0.601056  0.984042  0.679703  1
  O  O71  1  0.327367  0.798111  0.418324  1
  O  O72  1  0.979659  0.596625  0.178428  1
  O  O73  1  0.121419  0.703322  0.517338  1
  O  O74  1  0.792991  0.478904  0.376801  1
  O  O75  1  0.525224  0.208868  0.122359  1
  O  O76  1  0.971303  0.373376  0.289002  1
  O  O77  1  0.310009  0.511531  0.390885  1
  O  O78  1  0.581660  0.709680  0.678797  1
  O  O79  1  0.704493  0.122764  0.016879  1
