# generated using pymatgen
data_Hf6Ga6NiIr3Pd2
_symmetry_space_group_name_H-M   'P 1'
_cell_length_a   7.23388700
_cell_length_b   7.23388596
_cell_length_c   6.74202300
_cell_angle_alpha   90.00000000
_cell_angle_beta   90.00000000
_cell_angle_gamma   120.00000017
_symmetry_Int_Tables_number   1
_chemical_formula_structural   Hf6Ga6NiIr3Pd2
_chemical_formula_sum   'Hf6 Ga6 Ni1 Ir3 Pd2'
_cell_volume   305.53730187
_cell_formula_units_Z   1
loop_
 _symmetry_equiv_pos_site_id
 _symmetry_equiv_pos_as_xyz
  1  'x, y, z'
loop_
 _atom_site_type_symbol
 _atom_site_label
 _atom_site_symmetry_multiplicity
 _atom_site_fract_x
 _atom_site_fract_y
 _atom_site_fract_z
 _atom_site_occupancy
  Hf  Hf0  1  0.598701  0.597724  0.253435  1
  Hf  Hf1  1  0.012108  0.397215  0.746682  1
  Hf  Hf2  1  0.402276  0.000977  0.253435  1
  Hf  Hf3  1  0.999023  0.401299  0.253435  1
  Hf  Hf4  1  0.385108  0.987892  0.746682  1
  Hf  Hf5  1  0.602785  0.614892  0.746682  1
  Ga  Ga6  1  0.267327  0.263567  0.509124  1
  Ga  Ga7  1  0.736433  0.003760  0.509124  1
  Ga  Ga8  1  0.996240  0.732673  0.509124  1
  Ga  Ga9  1  0.737847  0.003261  0.991594  1
  Ga  Ga10  1  0.265415  0.262153  0.991594  1
  Ga  Ga11  1  0.996739  0.734585  0.991594  1
  Ni  Ni12  1  0.000000  0.000000  0.749183  1
  Ir  Ir13  1  0.333333  0.666667  0.493148  1
  Ir  Ir14  1  0.333333  0.666667  0.006898  1
  Ir  Ir15  1  0.666667  0.333333  0.508805  1
  Pd  Pd16  1  0.000000  0.000000  0.252349  1
  Pd  Pd17  1  0.666667  0.333333  0.987118  1
