# generated using pymatgen
data_La13Pr7Ir11Rh
_symmetry_space_group_name_H-M   'P 1'
_cell_length_a   11.39036225
_cell_length_b   11.40988993
_cell_length_c   6.69193828
_cell_angle_alpha   89.93335268
_cell_angle_beta   89.97632390
_cell_angle_gamma   89.95190037
_symmetry_Int_Tables_number   1
_chemical_formula_structural   La13Pr7Ir11Rh
_chemical_formula_sum   'La13 Pr7 Ir11 Rh1'
_cell_volume   869.70192989
_cell_formula_units_Z   1
loop_
 _symmetry_equiv_pos_site_id
 _symmetry_equiv_pos_as_xyz
  1  'x, y, z'
loop_
 _atom_site_type_symbol
 _atom_site_label
 _atom_site_symmetry_multiplicity
 _atom_site_fract_x
 _atom_site_fract_y
 _atom_site_fract_z
 _atom_site_occupancy
  La  La0  1  0.291475  0.091038  0.387536  1
  La  La1  1  0.290550  0.908646  0.884601  1
  La  La2  1  0.709484  0.091600  0.885125  1
  La  La3  1  0.708260  0.909400  0.387807  1
  La  La4  1  0.591417  0.790570  0.884744  1
  La  La5  1  0.591367  0.208589  0.387978  1
  La  La6  1  0.408563  0.791486  0.387841  1
  La  La7  1  0.408231  0.209513  0.885339  1
  La  La8  1  0.206778  0.409073  0.613582  1
  La  La9  1  0.207644  0.591939  0.113860  1
  La  La10  1  0.792529  0.407359  0.113856  1
  La  La11  1  0.792725  0.590491  0.613597  1
  La  La12  1  0.908696  0.708165  0.114555  1
  Pr  Pr13  1  0.909952  0.291688  0.614792  1
  Pr  Pr14  1  0.090633  0.708433  0.614997  1
  Pr  Pr15  1  0.090932  0.291327  0.115510  1
  Pr  Pr16  1  0.999939  0.000123  0.499823  1
  Pr  Pr17  1  0.000274  0.000408  0.999475  1
  Pr  Pr18  1  0.500020  0.499836  0.000542  1
  Pr  Pr19  1  0.500074  0.500033  0.500227  1
  Ir  Ir20  1  0.844035  0.152300  0.249133  1
  Ir  Ir21  1  0.845601  0.845919  0.748997  1
  Ir  Ir22  1  0.154571  0.153526  0.747986  1
  Ir  Ir23  1  0.156168  0.847755  0.249280  1
  Ir  Ir24  1  0.653965  0.345795  0.749275  1
  Ir  Ir25  1  0.653125  0.655825  0.250130  1
  Ir  Ir26  1  0.347080  0.344334  0.250561  1
  Ir  Ir27  1  0.345952  0.654164  0.749258  1
  Ir  Ir28  1  0.500149  0.999921  0.623742  1
  Ir  Ir29  1  0.000118  0.500112  0.881822  1
  Ir  Ir30  1  0.999769  0.500615  0.379457  1
  Rh  Rh31  1  0.499923  0.000018  0.114575  1
