# generated using pymatgen
data_Nd7Gd(MoO6)4
_symmetry_space_group_name_H-M   'P 1'
_cell_length_a   10.21218070
_cell_length_b   10.21218088
_cell_length_c   5.57659438
_cell_angle_alpha   75.29780697
_cell_angle_beta   75.29780428
_cell_angle_gamma   68.50169006
_symmetry_Int_Tables_number   1
_chemical_formula_structural   Nd7Gd(MoO6)4
_chemical_formula_sum   'Nd7 Gd1 Mo4 O24'
_cell_volume   514.97632514
_cell_formula_units_Z   1
loop_
 _symmetry_equiv_pos_site_id
 _symmetry_equiv_pos_as_xyz
  1  'x, y, z'
loop_
 _atom_site_type_symbol
 _atom_site_label
 _atom_site_symmetry_multiplicity
 _atom_site_fract_x
 _atom_site_fract_y
 _atom_site_fract_z
 _atom_site_occupancy
  Nd  Nd0  1  0.787907  0.554041  0.618132  1
  Nd  Nd1  1  0.212068  0.444757  0.382222  1
  Nd  Nd2  1  0.611101  0.388899  0.250000  1
  Nd  Nd3  1  0.390171  0.609829  0.750000  1
  Nd  Nd4  1  0.555243  0.787932  0.117778  1
  Nd  Nd5  1  0.131660  0.868340  0.250000  1
  Nd  Nd6  1  0.445959  0.212093  0.881868  1
  Gd  Gd7  1  0.866352  0.133648  0.750000  1
  Mo  Mo8  1  0.295696  0.009268  0.559681  1
  Mo  Mo9  1  0.704762  0.990766  0.440916  1
  Mo  Mo10  1  0.990732  0.704304  0.940319  1
  Mo  Mo11  1  0.009234  0.295238  0.059084  1
  O  O12  1  0.392493  0.423076  0.578434  1
  O  O13  1  0.571316  0.975101  0.733166  1
  O  O14  1  0.823258  0.712769  0.863243  1
  O  O15  1  0.674816  0.114805  0.140139  1
  O  O16  1  0.114137  0.673123  0.638751  1
  O  O17  1  0.326877  0.885863  0.861249  1
  O  O18  1  0.287231  0.176742  0.636757  1
  O  O19  1  0.973194  0.571962  0.234910  1
  O  O20  1  0.576924  0.607507  0.921566  1
  O  O21  1  0.428038  0.026806  0.265090  1
  O  O22  1  0.112631  0.047821  0.520864  1
  O  O23  1  0.185344  0.664529  0.083701  1
  O  O24  1  0.813657  0.332030  0.910424  1
  O  O25  1  0.335471  0.814656  0.416299  1
  O  O26  1  0.885195  0.325184  0.359861  1
  O  O27  1  0.952179  0.887369  0.979136  1
  O  O28  1  0.886117  0.954218  0.484822  1
  O  O29  1  0.667970  0.186343  0.589576  1
  O  O30  1  0.713778  0.823595  0.363417  1
  O  O31  1  0.045782  0.113883  0.015178  1
  O  O32  1  0.176405  0.286222  0.136583  1
  O  O33  1  0.608054  0.576647  0.420501  1
  O  O34  1  0.423353  0.391946  0.079499  1
  O  O35  1  0.024899  0.428684  0.766834  1
