# generated using pymatgen
data_Er3UPt12
_symmetry_space_group_name_H-M   'P 1'
_cell_length_a   5.76033100
_cell_length_b   5.76033120
_cell_length_c   8.12312300
_cell_angle_alpha   90.00000000
_cell_angle_beta   90.00000000
_cell_angle_gamma   90.01508901
_symmetry_Int_Tables_number   1
_chemical_formula_structural   Er3UPt12
_chemical_formula_sum   'Er3 U1 Pt12'
_cell_volume   269.53670098
_cell_formula_units_Z   1
loop_
 _symmetry_equiv_pos_site_id
 _symmetry_equiv_pos_as_xyz
  1  'x, y, z'
loop_
 _atom_site_type_symbol
 _atom_site_label
 _atom_site_symmetry_multiplicity
 _atom_site_fract_x
 _atom_site_fract_y
 _atom_site_fract_z
 _atom_site_occupancy
  Er  Er0  1  0.500000  0.000000  0.249986  1
  Er  Er1  1  0.000000  0.500000  0.250074  1
  Er  Er2  1  0.500000  0.000000  0.749910  1
  U  U3  1  0.000000  0.500000  0.749939  1
  Pt  Pt4  1  0.246875  0.253125  0.997216  1
  Pt  Pt5  1  0.753202  0.253202  0.502828  1
  Pt  Pt6  1  0.752409  0.252409  0.997473  1
  Pt  Pt7  1  0.753125  0.746875  0.997216  1
  Pt  Pt8  1  0.500000  0.500000  0.749875  1
  Pt  Pt9  1  0.247690  0.252310  0.502492  1
  Pt  Pt10  1  0.752310  0.747690  0.502492  1
  Pt  Pt11  1  0.246798  0.746798  0.502828  1
  Pt  Pt12  1  0.500000  0.500000  0.250160  1
  Pt  Pt13  1  0.000000  0.000000  0.749875  1
  Pt  Pt14  1  0.000000  0.000000  0.250160  1
  Pt  Pt15  1  0.247591  0.747591  0.997473  1
