# generated using pymatgen
data_Tm20Ir3OsAu8
_symmetry_space_group_name_H-M   'P 1'
_cell_length_a   11.19164300
_cell_length_b   11.19164300
_cell_length_c   6.28483700
_cell_angle_alpha   90.00000000
_cell_angle_beta   90.00000000
_cell_angle_gamma   90.00000000
_symmetry_Int_Tables_number   1
_chemical_formula_structural   Tm20Ir3OsAu8
_chemical_formula_sum   'Tm20 Ir3 Os1 Au8'
_cell_volume   787.19389083
_cell_formula_units_Z   1
loop_
 _symmetry_equiv_pos_site_id
 _symmetry_equiv_pos_as_xyz
  1  'x, y, z'
loop_
 _atom_site_type_symbol
 _atom_site_label
 _atom_site_symmetry_multiplicity
 _atom_site_fract_x
 _atom_site_fract_y
 _atom_site_fract_z
 _atom_site_occupancy
  Tm  Tm0  1  0.299979  0.082693  0.354514  1
  Tm  Tm1  1  0.300418  0.917275  0.858757  1
  Tm  Tm2  1  0.699582  0.082725  0.858757  1
  Tm  Tm3  1  0.700021  0.917307  0.354514  1
  Tm  Tm4  1  0.582725  0.800418  0.858757  1
  Tm  Tm5  1  0.582693  0.200021  0.354514  1
  Tm  Tm6  1  0.417307  0.799979  0.354514  1
  Tm  Tm7  1  0.417275  0.199582  0.858757  1
  Tm  Tm8  1  0.200668  0.416818  0.642617  1
  Tm  Tm9  1  0.200663  0.583007  0.142623  1
  Tm  Tm10  1  0.799337  0.416993  0.142623  1
  Tm  Tm11  1  0.799332  0.583182  0.642617  1
  Tm  Tm12  1  0.916993  0.700663  0.142623  1
  Tm  Tm13  1  0.916818  0.299332  0.642617  1
  Tm  Tm14  1  0.083182  0.700668  0.642617  1
  Tm  Tm15  1  0.083007  0.299337  0.142623  1
  Tm  Tm16  1  0.000000  0.000000  0.499372  1
  Tm  Tm17  1  0.000000  0.000000  0.999490  1
  Tm  Tm18  1  0.500000  0.500000  0.999490  1
  Tm  Tm19  1  0.500000  0.500000  0.499372  1
  Ir  Ir20  1  0.500000  0.000000  0.606739  1
  Ir  Ir21  1  0.000000  0.500000  0.895329  1
  Ir  Ir22  1  0.000000  0.500000  0.395257  1
  Os  Os23  1  0.500000  0.000000  0.107816  1
  Au  Au24  1  0.844567  0.156434  0.250438  1
  Au  Au25  1  0.844059  0.843968  0.750335  1
  Au  Au26  1  0.155941  0.156032  0.750335  1
  Au  Au27  1  0.155433  0.843566  0.250438  1
  Au  Au28  1  0.656032  0.344059  0.750335  1
  Au  Au29  1  0.656434  0.655433  0.250438  1
  Au  Au30  1  0.343566  0.344567  0.250438  1
  Au  Au31  1  0.343968  0.655941  0.750335  1
