# generated using pymatgen
data_Zr16ZnFe4Pt3
_symmetry_space_group_name_H-M   'P 1'
_cell_length_a   8.70762797
_cell_length_b   8.72359649
_cell_length_c   8.72359700
_cell_angle_alpha   60.00000187
_cell_angle_beta   59.93931991
_cell_angle_gamma   59.93932286
_symmetry_Int_Tables_number   1
_chemical_formula_structural   Zr16ZnFe4Pt3
_chemical_formula_sum   'Zr16 Zn1 Fe4 Pt3'
_cell_volume   468.14146760
_cell_formula_units_Z   1
loop_
 _symmetry_equiv_pos_site_id
 _symmetry_equiv_pos_as_xyz
  1  'x, y, z'
loop_
 _atom_site_type_symbol
 _atom_site_label
 _atom_site_symmetry_multiplicity
 _atom_site_fract_x
 _atom_site_fract_y
 _atom_site_fract_z
 _atom_site_occupancy
  Zr  Zr0  1  0.063398  0.645534  0.645534  1
  Zr  Zr1  1  0.646323  0.059744  0.646967  1
  Zr  Zr2  1  0.646323  0.646967  0.059744  1
  Zr  Zr3  1  0.646323  0.646967  0.646967  1
  Zr  Zr4  1  0.812059  0.807373  0.190284  1
  Zr  Zr5  1  0.192743  0.192437  0.807410  1
  Zr  Zr6  1  0.812059  0.190284  0.807373  1
  Zr  Zr7  1  0.192743  0.807410  0.192437  1
  Zr  Zr8  1  0.192743  0.807410  0.807410  1
  Zr  Zr9  1  0.812059  0.190284  0.190284  1
  Zr  Zr10  1  0.443000  0.438154  0.059423  1
  Zr  Zr11  1  0.062022  0.064087  0.436946  1
  Zr  Zr12  1  0.443000  0.059423  0.438154  1
  Zr  Zr13  1  0.062022  0.436946  0.064087  1
  Zr  Zr14  1  0.062022  0.436946  0.436946  1
  Zr  Zr15  1  0.443000  0.059423  0.059423  1
  Zn  Zn16  1  0.731165  0.422945  0.422945  1
  Fe  Fe17  1  0.427157  0.857614  0.857614  1
  Fe  Fe18  1  0.856956  0.424311  0.859366  1
  Fe  Fe19  1  0.856956  0.859366  0.424311  1
  Fe  Fe20  1  0.856956  0.859366  0.859366  1
  Pt  Pt21  1  0.412990  0.762714  0.412148  1
  Pt  Pt22  1  0.412990  0.412148  0.762714  1
  Pt  Pt23  1  0.412990  0.412148  0.412148  1
