# generated using pymatgen
data_DyTm5CuRh17
_symmetry_space_group_name_H-M   'P 1'
_cell_length_a   5.25075700
_cell_length_b   5.25075766
_cell_length_c   17.36119200
_cell_angle_alpha   90.00000000
_cell_angle_beta   90.00000000
_cell_angle_gamma   119.99998955
_symmetry_Int_Tables_number   1
_chemical_formula_structural   DyTm5CuRh17
_chemical_formula_sum   'Dy1 Tm5 Cu1 Rh17'
_cell_volume   414.52822995
_cell_formula_units_Z   1
loop_
 _symmetry_equiv_pos_site_id
 _symmetry_equiv_pos_as_xyz
  1  'x, y, z'
loop_
 _atom_site_type_symbol
 _atom_site_label
 _atom_site_symmetry_multiplicity
 _atom_site_fract_x
 _atom_site_fract_y
 _atom_site_fract_z
 _atom_site_occupancy
  Dy  Dy0  1  0.666667  0.333333  0.250000  1
  Tm  Tm1  1  0.333333  0.666667  0.957439  1
  Tm  Tm2  1  0.666667  0.333333  0.040460  1
  Tm  Tm3  1  0.666667  0.333333  0.459540  1
  Tm  Tm4  1  0.333333  0.666667  0.542561  1
  Tm  Tm5  1  0.333333  0.666667  0.750000  1
  Cu  Cu6  1  0.333333  0.666667  0.250000  1
  Rh  Rh7  1  0.169204  0.830796  0.374293  1
  Rh  Rh8  1  0.169204  0.338411  0.374293  1
  Rh  Rh9  1  0.661589  0.830796  0.374293  1
  Rh  Rh10  1  0.832585  0.167415  0.624201  1
  Rh  Rh11  1  0.832585  0.665171  0.624201  1
  Rh  Rh12  1  0.334829  0.167415  0.624201  1
  Rh  Rh13  1  0.832585  0.167415  0.875799  1
  Rh  Rh14  1  0.832585  0.665171  0.875799  1
  Rh  Rh15  1  0.334829  0.167415  0.875799  1
  Rh  Rh16  1  0.169204  0.830796  0.125707  1
  Rh  Rh17  1  0.169204  0.338411  0.125707  1
  Rh  Rh18  1  0.661589  0.830796  0.125707  1
  Rh  Rh19  1  0.666667  0.333333  0.750000  1
  Rh  Rh20  1  0.000000  0.000000  0.250000  1
  Rh  Rh21  1  0.000000  0.000000  0.750000  1
  Rh  Rh22  1  0.000000  0.000000  0.497663  1
  Rh  Rh23  1  0.000000  0.000000  0.002337  1
