# generated using pymatgen
data_Ho3Er(Tm3Pt4)2
_symmetry_space_group_name_H-M   'P 1'
_cell_length_a   7.41130501
_cell_length_b   7.49335500
_cell_length_c   14.60926402
_cell_angle_alpha   89.99792477
_cell_angle_beta   90.00588686
_cell_angle_gamma   89.99883140
_symmetry_Int_Tables_number   1
_chemical_formula_structural   Ho3Er(Tm3Pt4)2
_chemical_formula_sum   'Ho6 Er2 Tm12 Pt16'
_cell_volume   811.33335367
_cell_formula_units_Z   2
loop_
 _symmetry_equiv_pos_site_id
 _symmetry_equiv_pos_as_xyz
  1  'x, y, z'
loop_
 _atom_site_type_symbol
 _atom_site_label
 _atom_site_symmetry_multiplicity
 _atom_site_fract_x
 _atom_site_fract_y
 _atom_site_fract_z
 _atom_site_occupancy
  Ho  Ho0  1  0.501291  0.679571  0.592683  1
  Ho  Ho1  1  0.001277  0.820455  0.907312  1
  Ho  Ho2  1  0.498739  0.320769  0.092604  1
  Ho  Ho3  1  0.998721  0.179258  0.407399  1
  Ho  Ho4  1  0.498683  0.320507  0.407311  1
  Ho  Ho5  1  0.998687  0.179478  0.092687  1
  Er  Er6  1  0.501425  0.679577  0.907239  1
  Er  Er7  1  0.001380  0.820404  0.592799  1
  Tm  Tm8  1  0.656482  0.167467  0.622543  1
  Tm  Tm9  1  0.156487  0.332537  0.877466  1
  Tm  Tm10  1  0.343877  0.832248  0.122465  1
  Tm  Tm11  1  0.843868  0.667759  0.377532  1
  Tm  Tm12  1  0.343608  0.832482  0.377433  1
  Tm  Tm13  1  0.843601  0.667529  0.122562  1
  Tm  Tm14  1  0.656337  0.167573  0.877411  1
  Tm  Tm15  1  0.156326  0.332436  0.622584  1
  Tm  Tm16  1  0.819296  0.510466  0.750005  1
  Tm  Tm17  1  0.319296  0.989520  0.749981  1
  Tm  Tm18  1  0.180644  0.489615  0.250011  1
  Tm  Tm19  1  0.680642  0.010386  0.249996  1
  Pt  Pt20  1  0.683474  0.966230  0.458598  1
  Pt  Pt21  1  0.183556  0.533827  0.041374  1
  Pt  Pt22  1  0.316781  0.033158  0.958281  1
  Pt  Pt23  1  0.816863  0.466833  0.541728  1
  Pt  Pt24  1  0.315969  0.033112  0.541643  1
  Pt  Pt25  1  0.815963  0.466908  0.958376  1
  Pt  Pt26  1  0.683316  0.966085  0.041389  1
  Pt  Pt27  1  0.183325  0.533890  0.458543  1
  Pt  Pt28  1  0.454032  0.386719  0.750181  1
  Pt  Pt29  1  0.954068  0.113314  0.749910  1
  Pt  Pt30  1  0.546066  0.613417  0.249968  1
  Pt  Pt31  1  0.046074  0.886571  0.249940  1
  Pt  Pt32  1  0.682185  0.855911  0.750170  1
  Pt  Pt33  1  0.182162  0.644011  0.749888  1
  Pt  Pt34  1  0.317743  0.143756  0.249999  1
  Pt  Pt35  1  0.817757  0.356221  0.249990  1
