# generated using pymatgen
data_Tb2Pr6Sc12Si15Sn
_symmetry_space_group_name_H-M   'P 1'
_cell_length_a   7.26472335
_cell_length_b   7.54376766
_cell_length_c   14.30633439
_cell_angle_alpha   89.99144135
_cell_angle_beta   89.73114900
_cell_angle_gamma   90.07804641
_symmetry_Int_Tables_number   1
_chemical_formula_structural   Tb2Pr6Sc12Si15Sn
_chemical_formula_sum   'Tb2 Pr6 Sc12 Si15 Sn1'
_cell_volume   784.02618383
_cell_formula_units_Z   1
loop_
 _symmetry_equiv_pos_site_id
 _symmetry_equiv_pos_as_xyz
  1  'x, y, z'
loop_
 _atom_site_type_symbol
 _atom_site_label
 _atom_site_symmetry_multiplicity
 _atom_site_fract_x
 _atom_site_fract_y
 _atom_site_fract_z
 _atom_site_occupancy
  Tb  Tb0  1  0.007420  0.169383  0.396037  1
  Tb  Tb1  1  0.512873  0.322107  0.397265  1
  Pr  Pr2  1  0.489063  0.671965  0.903119  1
  Pr  Pr3  1  0.498498  0.680070  0.598949  1
  Pr  Pr4  1  0.987466  0.833792  0.597036  1
  Pr  Pr5  1  0.987811  0.828132  0.903265  1
  Pr  Pr6  1  0.511650  0.327804  0.098535  1
  Pr  Pr7  1  0.012524  0.172756  0.098492  1
  Sc  Sc8  1  0.342519  0.164317  0.629888  1
  Sc  Sc9  1  0.665290  0.825272  0.373204  1
  Sc  Sc10  1  0.661545  0.002058  0.752147  1
  Sc  Sc11  1  0.166635  0.682119  0.370275  1
  Sc  Sc12  1  0.830918  0.324386  0.876123  1
  Sc  Sc13  1  0.820611  0.322930  0.625550  1
  Sc  Sc14  1  0.838753  0.500234  0.250440  1
  Sc  Sc15  1  0.339453  0.999765  0.250609  1
  Sc  Sc16  1  0.329396  0.174944  0.875609  1
  Sc  Sc17  1  0.169870  0.675606  0.126352  1
  Sc  Sc18  1  0.669946  0.824043  0.125752  1
  Sc  Sc19  1  0.161134  0.498662  0.754869  1
  Si  Si20  1  0.288069  0.880314  0.751773  1
  Si  Si21  1  0.465274  0.622274  0.250298  1
  Si  Si22  1  0.035065  0.128217  0.750570  1
  Si  Si23  1  0.534679  0.375024  0.751610  1
  Si  Si24  1  0.963609  0.878176  0.249187  1
  Si  Si25  1  0.711328  0.119915  0.251228  1
  Si  Si26  1  0.848737  0.536894  0.040433  1
  Si  Si27  1  0.348596  0.962675  0.040212  1
  Si  Si28  1  0.151696  0.463251  0.961496  1
  Si  Si29  1  0.654222  0.043276  0.535312  1
  Si  Si30  1  0.343108  0.968322  0.457738  1
  Si  Si31  1  0.833487  0.534987  0.455487  1
  Si  Si32  1  0.791925  0.616786  0.750943  1
  Si  Si33  1  0.211231  0.379706  0.252487  1
  Si  Si34  1  0.650631  0.037319  0.961086  1
  Sn  Sn35  1  0.164970  0.452514  0.536623  1
