# generated using pymatgen
data_Ho8Re(B8Os)3
_symmetry_space_group_name_H-M   'P 1'
_cell_length_a   3.65351700
_cell_length_b   9.13577960
_cell_length_c   11.51668728
_cell_angle_alpha   90.08644155
_cell_angle_beta   90.00000000
_cell_angle_gamma   90.00000000
_symmetry_Int_Tables_number   1
_chemical_formula_structural   Ho8Re(B8Os)3
_chemical_formula_sum   'Ho8 Re1 B24 Os3'
_cell_volume   384.40039573
_cell_formula_units_Z   1
loop_
 _symmetry_equiv_pos_site_id
 _symmetry_equiv_pos_as_xyz
  1  'x, y, z'
loop_
 _atom_site_type_symbol
 _atom_site_label
 _atom_site_symmetry_multiplicity
 _atom_site_fract_x
 _atom_site_fract_y
 _atom_site_fract_z
 _atom_site_occupancy
  Ho  Ho0  1  0.000000  0.322345  0.414945  1
  Ho  Ho1  1  0.000000  0.680046  0.588004  1
  Ho  Ho2  1  0.000000  0.822576  0.083563  1
  Ho  Ho3  1  0.000000  0.176459  0.913279  1
  Ho  Ho4  1  0.000000  0.943411  0.371872  1
  Ho  Ho5  1  0.000000  0.055776  0.627767  1
  Ho  Ho6  1  0.000000  0.443074  0.127834  1
  Ho  Ho7  1  0.000000  0.556465  0.872700  1
  Re  Re8  1  0.000000  0.862375  0.821418  1
  B  B9  1  0.500000  0.553765  0.433326  1
  B  B10  1  0.500000  0.446259  0.566934  1
  B  B11  1  0.500000  0.053668  0.067185  1
  B  B12  1  0.500000  0.947123  0.933307  1
  B  B13  1  0.500000  0.748449  0.419465  1
  B  B14  1  0.500000  0.251570  0.580413  1
  B  B15  1  0.500000  0.248233  0.080657  1
  B  B16  1  0.500000  0.751450  0.919343  1
  B  B17  1  0.500000  0.790661  0.265970  1
  B  B18  1  0.500000  0.208998  0.733355  1
  B  B19  1  0.500000  0.291127  0.234055  1
  B  B20  1  0.500000  0.708292  0.765926  1
  B  B21  1  0.500000  0.631205  0.185359  1
  B  B22  1  0.500000  0.368384  0.814275  1
  B  B23  1  0.500000  0.131801  0.314817  1
  B  B24  1  0.500000  0.868536  0.685490  1
  B  B25  1  0.500000  0.983334  0.212606  1
  B  B26  1  0.500000  0.017713  0.787337  1
  B  B27  1  0.500000  0.483022  0.287801  1
  B  B28  1  0.500000  0.516927  0.712688  1
  B  B29  1  0.500000  0.605657  0.029946  1
  B  B30  1  0.500000  0.392907  0.970670  1
  B  B31  1  0.500000  0.107001  0.470032  1
  B  B32  1  0.500000  0.893527  0.528980  1
  Os  Os33  1  0.000000  0.637404  0.321466  1
  Os  Os34  1  0.000000  0.362578  0.678084  1
  Os  Os35  1  0.000000  0.137884  0.179131  1
