# generated using pymatgen
data_Th2InPb3
_symmetry_space_group_name_H-M   'P 1'
_cell_length_a   8.58203994
_cell_length_b   8.58203900
_cell_length_c   4.64065800
_cell_angle_alpha   90.00000000
_cell_angle_beta   90.00000000
_cell_angle_gamma   148.36434165
_symmetry_Int_Tables_number   1
_chemical_formula_structural   Th2InPb3
_chemical_formula_sum   'Th2 In1 Pb3'
_cell_volume   179.27478955
_cell_formula_units_Z   1
loop_
 _symmetry_equiv_pos_site_id
 _symmetry_equiv_pos_as_xyz
  1  'x, y, z'
loop_
 _atom_site_type_symbol
 _atom_site_label
 _atom_site_symmetry_multiplicity
 _atom_site_fract_x
 _atom_site_fract_y
 _atom_site_fract_z
 _atom_site_occupancy
  Th  Th0  1  0.855959  0.144041  0.000000  1
  Th  Th1  1  0.144041  0.855959  0.000000  1
  In  In2  1  0.000000  0.000000  0.500000  1
  Pb  Pb3  1  0.500000  0.500000  0.000000  1
  Pb  Pb4  1  0.679308  0.320692  0.500000  1
  Pb  Pb5  1  0.320692  0.679308  0.500000  1
