# generated using pymatgen
data_Ba5BiP2F
_symmetry_space_group_name_H-M   'P 1'
_cell_length_a   9.82628289
_cell_length_b   9.82628340
_cell_length_c   9.82628300
_cell_angle_alpha   126.10758934
_cell_angle_beta   126.10759151
_cell_angle_gamma   79.71137432
_symmetry_Int_Tables_number   1
_chemical_formula_structural   Ba5BiP2F
_chemical_formula_sum   'Ba10 Bi2 P4 F2'
_cell_volume   598.25786580
_cell_formula_units_Z   2
loop_
 _symmetry_equiv_pos_site_id
 _symmetry_equiv_pos_as_xyz
  1  'x, y, z'
loop_
 _atom_site_type_symbol
 _atom_site_label
 _atom_site_symmetry_multiplicity
 _atom_site_fract_x
 _atom_site_fract_y
 _atom_site_fract_z
 _atom_site_occupancy
  Ba  Ba0  1  0.500000  0.500000  0.000000  1
  Ba  Ba1  1  0.000000  0.000000  0.000000  1
  Ba  Ba2  1  0.519814  0.019814  0.804858  1
  Ba  Ba3  1  0.214956  0.714956  0.195142  1
  Ba  Ba4  1  0.019814  0.214956  0.500000  1
  Ba  Ba5  1  0.714956  0.519814  0.500000  1
  Ba  Ba6  1  0.480186  0.980186  0.195142  1
  Ba  Ba7  1  0.785044  0.285044  0.804858  1
  Ba  Ba8  1  0.980186  0.785044  0.500000  1
  Ba  Ba9  1  0.285044  0.480186  0.500000  1
  Bi  Bi10  1  0.250000  0.250000  0.000000  1
  Bi  Bi11  1  0.750000  0.750000  0.000000  1
  P  P12  1  0.846303  0.346303  0.192608  1
  P  P13  1  0.153697  0.653697  0.807393  1
  P  P14  1  0.346303  0.153697  0.500000  1
  P  P15  1  0.653697  0.846303  0.500000  1
  F  F16  1  0.250000  0.750000  0.500000  1
  F  F17  1  0.750000  0.250000  0.500000  1
