# generated using pymatgen
data_NaSbP4O13
_symmetry_space_group_name_H-M   'P 1'
_cell_length_a   5.11241982
_cell_length_b   7.96877547
_cell_length_c   14.49037804
_cell_angle_alpha   83.49692568
_cell_angle_beta   82.95280988
_cell_angle_gamma   80.54780203
_symmetry_Int_Tables_number   1
_chemical_formula_structural   NaSbP4O13
_chemical_formula_sum   'Na2 Sb2 P8 O26'
_cell_volume   575.30011842
_cell_formula_units_Z   2
loop_
 _symmetry_equiv_pos_site_id
 _symmetry_equiv_pos_as_xyz
  1  'x, y, z'
loop_
 _atom_site_type_symbol
 _atom_site_label
 _atom_site_symmetry_multiplicity
 _atom_site_fract_x
 _atom_site_fract_y
 _atom_site_fract_z
 _atom_site_occupancy
  Na  Na0  1  0.423309  0.470820  0.509942  1
  Na  Na1  1  0.849027  0.654027  0.994492  1
  Sb  Sb2  1  0.421748  0.050735  0.258231  1
  Sb  Sb3  1  0.578218  0.945750  0.742732  1
  P  P4  1  0.353668  0.585279  0.804444  1
  P  P5  1  0.999342  0.104518  0.850592  1
  P  P6  1  0.728558  0.327664  0.704422  1
  P  P7  1  0.845510  0.208672  0.363727  1
  P  P8  1  0.999577  0.889964  0.152224  1
  P  P9  1  0.277987  0.665907  0.295621  1
  P  P10  1  0.156410  0.793240  0.632151  1
  P  P11  1  0.647558  0.409343  0.190228  1
  O  O12  1  0.482895  0.593429  0.210541  1
  O  O13  1  0.693193  0.956377  0.158266  1
  O  O14  1  0.596289  0.179044  0.677945  1
  O  O15  1  0.861351  0.952699  0.825199  1
  O  O16  1  0.206203  0.633082  0.711945  1
  O  O17  1  0.814016  0.430010  0.101122  1
  O  O18  1  0.403485  0.816648  0.322254  1
  O  O19  1  0.434066  0.288108  0.198989  1
  O  O20  1  0.522733  0.402330  0.788938  1
  O  O21  1  0.022740  0.747940  0.243509  1
  O  O22  1  0.566417  0.706705  0.802209  1
  O  O23  1  0.980995  0.243723  0.756643  1
  O  O24  1  0.289915  0.938536  0.663313  1
  O  O25  1  0.098691  0.811973  0.064490  1
  O  O26  1  0.848300  0.853121  0.642838  1
  O  O27  1  0.888633  0.179373  0.937232  1
  O  O28  1  0.783835  0.455071  0.625856  1
  O  O29  1  0.306653  0.036033  0.843646  1
  O  O30  1  0.741736  0.273328  0.454137  1
  O  O31  1  0.222110  0.535242  0.372078  1
  O  O32  1  0.151952  0.142082  0.358171  1
  O  O33  1  0.143133  0.037671  0.175000  1
  O  O34  1  0.170783  0.571497  0.889874  1
  O  O35  1  0.817136  0.357498  0.277452  1
  O  O36  1  0.709833  0.060124  0.336918  1
  O  O37  1  0.255247  0.738520  0.539124  1
