# generated using pymatgen
data_Tb3Ce(YIn5)2
_symmetry_space_group_name_H-M   'P 1'
_cell_length_a   6.42805157
_cell_length_b   6.42805067
_cell_length_c   10.31859074
_cell_angle_alpha   90.50453679
_cell_angle_beta   90.50453529
_cell_angle_gamma   102.13579450
_symmetry_Int_Tables_number   1
_chemical_formula_structural   Tb3Ce(YIn5)2
_chemical_formula_sum   'Tb3 Ce1 Y2 In10'
_cell_volume   416.79329211
_cell_formula_units_Z   1
loop_
 _symmetry_equiv_pos_site_id
 _symmetry_equiv_pos_as_xyz
  1  'x, y, z'
loop_
 _atom_site_type_symbol
 _atom_site_label
 _atom_site_symmetry_multiplicity
 _atom_site_fract_x
 _atom_site_fract_y
 _atom_site_fract_z
 _atom_site_occupancy
  Tb  Tb0  1  0.209374  0.790626  0.000000  1
  Tb  Tb1  1  0.797596  0.202404  0.500000  1
  Tb  Tb2  1  0.791126  0.208874  0.000000  1
  Ce  Ce3  1  0.203338  0.796662  0.500000  1
  Y  Y4  1  0.620314  0.620993  0.252865  1
  Y  Y5  1  0.379007  0.379686  0.747135  1
  In  In6  1  0.005351  0.005385  0.245124  1
  In  In7  1  0.994615  0.994649  0.754876  1
  In  In8  1  0.304487  0.302832  0.043362  1
  In  In9  1  0.697168  0.695513  0.956638  1
  In  In10  1  0.306645  0.308135  0.451036  1
  In  In11  1  0.691865  0.693355  0.548964  1
  In  In12  1  0.504451  0.069552  0.248274  1
  In  In13  1  0.930448  0.495549  0.751726  1
  In  In14  1  0.497347  0.933134  0.752494  1
  In  In15  1  0.066866  0.502653  0.247506  1
