# generated using pymatgen
data_AsRhI18
_symmetry_space_group_name_H-M   'P 1'
_cell_length_a   10.10182343
_cell_length_b   10.16017859
_cell_length_c   10.08501872
_cell_angle_alpha   93.52962431
_cell_angle_beta   93.57601352
_cell_angle_gamma   93.46162802
_symmetry_Int_Tables_number   1
_chemical_formula_structural   AsRhI18
_chemical_formula_sum   'As1 Rh1 I18'
_cell_volume   1028.96935795
_cell_formula_units_Z   1
loop_
 _symmetry_equiv_pos_site_id
 _symmetry_equiv_pos_as_xyz
  1  'x, y, z'
loop_
 _atom_site_type_symbol
 _atom_site_label
 _atom_site_symmetry_multiplicity
 _atom_site_fract_x
 _atom_site_fract_y
 _atom_site_fract_z
 _atom_site_occupancy
  As  As0  1  0.500000  0.500000  0.500000  1
  Rh  Rh1  1  0.000000  0.000000  0.000000  1
  I  I2  1  0.786260  0.480164  0.524655  1
  I  I3  1  0.524407  0.784408  0.479463  1
  I  I4  1  0.480385  0.525496  0.786682  1
  I  I5  1  0.213740  0.519836  0.475345  1
  I  I6  1  0.475593  0.215592  0.520537  1
  I  I7  1  0.519615  0.474504  0.213318  1
  I  I8  1  0.897831  0.363818  0.765384  1
  I  I9  1  0.764956  0.896502  0.364592  1
  I  I10  1  0.364600  0.765299  0.897653  1
  I  I11  1  0.102169  0.636182  0.234616  1
  I  I12  1  0.235044  0.103498  0.635408  1
  I  I13  1  0.635400  0.234701  0.102347  1
  I  I14  1  0.000636  0.966440  0.732505  1
  I  I15  1  0.733130  0.000974  0.965536  1
  I  I16  1  0.965332  0.734693  0.999815  1
  I  I17  1  0.999364  0.033560  0.267495  1
  I  I18  1  0.266870  0.999026  0.034464  1
  I  I19  1  0.034668  0.265307  0.000185  1
