# generated using pymatgen
data_Nd16Cd3Co4Ag
_symmetry_space_group_name_H-M   'P 1'
_cell_length_a   9.80487171
_cell_length_b   9.80487164
_cell_length_c   9.80487190
_cell_angle_alpha   60.13950558
_cell_angle_beta   60.13950272
_cell_angle_gamma   60.13950184
_symmetry_Int_Tables_number   1
_chemical_formula_structural   Nd16Cd3Co4Ag
_chemical_formula_sum   'Nd16 Cd3 Co4 Ag1'
_cell_volume   668.62252541
_cell_formula_units_Z   1
loop_
 _symmetry_equiv_pos_site_id
 _symmetry_equiv_pos_as_xyz
  1  'x, y, z'
loop_
 _atom_site_type_symbol
 _atom_site_label
 _atom_site_symmetry_multiplicity
 _atom_site_fract_x
 _atom_site_fract_y
 _atom_site_fract_z
 _atom_site_occupancy
  Nd  Nd0  1  0.561296  0.936258  0.561296  1
  Nd  Nd1  1  0.189336  0.189336  0.810658  1
  Nd  Nd2  1  0.561296  0.561296  0.936258  1
  Nd  Nd3  1  0.958888  0.347113  0.347113  1
  Nd  Nd4  1  0.809688  0.189719  0.809688  1
  Nd  Nd5  1  0.189336  0.810658  0.189336  1
  Nd  Nd6  1  0.347113  0.347113  0.958888  1
  Nd  Nd7  1  0.347113  0.958888  0.347113  1
  Nd  Nd8  1  0.938709  0.938709  0.561243  1
  Nd  Nd9  1  0.936258  0.561296  0.561296  1
  Nd  Nd10  1  0.345627  0.345627  0.345627  1
  Nd  Nd11  1  0.809688  0.809688  0.189719  1
  Nd  Nd12  1  0.810658  0.189336  0.189336  1
  Nd  Nd13  1  0.561243  0.938709  0.938709  1
  Nd  Nd14  1  0.938709  0.561243  0.938709  1
  Nd  Nd15  1  0.189719  0.809688  0.809688  1
  Cd  Cd16  1  0.579597  0.263073  0.579597  1
  Cd  Cd17  1  0.579597  0.579597  0.263073  1
  Cd  Cd18  1  0.263073  0.579597  0.579597  1
  Co  Co19  1  0.141740  0.577985  0.141740  1
  Co  Co20  1  0.577985  0.141740  0.141740  1
  Co  Co21  1  0.141740  0.141740  0.577985  1
  Co  Co22  1  0.140708  0.140708  0.140708  1
  Ag  Ag23  1  0.580887  0.580887  0.580887  1
