# generated using pymatgen
data_Ho6Er2Sc12Si15Ge
_symmetry_space_group_name_H-M   'P 1'
_cell_length_a   7.07949097
_cell_length_b   7.36377566
_cell_length_c   13.96008846
_cell_angle_alpha   89.99313059
_cell_angle_beta   89.82004468
_cell_angle_gamma   90.01733470
_symmetry_Int_Tables_number   1
_chemical_formula_structural   Ho6Er2Sc12Si15Ge
_chemical_formula_sum   'Ho6 Er2 Sc12 Si15 Ge1'
_cell_volume   727.76067856
_cell_formula_units_Z   1
loop_
 _symmetry_equiv_pos_site_id
 _symmetry_equiv_pos_as_xyz
  1  'x, y, z'
loop_
 _atom_site_type_symbol
 _atom_site_label
 _atom_site_symmetry_multiplicity
 _atom_site_fract_x
 _atom_site_fract_y
 _atom_site_fract_z
 _atom_site_occupancy
  Ho  Ho0  1  0.489017  0.675724  0.903430  1
  Ho  Ho1  1  0.988715  0.824738  0.596763  1
  Ho  Ho2  1  0.511139  0.324500  0.096758  1
  Ho  Ho3  1  0.009802  0.175292  0.402792  1
  Ho  Ho4  1  0.511264  0.323062  0.402356  1
  Ho  Ho5  1  0.492077  0.677233  0.597184  1
  Er  Er6  1  0.011520  0.175819  0.096677  1
  Er  Er7  1  0.988565  0.824474  0.903464  1
  Sc  Sc8  1  0.162406  0.502739  0.751361  1
  Sc  Sc9  1  0.837390  0.497300  0.250084  1
  Sc  Sc10  1  0.337605  0.002709  0.249950  1
  Sc  Sc11  1  0.662447  0.997265  0.750070  1
  Sc  Sc12  1  0.334697  0.173874  0.626460  1
  Sc  Sc13  1  0.666547  0.824013  0.374017  1
  Sc  Sc14  1  0.165939  0.677221  0.374230  1
  Sc  Sc15  1  0.667801  0.822884  0.125155  1
  Sc  Sc16  1  0.831554  0.323954  0.625195  1
  Sc  Sc17  1  0.331907  0.176585  0.874787  1
  Sc  Sc18  1  0.832036  0.323007  0.874888  1
  Sc  Sc19  1  0.167693  0.677205  0.125185  1
  Si  Si20  1  0.034574  0.116060  0.750207  1
  Si  Si21  1  0.965204  0.884873  0.249426  1
  Si  Si22  1  0.464471  0.615933  0.249590  1
  Si  Si23  1  0.534760  0.384305  0.750420  1
  Si  Si24  1  0.286353  0.871833  0.750480  1
  Si  Si25  1  0.713689  0.127449  0.249360  1
  Si  Si26  1  0.212817  0.372531  0.249773  1
  Si  Si27  1  0.787430  0.627694  0.750287  1
  Si  Si28  1  0.834786  0.536844  0.459729  1
  Si  Si29  1  0.339971  0.964410  0.460669  1
  Si  Si30  1  0.841295  0.535020  0.039473  1
  Si  Si31  1  0.660091  0.035869  0.539116  1
  Si  Si32  1  0.158624  0.464914  0.960777  1
  Si  Si33  1  0.658963  0.035197  0.960697  1
  Si  Si34  1  0.340891  0.964931  0.039419  1
  Ge  Ge35  1  0.165959  0.462538  0.539773  1
