# generated using pymatgen
data_Th3Al2GaNiRh2
_symmetry_space_group_name_H-M   'P 1'
_cell_length_a   7.27520800
_cell_length_b   7.21835693
_cell_length_c   4.05985500
_cell_angle_alpha   90.00000000
_cell_angle_beta   90.00000000
_cell_angle_gamma   120.26088573
_symmetry_Int_Tables_number   1
_chemical_formula_structural   Th3Al2GaNiRh2
_chemical_formula_sum   'Th3 Al2 Ga1 Ni1 Rh2'
_cell_volume   184.15232659
_cell_formula_units_Z   1
loop_
 _symmetry_equiv_pos_site_id
 _symmetry_equiv_pos_as_xyz
  1  'x, y, z'
loop_
 _atom_site_type_symbol
 _atom_site_label
 _atom_site_symmetry_multiplicity
 _atom_site_fract_x
 _atom_site_fract_y
 _atom_site_fract_z
 _atom_site_occupancy
  Th  Th0  1  0.998209  0.411217  0.500000  1
  Th  Th1  1  0.586991  0.588783  0.500000  1
  Th  Th2  1  0.416488  0.000000  0.500000  1
  Al  Al3  1  0.000711  0.772854  0.000000  1
  Al  Al4  1  0.227856  0.227146  0.000000  1
  Ga  Ga5  1  0.770573  0.000000  0.000000  1
  Ni  Ni6  1  0.006345  0.000000  0.500000  1
  Rh  Rh7  1  0.327946  0.663066  0.000000  1
  Rh  Rh8  1  0.664881  0.336934  0.000000  1
