# generated using pymatgen
data_Ho6Er3TmIn8
_symmetry_space_group_name_H-M   'P 1'
_cell_length_a   9.22717600
_cell_length_b   9.22717702
_cell_length_c   6.65222000
_cell_angle_alpha   90.00000000
_cell_angle_beta   90.00000000
_cell_angle_gamma   119.99999634
_symmetry_Int_Tables_number   1
_chemical_formula_structural   Ho6Er3TmIn8
_chemical_formula_sum   'Ho6 Er3 Tm1 In8'
_cell_volume   490.49536557
_cell_formula_units_Z   1
loop_
 _symmetry_equiv_pos_site_id
 _symmetry_equiv_pos_as_xyz
  1  'x, y, z'
loop_
 _atom_site_type_symbol
 _atom_site_label
 _atom_site_symmetry_multiplicity
 _atom_site_fract_x
 _atom_site_fract_y
 _atom_site_fract_z
 _atom_site_occupancy
  Ho  Ho0  1  0.288964  0.999981  0.750014  1
  Ho  Ho1  1  0.711017  0.999981  0.249986  1
  Ho  Ho2  1  0.000019  0.288983  0.750014  1
  Ho  Ho3  1  0.000019  0.711036  0.249986  1
  Ho  Ho4  1  0.711017  0.711036  0.750014  1
  Ho  Ho5  1  0.288964  0.288983  0.249986  1
  Er  Er6  1  0.333333  0.666667  0.500000  1
  Er  Er7  1  0.666667  0.333333  0.500000  1
  Er  Er8  1  0.666667  0.333333  0.000000  1
  Tm  Tm9  1  0.333333  0.666667  0.000000  1
  In  In10  1  0.000000  0.000000  0.500000  1
  In  In11  1  0.000000  0.000000  0.000000  1
  In  In12  1  0.627543  0.999971  0.750016  1
  In  In13  1  0.372427  0.999971  0.249984  1
  In  In14  1  0.000029  0.627573  0.750016  1
  In  In15  1  0.000029  0.372457  0.249984  1
  In  In16  1  0.372427  0.372457  0.750016  1
  In  In17  1  0.627543  0.627573  0.249984  1
