# generated using pymatgen
data_Ac2LaTl5
_symmetry_space_group_name_H-M   'P 1'
_cell_length_a   6.97435757
_cell_length_b   6.97435663
_cell_length_c   11.02680700
_cell_angle_alpha   90.00000000
_cell_angle_beta   90.00000000
_cell_angle_gamma   77.22648078
_symmetry_Int_Tables_number   1
_chemical_formula_structural   Ac2LaTl5
_chemical_formula_sum   'Ac4 La2 Tl10'
_cell_volume   523.08808174
_cell_formula_units_Z   2
loop_
 _symmetry_equiv_pos_site_id
 _symmetry_equiv_pos_as_xyz
  1  'x, y, z'
loop_
 _atom_site_type_symbol
 _atom_site_label
 _atom_site_symmetry_multiplicity
 _atom_site_fract_x
 _atom_site_fract_y
 _atom_site_fract_z
 _atom_site_occupancy
  Ac  Ac0  1  0.205387  0.205387  0.000000  1
  Ac  Ac1  1  0.794614  0.794614  0.000000  1
  Ac  Ac2  1  0.205387  0.205387  0.500000  1
  Ac  Ac3  1  0.794614  0.794614  0.500000  1
  La  La4  1  0.361027  0.638973  0.250000  1
  La  La5  1  0.638973  0.361027  0.750000  1
  Tl  Tl6  1  0.690401  0.309600  0.049321  1
  Tl  Tl7  1  0.988615  0.011385  0.250000  1
  Tl  Tl8  1  0.503288  0.072766  0.250000  1
  Tl  Tl9  1  0.927234  0.496712  0.250000  1
  Tl  Tl10  1  0.690401  0.309600  0.450679  1
  Tl  Tl11  1  0.309600  0.690401  0.549321  1
  Tl  Tl12  1  0.072766  0.503288  0.750000  1
  Tl  Tl13  1  0.496712  0.927234  0.750000  1
  Tl  Tl14  1  0.011385  0.988615  0.750000  1
  Tl  Tl15  1  0.309600  0.690401  0.950678  1
