# generated using pymatgen
data_Cs2CoCuO4
_symmetry_space_group_name_H-M   'P 1'
_cell_length_a   6.68383173
_cell_length_b   6.68383106
_cell_length_c   5.50802600
_cell_angle_alpha   90.00000000
_cell_angle_beta   90.00000000
_cell_angle_gamma   132.29114349
_symmetry_Int_Tables_number   1
_chemical_formula_structural   Cs2CoCuO4
_chemical_formula_sum   'Cs2 Co1 Cu1 O4'
_cell_volume   182.02170985
_cell_formula_units_Z   1
loop_
 _symmetry_equiv_pos_site_id
 _symmetry_equiv_pos_as_xyz
  1  'x, y, z'
loop_
 _atom_site_type_symbol
 _atom_site_label
 _atom_site_symmetry_multiplicity
 _atom_site_fract_x
 _atom_site_fract_y
 _atom_site_fract_z
 _atom_site_occupancy
  Cs  Cs0  1  0.315668  0.684332  0.750000  1
  Cs  Cs1  1  0.682859  0.317141  0.250000  1
  Co  Co2  1  0.002104  0.997896  0.750000  1
  Cu  Cu3  1  0.998503  0.001497  0.250000  1
  O  O4  1  0.100649  0.899351  0.001714  1
  O  O5  1  0.899783  0.100217  0.994805  1
  O  O6  1  0.899783  0.100217  0.505195  1
  O  O7  1  0.100649  0.899351  0.498286  1
