# generated using pymatgen
data_Gd4Ga18Ir2Pt3Rh
_symmetry_space_group_name_H-M   'P 1'
_cell_length_a   7.66639834
_cell_length_b   7.66640292
_cell_length_c   9.49547870
_cell_angle_alpha   89.92044404
_cell_angle_beta   89.92033012
_cell_angle_gamma   119.83684082
_symmetry_Int_Tables_number   1
_chemical_formula_structural   Gd4Ga18Ir2Pt3Rh
_chemical_formula_sum   'Gd4 Ga18 Ir2 Pt3 Rh1'
_cell_volume   484.10606897
_cell_formula_units_Z   1
loop_
 _symmetry_equiv_pos_site_id
 _symmetry_equiv_pos_as_xyz
  1  'x, y, z'
loop_
 _atom_site_type_symbol
 _atom_site_label
 _atom_site_symmetry_multiplicity
 _atom_site_fract_x
 _atom_site_fract_y
 _atom_site_fract_z
 _atom_site_occupancy
  Gd  Gd0  1  0.996832  0.669024  0.249775  1
  Gd  Gd1  1  0.003168  0.330976  0.750225  1
  Gd  Gd2  1  0.669025  0.996831  0.249775  1
  Gd  Gd3  1  0.330975  0.003169  0.750225  1
  Ga  Ga4  1  0.128532  0.128531  0.247655  1
  Ga  Ga5  1  0.871468  0.871469  0.752345  1
  Ga  Ga6  1  0.999728  0.330769  0.081389  1
  Ga  Ga7  1  0.000272  0.669231  0.918611  1
  Ga  Ga8  1  0.001911  0.662162  0.579810  1
  Ga  Ga9  1  0.337838  0.998089  0.420190  1
  Ga  Ga10  1  0.998089  0.337838  0.420190  1
  Ga  Ga11  1  0.662162  0.001911  0.579810  1
  Ga  Ga12  1  0.669232  0.000272  0.918611  1
  Ga  Ga13  1  0.330768  0.999728  0.081389  1
  Ga  Ga14  1  0.333602  0.333602  0.562600  1
  Ga  Ga15  1  0.666398  0.666398  0.437400  1
  Ga  Ga16  1  0.671771  0.671771  0.067764  1
  Ga  Ga17  1  0.328229  0.328229  0.932236  1
  Ga  Ga18  1  0.340952  0.545209  0.252481  1
  Ga  Ga19  1  0.659048  0.454791  0.747519  1
  Ga  Ga20  1  0.545209  0.340952  0.252481  1
  Ga  Ga21  1  0.454791  0.659048  0.747519  1
  Ir  Ir22  1  0.328858  0.671140  0.499999  1
  Ir  Ir23  1  0.671142  0.328860  0.500001  1
  Pt  Pt24  1  0.671128  0.328869  0.000000  1
  Pt  Pt25  1  0.328872  0.671131  0.000000  1
  Pt  Pt26  1  0.000000  0.000000  0.500000  1
  Rh  Rh27  1  0.000000  0.000000  0.000000  1
