# generated using pymatgen
data_DyHo15Cd4Ru3Rh
_symmetry_space_group_name_H-M   'P 1'
_cell_length_a   9.60023097
_cell_length_b   9.60023097
_cell_length_c   9.59810056
_cell_angle_alpha   59.91283237
_cell_angle_beta   59.91283183
_cell_angle_gamma   59.91286482
_symmetry_Int_Tables_number   1
_chemical_formula_structural   DyHo15Cd4Ru3Rh
_chemical_formula_sum   'Dy1 Ho15 Cd4 Ru3 Rh1'
_cell_volume   624.27241758
_cell_formula_units_Z   1
loop_
 _symmetry_equiv_pos_site_id
 _symmetry_equiv_pos_as_xyz
  1  'x, y, z'
loop_
 _atom_site_type_symbol
 _atom_site_label
 _atom_site_symmetry_multiplicity
 _atom_site_fract_x
 _atom_site_fract_y
 _atom_site_fract_z
 _atom_site_occupancy
  Dy  Dy0  1  0.938067  0.938067  0.561410  1
  Ho  Ho1  1  0.562167  0.562167  0.935725  1
  Ho  Ho2  1  0.688845  0.688845  0.311297  1
  Ho  Ho3  1  0.151694  0.543450  0.151485  1
  Ho  Ho4  1  0.688621  0.311445  0.688919  1
  Ho  Ho5  1  0.152874  0.152874  0.152590  1
  Ho  Ho6  1  0.543450  0.151694  0.151485  1
  Ho  Ho7  1  0.690991  0.311264  0.310951  1
  Ho  Ho8  1  0.151666  0.151666  0.543537  1
  Ho  Ho9  1  0.311264  0.690991  0.310951  1
  Ho  Ho10  1  0.311445  0.688621  0.688919  1
  Ho  Ho11  1  0.935810  0.561853  0.562211  1
  Ho  Ho12  1  0.938147  0.561229  0.938196  1
  Ho  Ho13  1  0.561853  0.935810  0.562211  1
  Ho  Ho14  1  0.561229  0.938147  0.938196  1
  Ho  Ho15  1  0.311077  0.311077  0.691192  1
  Cd  Cd16  1  0.919702  0.919702  0.240924  1
  Cd  Cd17  1  0.241232  0.919696  0.919741  1
  Cd  Cd18  1  0.919245  0.919245  0.919667  1
  Cd  Cd19  1  0.919696  0.241232  0.919741  1
  Ru  Ru20  1  0.359910  0.359910  0.921461  1
  Ru  Ru21  1  0.360134  0.921453  0.359857  1
  Ru  Ru22  1  0.921453  0.360134  0.359857  1
  Rh  Rh23  1  0.359426  0.359426  0.359473  1
