# generated using pymatgen
data_V12Ga3Os
_symmetry_space_group_name_H-M   'P 1'
_cell_length_a   4.77043500
_cell_length_b   4.79017400
_cell_length_c   9.60280900
_cell_angle_alpha   90.00000000
_cell_angle_beta   90.00000000
_cell_angle_gamma   90.00000000
_symmetry_Int_Tables_number   1
_chemical_formula_structural   V12Ga3Os
_chemical_formula_sum   'V12 Ga3 Os1'
_cell_volume   219.43584063
_cell_formula_units_Z   1
loop_
 _symmetry_equiv_pos_site_id
 _symmetry_equiv_pos_as_xyz
  1  'x, y, z'
loop_
 _atom_site_type_symbol
 _atom_site_label
 _atom_site_symmetry_multiplicity
 _atom_site_fract_x
 _atom_site_fract_y
 _atom_site_fract_z
 _atom_site_occupancy
  V  V0  1  0.000000  0.500000  0.120748  1
  V  V1  1  0.000000  0.500000  0.629022  1
  V  V2  1  0.500000  0.256033  0.753075  1
  V  V3  1  0.500000  0.256033  0.246925  1
  V  V4  1  0.746912  0.000000  0.000000  1
  V  V5  1  0.751896  0.000000  0.500000  1
  V  V6  1  0.000000  0.500000  0.879252  1
  V  V7  1  0.000000  0.500000  0.370978  1
  V  V8  1  0.500000  0.743967  0.753075  1
  V  V9  1  0.500000  0.743967  0.246925  1
  V  V10  1  0.253088  0.000000  0.000000  1
  V  V11  1  0.248104  0.000000  0.500000  1
  Ga  Ga12  1  0.500000  0.500000  0.500000  1
  Ga  Ga13  1  0.000000  0.000000  0.749290  1
  Ga  Ga14  1  0.000000  0.000000  0.250710  1
  Os  Os15  1  0.500000  0.500000  0.000000  1
