# generated using pymatgen
data_HoBi7(W2O11)2
_symmetry_space_group_name_H-M   'P 1'
_cell_length_a   6.60070698
_cell_length_b   7.76423306
_cell_length_c   9.95385788
_cell_angle_alpha   100.65553330
_cell_angle_beta   90.60555644
_cell_angle_gamma   90.13887142
_symmetry_Int_Tables_number   1
_chemical_formula_structural   HoBi7(W2O11)2
_chemical_formula_sum   'Ho1 Bi7 W4 O22'
_cell_volume   501.30017164
_cell_formula_units_Z   1
loop_
 _symmetry_equiv_pos_site_id
 _symmetry_equiv_pos_as_xyz
  1  'x, y, z'
loop_
 _atom_site_type_symbol
 _atom_site_label
 _atom_site_symmetry_multiplicity
 _atom_site_fract_x
 _atom_site_fract_y
 _atom_site_fract_z
 _atom_site_occupancy
  Ho  Ho0  1  0.748989  0.371781  0.477578  1
  Bi  Bi1  1  0.244165  0.622596  0.516222  1
  Bi  Bi2  1  0.752476  0.876493  0.484635  1
  Bi  Bi3  1  0.250137  0.127110  0.516992  1
  Bi  Bi4  1  0.460769  0.937713  0.816762  1
  Bi  Bi5  1  0.538453  0.064616  0.183198  1
  Bi  Bi6  1  0.387814  0.455344  0.825469  1
  Bi  Bi7  1  0.618233  0.542557  0.174047  1
  W  W8  1  0.923106  0.699830  0.809271  1
  W  W9  1  0.074680  0.298524  0.189337  1
  W  W10  1  0.916686  0.200421  0.802697  1
  W  W11  1  0.081636  0.800343  0.195119  1
  O  O12  1  0.229781  0.716747  0.761059  1
  O  O13  1  0.767527  0.284861  0.240415  1
  O  O14  1  0.624429  0.670429  0.831161  1
  O  O15  1  0.373617  0.331562  0.171921  1
  O  O16  1  0.643456  0.254622  0.854643  1
  O  O17  1  0.355181  0.744027  0.149964  1
  O  O18  1  0.876247  0.176322  0.597661  1
  O  O19  1  0.118702  0.834542  0.402652  1
  O  O20  1  0.208614  0.145175  0.760054  1
  O  O21  1  0.789998  0.856444  0.240481  1
  O  O22  1  0.899634  0.625487  0.601264  1
  O  O23  1  0.087718  0.361601  0.398570  1
  O  O24  1  0.998109  0.548512  0.189300  1
  O  O25  1  0.001923  0.451960  0.813702  1
  O  O26  1  0.990213  0.780197  0.994363  1
  O  O27  1  0.006534  0.219442  0.005063  1
  O  O28  1  0.587266  0.601276  0.392489  1
  O  O29  1  0.440469  0.389130  0.608244  1
  O  O30  1  0.171078  0.057382  0.219025  1
  O  O31  1  0.828764  0.941227  0.775995  1
  O  O32  1  0.550881  0.106702  0.401269  1
  O  O33  1  0.452719  0.905026  0.599376  1
