# generated using pymatgen
data_Na2Mn3Co4Ni5As7
_symmetry_space_group_name_H-M   'P 1'
_cell_length_a   9.52758599
_cell_length_b   9.53817571
_cell_length_c   3.72161600
_cell_angle_alpha   90.00000000
_cell_angle_beta   90.00000000
_cell_angle_gamma   120.10190336
_symmetry_Int_Tables_number   1
_chemical_formula_structural   Na2Mn3Co4Ni5As7
_chemical_formula_sum   'Na2 Mn3 Co4 Ni5 As7'
_cell_volume   292.59272097
_cell_formula_units_Z   1
loop_
 _symmetry_equiv_pos_site_id
 _symmetry_equiv_pos_as_xyz
  1  'x, y, z'
loop_
 _atom_site_type_symbol
 _atom_site_label
 _atom_site_symmetry_multiplicity
 _atom_site_fract_x
 _atom_site_fract_y
 _atom_site_fract_z
 _atom_site_occupancy
  Na  Na0  1  0.334186  0.667231  0.000000  1
  Na  Na1  1  0.667219  0.334038  0.500000  1
  Mn  Mn2  1  0.220949  0.122634  0.500000  1
  Mn  Mn3  1  0.879921  0.098599  0.500000  1
  Mn  Mn4  1  0.901472  0.777897  0.500000  1
  Co  Co5  1  0.115609  0.273365  0.000000  1
  Co  Co6  1  0.723831  0.840780  0.000000  1
  Co  Co7  1  0.160250  0.883496  0.000000  1
  Co  Co8  1  0.046186  0.431926  0.500000  1
  Ni  Ni9  1  0.427337  0.374047  0.000000  1
  Ni  Ni10  1  0.628813  0.056678  0.000000  1
  Ni  Ni11  1  0.945204  0.573458  0.000000  1
  Ni  Ni12  1  0.563981  0.613674  0.500000  1
  Ni  Ni13  1  0.385410  0.951614  0.500000  1
  As  As14  1  0.283297  0.412480  0.500000  1
  As  As15  1  0.588188  0.876030  0.500000  1
  As  As16  1  0.124753  0.708581  0.500000  1
  As  As17  1  0.416465  0.120162  0.000000  1
  As  As18  1  0.884185  0.300453  0.000000  1
  As  As19  1  0.702939  0.584605  0.000000  1
  As  As20  1  0.999801  0.998254  0.000000  1
