# generated using pymatgen
data_Ce5Ni(P2Ru3)6
_symmetry_space_group_name_H-M   'P 1'
_cell_length_a   12.59594003
_cell_length_b   12.59594109
_cell_length_c   3.97736500
_cell_angle_alpha   90.00000000
_cell_angle_beta   90.00000000
_cell_angle_gamma   119.99260783
_symmetry_Int_Tables_number   1
_chemical_formula_structural   Ce5Ni(P2Ru3)6
_chemical_formula_sum   'Ce5 Ni1 P12 Ru18'
_cell_volume   546.53707684
_cell_formula_units_Z   1
loop_
 _symmetry_equiv_pos_site_id
 _symmetry_equiv_pos_as_xyz
  1  'x, y, z'
loop_
 _atom_site_type_symbol
 _atom_site_label
 _atom_site_symmetry_multiplicity
 _atom_site_fract_x
 _atom_site_fract_y
 _atom_site_fract_z
 _atom_site_occupancy
  Ce  Ce0  1  0.666687  0.333353  0.000000  1
  Ce  Ce1  1  0.333352  0.666686  0.000000  1
  Ce  Ce2  1  0.191004  0.000018  0.500001  1
  Ce  Ce3  1  0.000018  0.191002  0.500001  1
  Ce  Ce4  1  0.808943  0.808943  0.500001  1
  Ni  Ni5  1  0.999873  0.999873  0.000000  1
  P  P6  1  0.375509  0.000013  0.000000  1
  P  P7  1  0.821176  0.000014  0.000000  1
  P  P8  1  0.178839  0.178839  0.000000  1
  P  P9  1  0.000013  0.375509  0.000000  1
  P  P10  1  0.624503  0.624502  0.000000  1
  P  P11  1  0.000014  0.821175  0.000000  1
  P  P12  1  0.695079  0.170136  0.500001  1
  P  P13  1  0.475078  0.304946  0.500001  1
  P  P14  1  0.304945  0.475078  0.500001  1
  P  P15  1  0.829880  0.524934  0.500001  1
  P  P16  1  0.170136  0.695080  0.500001  1
  P  P17  1  0.524935  0.829881  0.500001  1
  Ru  Ru18  1  0.557224  0.000010  0.000000  1
  Ru  Ru19  1  0.809805  0.183237  0.000000  1
  Ru  Ru20  1  0.373450  0.190226  0.000000  1
  Ru  Ru21  1  0.190226  0.373450  0.000000  1
  Ru  Ru22  1  0.442790  0.442790  0.000000  1
  Ru  Ru23  1  0.000010  0.557224  0.000000  1
  Ru  Ru24  1  0.816772  0.626526  0.000000  1
  Ru  Ru25  1  0.183236  0.809804  0.000000  1
  Ru  Ru26  1  0.626525  0.816772  0.000000  1
  Ru  Ru27  1  0.720303  0.000017  0.500001  1
  Ru  Ru28  1  0.493218  0.126269  0.500001  1
  Ru  Ru29  1  0.279711  0.279711  0.500001  1
  Ru  Ru30  1  0.873766  0.366958  0.500001  1
  Ru  Ru31  1  0.126269  0.493218  0.500001  1
  Ru  Ru32  1  0.633043  0.506794  0.500001  1
  Ru  Ru33  1  0.506794  0.633043  0.500001  1
  Ru  Ru34  1  0.000017  0.720303  0.500001  1
  Ru  Ru35  1  0.366958  0.873765  0.500001  1
