# generated using pymatgen
data_Yb6OsWO12
_symmetry_space_group_name_H-M   'P 1'
_cell_length_a   6.49326428
_cell_length_b   6.49326436
_cell_length_c   6.49326427
_cell_angle_alpha   92.26633205
_cell_angle_beta   92.26632812
_cell_angle_gamma   92.26634091
_symmetry_Int_Tables_number   1
_chemical_formula_structural   Yb6OsWO12
_chemical_formula_sum   'Yb6 Os1 W1 O12'
_cell_volume   273.11223032
_cell_formula_units_Z   1
loop_
 _symmetry_equiv_pos_site_id
 _symmetry_equiv_pos_as_xyz
  1  'x, y, z'
loop_
 _atom_site_type_symbol
 _atom_site_label
 _atom_site_symmetry_multiplicity
 _atom_site_fract_x
 _atom_site_fract_y
 _atom_site_fract_z
 _atom_site_occupancy
  Yb  Yb0  1  0.929182  0.432125  0.744328  1
  Yb  Yb1  1  0.744328  0.929182  0.432125  1
  Yb  Yb2  1  0.567875  0.255672  0.070818  1
  Yb  Yb3  1  0.432125  0.744328  0.929182  1
  Yb  Yb4  1  0.255672  0.070818  0.567875  1
  Yb  Yb5  1  0.070818  0.567875  0.255672  1
  Os  Os6  1  0.500000  0.500000  0.500000  1
  W  W7  1  0.000000  0.000000  0.000000  1
  O  O8  1  0.936458  0.287195  0.069576  1
  O  O9  1  0.930424  0.063542  0.712805  1
  O  O10  1  0.786130  0.579648  0.453383  1
  O  O11  1  0.712805  0.930424  0.063542  1
  O  O12  1  0.579648  0.453383  0.786130  1
  O  O13  1  0.546617  0.213870  0.420352  1
  O  O14  1  0.453383  0.786130  0.579648  1
  O  O15  1  0.420352  0.546617  0.213870  1
  O  O16  1  0.287195  0.069576  0.936458  1
  O  O17  1  0.213870  0.420352  0.546617  1
  O  O18  1  0.069576  0.936458  0.287195  1
  O  O19  1  0.063542  0.712805  0.930424  1
