# generated using pymatgen
data_Li5Sc(Rh2Pb)6
_symmetry_space_group_name_H-M   'P 1'
_cell_length_a   4.52070401
_cell_length_b   6.37439801
_cell_length_c   13.60186902
_cell_angle_alpha   90.00104351
_cell_angle_beta   89.99446111
_cell_angle_gamma   89.99371989
_symmetry_Int_Tables_number   1
_chemical_formula_structural   Li5Sc(Rh2Pb)6
_chemical_formula_sum   'Li5 Sc1 Rh12 Pb6'
_cell_volume   391.96188130
_cell_formula_units_Z   1
loop_
 _symmetry_equiv_pos_site_id
 _symmetry_equiv_pos_as_xyz
  1  'x, y, z'
loop_
 _atom_site_type_symbol
 _atom_site_label
 _atom_site_symmetry_multiplicity
 _atom_site_fract_x
 _atom_site_fract_y
 _atom_site_fract_z
 _atom_site_occupancy
  Li  Li0  1  0.499846  0.500008  0.167499  1
  Li  Li1  1  0.999801  0.999995  0.334141  1
  Li  Li2  1  0.500000  0.500000  0.500000  1
  Li  Li3  1  0.000199  0.000005  0.665860  1
  Li  Li4  1  0.500154  0.499992  0.832502  1
  Sc  Sc5  1  0.000000  0.000000  0.000000  1
  Rh  Rh6  1  0.499993  0.248766  0.000003  1
  Rh  Rh7  1  0.500007  0.751233  0.999997  1
  Rh  Rh8  1  0.999803  0.252107  0.167070  1
  Rh  Rh9  1  0.999806  0.747890  0.167067  1
  Rh  Rh10  1  0.499795  0.251690  0.333951  1
  Rh  Rh11  1  0.499780  0.748332  0.333943  1
  Rh  Rh12  1  0.000014  0.247287  0.499999  1
  Rh  Rh13  1  0.999986  0.752712  0.500001  1
  Rh  Rh14  1  0.500220  0.251668  0.666057  1
  Rh  Rh15  1  0.500205  0.748310  0.666049  1
  Rh  Rh16  1  0.000194  0.252109  0.832933  1
  Rh  Rh17  1  0.000197  0.747892  0.832930  1
  Pb  Pb18  1  0.000000  0.500000  0.000000  1
  Pb  Pb19  1  0.499822  0.000010  0.171762  1
  Pb  Pb20  1  0.999926  0.499881  0.336844  1
  Pb  Pb21  1  0.500000  0.000000  0.500000  1
  Pb  Pb22  1  0.000074  0.500119  0.663157  1
  Pb  Pb23  1  0.500178  0.999990  0.828238  1
