# generated using pymatgen
data_Hf8MnNi2Rh
_symmetry_space_group_name_H-M   'P 1'
_cell_length_a   8.59131454
_cell_length_b   8.59131425
_cell_length_c   8.57204400
_cell_angle_alpha   60.07417759
_cell_angle_beta   60.07417870
_cell_angle_gamma   60.14446205
_symmetry_Int_Tables_number   1
_chemical_formula_structural   Hf8MnNi2Rh
_chemical_formula_sum   'Hf16 Mn2 Ni4 Rh2'
_cell_volume   448.38142484
_cell_formula_units_Z   2
loop_
 _symmetry_equiv_pos_site_id
 _symmetry_equiv_pos_as_xyz
  1  'x, y, z'
loop_
 _atom_site_type_symbol
 _atom_site_label
 _atom_site_symmetry_multiplicity
 _atom_site_fract_x
 _atom_site_fract_y
 _atom_site_fract_z
 _atom_site_occupancy
  Hf  Hf0  1  0.666853  0.110504  0.111321  1
  Hf  Hf1  1  0.110504  0.666853  0.111321  1
  Hf  Hf2  1  0.109447  0.109447  0.670859  1
  Hf  Hf3  1  0.109447  0.109447  0.110245  1
  Hf  Hf4  1  0.316443  0.316443  0.683557  1
  Hf  Hf5  1  0.686424  0.686424  0.313576  1
  Hf  Hf6  1  0.316417  0.693709  0.314728  1
  Hf  Hf7  1  0.693709  0.316417  0.675146  1
  Hf  Hf8  1  0.693709  0.316417  0.314728  1
  Hf  Hf9  1  0.316417  0.693709  0.675146  1
  Hf  Hf10  1  0.953670  0.953670  0.546330  1
  Hf  Hf11  1  0.553219  0.553219  0.946781  1
  Hf  Hf12  1  0.946365  0.551888  0.950151  1
  Hf  Hf13  1  0.551888  0.946365  0.551597  1
  Hf  Hf14  1  0.551888  0.946365  0.950151  1
  Hf  Hf15  1  0.946365  0.551888  0.551597  1
  Mn  Mn16  1  0.987555  0.332741  0.339851  1
  Mn  Mn17  1  0.332741  0.987555  0.339851  1
  Ni  Ni18  1  0.315916  0.892026  0.896029  1
  Ni  Ni19  1  0.892026  0.315916  0.896029  1
  Ni  Ni20  1  0.894382  0.894382  0.313537  1
  Ni  Ni21  1  0.894382  0.894382  0.897699  1
  Rh  Rh22  1  0.330115  0.330115  0.000640  1
  Rh  Rh23  1  0.330115  0.330115  0.339128  1
