# generated using pymatgen
data_YbErPt2O7
_symmetry_space_group_name_H-M   'P 1'
_cell_length_a   7.22031543
_cell_length_b   7.23944069
_cell_length_c   7.23944142
_cell_angle_alpha   60.05441373
_cell_angle_beta   60.08736567
_cell_angle_gamma   60.08735535
_symmetry_Int_Tables_number   1
_chemical_formula_structural   YbErPt2O7
_chemical_formula_sum   'Yb2 Er2 Pt4 O14'
_cell_volume   268.04159847
_cell_formula_units_Z   2
loop_
 _symmetry_equiv_pos_site_id
 _symmetry_equiv_pos_as_xyz
  1  'x, y, z'
loop_
 _atom_site_type_symbol
 _atom_site_label
 _atom_site_symmetry_multiplicity
 _atom_site_fract_x
 _atom_site_fract_y
 _atom_site_fract_z
 _atom_site_occupancy
  Yb  Yb0  1  0.625000  0.625000  0.125000  1
  Yb  Yb1  1  0.625000  0.125000  0.625000  1
  Er  Er2  1  0.625000  0.625000  0.625000  1
  Er  Er3  1  0.125000  0.625000  0.625000  1
  Pt  Pt4  1  0.625000  0.125000  0.125000  1
  Pt  Pt5  1  0.125000  0.125000  0.125000  1
  Pt  Pt6  1  0.125000  0.625000  0.125000  1
  Pt  Pt7  1  0.125000  0.125000  0.625000  1
  O  O8  1  0.036546  0.463454  0.463454  1
  O  O9  1  0.788938  0.788177  0.217611  1
  O  O10  1  0.790674  0.209326  0.209326  1
  O  O11  1  0.756181  0.743819  0.743819  1
  O  O12  1  0.044727  0.461823  0.032389  1
  O  O13  1  0.461062  0.032389  0.461823  1
  O  O14  1  0.044727  0.032389  0.461823  1
  O  O15  1  0.493819  0.506181  0.506181  1
  O  O16  1  0.205273  0.217611  0.788177  1
  O  O17  1  0.205273  0.788177  0.217611  1
  O  O18  1  0.788938  0.217611  0.788177  1
  O  O19  1  0.459326  0.040674  0.040674  1
  O  O20  1  0.461062  0.461823  0.032389  1
  O  O21  1  0.213454  0.786546  0.786546  1
