# generated using pymatgen
data_K2MnVSe4
_symmetry_space_group_name_H-M   'P 1'
_cell_length_a   13.85589886
_cell_length_b   12.36489570
_cell_length_c   7.45059204
_cell_angle_alpha   84.88842877
_cell_angle_beta   62.72822917
_cell_angle_gamma   32.38334936
_symmetry_Int_Tables_number   1
_chemical_formula_structural   K2MnVSe4
_chemical_formula_sum   'K4 Mn2 V2 Se8'
_cell_volume   474.02646550
_cell_formula_units_Z   2
loop_
 _symmetry_equiv_pos_site_id
 _symmetry_equiv_pos_as_xyz
  1  'x, y, z'
loop_
 _atom_site_type_symbol
 _atom_site_label
 _atom_site_symmetry_multiplicity
 _atom_site_fract_x
 _atom_site_fract_y
 _atom_site_fract_z
 _atom_site_occupancy
  K  K0  1  0.679741  0.679741  0.320259  1
  K  K1  1  0.320259  0.320259  0.679741  1
  K  K2  1  0.570259  0.570259  0.929741  1
  K  K3  1  0.929741  0.929741  0.570259  1
  Mn  Mn4  1  0.000000  0.000000  0.000000  1
  Mn  Mn5  1  0.250000  0.250000  0.250000  1
  V  V6  1  0.500000  0.500000  0.500000  1
  V  V7  1  0.750000  0.750000  0.750000  1
  Se  Se8  1  0.362864  0.024129  0.935179  1
  Se  Se9  1  0.677828  0.935179  0.024129  1
  Se  Se10  1  0.935179  0.677828  0.362864  1
  Se  Se11  1  0.024129  0.362864  0.677828  1
  Se  Se12  1  0.887136  0.225871  0.314821  1
  Se  Se13  1  0.572172  0.314821  0.225871  1
  Se  Se14  1  0.314821  0.572172  0.887136  1
  Se  Se15  1  0.225871  0.887136  0.572172  1
