# generated using pymatgen
data_Er3Tm9Os3Ru
_symmetry_space_group_name_H-M   'P 1'
_cell_length_a   7.34142787
_cell_length_b   8.93107000
_cell_length_c   6.24103941
_cell_angle_alpha   90.00000000
_cell_angle_beta   89.95484392
_cell_angle_gamma   90.00000000
_symmetry_Int_Tables_number   1
_chemical_formula_structural   Er3Tm9Os3Ru
_chemical_formula_sum   'Er3 Tm9 Os3 Ru1'
_cell_volume   409.20489453
_cell_formula_units_Z   1
loop_
 _symmetry_equiv_pos_site_id
 _symmetry_equiv_pos_as_xyz
  1  'x, y, z'
loop_
 _atom_site_type_symbol
 _atom_site_label
 _atom_site_symmetry_multiplicity
 _atom_site_fract_x
 _atom_site_fract_y
 _atom_site_fract_z
 _atom_site_occupancy
  Er  Er0  1  0.040836  0.250000  0.629303  1
  Er  Er1  1  0.960465  0.750000  0.370553  1
  Er  Er2  1  0.539959  0.250000  0.868807  1
  Tm  Tm3  1  0.460436  0.750000  0.130079  1
  Tm  Tm4  1  0.174363  0.062087  0.165649  1
  Tm  Tm5  1  0.825124  0.937312  0.833160  1
  Tm  Tm6  1  0.324898  0.935960  0.668172  1
  Tm  Tm7  1  0.825124  0.562688  0.833160  1
  Tm  Tm8  1  0.674761  0.062484  0.333580  1
  Tm  Tm9  1  0.174363  0.437913  0.165649  1
  Tm  Tm10  1  0.674761  0.437516  0.333580  1
  Tm  Tm11  1  0.324898  0.564040  0.668172  1
  Os  Os12  1  0.616463  0.750000  0.538545  1
  Os  Os13  1  0.117598  0.750000  0.960773  1
  Os  Os14  1  0.882732  0.250000  0.039559  1
  Ru  Ru15  1  0.383220  0.250000  0.461261  1
