# generated using pymatgen
data_Yb6Ho2Cu(Si4Pd)3
_symmetry_space_group_name_H-M   'P 1'
_cell_length_a   8.19933100
_cell_length_b   8.19933080
_cell_length_c   8.12273000
_cell_angle_alpha   90.00000000
_cell_angle_beta   90.00000000
_cell_angle_gamma   119.99999676
_symmetry_Int_Tables_number   1
_chemical_formula_structural   Yb6Ho2Cu(Si4Pd)3
_chemical_formula_sum   'Yb6 Ho2 Cu1 Si12 Pd3'
_cell_volume   472.92197063
_cell_formula_units_Z   1
loop_
 _symmetry_equiv_pos_site_id
 _symmetry_equiv_pos_as_xyz
  1  'x, y, z'
loop_
 _atom_site_type_symbol
 _atom_site_label
 _atom_site_symmetry_multiplicity
 _atom_site_fract_x
 _atom_site_fract_y
 _atom_site_fract_z
 _atom_site_occupancy
  Yb  Yb0  1  0.499865  0.999731  0.251826  1
  Yb  Yb1  1  0.500974  0.001948  0.748325  1
  Yb  Yb2  1  0.000269  0.500135  0.251826  1
  Yb  Yb3  1  0.998052  0.499026  0.748325  1
  Yb  Yb4  1  0.499865  0.500135  0.251826  1
  Yb  Yb5  1  0.500974  0.499026  0.748325  1
  Ho  Ho6  1  0.000000  0.000000  0.249976  1
  Ho  Ho7  1  0.000000  0.000000  0.750117  1
  Cu  Cu8  1  0.333333  0.666667  0.996107  1
  Si  Si9  1  0.165221  0.330440  0.999385  1
  Si  Si10  1  0.835481  0.670963  0.000677  1
  Si  Si11  1  0.669560  0.834779  0.999385  1
  Si  Si12  1  0.836154  0.672310  0.500460  1
  Si  Si13  1  0.329037  0.164519  0.000677  1
  Si  Si14  1  0.164190  0.328379  0.499687  1
  Si  Si15  1  0.165221  0.834779  0.999385  1
  Si  Si16  1  0.327690  0.163846  0.500460  1
  Si  Si17  1  0.835481  0.164519  0.000677  1
  Si  Si18  1  0.671621  0.835810  0.499687  1
  Si  Si19  1  0.836154  0.163846  0.500460  1
  Si  Si20  1  0.164190  0.835810  0.499687  1
  Pd  Pd21  1  0.666667  0.333333  0.002251  1
  Pd  Pd22  1  0.666667  0.333333  0.498944  1
  Pd  Pd23  1  0.333333  0.666667  0.501522  1
