# generated using pymatgen
data_LaErZn5Ge
_symmetry_space_group_name_H-M   'P 1'
_cell_length_a   8.32035559
_cell_length_b   8.32035581
_cell_length_c   8.85208500
_cell_angle_alpha   90.00000000
_cell_angle_beta   90.00000000
_cell_angle_gamma   149.55630772
_symmetry_Int_Tables_number   1
_chemical_formula_structural   LaErZn5Ge
_chemical_formula_sum   'La2 Er2 Zn10 Ge2'
_cell_volume   310.50803998
_cell_formula_units_Z   2
loop_
 _symmetry_equiv_pos_site_id
 _symmetry_equiv_pos_as_xyz
  1  'x, y, z'
loop_
 _atom_site_type_symbol
 _atom_site_label
 _atom_site_symmetry_multiplicity
 _atom_site_fract_x
 _atom_site_fract_y
 _atom_site_fract_z
 _atom_site_occupancy
  La  La0  1  0.000000  0.000000  0.500000  1
  La  La1  1  0.000000  0.000000  0.000000  1
  Er  Er2  1  0.201797  0.798203  0.250000  1
  Er  Er3  1  0.798203  0.201797  0.750000  1
  Zn  Zn4  1  0.812096  0.187904  0.391046  1
  Zn  Zn5  1  0.187904  0.812096  0.608954  1
  Zn  Zn6  1  0.812096  0.187904  0.108954  1
  Zn  Zn7  1  0.187904  0.812096  0.891046  1
  Zn  Zn8  1  0.655301  0.344699  0.476704  1
  Zn  Zn9  1  0.344699  0.655301  0.523296  1
  Zn  Zn10  1  0.655301  0.344699  0.023296  1
  Zn  Zn11  1  0.344699  0.655301  0.976704  1
  Zn  Zn12  1  0.399664  0.600336  0.250000  1
  Zn  Zn13  1  0.600336  0.399664  0.750000  1
  Ge  Ge14  1  0.559255  0.440745  0.250000  1
  Ge  Ge15  1  0.440745  0.559255  0.750000  1
