# generated using pymatgen
data_Ir8Rh
_symmetry_space_group_name_H-M   'P 1'
_cell_length_a   6.12228575
_cell_length_b   6.12228673
_cell_length_c   6.12228651
_cell_angle_alpha   95.77059762
_cell_angle_beta   95.77059004
_cell_angle_gamma   143.02599447
_symmetry_Int_Tables_number   1
_chemical_formula_structural   Ir8Rh
_chemical_formula_sum   'Ir8 Rh1'
_cell_volume   130.89767025
_cell_formula_units_Z   1
loop_
 _symmetry_equiv_pos_site_id
 _symmetry_equiv_pos_as_xyz
  1  'x, y, z'
loop_
 _atom_site_type_symbol
 _atom_site_label
 _atom_site_symmetry_multiplicity
 _atom_site_fract_x
 _atom_site_fract_y
 _atom_site_fract_z
 _atom_site_occupancy
  Ir  Ir0  1  0.667958  0.332043  0.000000  1
  Ir  Ir1  1  0.332043  0.667958  0.000000  1
  Ir  Ir2  1  0.667958  0.667958  0.335915  1
  Ir  Ir3  1  0.333592  0.000000  0.333592  1
  Ir  Ir4  1  0.000000  0.333592  0.333592  1
  Ir  Ir5  1  0.666408  0.000000  0.666408  1
  Ir  Ir6  1  0.000000  0.666408  0.666408  1
  Ir  Ir7  1  0.332042  0.332042  0.664085  1
  Rh  Rh8  1  0.000000  0.000000  0.000000  1
