# generated using pymatgen
data_SmEr3(Bi2O7)2
_symmetry_space_group_name_H-M   'P 1'
_cell_length_a   6.60158344
_cell_length_b   6.68182056
_cell_length_c   7.76346765
_cell_angle_alpha   106.82207441
_cell_angle_beta   89.62463864
_cell_angle_gamma   98.61026336
_symmetry_Int_Tables_number   1
_chemical_formula_structural   SmEr3(Bi2O7)2
_chemical_formula_sum   'Sm1 Er3 Bi4 O14'
_cell_volume   323.85785097
_cell_formula_units_Z   1
loop_
 _symmetry_equiv_pos_site_id
 _symmetry_equiv_pos_as_xyz
  1  'x, y, z'
loop_
 _atom_site_type_symbol
 _atom_site_label
 _atom_site_symmetry_multiplicity
 _atom_site_fract_x
 _atom_site_fract_y
 _atom_site_fract_z
 _atom_site_occupancy
  Sm  Sm0  1  0.737381  0.461061  0.112664  1
  Er  Er1  1  0.461055  0.003631  0.251010  1
  Er  Er2  1  0.537174  0.993313  0.748293  1
  Er  Er3  1  0.262777  0.538076  0.886548  1
  Bi  Bi4  1  0.001540  0.003545  0.501872  1
  Bi  Bi5  1  0.003293  0.999582  0.998676  1
  Bi  Bi6  1  0.723744  0.465505  0.616491  1
  Bi  Bi7  1  0.269475  0.533483  0.385340  1
  O  O8  1  0.442251  0.653519  0.163031  1
  O  O9  1  0.544417  0.343937  0.831548  1
  O  O10  1  0.306274  0.923554  0.950030  1
  O  O11  1  0.699091  0.072515  0.052380  1
  O  O12  1  0.303564  0.922431  0.512588  1
  O  O13  1  0.698216  0.078129  0.486971  1
  O  O14  1  0.539424  0.357958  0.343750  1
  O  O15  1  0.453943  0.641285  0.662069  1
  O  O16  1  0.939160  0.667819  0.956896  1
  O  O17  1  0.074175  0.329267  0.033789  1
  O  O18  1  0.092170  0.329682  0.632397  1
  O  O19  1  0.911719  0.676958  0.372605  1
  O  O20  1  0.871592  0.922578  0.731136  1
  O  O21  1  0.127565  0.082171  0.269914  1
