# generated using pymatgen
data_AcMo3(PO4)4
_symmetry_space_group_name_H-M   'P 1'
_cell_length_a   4.89642130
_cell_length_b   7.18301818
_cell_length_c   9.13256900
_cell_angle_alpha   89.85402878
_cell_angle_beta   90.89719546
_cell_angle_gamma   89.79096417
_symmetry_Int_Tables_number   1
_chemical_formula_structural   AcMo3(PO4)4
_chemical_formula_sum   'Ac1 Mo3 P4 O16'
_cell_volume   321.15973767
_cell_formula_units_Z   1
loop_
 _symmetry_equiv_pos_site_id
 _symmetry_equiv_pos_as_xyz
  1  'x, y, z'
loop_
 _atom_site_type_symbol
 _atom_site_label
 _atom_site_symmetry_multiplicity
 _atom_site_fract_x
 _atom_site_fract_y
 _atom_site_fract_z
 _atom_site_occupancy
  Ac  Ac0  1  0.000000  0.000000  0.000000  1
  Mo  Mo1  1  0.500000  0.500000  0.500000  1
  Mo  Mo2  1  0.000000  0.500000  0.000000  1
  Mo  Mo3  1  0.500000  0.000000  0.500000  1
  P  P4  1  0.996349  0.741573  0.668998  1
  P  P5  1  0.506233  0.258458  0.813485  1
  P  P6  1  0.003651  0.258427  0.331002  1
  P  P7  1  0.493767  0.741542  0.186515  1
  O  O8  1  0.142273  0.432394  0.387647  1
  O  O9  1  0.659399  0.582419  0.123099  1
  O  O10  1  0.853225  0.927177  0.631262  1
  O  O11  1  0.429801  0.062984  0.864681  1
  O  O12  1  0.857727  0.567606  0.612353  1
  O  O13  1  0.340601  0.417581  0.876901  1
  O  O14  1  0.146775  0.072823  0.368738  1
  O  O15  1  0.570199  0.937016  0.135319  1
  O  O16  1  0.187842  0.709429  0.140838  1
  O  O17  1  0.701857  0.249900  0.390828  1
  O  O18  1  0.812158  0.290571  0.859162  1
  O  O19  1  0.298143  0.750100  0.609172  1
  O  O20  1  0.534399  0.744442  0.359067  1
  O  O21  1  0.994454  0.274855  0.159539  1
  O  O22  1  0.465601  0.255558  0.640933  1
  O  O23  1  0.005546  0.725145  0.840461  1
