# generated using pymatgen
data_Tm12FeCo3SnPd
_symmetry_space_group_name_H-M   'P 1'
_cell_length_a   8.20658230
_cell_length_b   8.20631138
_cell_length_c   8.20658125
_cell_angle_alpha   111.23937345
_cell_angle_beta   110.90742132
_cell_angle_gamma   106.31375727
_symmetry_Int_Tables_number   1
_chemical_formula_structural   Tm12FeCo3SnPd
_chemical_formula_sum   'Tm12 Fe1 Co3 Sn1 Pd1'
_cell_volume   424.47904905
_cell_formula_units_Z   1
loop_
 _symmetry_equiv_pos_site_id
 _symmetry_equiv_pos_as_xyz
  1  'x, y, z'
loop_
 _atom_site_type_symbol
 _atom_site_label
 _atom_site_symmetry_multiplicity
 _atom_site_fract_x
 _atom_site_fract_y
 _atom_site_fract_z
 _atom_site_occupancy
  Tm  Tm0  1  0.415796  0.214392  0.201390  1
  Tm  Tm1  1  0.583766  0.784985  0.798791  1
  Tm  Tm2  1  0.013805  0.215015  0.798781  1
  Tm  Tm3  1  0.986998  0.785608  0.201404  1
  Tm  Tm4  1  0.188816  0.291182  0.479999  1
  Tm  Tm5  1  0.811258  0.707626  0.518884  1
  Tm  Tm6  1  0.188818  0.708818  0.897635  1
  Tm  Tm7  1  0.811256  0.292374  0.103631  1
  Tm  Tm8  1  0.311162  0.617274  0.302720  1
  Tm  Tm9  1  0.685446  0.382726  0.693887  1
  Tm  Tm10  1  0.311142  0.008433  0.693902  1
  Tm  Tm11  1  0.685469  0.991567  0.302709  1
  Fe  Fe12  1  0.385407  0.000000  0.385407  1
  Co  Co13  1  0.623464  0.000000  0.623464  1
  Co  Co14  1  0.111225  0.611978  0.499224  1
  Co  Co15  1  0.887246  0.388022  0.499247  1
  Sn  Sn16  1  0.499134  0.500000  0.999134  1
  Pd  Pd17  1  0.999790  0.000000  0.999790  1
