# generated using pymatgen
data_Ca2Sb2IrPt
_symmetry_space_group_name_H-M   'P 1'
_cell_length_a   4.61990100
_cell_length_b   7.39126900
_cell_length_c   7.89435700
_cell_angle_alpha   90.00000000
_cell_angle_beta   90.00000000
_cell_angle_gamma   90.00000000
_symmetry_Int_Tables_number   1
_chemical_formula_structural   Ca2Sb2IrPt
_chemical_formula_sum   'Ca4 Sb4 Ir2 Pt2'
_cell_volume   269.56806412
_cell_formula_units_Z   2
loop_
 _symmetry_equiv_pos_site_id
 _symmetry_equiv_pos_as_xyz
  1  'x, y, z'
loop_
 _atom_site_type_symbol
 _atom_site_label
 _atom_site_symmetry_multiplicity
 _atom_site_fract_x
 _atom_site_fract_y
 _atom_site_fract_z
 _atom_site_occupancy
  Ca  Ca0  1  0.750000  0.988563  0.695327  1
  Ca  Ca1  1  0.250000  0.010172  0.302415  1
  Ca  Ca2  1  0.750000  0.488563  0.804673  1
  Ca  Ca3  1  0.250000  0.510172  0.197585  1
  Sb  Sb4  1  0.750000  0.315548  0.417851  1
  Sb  Sb5  1  0.250000  0.180515  0.905883  1
  Sb  Sb6  1  0.250000  0.680515  0.594117  1
  Sb  Sb7  1  0.750000  0.815548  0.082149  1
  Ir  Ir8  1  0.250000  0.803755  0.912838  1
  Ir  Ir9  1  0.250000  0.303755  0.587162  1
  Pt  Pt10  1  0.750000  0.701446  0.410745  1
  Pt  Pt11  1  0.750000  0.201446  0.089255  1
