# generated using pymatgen
data_Dy4Ho3Th(CdNi)2
_symmetry_space_group_name_H-M   'P 1'
_cell_length_a   9.57049083
_cell_length_b   9.57049123
_cell_length_c   9.58225500
_cell_angle_alpha   59.95932755
_cell_angle_beta   59.95932618
_cell_angle_gamma   59.92748915
_symmetry_Int_Tables_number   1
_chemical_formula_structural   Dy4Ho3Th(CdNi)2
_chemical_formula_sum   'Dy8 Ho6 Th2 Cd4 Ni4'
_cell_volume   619.89143273
_cell_formula_units_Z   2
loop_
 _symmetry_equiv_pos_site_id
 _symmetry_equiv_pos_as_xyz
  1  'x, y, z'
loop_
 _atom_site_type_symbol
 _atom_site_label
 _atom_site_symmetry_multiplicity
 _atom_site_fract_x
 _atom_site_fract_y
 _atom_site_fract_z
 _atom_site_occupancy
  Dy  Dy0  1  0.438474  0.438474  0.061526  1
  Dy  Dy1  1  0.061714  0.061714  0.438286  1
  Dy  Dy2  1  0.186835  0.814143  0.815823  1
  Dy  Dy3  1  0.814143  0.186835  0.183200  1
  Dy  Dy4  1  0.814143  0.186835  0.815823  1
  Dy  Dy5  1  0.186835  0.814143  0.183200  1
  Dy  Dy6  1  0.814360  0.814360  0.185640  1
  Dy  Dy7  1  0.185112  0.185112  0.814888  1
  Ho  Ho8  1  0.597773  0.201141  0.600544  1
  Ho  Ho9  1  0.201141  0.597773  0.600544  1
  Ho  Ho10  1  0.062304  0.439174  0.437760  1
  Ho  Ho11  1  0.439174  0.062304  0.060763  1
  Ho  Ho12  1  0.439174  0.062304  0.437760  1
  Ho  Ho13  1  0.062304  0.439174  0.060763  1
  Th  Th14  1  0.594216  0.594216  0.600407  1
  Th  Th15  1  0.594216  0.594216  0.211161  1
  Cd  Cd16  1  0.832780  0.832780  0.829460  1
  Cd  Cd17  1  0.832780  0.832780  0.504979  1
  Cd  Cd18  1  0.834129  0.505244  0.830314  1
  Cd  Cd19  1  0.505244  0.834129  0.830314  1
  Ni  Ni20  1  0.393474  0.393474  0.391291  1
  Ni  Ni21  1  0.393474  0.393474  0.821761  1
  Ni  Ni22  1  0.396444  0.819762  0.391897  1
  Ni  Ni23  1  0.819762  0.396444  0.391897  1
