# generated using pymatgen
data_Lu4ReOs5Ru2
_symmetry_space_group_name_H-M   'P 1'
_cell_length_a   5.32828800
_cell_length_b   5.22251196
_cell_length_c   8.89075500
_cell_angle_alpha   90.00000000
_cell_angle_beta   90.00000000
_cell_angle_gamma   120.67228491
_symmetry_Int_Tables_number   1
_chemical_formula_structural   Lu4ReOs5Ru2
_chemical_formula_sum   'Lu4 Re1 Os5 Ru2'
_cell_volume   212.79150483
_cell_formula_units_Z   1
loop_
 _symmetry_equiv_pos_site_id
 _symmetry_equiv_pos_as_xyz
  1  'x, y, z'
loop_
 _atom_site_type_symbol
 _atom_site_label
 _atom_site_symmetry_multiplicity
 _atom_site_fract_x
 _atom_site_fract_y
 _atom_site_fract_z
 _atom_site_occupancy
  Lu  Lu0  1  0.333918  0.667836  0.434121  1
  Lu  Lu1  1  0.670532  0.341063  0.565315  1
  Lu  Lu2  1  0.670532  0.341063  0.934685  1
  Lu  Lu3  1  0.333918  0.667836  0.065879  1
  Re  Re4  1  0.161860  0.323722  0.750000  1
  Os  Os5  1  0.172417  0.820659  0.750000  1
  Os  Os6  1  0.337348  0.164999  0.250000  1
  Os  Os7  1  0.825045  0.650090  0.250000  1
  Os  Os8  1  0.648240  0.820659  0.750000  1
  Os  Os9  1  0.827652  0.164999  0.250000  1
  Ru  Ru10  1  0.009269  0.018539  0.999960  1
  Ru  Ru11  1  0.009269  0.018539  0.500040  1
