# generated using pymatgen
data_YbY3Er4(B6Os)4
_symmetry_space_group_name_H-M   'P 1'
_cell_length_a   3.64187500
_cell_length_b   9.13291603
_cell_length_c   11.52699456
_cell_angle_alpha   90.07637234
_cell_angle_beta   90.00000000
_cell_angle_gamma   90.00000000
_symmetry_Int_Tables_number   1
_chemical_formula_structural   YbY3Er4(B6Os)4
_chemical_formula_sum   'Yb1 Y3 Er4 B24 Os4'
_cell_volume   383.39831725
_cell_formula_units_Z   1
loop_
 _symmetry_equiv_pos_site_id
 _symmetry_equiv_pos_as_xyz
  1  'x, y, z'
loop_
 _atom_site_type_symbol
 _atom_site_label
 _atom_site_symmetry_multiplicity
 _atom_site_fract_x
 _atom_site_fract_y
 _atom_site_fract_z
 _atom_site_occupancy
  Yb  Yb0  1  0.000000  0.177518  0.913813  1
  Y  Y1  1  0.000000  0.321016  0.414739  1
  Y  Y2  1  0.000000  0.678349  0.586299  1
  Y  Y3  1  0.000000  0.822983  0.084848  1
  Er  Er4  1  0.000000  0.943749  0.372322  1
  Er  Er5  1  0.000000  0.057069  0.629123  1
  Er  Er6  1  0.000000  0.442116  0.127329  1
  Er  Er7  1  0.000000  0.555910  0.871786  1
  B  B8  1  0.500000  0.554206  0.432455  1
  B  B9  1  0.500000  0.446443  0.566984  1
  B  B10  1  0.500000  0.054382  0.067143  1
  B  B11  1  0.500000  0.946602  0.932244  1
  B  B12  1  0.500000  0.748882  0.418767  1
  B  B13  1  0.500000  0.251767  0.581589  1
  B  B14  1  0.500000  0.248382  0.081076  1
  B  B15  1  0.500000  0.751365  0.918579  1
  B  B16  1  0.500000  0.790823  0.265951  1
  B  B17  1  0.500000  0.209714  0.734432  1
  B  B18  1  0.500000  0.290373  0.234181  1
  B  B19  1  0.500000  0.708686  0.765993  1
  B  B20  1  0.500000  0.630806  0.184932  1
  B  B21  1  0.500000  0.368925  0.814565  1
  B  B22  1  0.500000  0.130757  0.315134  1
  B  B23  1  0.500000  0.869078  0.685873  1
  B  B24  1  0.500000  0.983213  0.212844  1
  B  B25  1  0.500000  0.017170  0.787666  1
  B  B26  1  0.500000  0.482836  0.286873  1
  B  B27  1  0.500000  0.516852  0.712420  1
  B  B28  1  0.500000  0.603744  0.028511  1
  B  B29  1  0.500000  0.396951  0.971473  1
  B  B30  1  0.500000  0.104984  0.471418  1
  B  B31  1  0.500000  0.894913  0.529216  1
  Os  Os32  1  0.000000  0.637678  0.320644  1
  Os  Os33  1  0.000000  0.362923  0.678398  1
  Os  Os34  1  0.000000  0.137863  0.180035  1
  Os  Os35  1  0.000000  0.860973  0.820345  1
