# generated using pymatgen
data_Sr4LiCuO6
_symmetry_space_group_name_H-M   'P 1'
_cell_length_a   6.86977067
_cell_length_b   6.86977049
_cell_length_c   10.58487900
_cell_angle_alpha   90.00000000
_cell_angle_beta   90.00000000
_cell_angle_gamma   133.75560600
_symmetry_Int_Tables_number   1
_chemical_formula_structural   Sr4LiCuO6
_chemical_formula_sum   'Sr8 Li2 Cu2 O12'
_cell_volume   360.81597271
_cell_formula_units_Z   2
loop_
 _symmetry_equiv_pos_site_id
 _symmetry_equiv_pos_as_xyz
  1  'x, y, z'
loop_
 _atom_site_type_symbol
 _atom_site_label
 _atom_site_symmetry_multiplicity
 _atom_site_fract_x
 _atom_site_fract_y
 _atom_site_fract_z
 _atom_site_occupancy
  Sr  Sr0  1  0.197382  0.899301  0.750000  1
  Sr  Sr1  1  0.646755  0.353245  0.500000  1
  Sr  Sr2  1  0.802618  0.100699  0.250000  1
  Sr  Sr3  1  0.899301  0.197382  0.750000  1
  Sr  Sr4  1  0.100699  0.802618  0.250000  1
  Sr  Sr5  1  0.353245  0.646755  0.000000  1
  Sr  Sr6  1  0.353245  0.646755  0.500000  1
  Sr  Sr7  1  0.646755  0.353245  0.000000  1
  Li  Li8  1  0.515993  0.515993  0.250000  1
  Li  Li9  1  0.484007  0.484007  0.750000  1
  Cu  Cu10  1  0.000000  0.000000  0.000000  1
  Cu  Cu11  1  0.000000  0.000000  0.500000  1
  O  O12  1  0.262164  0.575537  0.250000  1
  O  O13  1  0.151013  0.848987  0.500000  1
  O  O14  1  0.575537  0.262164  0.250000  1
  O  O15  1  0.738224  0.738224  0.391349  1
  O  O16  1  0.151013  0.848987  0.000000  1
  O  O17  1  0.848987  0.151013  0.000000  1
  O  O18  1  0.424463  0.737836  0.750000  1
  O  O19  1  0.737836  0.424463  0.750000  1
  O  O20  1  0.738224  0.738224  0.108651  1
  O  O21  1  0.848987  0.151013  0.500000  1
  O  O22  1  0.261776  0.261776  0.608651  1
  O  O23  1  0.261776  0.261776  0.891349  1
