# generated using pymatgen
data_Ba5SrSn8BiAu
_symmetry_space_group_name_H-M   'P 1'
_cell_length_a   9.20597441
_cell_length_b   9.20597524
_cell_length_c   9.29676614
_cell_angle_alpha   119.67747453
_cell_angle_beta   119.67747982
_cell_angle_gamma   90.00000177
_symmetry_Int_Tables_number   1
_chemical_formula_structural   Ba5SrSn8BiAu
_chemical_formula_sum   'Ba5 Sr1 Sn8 Bi1 Au1'
_cell_volume   562.51801815
_cell_formula_units_Z   1
loop_
 _symmetry_equiv_pos_site_id
 _symmetry_equiv_pos_as_xyz
  1  'x, y, z'
loop_
 _atom_site_type_symbol
 _atom_site_label
 _atom_site_symmetry_multiplicity
 _atom_site_fract_x
 _atom_site_fract_y
 _atom_site_fract_z
 _atom_site_occupancy
  Ba  Ba0  1  0.747473  0.747473  0.494946  1
  Ba  Ba1  1  0.660816  0.165510  0.999733  1
  Ba  Ba2  1  0.338917  0.834223  0.999733  1
  Ba  Ba3  1  0.834223  0.660816  0.999733  1
  Ba  Ba4  1  0.165510  0.338917  0.999733  1
  Sr  Sr5  1  0.252873  0.252873  0.505744  1
  Sn  Sn6  1  0.334986  0.835432  0.386484  1
  Sn  Sn7  1  0.661265  0.167423  0.613596  1
  Sn  Sn8  1  0.051499  0.551053  0.386484  1
  Sn  Sn9  1  0.551053  0.334986  0.386484  1
  Sn  Sn10  1  0.167423  0.952329  0.613596  1
  Sn  Sn11  1  0.952329  0.446171  0.613596  1
  Sn  Sn12  1  0.446171  0.661265  0.613596  1
  Sn  Sn13  1  0.835432  0.051499  0.386484  1
  Bi  Bi14  1  0.005652  0.005652  0.011305  1
  Au  Au15  1  0.494377  0.494377  0.988755  1
