# generated using pymatgen
data_Tb2YZrSn2Ir3
_symmetry_space_group_name_H-M   'P 1'
_cell_length_a   7.28001100
_cell_length_b   7.39186493
_cell_length_c   4.20867600
_cell_angle_alpha   90.00000000
_cell_angle_beta   90.00000000
_cell_angle_gamma   119.50067287
_symmetry_Int_Tables_number   1
_chemical_formula_structural   Tb2YZrSn2Ir3
_chemical_formula_sum   'Tb2 Y1 Zr1 Sn2 Ir3'
_cell_volume   197.11761769
_cell_formula_units_Z   1
loop_
 _symmetry_equiv_pos_site_id
 _symmetry_equiv_pos_as_xyz
  1  'x, y, z'
loop_
 _atom_site_type_symbol
 _atom_site_label
 _atom_site_symmetry_multiplicity
 _atom_site_fract_x
 _atom_site_fract_y
 _atom_site_fract_z
 _atom_site_occupancy
  Tb  Tb0  1  0.994030  0.583139  0.000000  1
  Tb  Tb1  1  0.410892  0.416861  0.000000  1
  Y  Y2  1  0.603868  0.000000  0.000000  1
  Zr  Zr3  1  0.249647  0.000000  0.500000  1
  Sn  Sn4  1  0.001424  0.254067  0.500000  1
  Sn  Sn5  1  0.747358  0.745933  0.500000  1
  Ir  Ir6  1  0.327323  0.676692  0.500000  1
  Ir  Ir7  1  0.650633  0.323308  0.500000  1
  Ir  Ir8  1  0.014824  0.000000  0.000000  1
