# generated using pymatgen
data_Ce4DyY3(ReB6)4
_symmetry_space_group_name_H-M   'P 1'
_cell_length_a   3.72743200
_cell_length_b   9.21635000
_cell_length_c   11.59508100
_cell_angle_alpha   90.00270919
_cell_angle_beta   90.00000000
_cell_angle_gamma   90.00000000
_symmetry_Int_Tables_number   1
_chemical_formula_structural   Ce4DyY3(ReB6)4
_chemical_formula_sum   'Ce4 Dy1 Y3 Re4 B24'
_cell_volume   398.32950360
_cell_formula_units_Z   1
loop_
 _symmetry_equiv_pos_site_id
 _symmetry_equiv_pos_as_xyz
  1  'x, y, z'
loop_
 _atom_site_type_symbol
 _atom_site_label
 _atom_site_symmetry_multiplicity
 _atom_site_fract_x
 _atom_site_fract_y
 _atom_site_fract_z
 _atom_site_occupancy
  Ce  Ce0  1  0.000000  0.822783  0.085877  1
  Ce  Ce1  1  0.000000  0.177242  0.914130  1
  Ce  Ce2  1  0.000000  0.322913  0.414085  1
  Ce  Ce3  1  0.000000  0.677093  0.585949  1
  Dy  Dy4  1  0.000000  0.444179  0.127278  1
  Y  Y5  1  0.000000  0.555706  0.872978  1
  Y  Y6  1  0.000000  0.944337  0.372978  1
  Y  Y7  1  0.000000  0.055678  0.627025  1
  Re  Re8  1  0.000000  0.138497  0.178831  1
  Re  Re9  1  0.000000  0.861646  0.821098  1
  Re  Re10  1  0.000000  0.638130  0.321132  1
  Re  Re11  1  0.000000  0.361742  0.678716  1
  B  B12  1  0.500000  0.054267  0.068297  1
  B  B13  1  0.500000  0.945700  0.931687  1
  B  B14  1  0.500000  0.554303  0.431726  1
  B  B15  1  0.500000  0.445753  0.568288  1
  B  B16  1  0.500000  0.248160  0.081369  1
  B  B17  1  0.500000  0.751920  0.918704  1
  B  B18  1  0.500000  0.748073  0.418762  1
  B  B19  1  0.500000  0.251941  0.581266  1
  B  B20  1  0.500000  0.291113  0.233761  1
  B  B21  1  0.500000  0.708895  0.766126  1
  B  B22  1  0.500000  0.791061  0.266169  1
  B  B23  1  0.500000  0.208958  0.733823  1
  B  B24  1  0.500000  0.131741  0.313808  1
  B  B25  1  0.500000  0.868238  0.686152  1
  B  B26  1  0.500000  0.631599  0.186205  1
  B  B27  1  0.500000  0.368320  0.813814  1
  B  B28  1  0.500000  0.483822  0.287170  1
  B  B29  1  0.500000  0.516268  0.712741  1
  B  B30  1  0.500000  0.983788  0.212751  1
  B  B31  1  0.500000  0.016176  0.787243  1
  B  B32  1  0.500000  0.107570  0.470217  1
  B  B33  1  0.500000  0.892380  0.529786  1
  B  B34  1  0.500000  0.607488  0.029797  1
  B  B35  1  0.500000  0.392516  0.970260  1
