# generated using pymatgen
data_TbTmCr2F14
_symmetry_space_group_name_H-M   'P 1'
_cell_length_a   5.46308918
_cell_length_b   8.72607340
_cell_length_c   11.64726671
_cell_angle_alpha   62.98923552
_cell_angle_beta   90.12623117
_cell_angle_gamma   89.99927709
_symmetry_Int_Tables_number   1
_chemical_formula_structural   TbTmCr2F14
_chemical_formula_sum   'Tb2 Tm2 Cr4 F28'
_cell_volume   494.67406078
_cell_formula_units_Z   2
loop_
 _symmetry_equiv_pos_site_id
 _symmetry_equiv_pos_as_xyz
  1  'x, y, z'
loop_
 _atom_site_type_symbol
 _atom_site_label
 _atom_site_symmetry_multiplicity
 _atom_site_fract_x
 _atom_site_fract_y
 _atom_site_fract_z
 _atom_site_occupancy
  Tb  Tb0  1  0.765811  0.188160  0.235056  1
  Tb  Tb1  1  0.234189  0.811840  0.764944  1
  Tm  Tm2  1  0.267233  0.808865  0.265169  1
  Tm  Tm3  1  0.732767  0.191135  0.734831  1
  Cr  Cr4  1  0.757748  0.727133  0.044194  1
  Cr  Cr5  1  0.242252  0.272867  0.955806  1
  Cr  Cr6  1  0.257729  0.275599  0.457584  1
  Cr  Cr7  1  0.742271  0.724401  0.542416  1
  F  F8  1  0.935437  0.707115  0.420280  1
  F  F9  1  0.064563  0.292885  0.579720  1
  F  F10  1  0.434222  0.292494  0.078090  1
  F  F11  1  0.565778  0.707506  0.921910  1
  F  F12  1  0.474542  0.730284  0.137095  1
  F  F13  1  0.525458  0.269716  0.862905  1
  F  F14  1  0.975449  0.271709  0.365004  1
  F  F15  1  0.024551  0.728291  0.634996  1
  F  F16  1  0.951349  0.744876  0.170006  1
  F  F17  1  0.048651  0.255124  0.829994  1
  F  F18  1  0.447193  0.258059  0.331400  1
  F  F19  1  0.552807  0.741941  0.668600  1
  F  F20  1  0.767858  0.491274  0.137894  1
  F  F21  1  0.232142  0.508726  0.862106  1
  F  F22  1  0.268303  0.511915  0.362791  1
  F  F23  1  0.731697  0.488085  0.637209  1
  F  F24  1  0.953544  0.281380  0.042950  1
  F  F25  1  0.046456  0.718620  0.957050  1
  F  F26  1  0.451300  0.719114  0.453790  1
  F  F27  1  0.548700  0.280886  0.546210  1
  F  F28  1  0.741244  0.959637  0.453507  1
  F  F29  1  0.258756  0.040363  0.546493  1
  F  F30  1  0.241404  0.038278  0.046972  1
  F  F31  1  0.758596  0.961722  0.953028  1
  F  F32  1  0.586631  0.968821  0.227121  1
  F  F33  1  0.413369  0.031179  0.772879  1
  F  F34  1  0.094302  0.023049  0.273205  1
  F  F35  1  0.905698  0.976951  0.726795  1
