# generated using pymatgen
data_Ba3Dy2TeO9
_symmetry_space_group_name_H-M   'P 1'
_cell_length_a   6.10109800
_cell_length_b   6.10109676
_cell_length_c   14.90475200
_cell_angle_alpha   90.00000000
_cell_angle_beta   90.00000000
_cell_angle_gamma   119.99999590
_symmetry_Int_Tables_number   1
_chemical_formula_structural   Ba3Dy2TeO9
_chemical_formula_sum   'Ba6 Dy4 Te2 O18'
_cell_volume   480.47557730
_cell_formula_units_Z   2
loop_
 _symmetry_equiv_pos_site_id
 _symmetry_equiv_pos_as_xyz
  1  'x, y, z'
loop_
 _atom_site_type_symbol
 _atom_site_label
 _atom_site_symmetry_multiplicity
 _atom_site_fract_x
 _atom_site_fract_y
 _atom_site_fract_z
 _atom_site_occupancy
  Ba  Ba0  1  0.333333  0.666667  0.090281  1
  Ba  Ba1  1  0.666667  0.333333  0.909719  1
  Ba  Ba2  1  0.333333  0.666667  0.590281  1
  Ba  Ba3  1  0.666667  0.333333  0.409719  1
  Ba  Ba4  1  0.000000  0.000000  0.250000  1
  Ba  Ba5  1  0.000000  0.000000  0.750000  1
  Dy  Dy6  1  0.333333  0.666667  0.833542  1
  Dy  Dy7  1  0.666667  0.333333  0.166458  1
  Dy  Dy8  1  0.333333  0.666667  0.333542  1
  Dy  Dy9  1  0.666667  0.333333  0.666458  1
  Te  Te10  1  0.000000  0.000000  0.000000  1
  Te  Te11  1  0.000000  0.000000  0.500000  1
  O  O12  1  0.886454  0.697099  0.575422  1
  O  O13  1  0.000000  0.548057  0.250000  1
  O  O14  1  0.189356  0.302901  0.924578  1
  O  O15  1  0.886454  0.189356  0.075422  1
  O  O16  1  0.810644  0.113546  0.575422  1
  O  O17  1  0.810644  0.697099  0.075422  1
  O  O18  1  0.697099  0.810644  0.424578  1
  O  O19  1  0.451943  0.000000  0.750000  1
  O  O20  1  0.548057  0.548057  0.750000  1
  O  O21  1  0.302901  0.189356  0.575422  1
  O  O22  1  0.113546  0.302901  0.424578  1
  O  O23  1  0.189356  0.886454  0.424578  1
  O  O24  1  0.302901  0.113546  0.075422  1
  O  O25  1  0.548057  0.000000  0.250000  1
  O  O26  1  0.451943  0.451943  0.250000  1
  O  O27  1  0.000000  0.451943  0.750000  1
  O  O28  1  0.113546  0.810644  0.924578  1
  O  O29  1  0.697099  0.886454  0.924578  1
