# generated using pymatgen
data_Ti6AsC2S
_symmetry_space_group_name_H-M   'P 1'
_cell_length_a   5.39819802
_cell_length_b   5.39819800
_cell_length_c   8.03404000
_cell_angle_alpha   90.00000000
_cell_angle_beta   90.00000000
_cell_angle_gamma   145.15862230
_symmetry_Int_Tables_number   1
_chemical_formula_structural   Ti6AsC2S
_chemical_formula_sum   'Ti6 As1 C2 S1'
_cell_volume   133.75213609
_cell_formula_units_Z   1
loop_
 _symmetry_equiv_pos_site_id
 _symmetry_equiv_pos_as_xyz
  1  'x, y, z'
loop_
 _atom_site_type_symbol
 _atom_site_label
 _atom_site_symmetry_multiplicity
 _atom_site_fract_x
 _atom_site_fract_y
 _atom_site_fract_z
 _atom_site_occupancy
  Ti  Ti0  1  0.131758  0.868242  0.060253  1
  Ti  Ti1  1  0.434800  0.565200  0.250000  1
  Ti  Ti2  1  0.131758  0.868242  0.439747  1
  Ti  Ti3  1  0.870359  0.129641  0.548558  1
  Ti  Ti4  1  0.553349  0.446651  0.750000  1
  Ti  Ti5  1  0.870359  0.129641  0.951442  1
  As  As6  1  0.246633  0.753367  0.750000  1
  C  C7  1  0.501976  0.498024  0.003677  1
  C  C8  1  0.501976  0.498024  0.496323  1
  S  S9  1  0.757031  0.242969  0.250000  1
