# generated using pymatgen
data_NaDyCo3P7Ru9
_symmetry_space_group_name_H-M   'P 1'
_cell_length_a   9.32236000
_cell_length_b   9.32235913
_cell_length_c   3.80789900
_cell_angle_alpha   90.00000000
_cell_angle_beta   90.00000000
_cell_angle_gamma   120.00001019
_symmetry_Int_Tables_number   1
_chemical_formula_structural   NaDyCo3P7Ru9
_chemical_formula_sum   'Na1 Dy1 Co3 P7 Ru9'
_cell_volume   286.59440471
_cell_formula_units_Z   1
loop_
 _symmetry_equiv_pos_site_id
 _symmetry_equiv_pos_as_xyz
  1  'x, y, z'
loop_
 _atom_site_type_symbol
 _atom_site_label
 _atom_site_symmetry_multiplicity
 _atom_site_fract_x
 _atom_site_fract_y
 _atom_site_fract_z
 _atom_site_occupancy
  Na  Na0  1  0.333333  0.666667  0.000000  1
  Dy  Dy1  1  0.666667  0.333333  0.500000  1
  Co  Co2  1  0.157037  0.890070  0.000000  1
  Co  Co3  1  0.109930  0.266967  0.000000  1
  Co  Co4  1  0.733033  0.842963  0.000000  1
  P  P5  1  0.412180  0.107110  0.000000  1
  P  P6  1  0.892890  0.305070  0.000000  1
  P  P7  1  0.694930  0.587820  0.000000  1
  P  P8  1  0.115593  0.717895  0.500000  1
  P  P9  1  0.282105  0.397699  0.500000  1
  P  P10  1  0.602301  0.884407  0.500000  1
  P  P11  1  0.000000  0.000000  0.000000  1
  Ru  Ru12  1  0.421587  0.360308  0.000000  1
  Ru  Ru13  1  0.639692  0.061279  0.000000  1
  Ru  Ru14  1  0.938721  0.578413  0.000000  1
  Ru  Ru15  1  0.385905  0.948263  0.500000  1
  Ru  Ru16  1  0.051737  0.437642  0.500000  1
  Ru  Ru17  1  0.562358  0.614095  0.500000  1
  Ru  Ru18  1  0.202078  0.117823  0.500000  1
  Ru  Ru19  1  0.882177  0.084255  0.500000  1
  Ru  Ru20  1  0.915745  0.797922  0.500000  1
