# generated using pymatgen
data_RbPrGdB18
_symmetry_space_group_name_H-M   'P 1'
_cell_length_a   4.15764100
_cell_length_b   4.15764100
_cell_length_c   12.54323000
_cell_angle_alpha   90.00000000
_cell_angle_beta   90.00000000
_cell_angle_gamma   90.00000000
_symmetry_Int_Tables_number   1
_chemical_formula_structural   RbPrGdB18
_chemical_formula_sum   'Rb1 Pr1 Gd1 B18'
_cell_volume   216.82200642
_cell_formula_units_Z   1
loop_
 _symmetry_equiv_pos_site_id
 _symmetry_equiv_pos_as_xyz
  1  'x, y, z'
loop_
 _atom_site_type_symbol
 _atom_site_label
 _atom_site_symmetry_multiplicity
 _atom_site_fract_x
 _atom_site_fract_y
 _atom_site_fract_z
 _atom_site_occupancy
  Rb  Rb0  1  0.000000  0.000000  0.666460  1
  Pr  Pr1  1  0.000000  0.000000  0.995287  1
  Gd  Gd2  1  0.000000  0.000000  0.341114  1
  B  B3  1  0.200201  0.500000  0.167555  1
  B  B4  1  0.201894  0.500000  0.494266  1
  B  B5  1  0.202079  0.500000  0.837699  1
  B  B6  1  0.500000  0.500000  0.265158  1
  B  B7  1  0.500000  0.500000  0.595563  1
  B  B8  1  0.500000  0.500000  0.936174  1
  B  B9  1  0.500000  0.200201  0.167555  1
  B  B10  1  0.500000  0.201894  0.494266  1
  B  B11  1  0.500000  0.202079  0.837699  1
  B  B12  1  0.500000  0.500000  0.068974  1
  B  B13  1  0.500000  0.500000  0.396455  1
  B  B14  1  0.500000  0.500000  0.736737  1
  B  B15  1  0.500000  0.799799  0.167555  1
  B  B16  1  0.500000  0.798106  0.494266  1
  B  B17  1  0.500000  0.797921  0.837699  1
  B  B18  1  0.799799  0.500000  0.167555  1
  B  B19  1  0.798106  0.500000  0.494266  1
  B  B20  1  0.797921  0.500000  0.837699  1
