# generated using pymatgen
data_SmGd7(Si3Rh)4
_symmetry_space_group_name_H-M   'P 1'
_cell_length_a   8.19203000
_cell_length_b   8.19203079
_cell_length_c   7.99360500
_cell_angle_alpha   90.00000000
_cell_angle_beta   90.00000000
_cell_angle_gamma   119.99999681
_symmetry_Int_Tables_number   1
_chemical_formula_structural   SmGd7(Si3Rh)4
_chemical_formula_sum   'Sm1 Gd7 Si12 Rh4'
_cell_volume   464.57564618
_cell_formula_units_Z   1
loop_
 _symmetry_equiv_pos_site_id
 _symmetry_equiv_pos_as_xyz
  1  'x, y, z'
loop_
 _atom_site_type_symbol
 _atom_site_label
 _atom_site_symmetry_multiplicity
 _atom_site_fract_x
 _atom_site_fract_y
 _atom_site_fract_z
 _atom_site_occupancy
  Sm  Sm0  1  0.000000  0.000000  0.750000  1
  Gd  Gd1  1  0.000000  0.000000  0.250000  1
  Gd  Gd2  1  0.492643  0.507357  0.750000  1
  Gd  Gd3  1  0.492643  0.985286  0.750000  1
  Gd  Gd4  1  0.014714  0.507357  0.750000  1
  Gd  Gd5  1  0.507266  0.492734  0.250000  1
  Gd  Gd6  1  0.985468  0.492734  0.250000  1
  Gd  Gd7  1  0.507266  0.014532  0.250000  1
  Si  Si8  1  0.833183  0.166817  0.003257  1
  Si  Si9  1  0.833183  0.666366  0.003257  1
  Si  Si10  1  0.333634  0.166817  0.003257  1
  Si  Si11  1  0.833183  0.166817  0.496743  1
  Si  Si12  1  0.833183  0.666366  0.496743  1
  Si  Si13  1  0.333634  0.166817  0.496743  1
  Si  Si14  1  0.166839  0.833161  0.500735  1
  Si  Si15  1  0.666322  0.833161  0.500735  1
  Si  Si16  1  0.166839  0.333678  0.500735  1
  Si  Si17  1  0.166839  0.833161  0.999265  1
  Si  Si18  1  0.666322  0.833161  0.999265  1
  Si  Si19  1  0.166839  0.333678  0.999265  1
  Rh  Rh20  1  0.666667  0.333333  0.969458  1
  Rh  Rh21  1  0.666667  0.333333  0.530542  1
  Rh  Rh22  1  0.333333  0.666667  0.469241  1
  Rh  Rh23  1  0.333333  0.666667  0.030759  1
