# generated using pymatgen
data_La2Tb(DyIr)2
_symmetry_space_group_name_H-M   'P 1'
_cell_length_a   6.59428048
_cell_length_b   7.25344953
_cell_length_c   8.88571662
_cell_angle_alpha   96.92098834
_cell_angle_beta   111.78104360
_cell_angle_gamma   89.99998731
_symmetry_Int_Tables_number   1
_chemical_formula_structural   La2Tb(DyIr)2
_chemical_formula_sum   'La4 Tb2 Dy4 Ir4'
_cell_volume   391.33577461
_cell_formula_units_Z   2
loop_
 _symmetry_equiv_pos_site_id
 _symmetry_equiv_pos_as_xyz
  1  'x, y, z'
loop_
 _atom_site_type_symbol
 _atom_site_label
 _atom_site_symmetry_multiplicity
 _atom_site_fract_x
 _atom_site_fract_y
 _atom_site_fract_z
 _atom_site_occupancy
  La  La0  1  0.784786  0.082158  0.806822  1
  La  La1  1  0.977963  0.417842  0.193178  1
  La  La2  1  0.215091  0.917399  0.193034  1
  La  La3  1  0.022057  0.582601  0.806966  1
  Tb  Tb4  1  0.208120  0.183600  0.566490  1
  Tb  Tb5  1  0.641630  0.316400  0.433510  1
  Dy  Dy6  1  0.791545  0.816109  0.433049  1
  Dy  Dy7  1  0.358497  0.683891  0.566951  1
  Dy  Dy8  1  0.430438  0.250000  0.000000  1
  Dy  Dy9  1  0.569912  0.750000  0.000000  1
  Ir  Ir10  1  0.589880  0.424323  0.774176  1
  Ir  Ir11  1  0.815703  0.075677  0.225824  1
  Ir  Ir12  1  0.410470  0.576660  0.226561  1
  Ir  Ir13  1  0.183910  0.923340  0.773439  1
