# generated using pymatgen
data_Hf16InCo5Tc2
_symmetry_space_group_name_H-M   'P 1'
_cell_length_a   8.60553313
_cell_length_b   8.65484924
_cell_length_c   8.65484883
_cell_angle_alpha   60.15662143
_cell_angle_beta   60.22733587
_cell_angle_gamma   60.22733726
_symmetry_Int_Tables_number   1
_chemical_formula_structural   Hf16InCo5Tc2
_chemical_formula_sum   'Hf16 In1 Co5 Tc2'
_cell_volume   457.91040941
_cell_formula_units_Z   1
loop_
 _symmetry_equiv_pos_site_id
 _symmetry_equiv_pos_as_xyz
  1  'x, y, z'
loop_
 _atom_site_type_symbol
 _atom_site_label
 _atom_site_symmetry_multiplicity
 _atom_site_fract_x
 _atom_site_fract_y
 _atom_site_fract_z
 _atom_site_occupancy
  Hf  Hf0  1  0.053694  0.649495  0.649495  1
  Hf  Hf1  1  0.642490  0.055832  0.650732  1
  Hf  Hf2  1  0.642490  0.650732  0.055832  1
  Hf  Hf3  1  0.646117  0.650015  0.650015  1
  Hf  Hf4  1  0.805936  0.810713  0.191787  1
  Hf  Hf5  1  0.199860  0.200584  0.802690  1
  Hf  Hf6  1  0.805936  0.191787  0.810713  1
  Hf  Hf7  1  0.199860  0.802690  0.200584  1
  Hf  Hf8  1  0.200612  0.799861  0.799861  1
  Hf  Hf9  1  0.807191  0.190407  0.190407  1
  Hf  Hf10  1  0.439830  0.435637  0.059276  1
  Hf  Hf11  1  0.078022  0.051840  0.436059  1
  Hf  Hf12  1  0.439830  0.059276  0.435637  1
  Hf  Hf13  1  0.078022  0.436059  0.051840  1
  Hf  Hf14  1  0.087659  0.435110  0.435110  1
  Hf  Hf15  1  0.439662  0.062495  0.062495  1
  In  In16  1  0.731983  0.420749  0.420749  1
  Co  Co17  1  0.399320  0.418576  0.418576  1
  Co  Co18  1  0.425468  0.858260  0.858260  1
  Co  Co19  1  0.853989  0.424656  0.862516  1
  Co  Co20  1  0.853989  0.862516  0.424656  1
  Co  Co21  1  0.853161  0.860443  0.860443  1
  Tc  Tc22  1  0.407440  0.755085  0.417183  1
  Tc  Tc23  1  0.407440  0.417183  0.755085  1
