# generated using pymatgen
data_Pr5GaIrO12
_symmetry_space_group_name_H-M   'P 1'
_cell_length_a   7.11290683
_cell_length_b   7.11290747
_cell_length_c   7.65241958
_cell_angle_alpha   74.46188301
_cell_angle_beta   74.46189250
_cell_angle_gamma   51.04644730
_symmetry_Int_Tables_number   1
_chemical_formula_structural   Pr5GaIrO12
_chemical_formula_sum   'Pr5 Ga1 Ir1 O12'
_cell_volume   287.50776389
_cell_formula_units_Z   1
loop_
 _symmetry_equiv_pos_site_id
 _symmetry_equiv_pos_as_xyz
  1  'x, y, z'
loop_
 _atom_site_type_symbol
 _atom_site_label
 _atom_site_symmetry_multiplicity
 _atom_site_fract_x
 _atom_site_fract_y
 _atom_site_fract_z
 _atom_site_occupancy
  Pr  Pr0  1  0.309970  0.301170  0.357736  1
  Pr  Pr1  1  0.698830  0.690030  0.642264  1
  Pr  Pr2  1  0.691680  0.697822  0.164797  1
  Pr  Pr3  1  0.302178  0.308320  0.835203  1
  Pr  Pr4  1  0.004864  0.995136  0.500000  1
  Ga  Ga5  1  0.758853  0.241147  0.000000  1
  Ir  Ir6  1  0.243168  0.756832  0.000000  1
  O  O7  1  0.097125  0.594497  0.577320  1
  O  O8  1  0.012119  0.986335  0.175454  1
  O  O9  1  0.405503  0.902875  0.422680  1
  O  O10  1  0.482502  0.519023  0.174743  1
  O  O11  1  0.099301  0.581782  0.079165  1
  O  O12  1  0.906416  0.401654  0.421515  1
  O  O13  1  0.013665  0.987881  0.824546  1
  O  O14  1  0.598346  0.093583  0.578485  1
  O  O15  1  0.480977  0.517498  0.825257  1
  O  O16  1  0.582100  0.105815  0.076836  1
  O  O17  1  0.418218  0.900699  0.920835  1
  O  O18  1  0.894185  0.417900  0.923164  1
