# generated using pymatgen
data_Tb3Pa(Ga3Rh)6
_symmetry_space_group_name_H-M   'P 1'
_cell_length_a   7.60611988
_cell_length_b   7.59763914
_cell_length_c   9.49404900
_cell_angle_alpha   90.00000000
_cell_angle_beta   90.00000000
_cell_angle_gamma   119.83544978
_symmetry_Int_Tables_number   1
_chemical_formula_structural   Tb3Pa(Ga3Rh)6
_chemical_formula_sum   'Tb3 Pa1 Ga18 Rh6'
_cell_volume   475.92843651
_cell_formula_units_Z   1
loop_
 _symmetry_equiv_pos_site_id
 _symmetry_equiv_pos_as_xyz
  1  'x, y, z'
loop_
 _atom_site_type_symbol
 _atom_site_label
 _atom_site_symmetry_multiplicity
 _atom_site_fract_x
 _atom_site_fract_y
 _atom_site_fract_z
 _atom_site_occupancy
  Tb  Tb0  1  0.003884  0.331868  0.750000  1
  Tb  Tb1  1  0.669190  0.996922  0.250000  1
  Tb  Tb2  1  0.331447  0.003067  0.750000  1
  Pa  Pa3  1  0.997444  0.668288  0.250000  1
  Ga  Ga4  1  0.127670  0.127063  0.250000  1
  Ga  Ga5  1  0.874995  0.875349  0.750000  1
  Ga  Ga6  1  0.999488  0.331923  0.078759  1
  Ga  Ga7  1  0.000031  0.665824  0.919382  1
  Ga  Ga8  1  0.000031  0.665824  0.580618  1
  Ga  Ga9  1  0.336418  0.001939  0.421182  1
  Ga  Ga10  1  0.999488  0.331923  0.421241  1
  Ga  Ga11  1  0.665926  0.000395  0.579611  1
  Ga  Ga12  1  0.665926  0.000395  0.920389  1
  Ga  Ga13  1  0.336418  0.001939  0.078818  1
  Ga  Ga14  1  0.332887  0.332890  0.565292  1
  Ga  Ga15  1  0.664799  0.667038  0.436205  1
  Ga  Ga16  1  0.664799  0.667038  0.063795  1
  Ga  Ga17  1  0.332887  0.332890  0.934708  1
  Ga  Ga18  1  0.337795  0.544818  0.250000  1
  Ga  Ga19  1  0.661442  0.452417  0.750000  1
  Ga  Ga20  1  0.545144  0.339129  0.250000  1
  Ga  Ga21  1  0.453010  0.661628  0.750000  1
  Rh  Rh22  1  0.672545  0.330285  0.001765  1
  Rh  Rh23  1  0.327260  0.671318  0.002066  1
  Rh  Rh24  1  0.327260  0.671318  0.497934  1
  Rh  Rh25  1  0.672545  0.330285  0.498235  1
  Rh  Rh26  1  0.999636  0.998114  0.001910  1
  Rh  Rh27  1  0.999636  0.998114  0.498090  1
