# generated using pymatgen
data_Tb2UIr3
_symmetry_space_group_name_H-M   'P 1'
_cell_length_a   5.37342026
_cell_length_b   5.37342101
_cell_length_c   5.37341965
_cell_angle_alpha   64.76107486
_cell_angle_beta   64.76107153
_cell_angle_gamma   64.76107625
_symmetry_Int_Tables_number   1
_chemical_formula_structural   Tb2UIr3
_chemical_formula_sum   'Tb2 U1 Ir3'
_cell_volume   121.13761819
_cell_formula_units_Z   1
loop_
 _symmetry_equiv_pos_site_id
 _symmetry_equiv_pos_as_xyz
  1  'x, y, z'
loop_
 _atom_site_type_symbol
 _atom_site_label
 _atom_site_symmetry_multiplicity
 _atom_site_fract_x
 _atom_site_fract_y
 _atom_site_fract_z
 _atom_site_occupancy
  Tb  Tb0  1  0.749844  0.749844  0.749844  1
  Tb  Tb1  1  0.500156  0.500156  0.500156  1
  U  U2  1  0.125000  0.125000  0.125000  1
  Ir  Ir3  1  0.125000  0.625000  0.125000  1
  Ir  Ir4  1  0.125000  0.125000  0.625000  1
  Ir  Ir5  1  0.625000  0.125000  0.125000  1
