# generated using pymatgen
data_Th2Zn16Pd
_symmetry_space_group_name_H-M   'P 1'
_cell_length_a   6.86728195
_cell_length_b   6.86099304
_cell_length_c   6.86099278
_cell_angle_alpha   82.57956873
_cell_angle_beta   96.99824715
_cell_angle_gamma   96.99826609
_symmetry_Int_Tables_number   1
_chemical_formula_structural   Th2Zn16Pd
_chemical_formula_sum   'Th2 Zn16 Pd1'
_cell_volume   316.31540519
_cell_formula_units_Z   1
loop_
 _symmetry_equiv_pos_site_id
 _symmetry_equiv_pos_as_xyz
  1  'x, y, z'
loop_
 _atom_site_type_symbol
 _atom_site_label
 _atom_site_symmetry_multiplicity
 _atom_site_fract_x
 _atom_site_fract_y
 _atom_site_fract_z
 _atom_site_occupancy
  Th  Th0  1  0.662775  0.339249  0.335201  1
  Th  Th1  1  0.337225  0.664799  0.660751  1
  Zn  Zn2  1  0.500001  0.000293  0.999707  1
  Zn  Zn3  1  0.294614  0.295992  0.999439  1
  Zn  Zn4  1  0.704697  0.706582  0.998909  1
  Zn  Zn5  1  0.000135  0.499973  0.999098  1
  Zn  Zn6  1  0.899877  0.094961  0.105554  1
  Zn  Zn7  1  0.348478  0.650146  0.160052  1
  Zn  Zn8  1  0.295303  0.001091  0.293418  1
  Zn  Zn9  1  0.155420  0.353008  0.351212  1
  Zn  Zn10  1  0.651523  0.839948  0.349854  1
  Zn  Zn11  1  0.999865  0.000903  0.500028  1
  Zn  Zn12  1  0.844579  0.648788  0.646991  1
  Zn  Zn13  1  0.350601  0.158881  0.648902  1
  Zn  Zn14  1  0.000000  0.294449  0.705550  1
  Zn  Zn15  1  0.705387  0.000561  0.704008  1
  Zn  Zn16  1  0.649399  0.351098  0.841117  1
  Zn  Zn17  1  0.100124  0.894446  0.905039  1
  Pd  Pd18  1  0.000000  0.704825  0.295175  1
