# generated using pymatgen
data_Tb16Cd3AgPt4
_symmetry_space_group_name_H-M   'P 1'
_cell_length_a   9.68871065
_cell_length_b   9.68871012
_cell_length_c   9.68870965
_cell_angle_alpha   60.21098872
_cell_angle_beta   60.21098837
_cell_angle_gamma   60.21099348
_symmetry_Int_Tables_number   1
_chemical_formula_structural   Tb16Cd3AgPt4
_chemical_formula_sum   'Tb16 Cd3 Ag1 Pt4'
_cell_volume   646.17878314
_cell_formula_units_Z   1
loop_
 _symmetry_equiv_pos_site_id
 _symmetry_equiv_pos_as_xyz
  1  'x, y, z'
loop_
 _atom_site_type_symbol
 _atom_site_label
 _atom_site_symmetry_multiplicity
 _atom_site_fract_x
 _atom_site_fract_y
 _atom_site_fract_z
 _atom_site_occupancy
  Tb  Tb0  1  0.350418  0.350418  0.350418  1
  Tb  Tb1  1  0.353827  0.353827  0.940393  1
  Tb  Tb2  1  0.353827  0.940393  0.353827  1
  Tb  Tb3  1  0.940393  0.353827  0.353827  1
  Tb  Tb4  1  0.810301  0.191438  0.191438  1
  Tb  Tb5  1  0.190322  0.809622  0.809622  1
  Tb  Tb6  1  0.191438  0.810301  0.191438  1
  Tb  Tb7  1  0.809622  0.190322  0.809622  1
  Tb  Tb8  1  0.191438  0.191438  0.810301  1
  Tb  Tb9  1  0.809622  0.809622  0.190322  1
  Tb  Tb10  1  0.934047  0.564301  0.564301  1
  Tb  Tb11  1  0.562632  0.935818  0.935818  1
  Tb  Tb12  1  0.564301  0.934047  0.564301  1
  Tb  Tb13  1  0.935818  0.562632  0.935818  1
  Tb  Tb14  1  0.564301  0.564301  0.934047  1
  Tb  Tb15  1  0.935818  0.935818  0.562632  1
  Cd  Cd16  1  0.581821  0.581821  0.255194  1
  Cd  Cd17  1  0.581821  0.255194  0.581821  1
  Cd  Cd18  1  0.255194  0.581821  0.581821  1
  Ag  Ag19  1  0.583214  0.583214  0.583214  1
  Pt  Pt20  1  0.144470  0.144470  0.144470  1
  Pt  Pt21  1  0.142600  0.142600  0.570156  1
  Pt  Pt22  1  0.142600  0.570156  0.142600  1
  Pt  Pt23  1  0.570156  0.142600  0.142600  1
