# generated using pymatgen
data_CeDy3Tm12(CdNi)4
_symmetry_space_group_name_H-M   'P 1'
_cell_length_a   9.46170784
_cell_length_b   9.46967712
_cell_length_c   9.46369443
_cell_angle_alpha   59.69079741
_cell_angle_beta   59.65235035
_cell_angle_gamma   59.64302201
_symmetry_Int_Tables_number   1
_chemical_formula_structural   CeDy3Tm12(CdNi)4
_chemical_formula_sum   'Ce1 Dy3 Tm12 Cd4 Ni4'
_cell_volume   594.98059677
_cell_formula_units_Z   1
loop_
 _symmetry_equiv_pos_site_id
 _symmetry_equiv_pos_as_xyz
  1  'x, y, z'
loop_
 _atom_site_type_symbol
 _atom_site_label
 _atom_site_symmetry_multiplicity
 _atom_site_fract_x
 _atom_site_fract_y
 _atom_site_fract_z
 _atom_site_occupancy
  Ce  Ce0  1  0.343673  0.343988  0.343015  1
  Dy  Dy1  1  0.351646  0.351053  0.946036  1
  Dy  Dy2  1  0.351205  0.946159  0.351394  1
  Dy  Dy3  1  0.946627  0.350182  0.351268  1
  Tm  Tm4  1  0.813432  0.188906  0.188835  1
  Tm  Tm5  1  0.189388  0.813731  0.813929  1
  Tm  Tm6  1  0.188533  0.813211  0.189307  1
  Tm  Tm7  1  0.814299  0.189037  0.813843  1
  Tm  Tm8  1  0.188210  0.189290  0.813387  1
  Tm  Tm9  1  0.814437  0.814001  0.188787  1
  Tm  Tm10  1  0.936244  0.565236  0.564489  1
  Tm  Tm11  1  0.562691  0.936038  0.936342  1
  Tm  Tm12  1  0.564030  0.938233  0.564464  1
  Tm  Tm13  1  0.935465  0.563949  0.935623  1
  Tm  Tm14  1  0.564675  0.565513  0.936727  1
  Tm  Tm15  1  0.935347  0.935065  0.564149  1
  Cd  Cd16  1  0.580699  0.582543  0.581517  1
  Cd  Cd17  1  0.579426  0.580349  0.253715  1
  Cd  Cd18  1  0.579431  0.253376  0.580217  1
  Cd  Cd19  1  0.253108  0.580403  0.580171  1
  Ni  Ni20  1  0.145455  0.141942  0.142377  1
  Ni  Ni21  1  0.144386  0.142389  0.573867  1
  Ni  Ni22  1  0.143386  0.573604  0.143450  1
  Ni  Ni23  1  0.574209  0.141804  0.143094  1
