# generated using pymatgen
data_Ce3Ho3Tm2(AlRu)8
_symmetry_space_group_name_H-M   'P 1'
_cell_length_a   4.01900900
_cell_length_b   7.10269525
_cell_length_c   15.99896089
_cell_angle_alpha   91.41858636
_cell_angle_beta   90.00000000
_cell_angle_gamma   90.00000000
_symmetry_Int_Tables_number   1
_chemical_formula_structural   Ce3Ho3Tm2(AlRu)8
_chemical_formula_sum   'Ce3 Ho3 Tm2 Al8 Ru8'
_cell_volume   456.56310188
_cell_formula_units_Z   1
loop_
 _symmetry_equiv_pos_site_id
 _symmetry_equiv_pos_as_xyz
  1  'x, y, z'
loop_
 _atom_site_type_symbol
 _atom_site_label
 _atom_site_symmetry_multiplicity
 _atom_site_fract_x
 _atom_site_fract_y
 _atom_site_fract_z
 _atom_site_occupancy
  Ce  Ce0  1  0.750000  0.465822  0.280854  1
  Ce  Ce1  1  0.750000  0.331651  0.061319  1
  Ce  Ce2  1  0.250000  0.537207  0.720385  1
  Ho  Ho3  1  0.750000  0.958974  0.218574  1
  Ho  Ho4  1  0.250000  0.160450  0.561383  1
  Ho  Ho5  1  0.750000  0.838399  0.440201  1
  Tm  Tm6  1  0.250000  0.665326  0.936512  1
  Tm  Tm7  1  0.250000  0.042659  0.782444  1
  Al  Al8  1  0.750000  0.499519  0.562784  1
  Al  Al9  1  0.750000  0.367072  0.852483  1
  Al  Al10  1  0.750000  0.993929  0.933766  1
  Al  Al11  1  0.750000  0.875012  0.652371  1
  Al  Al12  1  0.250000  0.496981  0.438223  1
  Al  Al13  1  0.250000  0.994005  0.064443  1
  Al  Al14  1  0.250000  0.640319  0.149312  1
  Al  Al15  1  0.250000  0.123674  0.347507  1
  Ru  Ru16  1  0.750000  0.741003  0.807861  1
  Ru  Ru17  1  0.250000  0.237776  0.939104  1
  Ru  Ru18  1  0.750000  0.260887  0.431186  1
  Ru  Ru19  1  0.250000  0.740431  0.316080  1
  Ru  Ru20  1  0.750000  0.763480  0.063157  1
  Ru  Ru21  1  0.750000  0.260512  0.686873  1
  Ru  Ru22  1  0.250000  0.268689  0.185679  1
  Ru  Ru23  1  0.250000  0.736219  0.567496  1
