# generated using pymatgen
data_Tb2DyIn3Cu2Pt
_symmetry_space_group_name_H-M   'P 1'
_cell_length_a   7.56705509
_cell_length_b   7.57612851
_cell_length_c   3.91660200
_cell_angle_alpha   90.00000000
_cell_angle_beta   90.00000000
_cell_angle_gamma   119.97843166
_symmetry_Int_Tables_number   1
_chemical_formula_structural   Tb2DyIn3Cu2Pt
_chemical_formula_sum   'Tb2 Dy1 In3 Cu2 Pt1'
_cell_volume   194.49509295
_cell_formula_units_Z   1
loop_
 _symmetry_equiv_pos_site_id
 _symmetry_equiv_pos_as_xyz
  1  'x, y, z'
loop_
 _atom_site_type_symbol
 _atom_site_label
 _atom_site_symmetry_multiplicity
 _atom_site_fract_x
 _atom_site_fract_y
 _atom_site_fract_z
 _atom_site_occupancy
  Tb  Tb0  1  0.407697  0.414956  0.500000  1
  Tb  Tb1  1  0.585187  0.992881  0.500000  1
  Dy  Dy2  1  0.007272  0.592469  0.500000  1
  In  In3  1  0.752791  0.744637  0.000000  1
  In  In4  1  0.992088  0.247959  0.000000  1
  In  In5  1  0.255172  0.007722  0.000000  1
  Cu  Cu6  1  0.999990  0.999246  0.500000  1
  Cu  Cu7  1  0.667529  0.333547  0.000000  1
  Pt  Pt8  1  0.332273  0.666584  0.000000  1
