# generated using pymatgen
data_DyHoPa2(CoB4)4
_symmetry_space_group_name_H-M   'P 1'
_cell_length_a   3.40104400
_cell_length_b   5.91429871
_cell_length_c   11.47113102
_cell_angle_alpha   89.92330955
_cell_angle_beta   90.00000000
_cell_angle_gamma   90.00000000
_symmetry_Int_Tables_number   1
_chemical_formula_structural   DyHoPa2(CoB4)4
_chemical_formula_sum   'Dy1 Ho1 Pa2 Co4 B16'
_cell_volume   230.73918651
_cell_formula_units_Z   1
loop_
 _symmetry_equiv_pos_site_id
 _symmetry_equiv_pos_as_xyz
  1  'x, y, z'
loop_
 _atom_site_type_symbol
 _atom_site_label
 _atom_site_symmetry_multiplicity
 _atom_site_fract_x
 _atom_site_fract_y
 _atom_site_fract_z
 _atom_site_occupancy
  Dy  Dy0  1  0.500000  0.127963  0.647811  1
  Ho  Ho1  1  0.500000  0.872018  0.352211  1
  Pa  Pa2  1  0.500000  0.372482  0.151860  1
  Pa  Pa3  1  0.500000  0.627504  0.848207  1
  Co  Co4  1  0.500000  0.366013  0.409774  1
  Co  Co5  1  0.500000  0.633979  0.590079  1
  Co  Co6  1  0.500000  0.134687  0.909914  1
  Co  Co7  1  0.500000  0.865326  0.090242  1
  B  B8  1  0.000000  0.110835  0.046309  1
  B  B9  1  0.000000  0.889135  0.953722  1
  B  B10  1  0.000000  0.387121  0.544826  1
  B  B11  1  0.000000  0.613319  0.454946  1
  B  B12  1  0.000000  0.137853  0.466855  1
  B  B13  1  0.000000  0.861913  0.532791  1
  B  B14  1  0.000000  0.361358  0.965551  1
  B  B15  1  0.000000  0.638647  0.034481  1
  B  B16  1  0.000000  0.020534  0.191265  1
  B  B17  1  0.000000  0.979345  0.808962  1
  B  B18  1  0.000000  0.476648  0.688430  1
  B  B19  1  0.000000  0.523709  0.311581  1
  B  B20  1  0.000000  0.216427  0.316478  1
  B  B21  1  0.000000  0.783118  0.683525  1
  B  B22  1  0.000000  0.281920  0.814165  1
  B  B23  1  0.000000  0.718145  0.186016  1
