# generated using pymatgen
data_Gd8Y12Si15Hg
_symmetry_space_group_name_H-M   'P 1'
_cell_length_a   7.55675407
_cell_length_b   7.85936057
_cell_length_c   14.98946700
_cell_angle_alpha   89.97231937
_cell_angle_beta   89.45963358
_cell_angle_gamma   90.21918457
_symmetry_Int_Tables_number   1
_chemical_formula_structural   Gd8Y12Si15Hg
_chemical_formula_sum   'Gd8 Y12 Si15 Hg1'
_cell_volume   890.19703090
_cell_formula_units_Z   1
loop_
 _symmetry_equiv_pos_site_id
 _symmetry_equiv_pos_as_xyz
  1  'x, y, z'
loop_
 _atom_site_type_symbol
 _atom_site_label
 _atom_site_symmetry_multiplicity
 _atom_site_fract_x
 _atom_site_fract_y
 _atom_site_fract_z
 _atom_site_occupancy
  Gd  Gd0  1  0.025429  0.178884  0.395973  1
  Gd  Gd1  1  0.525378  0.317244  0.397706  1
  Gd  Gd2  1  0.470368  0.683881  0.901533  1
  Gd  Gd3  1  0.479551  0.687652  0.602169  1
  Gd  Gd4  1  0.969247  0.820884  0.602704  1
  Gd  Gd5  1  0.967477  0.815689  0.900489  1
  Gd  Gd6  1  0.528360  0.316003  0.099287  1
  Gd  Gd7  1  0.030932  0.185534  0.101225  1
  Y  Y8  1  0.324341  0.169480  0.626091  1
  Y  Y9  1  0.679512  0.822507  0.375245  1
  Y  Y10  1  0.650959  0.988489  0.751746  1
  Y  Y11  1  0.180653  0.679563  0.373550  1
  Y  Y12  1  0.814020  0.322244  0.879562  1
  Y  Y13  1  0.816061  0.325324  0.622438  1
  Y  Y14  1  0.849187  0.487857  0.250418  1
  Y  Y15  1  0.351482  0.010904  0.248633  1
  Y  Y16  1  0.315631  0.177406  0.879054  1
  Y  Y17  1  0.183725  0.677804  0.122335  1
  Y  Y18  1  0.682729  0.822035  0.122034  1
  Y  Y19  1  0.150987  0.511206  0.753069  1
  Si  Si20  1  0.264664  0.874795  0.752070  1
  Si  Si21  1  0.478125  0.607112  0.247300  1
  Si  Si22  1  0.020924  0.111779  0.752468  1
  Si  Si23  1  0.521999  0.392314  0.751920  1
  Si  Si24  1  0.978428  0.893042  0.247885  1
  Si  Si25  1  0.732931  0.125582  0.248016  1
  Si  Si26  1  0.857514  0.528421  0.040961  1
  Si  Si27  1  0.357202  0.973039  0.042042  1
  Si  Si28  1  0.140991  0.471052  0.960911  1
  Si  Si29  1  0.646896  0.030922  0.537530  1
  Si  Si30  1  0.354546  0.972002  0.457980  1
  Si  Si31  1  0.842114  0.528276  0.455578  1
  Si  Si32  1  0.767557  0.625162  0.752778  1
  Si  Si33  1  0.233453  0.372840  0.247960  1
  Si  Si34  1  0.643026  0.027354  0.960057  1
  Hg  Hg35  1  0.163598  0.465714  0.539285  1
