# generated using pymatgen
data_Dy2(CuP)3
_symmetry_space_group_name_H-M   'P 1'
_cell_length_a   3.84215400
_cell_length_b   10.68751200
_cell_length_c   12.99314400
_cell_angle_alpha   90.00000000
_cell_angle_beta   90.00000000
_cell_angle_gamma   90.00000000
_symmetry_Int_Tables_number   1
_chemical_formula_structural   Dy2(CuP)3
_chemical_formula_sum   'Dy8 Cu12 P12'
_cell_volume   533.53834236
_cell_formula_units_Z   4
loop_
 _symmetry_equiv_pos_site_id
 _symmetry_equiv_pos_as_xyz
  1  'x, y, z'
loop_
 _atom_site_type_symbol
 _atom_site_label
 _atom_site_symmetry_multiplicity
 _atom_site_fract_x
 _atom_site_fract_y
 _atom_site_fract_z
 _atom_site_occupancy
  Dy  Dy0  1  0.250000  0.930133  0.792912  1
  Dy  Dy1  1  0.750000  0.430133  0.707088  1
  Dy  Dy2  1  0.250000  0.569867  0.292912  1
  Dy  Dy3  1  0.750000  0.069867  0.207088  1
  Dy  Dy4  1  0.250000  0.841221  0.502872  1
  Dy  Dy5  1  0.750000  0.341221  0.997128  1
  Dy  Dy6  1  0.250000  0.658779  0.002872  1
  Dy  Dy7  1  0.750000  0.158779  0.497128  1
  Cu  Cu8  1  0.250000  0.402599  0.514071  1
  Cu  Cu9  1  0.750000  0.902599  0.985929  1
  Cu  Cu10  1  0.250000  0.097401  0.014071  1
  Cu  Cu11  1  0.750000  0.597401  0.485929  1
  Cu  Cu12  1  0.250000  0.273105  0.332272  1
  Cu  Cu13  1  0.750000  0.773105  0.167728  1
  Cu  Cu14  1  0.250000  0.226895  0.832272  1
  Cu  Cu15  1  0.750000  0.726895  0.667728  1
  Cu  Cu16  1  0.250000  0.860695  0.279738  1
  Cu  Cu17  1  0.750000  0.360695  0.220262  1
  Cu  Cu18  1  0.250000  0.639305  0.779738  1
  Cu  Cu19  1  0.750000  0.139305  0.720262  1
  P  P20  1  0.250000  0.240627  0.643664  1
  P  P21  1  0.750000  0.740627  0.856336  1
  P  P22  1  0.250000  0.259373  0.143664  1
  P  P23  1  0.750000  0.759373  0.356336  1
  P  P24  1  0.250000  0.603975  0.600592  1
  P  P25  1  0.750000  0.103975  0.899408  1
  P  P26  1  0.250000  0.896025  0.100592  1
  P  P27  1  0.750000  0.396025  0.399408  1
  P  P28  1  0.250000  0.057296  0.368576  1
  P  P29  1  0.750000  0.557296  0.131424  1
  P  P30  1  0.250000  0.442704  0.868576  1
  P  P31  1  0.750000  0.942704  0.631424  1
