# generated using pymatgen
data_Dy3Mg3Pd2Ru
_symmetry_space_group_name_H-M   'P 1'
_cell_length_a   7.41662800
_cell_length_b   7.41662778
_cell_length_c   4.03270800
_cell_angle_alpha   90.00000000
_cell_angle_beta   90.00000000
_cell_angle_gamma   120.00000100
_symmetry_Int_Tables_number   1
_chemical_formula_structural   Dy3Mg3Pd2Ru
_chemical_formula_sum   'Dy3 Mg3 Pd2 Ru1'
_cell_volume   192.10575872
_cell_formula_units_Z   1
loop_
 _symmetry_equiv_pos_site_id
 _symmetry_equiv_pos_as_xyz
  1  'x, y, z'
loop_
 _atom_site_type_symbol
 _atom_site_label
 _atom_site_symmetry_multiplicity
 _atom_site_fract_x
 _atom_site_fract_y
 _atom_site_fract_z
 _atom_site_occupancy
  Dy  Dy0  1  0.016598  0.423080  0.500000  1
  Dy  Dy1  1  0.576920  0.593518  0.500000  1
  Dy  Dy2  1  0.406482  0.983402  0.500000  1
  Mg  Mg3  1  0.000064  0.753515  0.000000  1
  Mg  Mg4  1  0.246485  0.246548  0.000000  1
  Mg  Mg5  1  0.753452  0.999936  0.000000  1
  Pd  Pd6  1  0.666667  0.333333  0.000000  1
  Pd  Pd7  1  0.000000  0.000000  0.500000  1
  Ru  Ru8  1  0.333333  0.666667  0.000000  1
