# generated using pymatgen
data_SrTb5HoFeI12
_symmetry_space_group_name_H-M   'P 1'
_cell_length_a   9.77924014
_cell_length_b   9.86035197
_cell_length_c   9.78559937
_cell_angle_alpha   106.49118463
_cell_angle_beta   106.17220025
_cell_angle_gamma   106.18271777
_symmetry_Int_Tables_number   1
_chemical_formula_structural   SrTb5HoFeI12
_chemical_formula_sum   'Sr1 Tb5 Ho1 Fe1 I12'
_cell_volume   800.71995433
_cell_formula_units_Z   1
loop_
 _symmetry_equiv_pos_site_id
 _symmetry_equiv_pos_as_xyz
  1  'x, y, z'
loop_
 _atom_site_type_symbol
 _atom_site_label
 _atom_site_symmetry_multiplicity
 _atom_site_fract_x
 _atom_site_fract_y
 _atom_site_fract_z
 _atom_site_occupancy
  Sr  Sr0  1  0.499986  0.500122  0.499935  1
  Tb  Tb1  1  0.020204  0.090126  0.283487  1
  Tb  Tb2  1  0.282922  0.020277  0.089585  1
  Tb  Tb3  1  0.905868  0.702628  0.979495  1
  Tb  Tb4  1  0.980058  0.910659  0.716522  1
  Tb  Tb5  1  0.717212  0.979896  0.910442  1
  Ho  Ho6  1  0.093300  0.294282  0.020415  1
  Fe  Fe7  1  0.999983  0.999743  0.000052  1
  I  I8  1  0.446075  0.366350  0.133793  1
  I  I9  1  0.134142  0.446354  0.366218  1
  I  I10  1  0.367662  0.136154  0.447104  1
  I  I11  1  0.551768  0.633914  0.865285  1
  I  I12  1  0.865746  0.553750  0.631772  1
  I  I13  1  0.632370  0.864108  0.553012  1
  I  I14  1  0.776694  0.318839  0.926029  1
  I  I15  1  0.926776  0.778229  0.320199  1
  I  I16  1  0.317950  0.925943  0.776103  1
  I  I17  1  0.225300  0.680773  0.074449  1
  I  I18  1  0.073879  0.223531  0.682156  1
  I  I19  1  0.682103  0.074324  0.223947  1
