# generated using pymatgen
data_Th14Re2RuRh3
_symmetry_space_group_name_H-M   'P 1'
_cell_length_a   10.00485992
_cell_length_b   10.09353923
_cell_length_c   6.33409547
_cell_angle_alpha   89.94645910
_cell_angle_beta   89.59128241
_cell_angle_gamma   120.20612449
_symmetry_Int_Tables_number   1
_chemical_formula_structural   Th14Re2RuRh3
_chemical_formula_sum   'Th14 Re2 Ru1 Rh3'
_cell_volume   552.77312864
_cell_formula_units_Z   1
loop_
 _symmetry_equiv_pos_site_id
 _symmetry_equiv_pos_as_xyz
  1  'x, y, z'
loop_
 _atom_site_type_symbol
 _atom_site_label
 _atom_site_symmetry_multiplicity
 _atom_site_fract_x
 _atom_site_fract_y
 _atom_site_fract_z
 _atom_site_occupancy
  Th  Th0  1  0.464691  0.542852  0.292592  1
  Th  Th1  1  0.079703  0.542340  0.294850  1
  Th  Th2  1  0.917693  0.459581  0.798315  1
  Th  Th3  1  0.252853  0.123728  0.502818  1
  Th  Th4  1  0.540450  0.082071  0.795712  1
  Th  Th5  1  0.752139  0.876122  0.005636  1
  Th  Th6  1  0.667053  0.334008  0.289798  1
  Th  Th7  1  0.123997  0.870229  0.001464  1
  Th  Th8  1  0.460379  0.919471  0.295285  1
  Th  Th9  1  0.541783  0.458675  0.794239  1
  Th  Th10  1  0.872769  0.128770  0.504266  1
  Th  Th11  1  0.123544  0.252473  0.004325  1
  Th  Th12  1  0.876718  0.746732  0.506239  1
  Th  Th13  1  0.333394  0.667701  0.797519  1
  Re  Re14  1  0.809539  0.626747  0.052503  1
  Re  Re15  1  0.809879  0.182967  0.051931  1
  Ru  Ru16  1  0.191042  0.814694  0.547821  1
  Rh  Rh17  1  0.623600  0.811615  0.552412  1
  Rh  Rh18  1  0.368544  0.184278  0.048541  1
  Rh  Rh19  1  0.190227  0.374947  0.547729  1
