# generated using pymatgen
data_Lu2Fe2C3
_symmetry_space_group_name_H-M   'P 1'
_cell_length_a   5.17173118
_cell_length_b   5.17172943
_cell_length_c   5.42984010
_cell_angle_alpha   74.72910278
_cell_angle_beta   74.72910853
_cell_angle_gamma   37.96497611
_symmetry_Int_Tables_number   1
_chemical_formula_structural   Lu2Fe2C3
_chemical_formula_sum   'Lu2 Fe2 C3'
_cell_volume   85.80751883
_cell_formula_units_Z   1
loop_
 _symmetry_equiv_pos_site_id
 _symmetry_equiv_pos_as_xyz
  1  'x, y, z'
loop_
 _atom_site_type_symbol
 _atom_site_label
 _atom_site_symmetry_multiplicity
 _atom_site_fract_x
 _atom_site_fract_y
 _atom_site_fract_z
 _atom_site_occupancy
  Lu  Lu0  1  0.390858  0.390858  0.313415  1
  Lu  Lu1  1  0.609142  0.609142  0.686585  1
  Fe  Fe2  1  0.157349  0.157349  0.107732  1
  Fe  Fe3  1  0.842651  0.842651  0.892268  1
  C  C4  1  0.710984  0.710984  0.236778  1
  C  C5  1  0.289016  0.289016  0.763222  1
  C  C6  1  0.000000  0.000000  0.000000  1
