# generated using pymatgen
data_Ba4Zn3Ni3(PO3)20
_symmetry_space_group_name_H-M   'P 1'
_cell_length_a   5.40721535
_cell_length_b   10.85959788
_cell_length_c   22.94793914
_cell_angle_alpha   71.37749230
_cell_angle_beta   89.92812066
_cell_angle_gamma   90.13972398
_symmetry_Int_Tables_number   1
_chemical_formula_structural   Ba4Zn3Ni3(PO3)20
_chemical_formula_sum   'Ba4 Zn3 Ni3 P20 O60'
_cell_volume   1276.94909841
_cell_formula_units_Z   1
loop_
 _symmetry_equiv_pos_site_id
 _symmetry_equiv_pos_as_xyz
  1  'x, y, z'
loop_
 _atom_site_type_symbol
 _atom_site_label
 _atom_site_symmetry_multiplicity
 _atom_site_fract_x
 _atom_site_fract_y
 _atom_site_fract_z
 _atom_site_occupancy
  Ba  Ba0  1  0.505491  0.389645  0.423900  1
  Ba  Ba1  1  0.494509  0.610355  0.576100  1
  Ba  Ba2  1  0.494199  0.390508  0.923412  1
  Ba  Ba3  1  0.505801  0.609492  0.076588  1
  Zn  Zn4  1  0.469763  0.999582  0.750161  1
  Zn  Zn5  1  0.500000  0.000000  0.000000  1
  Zn  Zn6  1  0.530237  0.000418  0.249839  1
  Ni  Ni7  1  0.559628  0.499837  0.749961  1
  Ni  Ni8  1  0.500000  0.000000  0.500000  1
  Ni  Ni9  1  0.440372  0.500163  0.250039  1
  P  P10  1  0.952616  0.679878  0.197570  1
  P  P11  1  0.904992  0.629194  0.925384  1
  P  P12  1  0.775708  0.724929  0.795713  1
  P  P13  1  0.013170  0.157423  0.522841  1
  P  P14  1  0.047384  0.320122  0.802430  1
  P  P15  1  0.984198  0.160893  0.022495  1
  P  P16  1  0.096204  0.630076  0.425845  1
  P  P17  1  0.224292  0.275071  0.204287  1
  P  P18  1  0.015802  0.839107  0.977505  1
  P  P19  1  0.951794  0.320637  0.302484  1
  P  P20  1  0.775715  0.275055  0.704117  1
  P  P21  1  0.986830  0.842577  0.477159  1
  P  P22  1  0.216915  0.955087  0.629829  1
  P  P23  1  0.215636  0.044927  0.870244  1
  P  P24  1  0.048206  0.679363  0.697516  1
  P  P25  1  0.783085  0.044913  0.370171  1
  P  P26  1  0.903796  0.369924  0.574155  1
  P  P27  1  0.095008  0.370806  0.074616  1
  P  P28  1  0.224285  0.724945  0.295883  1
  P  P29  1  0.784364  0.955073  0.129756  1
  O  O30  1  0.346519  0.396690  0.045258  1
  O  O31  1  0.951770  0.484768  0.079735  1
  O  O32  1  0.561531  0.056208  0.407387  1
  O  O33  1  0.993416  0.044810  0.085899  1
  O  O34  1  0.763784  0.149686  0.984111  1
  O  O35  1  0.753742  0.004192  0.183262  1
  O  O36  1  0.603636  0.390263  0.690344  1
  O  O37  1  0.967752  0.696348  0.264893  1
  O  O38  1  0.238019  0.169214  0.994717  1
  O  O39  1  0.247649  0.003222  0.683597  1
  O  O40  1  0.683901  0.854076  0.756065  1
  O  O41  1  0.032248  0.303652  0.735107  1
  O  O42  1  0.316099  0.145924  0.243935  1
  O  O43  1  0.056775  0.823066  0.649486  1
  O  O44  1  0.006584  0.955190  0.914101  1
  O  O45  1  0.752351  0.996778  0.316403  1
  O  O46  1  0.683196  0.145893  0.743996  1
  O  O47  1  0.924465  0.288788  0.041834  1
  O  O48  1  0.765414  0.853771  0.515315  1
  O  O49  1  0.048230  0.515232  0.920265  1
  O  O50  1  0.943225  0.176934  0.350514  1
  O  O51  1  0.348396  0.603793  0.454518  1
  O  O52  1  0.711672  0.386814  0.307605  1
  O  O53  1  0.005550  0.043998  0.587020  1
  O  O54  1  0.880907  0.259714  0.641765  1
  O  O55  1  0.651604  0.396207  0.545482  1
  O  O56  1  0.397252  0.390465  0.190542  1
  O  O57  1  0.438173  0.057899  0.906871  1
  O  O58  1  0.438469  0.943792  0.592613  1
  O  O59  1  0.288328  0.613186  0.692395  1
  O  O60  1  0.602748  0.609535  0.809458  1
  O  O61  1  0.881163  0.739940  0.857986  1
  O  O62  1  0.929944  0.712258  0.459385  1
  O  O63  1  0.758816  0.163002  0.495476  1
  O  O64  1  0.653481  0.603310  0.954742  1
  O  O65  1  0.050216  0.483632  0.578801  1
  O  O66  1  0.070056  0.287742  0.540615  1
  O  O67  1  0.241184  0.836998  0.504524  1
  O  O68  1  0.234586  0.146229  0.484685  1
  O  O69  1  0.191753  0.621737  0.185188  1
  O  O70  1  0.711850  0.613800  0.192460  1
  O  O71  1  0.236216  0.850314  0.015889  1
  O  O72  1  0.191371  0.378799  0.314881  1
  O  O73  1  0.761981  0.830786  0.005283  1
  O  O74  1  0.288150  0.386200  0.807540  1
  O  O75  1  0.032255  0.696369  0.764687  1
  O  O76  1  0.949784  0.516368  0.421199  1
  O  O77  1  0.316804  0.854107  0.256004  1
  O  O78  1  0.119093  0.740286  0.358235  1
  O  O79  1  0.808247  0.378263  0.814812  1
  O  O80  1  0.945305  0.823872  0.149589  1
  O  O81  1  0.994450  0.956002  0.412980  1
  O  O82  1  0.118837  0.260060  0.142014  1
  O  O83  1  0.967745  0.303631  0.235313  1
  O  O84  1  0.561827  0.942101  0.093129  1
  O  O85  1  0.808629  0.621201  0.685119  1
  O  O86  1  0.075535  0.711212  0.958166  1
  O  O87  1  0.054695  0.176128  0.850411  1
  O  O88  1  0.246258  0.995808  0.816738  1
  O  O89  1  0.396364  0.609737  0.309656  1
