# generated using pymatgen
data_NdNp2(SnRh)3
_symmetry_space_group_name_H-M   'P 1'
_cell_length_a   7.37848829
_cell_length_b   7.52352164
_cell_length_c   4.06626200
_cell_angle_alpha   90.00000000
_cell_angle_beta   90.00000000
_cell_angle_gamma   119.43354557
_symmetry_Int_Tables_number   1
_chemical_formula_structural   NdNp2(SnRh)3
_chemical_formula_sum   'Nd1 Np2 Sn3 Rh3'
_cell_volume   196.59175679
_cell_formula_units_Z   1
loop_
 _symmetry_equiv_pos_site_id
 _symmetry_equiv_pos_as_xyz
  1  'x, y, z'
loop_
 _atom_site_type_symbol
 _atom_site_label
 _atom_site_symmetry_multiplicity
 _atom_site_fract_x
 _atom_site_fract_y
 _atom_site_fract_z
 _atom_site_occupancy
  Nd  Nd0  1  0.586812  0.999579  0.000000  1
  Np  Np1  1  0.002051  0.580987  0.000000  1
  Np  Np2  1  0.416347  0.416627  0.000000  1
  Sn  Sn3  1  0.748996  0.750873  0.500000  1
  Sn  Sn4  1  0.996158  0.249875  0.500000  1
  Sn  Sn5  1  0.254687  0.998895  0.500000  1
  Rh  Rh6  1  0.010577  0.003981  0.000000  1
  Rh  Rh7  1  0.665685  0.350902  0.500000  1
  Rh  Rh8  1  0.318688  0.648281  0.500000  1
