# generated using pymatgen
data_Nd5Y15(Cd3Os)2
_symmetry_space_group_name_H-M   'P 1'
_cell_length_a   9.73287429
_cell_length_b   9.73697997
_cell_length_c   9.96378700
_cell_angle_alpha   90.00000000
_cell_angle_beta   90.00000000
_cell_angle_gamma   120.01395189
_symmetry_Int_Tables_number   1
_chemical_formula_structural   Nd5Y15(Cd3Os)2
_chemical_formula_sum   'Nd5 Y15 Cd6 Os2'
_cell_volume   817.63482934
_cell_formula_units_Z   1
loop_
 _symmetry_equiv_pos_site_id
 _symmetry_equiv_pos_as_xyz
  1  'x, y, z'
loop_
 _atom_site_type_symbol
 _atom_site_label
 _atom_site_symmetry_multiplicity
 _atom_site_fract_x
 _atom_site_fract_y
 _atom_site_fract_z
 _atom_site_occupancy
  Nd  Nd0  1  0.539520  0.460403  0.250000  1
  Nd  Nd1  1  0.539520  0.079117  0.250000  1
  Nd  Nd2  1  0.920520  0.460260  0.250000  1
  Nd  Nd3  1  0.459344  0.539511  0.750000  1
  Nd  Nd4  1  0.459344  0.919832  0.750000  1
  Y  Y5  1  0.000009  0.000005  0.500191  1
  Y  Y6  1  0.000009  0.000005  0.999809  1
  Y  Y7  1  0.209211  0.789345  0.439561  1
  Y  Y8  1  0.209211  0.419865  0.439561  1
  Y  Y9  1  0.580249  0.790125  0.439365  1
  Y  Y10  1  0.791161  0.210696  0.561458  1
  Y  Y11  1  0.791161  0.580465  0.561458  1
  Y  Y12  1  0.419636  0.209818  0.561219  1
  Y  Y13  1  0.791161  0.210696  0.938542  1
  Y  Y14  1  0.791161  0.580465  0.938542  1
  Y  Y15  1  0.419636  0.209818  0.938781  1
  Y  Y16  1  0.209211  0.789345  0.060439  1
  Y  Y17  1  0.209211  0.419865  0.060439  1
  Y  Y18  1  0.580249  0.790125  0.060635  1
  Y  Y19  1  0.077953  0.538976  0.750000  1
  Cd  Cd20  1  0.887996  0.113011  0.250000  1
  Cd  Cd21  1  0.887996  0.774987  0.250000  1
  Cd  Cd22  1  0.225275  0.112638  0.250000  1
  Cd  Cd23  1  0.112232  0.885231  0.750000  1
  Cd  Cd24  1  0.112232  0.226999  0.750000  1
  Cd  Cd25  1  0.774841  0.887419  0.750000  1
  Os  Os26  1  0.334204  0.667103  0.250000  1
  Os  Os27  1  0.667751  0.333875  0.750000  1
