# generated using pymatgen
data_Th6Sc4Ir5Os
_symmetry_space_group_name_H-M   'P 1'
_cell_length_a   6.14415900
_cell_length_b   8.31254830
_cell_length_c   8.32033600
_cell_angle_alpha   119.96905113
_cell_angle_beta   90.00000000
_cell_angle_gamma   90.00000000
_symmetry_Int_Tables_number   1
_chemical_formula_structural   Th6Sc4Ir5Os
_chemical_formula_sum   'Th6 Sc4 Ir5 Os1'
_cell_volume   368.13192297
_cell_formula_units_Z   1
loop_
 _symmetry_equiv_pos_site_id
 _symmetry_equiv_pos_as_xyz
  1  'x, y, z'
loop_
 _atom_site_type_symbol
 _atom_site_label
 _atom_site_symmetry_multiplicity
 _atom_site_fract_x
 _atom_site_fract_y
 _atom_site_fract_z
 _atom_site_occupancy
  Th  Th0  1  0.750000  0.739427  0.738980  1
  Th  Th1  1  0.250000  0.261949  0.257817  1
  Th  Th2  1  0.750000  0.000447  0.261020  1
  Th  Th3  1  0.250000  0.004133  0.742183  1
  Th  Th4  1  0.750000  0.259825  0.000000  1
  Th  Th5  1  0.250000  0.736969  0.000000  1
  Sc  Sc6  1  0.001182  0.666167  0.332759  1
  Sc  Sc7  1  0.001182  0.333406  0.667241  1
  Sc  Sc8  1  0.498818  0.333406  0.667241  1
  Sc  Sc9  1  0.498818  0.666167  0.332759  1
  Ir  Ir10  1  0.750000  0.391341  0.393000  1
  Ir  Ir11  1  0.250000  0.611089  0.610527  1
  Ir  Ir12  1  0.750000  0.998341  0.607000  1
  Ir  Ir13  1  0.250000  0.000563  0.389473  1
  Ir  Ir14  1  0.750000  0.607501  0.000000  1
  Os  Os15  1  0.250000  0.389265  0.000000  1
