# generated using pymatgen
data_Tm4Ni3Hg2Au
_symmetry_space_group_name_H-M   'P 1'
_cell_length_a   7.44976401
_cell_length_b   7.44976401
_cell_length_c   3.61888200
_cell_angle_alpha   90.00000000
_cell_angle_beta   90.00000000
_cell_angle_gamma   89.27766098
_symmetry_Int_Tables_number   1
_chemical_formula_structural   Tm4Ni3Hg2Au
_chemical_formula_sum   'Tm4 Ni3 Hg2 Au1'
_cell_volume   200.82831243
_cell_formula_units_Z   1
loop_
 _symmetry_equiv_pos_site_id
 _symmetry_equiv_pos_as_xyz
  1  'x, y, z'
loop_
 _atom_site_type_symbol
 _atom_site_label
 _atom_site_symmetry_multiplicity
 _atom_site_fract_x
 _atom_site_fract_y
 _atom_site_fract_z
 _atom_site_occupancy
  Tm  Tm0  1  0.307504  0.172584  0.499999  1
  Tm  Tm1  1  0.841322  0.341322  0.499999  1
  Tm  Tm2  1  0.174791  0.674792  0.499999  1
  Tm  Tm3  1  0.672585  0.807504  0.499999  1
  Ni  Ni4  1  0.123096  0.385214  0.000000  1
  Ni  Ni5  1  0.885214  0.623095  0.000000  1
  Ni  Ni6  1  0.373162  0.873162  0.000000  1
  Hg  Hg7  1  0.006793  0.994641  0.000000  1
  Hg  Hg8  1  0.494641  0.506793  0.000000  1
  Au  Au9  1  0.620892  0.120893  0.000000  1
