# generated using pymatgen
data_La4MnCuSb8Pd
_symmetry_space_group_name_H-M   'P 1'
_cell_length_a   11.17711575
_cell_length_b   11.17711551
_cell_length_c   11.17711551
_cell_angle_alpha   147.20568035
_cell_angle_beta   147.22618356
_cell_angle_gamma   47.04416395
_symmetry_Int_Tables_number   1
_chemical_formula_structural   La4MnCuSb8Pd
_chemical_formula_sum   'La4 Mn1 Cu1 Sb8 Pd1'
_cell_volume   407.86179579
_cell_formula_units_Z   1
loop_
 _symmetry_equiv_pos_site_id
 _symmetry_equiv_pos_as_xyz
  1  'x, y, z'
loop_
 _atom_site_type_symbol
 _atom_site_label
 _atom_site_symmetry_multiplicity
 _atom_site_fract_x
 _atom_site_fract_y
 _atom_site_fract_z
 _atom_site_occupancy
  La  La0  1  0.628682  0.130922  0.001367  1
  La  La1  1  0.129554  0.627315  0.998633  1
  La  La2  1  0.870446  0.869078  0.497760  1
  La  La3  1  0.371318  0.372685  0.502240  1
  Mn  Mn4  1  0.000000  0.000000  0.000000  1
  Cu  Cu5  1  0.500000  0.000000  0.500000  1
  Sb  Sb6  1  0.249778  0.249778  0.000000  1
  Sb  Sb7  1  0.750222  0.750222  0.000000  1
  Sb  Sb8  1  0.249955  0.749955  0.500000  1
  Sb  Sb9  1  0.750045  0.250045  0.500000  1
  Sb  Sb10  1  0.328825  0.823535  0.009136  1
  Sb  Sb11  1  0.814399  0.319689  0.990864  1
  Sb  Sb12  1  0.185601  0.176465  0.505289  1
  Sb  Sb13  1  0.671175  0.680311  0.494711  1
  Pd  Pd14  1  0.000000  0.500000  0.500000  1
