# generated using pymatgen
data_SmEu2(BPt2)3
_symmetry_space_group_name_H-M   'P 1'
_cell_length_a   5.56356815
_cell_length_b   5.53486625
_cell_length_c   7.80331900
_cell_angle_alpha   90.00000000
_cell_angle_beta   90.00000000
_cell_angle_gamma   119.82949683
_symmetry_Int_Tables_number   1
_chemical_formula_structural   SmEu2(BPt2)3
_chemical_formula_sum   'Sm1 Eu2 B3 Pt6'
_cell_volume   208.45587431
_cell_formula_units_Z   1
loop_
 _symmetry_equiv_pos_site_id
 _symmetry_equiv_pos_as_xyz
  1  'x, y, z'
loop_
 _atom_site_type_symbol
 _atom_site_label
 _atom_site_symmetry_multiplicity
 _atom_site_fract_x
 _atom_site_fract_y
 _atom_site_fract_z
 _atom_site_occupancy
  Sm  Sm0  1  0.000000  0.500000  0.166667  1
  Eu  Eu1  1  0.500000  0.500000  0.830688  1
  Eu  Eu2  1  0.500000  0.000000  0.502645  1
  B  B3  1  0.500000  0.500000  0.333928  1
  B  B4  1  0.500000  0.000000  0.999405  1
  B  B5  1  0.000000  0.500000  0.666667  1
  Pt  Pt6  1  0.145374  0.846182  0.836615  1
  Pt  Pt7  1  0.145374  0.299192  0.496718  1
  Pt  Pt8  1  0.700218  0.850109  0.166667  1
  Pt  Pt9  1  0.854626  0.153818  0.836615  1
  Pt  Pt10  1  0.854626  0.700808  0.496718  1
  Pt  Pt11  1  0.299782  0.149891  0.166667  1
