# generated using pymatgen
data_TaNbZnB2Ru5
_symmetry_space_group_name_H-M   'P 1'
_cell_length_a   9.30477506
_cell_length_b   9.30477506
_cell_length_c   3.01552000
_cell_angle_alpha   90.00000000
_cell_angle_beta   90.00000000
_cell_angle_gamma   90.01347299
_symmetry_Int_Tables_number   1
_chemical_formula_structural   TaNbZnB2Ru5
_chemical_formula_sum   'Ta2 Nb2 Zn2 B4 Ru10'
_cell_volume   261.08021336
_cell_formula_units_Z   2
loop_
 _symmetry_equiv_pos_site_id
 _symmetry_equiv_pos_as_xyz
  1  'x, y, z'
loop_
 _atom_site_type_symbol
 _atom_site_label
 _atom_site_symmetry_multiplicity
 _atom_site_fract_x
 _atom_site_fract_y
 _atom_site_fract_z
 _atom_site_occupancy
  Ta  Ta0  1  0.323308  0.823308  0.000000  1
  Ta  Ta1  1  0.676692  0.176692  0.000000  1
  Nb  Nb2  1  0.823719  0.676281  0.000000  1
  Nb  Nb3  1  0.176281  0.323719  0.000000  1
  Zn  Zn4  1  0.500000  0.500000  0.000000  1
  Zn  Zn5  1  0.000000  0.000000  0.000000  1
  B  B6  1  0.625831  0.874169  0.000000  1
  B  B7  1  0.374169  0.125831  0.000000  1
  B  B8  1  0.125563  0.625563  0.000000  1
  B  B9  1  0.874437  0.374437  0.000000  1
  Ru  Ru10  1  0.570099  0.715896  0.500000  1
  Ru  Ru11  1  0.429901  0.284104  0.500000  1
  Ru  Ru12  1  0.072104  0.784870  0.500000  1
  Ru  Ru13  1  0.927896  0.215130  0.500000  1
  Ru  Ru14  1  0.284870  0.572104  0.500000  1
  Ru  Ru15  1  0.715130  0.427896  0.500000  1
  Ru  Ru16  1  0.215896  0.070099  0.500000  1
  Ru  Ru17  1  0.784104  0.929901  0.500000  1
  Ru  Ru18  1  0.500000  0.000000  0.500000  1
  Ru  Ru19  1  0.000000  0.500000  0.500000  1
