# generated using pymatgen
data_YPu5(Ni3Sb4)2
_symmetry_space_group_name_H-M   'P 1'
_cell_length_a   8.31087358
_cell_length_b   8.31087221
_cell_length_c   8.31087200
_cell_angle_alpha   109.65200992
_cell_angle_beta   109.65199922
_cell_angle_gamma   109.11026297
_symmetry_Int_Tables_number   1
_chemical_formula_structural   YPu5(Ni3Sb4)2
_chemical_formula_sum   'Y1 Pu5 Ni6 Sb8'
_cell_volume   441.88068740
_cell_formula_units_Z   1
loop_
 _symmetry_equiv_pos_site_id
 _symmetry_equiv_pos_as_xyz
  1  'x, y, z'
loop_
 _atom_site_type_symbol
 _atom_site_label
 _atom_site_symmetry_multiplicity
 _atom_site_fract_x
 _atom_site_fract_y
 _atom_site_fract_z
 _atom_site_occupancy
  Y  Y0  1  0.375539  0.625514  0.750046  1
  Pu  Pu1  1  0.874903  0.249974  0.125890  1
  Pu  Pu2  1  0.624112  0.748954  0.373997  1
  Pu  Pu3  1  0.251173  0.125269  0.875529  1
  Pu  Pu4  1  0.749766  0.375676  0.624469  1
  Pu  Pu5  1  0.123805  0.873804  0.250134  1
  Ni  Ni6  1  0.372512  0.248555  0.622978  1
  Ni  Ni7  1  0.125346  0.749250  0.876904  1
  Ni  Ni8  1  0.249317  0.627764  0.375095  1
  Ni  Ni9  1  0.752666  0.874254  0.124841  1
  Ni  Ni10  1  0.625183  0.375086  0.250038  1
  Ni  Ni11  1  0.875316  0.125491  0.750042  1
  Sb  Sb12  1  0.653643  0.499897  0.998398  1
  Sb  Sb13  1  0.501111  0.002079  0.655067  1
  Sb  Sb14  1  0.001305  0.654990  0.501604  1
  Sb  Sb15  1  0.846863  0.845775  0.844760  1
  Sb  Sb16  1  0.500030  0.997999  0.153590  1
  Sb  Sb17  1  0.153982  0.499238  0.000255  1
  Sb  Sb18  1  0.998740  0.153852  0.499780  1
  Sb  Sb19  1  0.344686  0.346579  0.346582  1
