# generated using pymatgen
data_Dy3Ho2Co16(MoP4)3
_symmetry_space_group_name_H-M   'P 1'
_cell_length_a   12.07255525
_cell_length_b   12.07255640
_cell_length_c   3.70496500
_cell_angle_alpha   90.00000000
_cell_angle_beta   90.00000000
_cell_angle_gamma   119.97688078
_symmetry_Int_Tables_number   1
_chemical_formula_structural   Dy3Ho2Co16(MoP4)3
_chemical_formula_sum   'Dy3 Ho2 Co16 Mo3 P12'
_cell_volume   467.75055782
_cell_formula_units_Z   1
loop_
 _symmetry_equiv_pos_site_id
 _symmetry_equiv_pos_as_xyz
  1  'x, y, z'
loop_
 _atom_site_type_symbol
 _atom_site_label
 _atom_site_symmetry_multiplicity
 _atom_site_fract_x
 _atom_site_fract_y
 _atom_site_fract_z
 _atom_site_occupancy
  Dy  Dy0  1  0.666548  0.333285  0.000000  1
  Dy  Dy1  1  0.333285  0.666548  0.000000  1
  Dy  Dy2  1  0.814931  0.814931  0.500000  1
  Ho  Ho3  1  0.185178  0.000120  0.500000  1
  Ho  Ho4  1  0.000120  0.185178  0.500000  1
  Co  Co5  1  0.873130  0.355164  0.500000  1
  Co  Co6  1  0.644767  0.517793  0.500000  1
  Co  Co7  1  0.482021  0.126899  0.500000  1
  Co  Co8  1  0.355164  0.873130  0.500000  1
  Co  Co9  1  0.517793  0.644767  0.500000  1
  Co  Co10  1  0.126899  0.482021  0.500000  1
  Co  Co11  1  0.802396  0.177229  0.000000  1
  Co  Co12  1  0.822886  0.625033  0.000000  1
  Co  Co13  1  0.374786  0.197563  0.000000  1
  Co  Co14  1  0.177229  0.802396  0.000000  1
  Co  Co15  1  0.625033  0.822886  0.000000  1
  Co  Co16  1  0.197563  0.374786  0.000000  1
  Co  Co17  1  0.280158  0.280158  0.500000  1
  Co  Co18  1  0.719782  0.000112  0.500000  1
  Co  Co19  1  0.000112  0.719782  0.500000  1
  Co  Co20  1  0.000249  0.000249  0.000000  1
  Mo  Mo21  1  0.446016  0.446016  0.000000  1
  Mo  Mo22  1  0.553823  0.000062  0.000000  1
  Mo  Mo23  1  0.000062  0.553823  0.000000  1
  P  P24  1  0.686227  0.165522  0.500000  1
  P  P25  1  0.834537  0.520797  0.500000  1
  P  P26  1  0.479162  0.313679  0.500000  1
  P  P27  1  0.165522  0.686227  0.500000  1
  P  P28  1  0.520797  0.834537  0.500000  1
  P  P29  1  0.313679  0.479162  0.500000  1
  P  P30  1  0.178249  0.178249  0.000000  1
  P  P31  1  0.821879  0.000298  0.000000  1
  P  P32  1  0.000298  0.821879  0.000000  1
  P  P33  1  0.639038  0.639038  0.000000  1
  P  P34  1  0.360661  0.000020  0.000000  1
  P  P35  1  0.000020  0.360661  0.000000  1
