# generated using pymatgen
data_Lu20Ir2Os3Pd7
_symmetry_space_group_name_H-M   'P 1'
_cell_length_a   10.83630471
_cell_length_b   10.83427082
_cell_length_c   6.23253900
_cell_angle_alpha   89.91199597
_cell_angle_beta   89.92735123
_cell_angle_gamma   90.22955276
_symmetry_Int_Tables_number   1
_chemical_formula_structural   Lu20Ir2Os3Pd7
_chemical_formula_sum   'Lu20 Ir2 Os3 Pd7'
_cell_volume   731.71431291
_cell_formula_units_Z   1
loop_
 _symmetry_equiv_pos_site_id
 _symmetry_equiv_pos_as_xyz
  1  'x, y, z'
loop_
 _atom_site_type_symbol
 _atom_site_label
 _atom_site_symmetry_multiplicity
 _atom_site_fract_x
 _atom_site_fract_y
 _atom_site_fract_z
 _atom_site_occupancy
  Lu  Lu0  1  0.298322  0.083224  0.368826  1
  Lu  Lu1  1  0.298584  0.909937  0.869641  1
  Lu  Lu2  1  0.701090  0.083561  0.868635  1
  Lu  Lu3  1  0.701206  0.914813  0.367883  1
  Lu  Lu4  1  0.579764  0.795564  0.867599  1
  Lu  Lu5  1  0.584610  0.202437  0.369914  1
  Lu  Lu6  1  0.413053  0.794782  0.375500  1
  Lu  Lu7  1  0.415032  0.200080  0.869437  1
  Lu  Lu8  1  0.206676  0.419485  0.635360  1
  Lu  Lu9  1  0.206379  0.588008  0.123218  1
  Lu  Lu10  1  0.796420  0.414548  0.128167  1
  Lu  Lu11  1  0.797879  0.586154  0.632816  1
  Lu  Lu12  1  0.915807  0.702652  0.129462  1
  Lu  Lu13  1  0.914999  0.296955  0.633834  1
  Lu  Lu14  1  0.091702  0.703246  0.632429  1
  Lu  Lu15  1  0.086020  0.297830  0.130773  1
  Lu  Lu16  1  0.999482  0.000315  0.499453  1
  Lu  Lu17  1  0.999709  0.000675  0.998411  1
  Lu  Lu18  1  0.496665  0.501527  0.997982  1
  Lu  Lu19  1  0.498434  0.503237  0.499513  1
  Ir  Ir20  1  0.347162  0.651396  0.749628  1
  Ir  Ir21  1  0.999915  0.499839  0.380127  1
  Os  Os22  1  0.499991  0.999869  0.123276  1
  Os  Os23  1  0.499969  0.000155  0.621333  1
  Os  Os24  1  0.999638  0.499995  0.879263  1
  Pd  Pd25  1  0.847218  0.154363  0.249676  1
  Pd  Pd26  1  0.845888  0.846232  0.750760  1
  Pd  Pd27  1  0.153165  0.155007  0.748854  1
  Pd  Pd28  1  0.151380  0.847299  0.249489  1
  Pd  Pd29  1  0.652961  0.347798  0.749678  1
  Pd  Pd30  1  0.655795  0.653323  0.248833  1
  Pd  Pd31  1  0.345087  0.345692  0.250233  1
