# generated using pymatgen
data_Nd2Zn2(HPd5)3
_symmetry_space_group_name_H-M   'P 1'
_cell_length_a   6.99697092
_cell_length_b   6.99696983
_cell_length_c   6.94755303
_cell_angle_alpha   82.83070834
_cell_angle_beta   82.83071339
_cell_angle_gamma   83.62622321
_symmetry_Int_Tables_number   1
_chemical_formula_structural   Nd2Zn2(HPd5)3
_chemical_formula_sum   'Nd2 Zn2 H3 Pd15'
_cell_volume   333.26044364
_cell_formula_units_Z   1
loop_
 _symmetry_equiv_pos_site_id
 _symmetry_equiv_pos_as_xyz
  1  'x, y, z'
loop_
 _atom_site_type_symbol
 _atom_site_label
 _atom_site_symmetry_multiplicity
 _atom_site_fract_x
 _atom_site_fract_y
 _atom_site_fract_z
 _atom_site_occupancy
  Nd  Nd0  1  0.667694  0.667694  0.658884  1
  Nd  Nd1  1  0.332306  0.332306  0.341116  1
  Zn  Zn2  1  0.500000  0.000000  0.000000  1
  Zn  Zn3  1  0.000000  0.500000  0.000000  1
  H  H4  1  0.500000  0.500000  0.000000  1
  H  H5  1  0.000000  0.500000  0.500000  1
  H  H6  1  0.500000  0.000000  0.500000  1
  Pd  Pd7  1  0.000000  0.000000  0.500000  1
  Pd  Pd8  1  0.705082  0.294918  0.000000  1
  Pd  Pd9  1  0.997499  0.702269  0.293632  1
  Pd  Pd10  1  0.297731  0.002501  0.706368  1
  Pd  Pd11  1  0.002501  0.297731  0.706368  1
  Pd  Pd12  1  0.702269  0.997499  0.293632  1
  Pd  Pd13  1  0.294918  0.705082  0.000000  1
  Pd  Pd14  1  0.349186  0.349186  0.856982  1
  Pd  Pd15  1  0.851143  0.349982  0.346233  1
  Pd  Pd16  1  0.349982  0.851143  0.346233  1
  Pd  Pd17  1  0.650814  0.650814  0.143018  1
  Pd  Pd18  1  0.148857  0.650018  0.653767  1
  Pd  Pd19  1  0.650018  0.148857  0.653767  1
  Pd  Pd20  1  0.897413  0.897413  0.899769  1
  Pd  Pd21  1  0.102587  0.102587  0.100231  1
