# generated using pymatgen
data_Dy6Co18P13Pt2
_symmetry_space_group_name_H-M   'P 1'
_cell_length_a   12.76644300
_cell_length_b   12.76644329
_cell_length_c   3.67294000
_cell_angle_alpha   90.00000000
_cell_angle_beta   90.00000000
_cell_angle_gamma   120.00000184
_symmetry_Int_Tables_number   1
_chemical_formula_structural   Dy6Co18P13Pt2
_chemical_formula_sum   'Dy6 Co18 P13 Pt2'
_cell_volume   518.42303289
_cell_formula_units_Z   1
loop_
 _symmetry_equiv_pos_site_id
 _symmetry_equiv_pos_as_xyz
  1  'x, y, z'
loop_
 _atom_site_type_symbol
 _atom_site_label
 _atom_site_symmetry_multiplicity
 _atom_site_fract_x
 _atom_site_fract_y
 _atom_site_fract_z
 _atom_site_occupancy
  Dy  Dy0  1  0.463260  0.183581  0.000000  1
  Dy  Dy1  1  0.720322  0.536740  0.000000  1
  Dy  Dy2  1  0.816419  0.279678  0.000000  1
  Dy  Dy3  1  0.536862  0.816558  0.500000  1
  Dy  Dy4  1  0.279698  0.463138  0.500000  1
  Dy  Dy5  1  0.183442  0.720302  0.500000  1
  Co  Co6  1  0.193554  0.092141  0.000000  1
  Co  Co7  1  0.898586  0.806446  0.000000  1
  Co  Co8  1  0.907859  0.101414  0.000000  1
  Co  Co9  1  0.840429  0.923195  0.500000  1
  Co  Co10  1  0.082766  0.159571  0.500000  1
  Co  Co11  1  0.076805  0.917234  0.500000  1
  Co  Co12  1  0.436910  0.415541  0.000000  1
  Co  Co13  1  0.978632  0.563090  0.000000  1
  Co  Co14  1  0.584459  0.021368  0.000000  1
  Co  Co15  1  0.565539  0.586138  0.500000  1
  Co  Co16  1  0.020599  0.434461  0.500000  1
  Co  Co17  1  0.413862  0.979401  0.500000  1
  Co  Co18  1  0.075042  0.316658  0.000000  1
  Co  Co19  1  0.241615  0.924958  0.000000  1
  Co  Co20  1  0.683342  0.758385  0.000000  1
  Co  Co21  1  0.931846  0.683843  0.500000  1
  Co  Co22  1  0.751997  0.068154  0.500000  1
  Co  Co23  1  0.316157  0.248003  0.500000  1
  P  P24  1  0.229410  0.278046  0.000000  1
  P  P25  1  0.048637  0.770590  0.000000  1
  P  P26  1  0.721954  0.951363  0.000000  1
  P  P27  1  0.772618  0.725098  0.500000  1
  P  P28  1  0.952480  0.227382  0.500000  1
  P  P29  1  0.274902  0.047520  0.500000  1
  P  P30  1  0.487651  0.614175  0.000000  1
  P  P31  1  0.126524  0.512349  0.000000  1
  P  P32  1  0.385825  0.873476  0.000000  1
  P  P33  1  0.513722  0.388091  0.500000  1
  P  P34  1  0.874369  0.486278  0.500000  1
  P  P35  1  0.611909  0.125631  0.500000  1
  P  P36  1  0.000000  0.000000  0.000000  1
  Pt  Pt37  1  0.333333  0.666667  0.000000  1
  Pt  Pt38  1  0.666667  0.333333  0.500000  1
