# generated using pymatgen
data_Yb2Co5NiO12
_symmetry_space_group_name_H-M   'P 1'
_cell_length_a   4.99402600
_cell_length_b   5.57078679
_cell_length_c   8.66499300
_cell_angle_alpha   90.00004114
_cell_angle_beta   89.99996558
_cell_angle_gamma   72.37579822
_symmetry_Int_Tables_number   1
_chemical_formula_structural   Yb2Co5NiO12
_chemical_formula_sum   'Yb2 Co5 Ni1 O12'
_cell_volume   229.75083525
_cell_formula_units_Z   1
loop_
 _symmetry_equiv_pos_site_id
 _symmetry_equiv_pos_as_xyz
  1  'x, y, z'
loop_
 _atom_site_type_symbol
 _atom_site_label
 _atom_site_symmetry_multiplicity
 _atom_site_fract_x
 _atom_site_fract_y
 _atom_site_fract_z
 _atom_site_occupancy
  Yb  Yb0  1  0.000001  0.500000  0.174272  1
  Yb  Yb1  1  0.500001  0.500000  0.667891  1
  Co  Co2  1  0.500000  0.000000  0.169359  1
  Co  Co3  1  0.500000  0.000000  0.496726  1
  Co  Co4  1  0.000000  0.000000  0.664217  1
  Co  Co5  1  0.000001  0.000000  0.334629  1
  Co  Co6  1  0.000000  0.000000  0.000742  1
  Ni  Ni7  1  0.499998  0.999999  0.837507  1
  O  O8  1  0.777688  0.183952  0.167190  1
  O  O9  1  0.266570  0.185839  0.652144  1
  O  O10  1  0.222313  0.816049  0.167190  1
  O  O11  1  0.733428  0.814162  0.652144  1
  O  O12  1  0.255044  0.187329  0.010699  1
  O  O13  1  0.768459  0.186608  0.501281  1
  O  O14  1  0.270167  0.182769  0.335411  1
  O  O15  1  0.789335  0.190368  0.827270  1
  O  O16  1  0.729835  0.817231  0.335411  1
  O  O17  1  0.210663  0.809632  0.827270  1
  O  O18  1  0.744956  0.812670  0.010699  1
  O  O19  1  0.231542  0.813393  0.501281  1
