# generated using pymatgen
data_Tm3Mn8NiP6
_symmetry_space_group_name_H-M   'P 1'
_cell_length_a   3.61190300
_cell_length_b   10.79951800
_cell_length_c   12.58841700
_cell_angle_alpha   90.00000000
_cell_angle_beta   90.00000000
_cell_angle_gamma   90.00000000
_symmetry_Int_Tables_number   1
_chemical_formula_structural   Tm3Mn8NiP6
_chemical_formula_sum   'Tm6 Mn16 Ni2 P12'
_cell_volume   491.03400853
_cell_formula_units_Z   2
loop_
 _symmetry_equiv_pos_site_id
 _symmetry_equiv_pos_as_xyz
  1  'x, y, z'
loop_
 _atom_site_type_symbol
 _atom_site_label
 _atom_site_symmetry_multiplicity
 _atom_site_fract_x
 _atom_site_fract_y
 _atom_site_fract_z
 _atom_site_occupancy
  Tm  Tm0  1  0.000000  0.500000  0.530797  1
  Tm  Tm1  1  0.500000  0.000000  0.469203  1
  Tm  Tm2  1  0.500000  0.820112  0.205544  1
  Tm  Tm3  1  0.500000  0.179888  0.205544  1
  Tm  Tm4  1  0.000000  0.679888  0.794456  1
  Tm  Tm5  1  0.000000  0.320112  0.794456  1
  Mn  Mn6  1  0.500000  0.500000  0.167758  1
  Mn  Mn7  1  0.000000  0.000000  0.832242  1
  Mn  Mn8  1  0.000000  0.500000  0.991358  1
  Mn  Mn9  1  0.500000  0.000000  0.008642  1
  Mn  Mn10  1  0.500000  0.333107  0.996688  1
  Mn  Mn11  1  0.500000  0.666893  0.996688  1
  Mn  Mn12  1  0.000000  0.166893  0.003312  1
  Mn  Mn13  1  0.000000  0.833107  0.003312  1
  Mn  Mn14  1  0.500000  0.298157  0.432882  1
  Mn  Mn15  1  0.500000  0.701843  0.432882  1
  Mn  Mn16  1  0.000000  0.201843  0.567118  1
  Mn  Mn17  1  0.000000  0.798157  0.567118  1
  Mn  Mn18  1  0.500000  0.880979  0.701534  1
  Mn  Mn19  1  0.500000  0.119021  0.701534  1
  Mn  Mn20  1  0.000000  0.619021  0.298466  1
  Mn  Mn21  1  0.000000  0.380979  0.298466  1
  Ni  Ni22  1  0.500000  0.500000  0.704669  1
  Ni  Ni23  1  0.000000  0.000000  0.295331  1
  P  P24  1  0.500000  0.500000  0.879751  1
  P  P25  1  0.000000  0.000000  0.120249  1
  P  P26  1  0.500000  0.500000  0.361207  1
  P  P27  1  0.000000  0.000000  0.638793  1
  P  P28  1  0.500000  0.318316  0.618966  1
  P  P29  1  0.500000  0.681684  0.618966  1
  P  P30  1  0.000000  0.181684  0.381034  1
  P  P31  1  0.000000  0.818316  0.381034  1
  P  P32  1  0.500000  0.845495  0.884303  1
  P  P33  1  0.500000  0.154505  0.884303  1
  P  P34  1  0.000000  0.654505  0.115697  1
  P  P35  1  0.000000  0.345495  0.115697  1
