# generated using pymatgen
data_PrY(LuBi)3
_symmetry_space_group_name_H-M   'P 1'
_cell_length_a   8.30558700
_cell_length_b   9.43151000
_cell_length_c   12.12509800
_cell_angle_alpha   90.00000000
_cell_angle_beta   90.00000000
_cell_angle_gamma   90.00000000
_symmetry_Int_Tables_number   1
_chemical_formula_structural   PrY(LuBi)3
_chemical_formula_sum   'Pr4 Y4 Lu12 Bi12'
_cell_volume   949.81017727
_cell_formula_units_Z   4
loop_
 _symmetry_equiv_pos_site_id
 _symmetry_equiv_pos_as_xyz
  1  'x, y, z'
loop_
 _atom_site_type_symbol
 _atom_site_label
 _atom_site_symmetry_multiplicity
 _atom_site_fract_x
 _atom_site_fract_y
 _atom_site_fract_z
 _atom_site_occupancy
  Pr  Pr0  1  0.184719  0.750000  0.719715  1
  Pr  Pr1  1  0.684719  0.750000  0.780285  1
  Pr  Pr2  1  0.815281  0.250000  0.280285  1
  Pr  Pr3  1  0.315281  0.250000  0.219715  1
  Y  Y4  1  0.352614  0.750000  0.217261  1
  Y  Y5  1  0.852614  0.750000  0.282739  1
  Y  Y6  1  0.647386  0.250000  0.782739  1
  Y  Y7  1  0.147386  0.250000  0.717261  1
  Lu  Lu8  1  0.023246  0.750000  0.989603  1
  Lu  Lu9  1  0.523246  0.750000  0.510397  1
  Lu  Lu10  1  0.976754  0.250000  0.010397  1
  Lu  Lu11  1  0.476754  0.250000  0.489603  1
  Lu  Lu12  1  0.307920  0.432480  0.940319  1
  Lu  Lu13  1  0.807920  0.067520  0.559681  1
  Lu  Lu14  1  0.692080  0.932480  0.059681  1
  Lu  Lu15  1  0.192080  0.567520  0.440319  1
  Lu  Lu16  1  0.692080  0.567520  0.059681  1
  Lu  Lu17  1  0.192080  0.932480  0.440319  1
  Lu  Lu18  1  0.307920  0.067520  0.940319  1
  Lu  Lu19  1  0.807920  0.432480  0.559681  1
  Bi  Bi20  1  0.435308  0.008206  0.670281  1
  Bi  Bi21  1  0.935308  0.491794  0.829719  1
  Bi  Bi22  1  0.564692  0.508206  0.329719  1
  Bi  Bi23  1  0.064692  0.991794  0.170281  1
  Bi  Bi24  1  0.564692  0.991794  0.329719  1
  Bi  Bi25  1  0.064692  0.508206  0.170281  1
  Bi  Bi26  1  0.435308  0.491794  0.670281  1
  Bi  Bi27  1  0.935308  0.008206  0.829719  1
  Bi  Bi28  1  0.403071  0.750000  0.961453  1
  Bi  Bi29  1  0.903071  0.750000  0.538547  1
  Bi  Bi30  1  0.596929  0.250000  0.038547  1
  Bi  Bi31  1  0.096929  0.250000  0.461453  1
