# generated using pymatgen
data_Hf8Fe3TcOs4
_symmetry_space_group_name_H-M   'P 1'
_cell_length_a   6.43679700
_cell_length_b   4.56407900
_cell_length_c   9.12418200
_cell_angle_alpha   90.00000000
_cell_angle_beta   90.00007328
_cell_angle_gamma   90.00000000
_symmetry_Int_Tables_number   1
_chemical_formula_structural   Hf8Fe3TcOs4
_chemical_formula_sum   'Hf8 Fe3 Tc1 Os4'
_cell_volume   268.05067514
_cell_formula_units_Z   1
loop_
 _symmetry_equiv_pos_site_id
 _symmetry_equiv_pos_as_xyz
  1  'x, y, z'
loop_
 _atom_site_type_symbol
 _atom_site_label
 _atom_site_symmetry_multiplicity
 _atom_site_fract_x
 _atom_site_fract_y
 _atom_site_fract_z
 _atom_site_occupancy
  Hf  Hf0  1  0.498614  0.750000  0.124999  1
  Hf  Hf1  1  0.001381  0.750000  0.124999  1
  Hf  Hf2  1  0.499485  0.249999  0.376267  1
  Hf  Hf3  1  0.000513  0.249999  0.376267  1
  Hf  Hf4  1  0.500440  0.750000  0.625003  1
  Hf  Hf5  1  0.999563  0.750000  0.625003  1
  Hf  Hf6  1  0.499478  0.249999  0.873715  1
  Hf  Hf7  1  0.000527  0.249999  0.873714  1
  Fe  Fe8  1  0.249997  0.750000  0.376365  1
  Fe  Fe9  1  0.749999  0.249999  0.624994  1
  Fe  Fe10  1  0.250003  0.750000  0.873708  1
  Tc  Tc11  1  0.750000  0.249999  0.124995  1
  Os  Os12  1  0.249999  0.249999  0.124990  1
  Os  Os13  1  0.749999  0.750000  0.377535  1
  Os  Os14  1  0.250002  0.249999  0.624995  1
  Os  Os15  1  0.750004  0.750000  0.872455  1
