# generated using pymatgen
data_Pa2NCl2O
_symmetry_space_group_name_H-M   'P 1'
_cell_length_a   10.36564801
_cell_length_b   10.36564798
_cell_length_c   10.36564660
_cell_angle_alpha   21.72356960
_cell_angle_beta   21.72356822
_cell_angle_gamma   21.72357487
_symmetry_Int_Tables_number   1
_chemical_formula_structural   Pa2NCl2O
_chemical_formula_sum   'Pa2 N1 Cl2 O1'
_cell_volume   133.71981566
_cell_formula_units_Z   1
loop_
 _symmetry_equiv_pos_site_id
 _symmetry_equiv_pos_as_xyz
  1  'x, y, z'
loop_
 _atom_site_type_symbol
 _atom_site_label
 _atom_site_symmetry_multiplicity
 _atom_site_fract_x
 _atom_site_fract_y
 _atom_site_fract_z
 _atom_site_occupancy
  Pa  Pa0  1  0.786459  0.786459  0.786459  1
  Pa  Pa1  1  0.211504  0.211504  0.211504  1
  N  N2  1  0.138041  0.138041  0.138041  1
  Cl  Cl3  1  0.391748  0.391748  0.391748  1
  Cl  Cl4  1  0.607221  0.607221  0.607221  1
  O  O5  1  0.865027  0.865027  0.865027  1
