# generated using pymatgen
data_Tb6ScP12Rh17
_symmetry_space_group_name_H-M   'P 1'
_cell_length_a   3.94133000
_cell_length_b   11.22820500
_cell_length_c   12.85163300
_cell_angle_alpha   90.00000000
_cell_angle_beta   90.00000000
_cell_angle_gamma   90.00000000
_symmetry_Int_Tables_number   1
_chemical_formula_structural   Tb6ScP12Rh17
_chemical_formula_sum   'Tb6 Sc1 P12 Rh17'
_cell_volume   568.73695346
_cell_formula_units_Z   1
loop_
 _symmetry_equiv_pos_site_id
 _symmetry_equiv_pos_as_xyz
  1  'x, y, z'
loop_
 _atom_site_type_symbol
 _atom_site_label
 _atom_site_symmetry_multiplicity
 _atom_site_fract_x
 _atom_site_fract_y
 _atom_site_fract_z
 _atom_site_occupancy
  Tb  Tb0  1  0.000000  0.500000  0.521957  1
  Tb  Tb1  1  0.500000  0.000000  0.477742  1
  Tb  Tb2  1  0.500000  0.817436  0.206278  1
  Tb  Tb3  1  0.500000  0.182564  0.206278  1
  Tb  Tb4  1  0.000000  0.682293  0.796702  1
  Tb  Tb5  1  0.000000  0.317707  0.796702  1
  Sc  Sc6  1  0.500000  0.500000  0.155824  1
  P  P7  1  0.500000  0.500000  0.879285  1
  P  P8  1  0.000000  0.000000  0.120004  1
  P  P9  1  0.500000  0.500000  0.358620  1
  P  P10  1  0.000000  0.000000  0.647984  1
  P  P11  1  0.500000  0.314832  0.619401  1
  P  P12  1  0.500000  0.685168  0.619401  1
  P  P13  1  0.000000  0.186219  0.383767  1
  P  P14  1  0.000000  0.813781  0.383767  1
  P  P15  1  0.500000  0.849171  0.888921  1
  P  P16  1  0.500000  0.150829  0.888921  1
  P  P17  1  0.000000  0.660567  0.107010  1
  P  P18  1  0.000000  0.339433  0.107010  1
  Rh  Rh19  1  0.000000  0.000000  0.828897  1
  Rh  Rh20  1  0.500000  0.500000  0.701945  1
  Rh  Rh21  1  0.000000  0.000000  0.298145  1
  Rh  Rh22  1  0.000000  0.500000  0.984961  1
  Rh  Rh23  1  0.500000  0.000000  0.019554  1
  Rh  Rh24  1  0.500000  0.329653  0.989672  1
  Rh  Rh25  1  0.500000  0.670347  0.989672  1
  Rh  Rh26  1  0.000000  0.164115  0.004726  1
  Rh  Rh27  1  0.000000  0.835885  0.004726  1
  Rh  Rh28  1  0.500000  0.290838  0.434540  1
  Rh  Rh29  1  0.500000  0.709162  0.434540  1
  Rh  Rh30  1  0.000000  0.203009  0.571027  1
  Rh  Rh31  1  0.000000  0.796991  0.571027  1
  Rh  Rh32  1  0.500000  0.874759  0.709190  1
  Rh  Rh33  1  0.500000  0.125241  0.709190  1
  Rh  Rh34  1  0.000000  0.627143  0.291309  1
  Rh  Rh35  1  0.000000  0.372857  0.291309  1
