# generated using pymatgen
data_Rb2Cd(SeO3)2
_symmetry_space_group_name_H-M   'P 1'
_cell_length_a   7.51879011
_cell_length_b   7.51879069
_cell_length_c   7.51879040
_cell_angle_alpha   45.86864546
_cell_angle_beta   45.86863910
_cell_angle_gamma   45.86864553
_symmetry_Int_Tables_number   1
_chemical_formula_structural   Rb2Cd(SeO3)2
_chemical_formula_sum   'Rb2 Cd1 Se2 O6'
_cell_volume   199.67176258
_cell_formula_units_Z   1
loop_
 _symmetry_equiv_pos_site_id
 _symmetry_equiv_pos_as_xyz
  1  'x, y, z'
loop_
 _atom_site_type_symbol
 _atom_site_label
 _atom_site_symmetry_multiplicity
 _atom_site_fract_x
 _atom_site_fract_y
 _atom_site_fract_z
 _atom_site_occupancy
  Rb  Rb0  1  0.198115  0.198115  0.198115  1
  Rb  Rb1  1  0.801885  0.801885  0.801885  1
  Cd  Cd2  1  0.000000  0.000000  0.000000  1
  Se  Se3  1  0.373261  0.373261  0.373261  1
  Se  Se4  1  0.626739  0.626739  0.626739  1
  O  O5  1  0.254964  0.718593  0.254964  1
  O  O6  1  0.718593  0.254964  0.254964  1
  O  O7  1  0.745036  0.745036  0.281407  1
  O  O8  1  0.254964  0.254964  0.718593  1
  O  O9  1  0.745036  0.281407  0.745036  1
  O  O10  1  0.281407  0.745036  0.745036  1
