# generated using pymatgen
data_Ho3Er3ReBi2
_symmetry_space_group_name_H-M   'P 1'
_cell_length_a   8.23164000
_cell_length_b   8.23164056
_cell_length_c   4.33610400
_cell_angle_alpha   90.00000000
_cell_angle_beta   90.00000000
_cell_angle_gamma   119.99999775
_symmetry_Int_Tables_number   1
_chemical_formula_structural   Ho3Er3ReBi2
_chemical_formula_sum   'Ho3 Er3 Re1 Bi2'
_cell_volume   254.45037708
_cell_formula_units_Z   1
loop_
 _symmetry_equiv_pos_site_id
 _symmetry_equiv_pos_as_xyz
  1  'x, y, z'
loop_
 _atom_site_type_symbol
 _atom_site_label
 _atom_site_symmetry_multiplicity
 _atom_site_fract_x
 _atom_site_fract_y
 _atom_site_fract_z
 _atom_site_occupancy
  Ho  Ho0  1  0.000000  0.612411  0.500000  1
  Ho  Ho1  1  0.387589  0.387589  0.500000  1
  Ho  Ho2  1  0.612411  0.000000  0.500000  1
  Er  Er3  1  0.231510  0.000000  0.000000  1
  Er  Er4  1  0.768490  0.768490  0.000000  1
  Er  Er5  1  0.000000  0.231510  0.000000  1
  Re  Re6  1  0.000000  0.000000  0.500000  1
  Bi  Bi7  1  0.333333  0.666667  0.000000  1
  Bi  Bi8  1  0.666667  0.333333  0.000000  1
