# generated using pymatgen
data_Nd2Co9P6Ru
_symmetry_space_group_name_H-M   'P 1'
_cell_length_a   3.71668500
_cell_length_b   10.46645100
_cell_length_c   11.87103800
_cell_angle_alpha   90.00000000
_cell_angle_beta   90.00000000
_cell_angle_gamma   90.00000000
_symmetry_Int_Tables_number   1
_chemical_formula_structural   Nd2Co9P6Ru
_chemical_formula_sum   'Nd4 Co18 P12 Ru2'
_cell_volume   461.78933075
_cell_formula_units_Z   2
loop_
 _symmetry_equiv_pos_site_id
 _symmetry_equiv_pos_as_xyz
  1  'x, y, z'
loop_
 _atom_site_type_symbol
 _atom_site_label
 _atom_site_symmetry_multiplicity
 _atom_site_fract_x
 _atom_site_fract_y
 _atom_site_fract_z
 _atom_site_occupancy
  Nd  Nd0  1  0.250000  0.582811  0.701574  1
  Nd  Nd1  1  0.250000  0.917189  0.201574  1
  Nd  Nd2  1  0.750000  0.413704  0.296487  1
  Nd  Nd3  1  0.750000  0.086296  0.796487  1
  Co  Co4  1  0.750000  0.286656  0.009645  1
  Co  Co5  1  0.750000  0.213344  0.509645  1
  Co  Co6  1  0.250000  0.405486  0.489802  1
  Co  Co7  1  0.250000  0.094514  0.989802  1
  Co  Co8  1  0.750000  0.593153  0.507803  1
  Co  Co9  1  0.750000  0.906847  0.007803  1
  Co  Co10  1  0.250000  0.220430  0.175629  1
  Co  Co11  1  0.250000  0.279570  0.675629  1
  Co  Co12  1  0.750000  0.778383  0.823975  1
  Co  Co13  1  0.750000  0.721617  0.323975  1
  Co  Co14  1  0.250000  0.885976  0.700697  1
  Co  Co15  1  0.250000  0.614024  0.200697  1
  Co  Co16  1  0.750000  0.116735  0.302370  1
  Co  Co17  1  0.750000  0.383265  0.802370  1
  Co  Co18  1  0.250000  0.465402  0.933221  1
  Co  Co19  1  0.250000  0.034598  0.433221  1
  Co  Co20  1  0.750000  0.531779  0.067923  1
  Co  Co21  1  0.750000  0.968221  0.567923  1
  P  P22  1  0.250000  0.416816  0.109936  1
  P  P23  1  0.250000  0.083184  0.609936  1
  P  P24  1  0.750000  0.578859  0.889123  1
  P  P25  1  0.750000  0.921141  0.389123  1
  P  P26  1  0.250000  0.274939  0.868959  1
  P  P27  1  0.250000  0.225061  0.368959  1
  P  P28  1  0.750000  0.723656  0.132946  1
  P  P29  1  0.750000  0.776344  0.632946  1
  P  P30  1  0.250000  0.598614  0.392080  1
  P  P31  1  0.250000  0.901386  0.892080  1
  P  P32  1  0.750000  0.393469  0.606947  1
  P  P33  1  0.750000  0.106531  0.106947  1
  Ru  Ru34  1  0.250000  0.712627  0.990881  1
  Ru  Ru35  1  0.250000  0.787373  0.490881  1
