# generated using pymatgen
data_Nd5TmCoBr10
_symmetry_space_group_name_H-M   'P 1'
_cell_length_a   7.53006833
_cell_length_b   9.36116063
_cell_length_c   9.54323886
_cell_angle_alpha   108.58462147
_cell_angle_beta   96.51849454
_cell_angle_gamma   105.30328968
_symmetry_Int_Tables_number   1
_chemical_formula_structural   Nd5TmCoBr10
_chemical_formula_sum   'Nd5 Tm1 Co1 Br10'
_cell_volume   600.47435154
_cell_formula_units_Z   1
loop_
 _symmetry_equiv_pos_site_id
 _symmetry_equiv_pos_as_xyz
  1  'x, y, z'
loop_
 _atom_site_type_symbol
 _atom_site_label
 _atom_site_symmetry_multiplicity
 _atom_site_fract_x
 _atom_site_fract_y
 _atom_site_fract_z
 _atom_site_occupancy
  Nd  Nd0  1  0.465580  0.786166  0.587623  1
  Nd  Nd1  1  0.528357  0.211513  0.407904  1
  Nd  Nd2  1  0.368580  0.449964  0.744713  1
  Nd  Nd3  1  0.622748  0.544623  0.251727  1
  Nd  Nd4  1  0.862642  0.636908  0.680335  1
  Tm  Tm5  1  0.150953  0.370441  0.328096  1
  Co  Co6  1  0.499254  0.499307  0.500336  1
  Br  Br7  1  0.413076  0.129296  0.670592  1
  Br  Br8  1  0.585567  0.868899  0.326612  1
  Br  Br9  1  0.048656  0.668323  0.411915  1
  Br  Br10  1  0.953754  0.319640  0.572793  1
  Br  Br11  1  0.290299  0.758754  0.850215  1
  Br  Br12  1  0.735344  0.248866  0.161739  1
  Br  Br13  1  0.237323  0.410241  0.054385  1
  Br  Br14  1  0.748397  0.582416  0.953031  1
  Br  Br15  1  0.849655  0.956675  0.769882  1
  Br  Br16  1  0.139817  0.057965  0.228102  1
