# generated using pymatgen
data_Ac3CoI3
_symmetry_space_group_name_H-M   'P 1'
_cell_length_a   4.46900800
_cell_length_b   9.97822637
_cell_length_c   12.74477837
_cell_angle_alpha   86.43027273
_cell_angle_beta   90.00000000
_cell_angle_gamma   90.00000000
_symmetry_Int_Tables_number   1
_chemical_formula_structural   Ac3CoI3
_chemical_formula_sum   'Ac6 Co2 I6'
_cell_volume   567.22233083
_cell_formula_units_Z   2
loop_
 _symmetry_equiv_pos_site_id
 _symmetry_equiv_pos_as_xyz
  1  'x, y, z'
loop_
 _atom_site_type_symbol
 _atom_site_label
 _atom_site_symmetry_multiplicity
 _atom_site_fract_x
 _atom_site_fract_y
 _atom_site_fract_z
 _atom_site_occupancy
  Ac  Ac0  1  0.250000  0.310620  0.880647  1
  Ac  Ac1  1  0.750000  0.689380  0.119353  1
  Ac  Ac2  1  0.750000  0.115011  0.667944  1
  Ac  Ac3  1  0.250000  0.884989  0.332056  1
  Ac  Ac4  1  0.750000  0.089312  0.101627  1
  Ac  Ac5  1  0.250000  0.910688  0.898373  1
  Co  Co6  1  0.750000  0.114171  0.879620  1
  Co  Co7  1  0.250000  0.885829  0.120380  1
  I  I8  1  0.750000  0.136569  0.382529  1
  I  I9  1  0.250000  0.863431  0.617471  1
  I  I10  1  0.250000  0.367959  0.615865  1
  I  I11  1  0.750000  0.632041  0.384135  1
  I  I12  1  0.750000  0.608584  0.861947  1
  I  I13  1  0.250000  0.391416  0.138053  1
