# generated using pymatgen
data_Pr6Nd6Os3Rh
_symmetry_space_group_name_H-M   'P 1'
_cell_length_a   6.56596460
_cell_length_b   7.51042582
_cell_length_c   9.76548477
_cell_angle_alpha   90.00877649
_cell_angle_beta   90.12423760
_cell_angle_gamma   90.07726576
_symmetry_Int_Tables_number   1
_chemical_formula_structural   Pr6Nd6Os3Rh
_chemical_formula_sum   'Pr6 Nd6 Os3 Rh1'
_cell_volume   481.56563084
_cell_formula_units_Z   1
loop_
 _symmetry_equiv_pos_site_id
 _symmetry_equiv_pos_as_xyz
  1  'x, y, z'
loop_
 _atom_site_type_symbol
 _atom_site_label
 _atom_site_symmetry_multiplicity
 _atom_site_fract_x
 _atom_site_fract_y
 _atom_site_fract_z
 _atom_site_occupancy
  Pr  Pr0  1  0.332810  0.674495  0.065179  1
  Pr  Pr1  1  0.170160  0.178593  0.434788  1
  Pr  Pr2  1  0.857558  0.537529  0.250142  1
  Pr  Pr3  1  0.640615  0.041928  0.249858  1
  Pr  Pr4  1  0.140763  0.462898  0.749968  1
  Pr  Pr5  1  0.356927  0.961522  0.749944  1
  Nd  Nd6  1  0.671286  0.323045  0.567770  1
  Nd  Nd7  1  0.826857  0.823903  0.929869  1
  Nd  Nd8  1  0.671493  0.322652  0.932291  1
  Nd  Nd9  1  0.826689  0.823586  0.570031  1
  Nd  Nd10  1  0.333286  0.673838  0.434648  1
  Nd  Nd11  1  0.170196  0.178211  0.065439  1
  Os  Os12  1  0.444922  0.384162  0.250109  1
  Os  Os13  1  0.946768  0.114419  0.750802  1
  Os  Os14  1  0.554574  0.615181  0.749301  1
  Rh  Rh15  1  0.055097  0.884040  0.249862  1
