# generated using pymatgen
data_Li4Y3ErPt4
_symmetry_space_group_name_H-M   'P 1'
_cell_length_a   4.01054800
_cell_length_b   7.01927080
_cell_length_c   8.48390291
_cell_angle_alpha   90.16132888
_cell_angle_beta   90.00000000
_cell_angle_gamma   90.00000000
_symmetry_Int_Tables_number   1
_chemical_formula_structural   Li4Y3ErPt4
_chemical_formula_sum   'Li4 Y3 Er1 Pt4'
_cell_volume   238.83044300
_cell_formula_units_Z   1
loop_
 _symmetry_equiv_pos_site_id
 _symmetry_equiv_pos_as_xyz
  1  'x, y, z'
loop_
 _atom_site_type_symbol
 _atom_site_label
 _atom_site_symmetry_multiplicity
 _atom_site_fract_x
 _atom_site_fract_y
 _atom_site_fract_z
 _atom_site_occupancy
  Li  Li0  1  0.250000  0.625146  0.557900  1
  Li  Li1  1  0.250000  0.125011  0.942321  1
  Li  Li2  1  0.750000  0.376003  0.443403  1
  Li  Li3  1  0.750000  0.873072  0.056711  1
  Y  Y4  1  0.250000  0.049566  0.321066  1
  Y  Y5  1  0.250000  0.548883  0.178334  1
  Y  Y6  1  0.750000  0.952229  0.680054  1
  Er  Er7  1  0.750000  0.450198  0.821616  1
  Pt  Pt8  1  0.250000  0.247678  0.628349  1
  Pt  Pt9  1  0.250000  0.740160  0.873211  1
  Pt  Pt10  1  0.750000  0.756511  0.374035  1
  Pt  Pt11  1  0.750000  0.255542  0.123002  1
