# generated using pymatgen
data_TbGaCo2P
_symmetry_space_group_name_H-M   'P 1'
_cell_length_a   5.71301396
_cell_length_b   5.71301516
_cell_length_c   5.71301400
_cell_angle_alpha   140.41533972
_cell_angle_beta   140.41533816
_cell_angle_gamma   57.22319787
_symmetry_Int_Tables_number   1
_chemical_formula_structural   TbGaCo2P
_chemical_formula_sum   'Tb1 Ga1 Co2 P1'
_cell_volume   75.07558264
_cell_formula_units_Z   1
loop_
 _symmetry_equiv_pos_site_id
 _symmetry_equiv_pos_as_xyz
  1  'x, y, z'
loop_
 _atom_site_type_symbol
 _atom_site_label
 _atom_site_symmetry_multiplicity
 _atom_site_fract_x
 _atom_site_fract_y
 _atom_site_fract_z
 _atom_site_occupancy
  Tb  Tb0  1  0.007510  0.007510  0.000000  1
  Ga  Ga1  1  0.377969  0.377969  0.000000  1
  Co  Co2  1  0.740374  0.240374  0.500000  1
  Co  Co3  1  0.240374  0.740374  0.500000  1
  P  P4  1  0.633771  0.633771  0.000000  1
