# generated using pymatgen
data_Li2LaYb2AlSi3
_symmetry_space_group_name_H-M   'P 1'
_cell_length_a   7.24967740
_cell_length_b   7.16395359
_cell_length_c   4.36718500
_cell_angle_alpha   90.00000000
_cell_angle_beta   90.00000000
_cell_angle_gamma   120.82679394
_symmetry_Int_Tables_number   1
_chemical_formula_structural   Li2LaYb2AlSi3
_chemical_formula_sum   'Li2 La1 Yb2 Al1 Si3'
_cell_volume   194.77122225
_cell_formula_units_Z   1
loop_
 _symmetry_equiv_pos_site_id
 _symmetry_equiv_pos_as_xyz
  1  'x, y, z'
loop_
 _atom_site_type_symbol
 _atom_site_label
 _atom_site_symmetry_multiplicity
 _atom_site_fract_x
 _atom_site_fract_y
 _atom_site_fract_z
 _atom_site_occupancy
  Li  Li0  1  0.241923  0.002335  0.500000  1
  Li  Li1  1  0.995089  0.231640  0.500000  1
  La  La2  1  0.008149  0.574760  0.000000  1
  Yb  Yb3  1  0.420705  0.420358  0.000000  1
  Yb  Yb4  1  0.576409  0.007003  0.000000  1
  Al  Al5  1  0.752598  0.754046  0.500000  1
  Si  Si6  1  0.353499  0.674306  0.500000  1
  Si  Si7  1  0.672231  0.351675  0.500000  1
  Si  Si8  1  0.979399  0.983878  0.000000  1
