# generated using pymatgen
data_Sm2Si7Ni5Ru7
_symmetry_space_group_name_H-M   'P 1'
_cell_length_a   9.47543204
_cell_length_b   9.53084963
_cell_length_c   3.80103800
_cell_angle_alpha   90.00000000
_cell_angle_beta   90.00000000
_cell_angle_gamma   119.88299622
_symmetry_Int_Tables_number   1
_chemical_formula_structural   Sm2Si7Ni5Ru7
_chemical_formula_sum   'Sm2 Si7 Ni5 Ru7'
_cell_volume   297.62836049
_cell_formula_units_Z   1
loop_
 _symmetry_equiv_pos_site_id
 _symmetry_equiv_pos_as_xyz
  1  'x, y, z'
loop_
 _atom_site_type_symbol
 _atom_site_label
 _atom_site_symmetry_multiplicity
 _atom_site_fract_x
 _atom_site_fract_y
 _atom_site_fract_z
 _atom_site_occupancy
  Sm  Sm0  1  0.665639  0.330946  0.000000  1
  Sm  Sm1  1  0.333867  0.668126  0.500000  1
  Si  Si2  1  0.289203  0.894391  0.000000  1
  Si  Si3  1  0.601819  0.712450  0.000000  1
  Si  Si4  1  0.109310  0.394557  0.000000  1
  Si  Si5  1  0.396056  0.288051  0.500000  1
  Si  Si6  1  0.892516  0.604916  0.500000  1
  Si  Si7  1  0.711408  0.106526  0.500000  1
  Si  Si8  1  0.001275  0.001150  0.000000  1
  Ni  Ni9  1  0.570957  0.941688  0.000000  1
  Ni  Ni10  1  0.372705  0.430995  0.000000  1
  Ni  Ni11  1  0.278444  0.128269  0.000000  1
  Ni  Ni12  1  0.848554  0.725587  0.000000  1
  Ni  Ni13  1  0.873165  0.147603  0.000000  1
  Ru  Ru14  1  0.062919  0.628030  0.000000  1
  Ru  Ru15  1  0.436483  0.050727  0.500000  1
  Ru  Ru16  1  0.614123  0.564052  0.500000  1
  Ru  Ru17  1  0.945858  0.378287  0.500000  1
  Ru  Ru18  1  0.093132  0.889126  0.500000  1
  Ru  Ru19  1  0.787789  0.902160  0.500000  1
  Ru  Ru20  1  0.114780  0.212363  0.500000  1
