# generated using pymatgen
data_La2Sc3Ni9As7
_symmetry_space_group_name_H-M   'P 1'
_cell_length_a   3.96629400
_cell_length_b   9.79798396
_cell_length_c   9.79798400
_cell_angle_alpha   120.00000015
_cell_angle_beta   90.00000000
_cell_angle_gamma   90.00000000
_symmetry_Int_Tables_number   1
_chemical_formula_structural   La2Sc3Ni9As7
_chemical_formula_sum   'La2 Sc3 Ni9 As7'
_cell_volume   329.75317360
_cell_formula_units_Z   1
loop_
 _symmetry_equiv_pos_site_id
 _symmetry_equiv_pos_as_xyz
  1  'x, y, z'
loop_
 _atom_site_type_symbol
 _atom_site_label
 _atom_site_symmetry_multiplicity
 _atom_site_fract_x
 _atom_site_fract_y
 _atom_site_fract_z
 _atom_site_occupancy
  La  La0  1  0.000000  0.666667  0.333333  1
  La  La1  1  0.500000  0.333333  0.666667  1
  Sc  Sc2  1  0.500000  0.773798  0.881338  1
  Sc  Sc3  1  0.500000  0.107540  0.226202  1
  Sc  Sc4  1  0.500000  0.118662  0.892460  1
  Ni  Ni5  1  0.000000  0.581594  0.932938  1
  Ni  Ni6  1  0.000000  0.351345  0.418406  1
  Ni  Ni7  1  0.000000  0.067062  0.648655  1
  Ni  Ni8  1  0.000000  0.869132  0.151726  1
  Ni  Ni9  1  0.000000  0.282594  0.130868  1
  Ni  Ni10  1  0.000000  0.848274  0.717406  1
  Ni  Ni11  1  0.500000  0.945118  0.385652  1
  Ni  Ni12  1  0.500000  0.440532  0.054882  1
  Ni  Ni13  1  0.500000  0.614348  0.559468  1
  As  As14  1  0.000000  0.000000  0.000000  1
  As  As15  1  0.500000  0.710297  0.117400  1
  As  As16  1  0.500000  0.407104  0.289703  1
  As  As17  1  0.500000  0.882600  0.592896  1
  As  As18  1  0.000000  0.581148  0.677163  1
  As  As19  1  0.000000  0.096014  0.418852  1
  As  As20  1  0.000000  0.322837  0.903986  1
