# generated using pymatgen
data_Yb4V(TcO4)3
_symmetry_space_group_name_H-M   'P 1'
_cell_length_a   5.32870397
_cell_length_b   5.57745730
_cell_length_c   7.64889300
_cell_angle_alpha   89.78262826
_cell_angle_beta   90.14028529
_cell_angle_gamma   89.93953285
_symmetry_Int_Tables_number   1
_chemical_formula_structural   Yb4V(TcO4)3
_chemical_formula_sum   'Yb4 V1 Tc3 O12'
_cell_volume   227.32738738
_cell_formula_units_Z   1
loop_
 _symmetry_equiv_pos_site_id
 _symmetry_equiv_pos_as_xyz
  1  'x, y, z'
loop_
 _atom_site_type_symbol
 _atom_site_label
 _atom_site_symmetry_multiplicity
 _atom_site_fract_x
 _atom_site_fract_y
 _atom_site_fract_z
 _atom_site_occupancy
  Yb  Yb0  1  0.017084  0.437602  0.254081  1
  Yb  Yb1  1  0.982916  0.562398  0.745919  1
  Yb  Yb2  1  0.517010  0.062466  0.744706  1
  Yb  Yb3  1  0.482990  0.937534  0.255294  1
  V  V4  1  0.500000  0.500000  0.500000  1
  Tc  Tc5  1  0.000000  0.000000  0.000000  1
  Tc  Tc6  1  0.500000  0.500000  0.000000  1
  Tc  Tc7  1  0.000000  0.000000  0.500000  1
  O  O8  1  0.303957  0.201345  0.049823  1
  O  O9  1  0.696043  0.798655  0.950177  1
  O  O10  1  0.803972  0.299559  0.950152  1
  O  O11  1  0.692564  0.798207  0.548571  1
  O  O12  1  0.196028  0.700441  0.049848  1
  O  O13  1  0.307436  0.201793  0.451429  1
  O  O14  1  0.197883  0.697538  0.449457  1
  O  O15  1  0.802117  0.302462  0.550543  1
  O  O16  1  0.593455  0.528910  0.257401  1
  O  O17  1  0.406545  0.471090  0.742599  1
  O  O18  1  0.096755  0.972479  0.750012  1
  O  O19  1  0.903245  0.027521  0.249988  1
