# generated using pymatgen
data_KBa(SrB12)2
_symmetry_space_group_name_H-M   'P 1'
_cell_length_a   7.31478608
_cell_length_b   7.31478616
_cell_length_c   5.98043700
_cell_angle_alpha   90.00000000
_cell_angle_beta   90.00000000
_cell_angle_gamma   109.46477019
_symmetry_Int_Tables_number   1
_chemical_formula_structural   KBa(SrB12)2
_chemical_formula_sum   'K1 Ba1 Sr2 B24'
_cell_volume   301.70131733
_cell_formula_units_Z   1
loop_
 _symmetry_equiv_pos_site_id
 _symmetry_equiv_pos_as_xyz
  1  'x, y, z'
loop_
 _atom_site_type_symbol
 _atom_site_label
 _atom_site_symmetry_multiplicity
 _atom_site_fract_x
 _atom_site_fract_y
 _atom_site_fract_z
 _atom_site_occupancy
  K  K0  1  0.250384  0.749616  0.500000  1
  Ba  Ba1  1  0.001595  0.998405  0.000000  1
  Sr  Sr2  1  0.749394  0.250606  0.500000  1
  Sr  Sr3  1  0.498412  0.501588  0.000000  1
  B  B4  1  0.176331  0.326004  0.647947  1
  B  B5  1  0.924652  0.573015  0.149158  1
  B  B6  1  0.673996  0.823669  0.647947  1
  B  B7  1  0.426985  0.075348  0.149158  1
  B  B8  1  0.176331  0.326004  0.352053  1
  B  B9  1  0.924652  0.573015  0.850842  1
  B  B10  1  0.673996  0.823669  0.352053  1
  B  B11  1  0.426985  0.075348  0.850842  1
  B  B12  1  0.399084  0.400086  0.500000  1
  B  B13  1  0.148513  0.648441  0.000000  1
  B  B14  1  0.898696  0.897806  0.500000  1
  B  B15  1  0.649366  0.149200  0.000000  1
  B  B16  1  0.326119  0.176460  0.647951  1
  B  B17  1  0.074308  0.425888  0.149130  1
  B  B18  1  0.823540  0.673881  0.647951  1
  B  B19  1  0.574112  0.925692  0.149130  1
  B  B20  1  0.102194  0.101304  0.500000  1
  B  B21  1  0.850800  0.350634  0.000000  1
  B  B22  1  0.599914  0.600916  0.500000  1
  B  B23  1  0.351559  0.851487  0.000000  1
  B  B24  1  0.326119  0.176460  0.352049  1
  B  B25  1  0.074308  0.425888  0.850870  1
  B  B26  1  0.823540  0.673881  0.352049  1
  B  B27  1  0.574112  0.925692  0.850870  1
