# generated using pymatgen
data_ErLu9(Sn3P)2
_symmetry_space_group_name_H-M   'P 1'
_cell_length_a   8.87814389
_cell_length_b   8.87814400
_cell_length_c   6.56975700
_cell_angle_alpha   90.00000000
_cell_angle_beta   90.00000000
_cell_angle_gamma   119.94880351
_symmetry_Int_Tables_number   1
_chemical_formula_structural   ErLu9(Sn3P)2
_chemical_formula_sum   'Er1 Lu9 Sn6 P2'
_cell_volume   448.69178617
_cell_formula_units_Z   1
loop_
 _symmetry_equiv_pos_site_id
 _symmetry_equiv_pos_as_xyz
  1  'x, y, z'
loop_
 _atom_site_type_symbol
 _atom_site_label
 _atom_site_symmetry_multiplicity
 _atom_site_fract_x
 _atom_site_fract_y
 _atom_site_fract_z
 _atom_site_occupancy
  Er  Er0  1  0.757120  0.757120  0.750000  1
  Lu  Lu1  1  0.666526  0.333156  0.000058  1
  Lu  Lu2  1  0.333156  0.666526  0.000058  1
  Lu  Lu3  1  0.333156  0.666526  0.499942  1
  Lu  Lu4  1  0.666526  0.333156  0.499942  1
  Lu  Lu5  1  0.241377  0.000058  0.750000  1
  Lu  Lu6  1  0.000058  0.241377  0.750000  1
  Lu  Lu7  1  0.241466  0.241466  0.250000  1
  Lu  Lu8  1  0.758748  0.000137  0.250000  1
  Lu  Lu9  1  0.000137  0.758748  0.250000  1
  Sn  Sn10  1  0.398493  0.398493  0.750000  1
  Sn  Sn11  1  0.600128  0.000793  0.750000  1
  Sn  Sn12  1  0.000793  0.600128  0.750000  1
  Sn  Sn13  1  0.600840  0.600840  0.250000  1
  Sn  Sn14  1  0.399372  0.000272  0.250000  1
  Sn  Sn15  1  0.000272  0.399372  0.250000  1
  P  P16  1  0.000916  0.000916  0.000845  1
  P  P17  1  0.000916  0.000916  0.499155  1
