# generated using pymatgen
data_HfPaAl3Tc
_symmetry_space_group_name_H-M   'P 1'
_cell_length_a   5.28256500
_cell_length_b   5.28256606
_cell_length_c   8.93985200
_cell_angle_alpha   90.00000000
_cell_angle_beta   90.00000000
_cell_angle_gamma   119.99998710
_symmetry_Int_Tables_number   1
_chemical_formula_structural   HfPaAl3Tc
_chemical_formula_sum   'Hf2 Pa2 Al6 Tc2'
_cell_volume   216.04827523
_cell_formula_units_Z   2
loop_
 _symmetry_equiv_pos_site_id
 _symmetry_equiv_pos_as_xyz
  1  'x, y, z'
loop_
 _atom_site_type_symbol
 _atom_site_label
 _atom_site_symmetry_multiplicity
 _atom_site_fract_x
 _atom_site_fract_y
 _atom_site_fract_z
 _atom_site_occupancy
  Hf  Hf0  1  0.666667  0.333333  0.938307  1
  Hf  Hf1  1  0.333333  0.666667  0.061693  1
  Pa  Pa2  1  0.333333  0.666667  0.463068  1
  Pa  Pa3  1  0.666667  0.333333  0.536932  1
  Al  Al4  1  0.833675  0.166325  0.236809  1
  Al  Al5  1  0.833675  0.667351  0.236809  1
  Al  Al6  1  0.332649  0.166325  0.236809  1
  Al  Al7  1  0.166325  0.833675  0.763191  1
  Al  Al8  1  0.166325  0.332649  0.763191  1
  Al  Al9  1  0.667351  0.833675  0.763191  1
  Tc  Tc10  1  0.000000  0.000000  0.500000  1
  Tc  Tc11  1  0.000000  0.000000  0.000000  1
