# generated using pymatgen
data_Ta6Cu6N
_symmetry_space_group_name_H-M   'P 1'
_cell_length_a   7.99929416
_cell_length_b   7.99929457
_cell_length_c   7.99929500
_cell_angle_alpha   60.00000237
_cell_angle_beta   60.00000066
_cell_angle_gamma   60.00000454
_symmetry_Int_Tables_number   1
_chemical_formula_structural   Ta6Cu6N
_chemical_formula_sum   'Ta12 Cu12 N2'
_cell_volume   361.94292982
_cell_formula_units_Z   2
loop_
 _symmetry_equiv_pos_site_id
 _symmetry_equiv_pos_as_xyz
  1  'x, y, z'
loop_
 _atom_site_type_symbol
 _atom_site_label
 _atom_site_symmetry_multiplicity
 _atom_site_fract_x
 _atom_site_fract_y
 _atom_site_fract_z
 _atom_site_occupancy
  Ta  Ta0  1  0.193325  0.806675  0.193325  1
  Ta  Ta1  1  0.443325  0.056675  0.443325  1
  Ta  Ta2  1  0.443325  0.056675  0.056675  1
  Ta  Ta3  1  0.443325  0.443325  0.056675  1
  Ta  Ta4  1  0.193325  0.806675  0.806675  1
  Ta  Ta5  1  0.056675  0.443325  0.056675  1
  Ta  Ta6  1  0.806675  0.806675  0.193325  1
  Ta  Ta7  1  0.056675  0.443325  0.443325  1
  Ta  Ta8  1  0.193325  0.193325  0.806675  1
  Ta  Ta9  1  0.806675  0.193325  0.193325  1
  Ta  Ta10  1  0.806675  0.193325  0.806675  1
  Ta  Ta11  1  0.056675  0.056675  0.443325  1
  Cu  Cu12  1  0.832082  0.503755  0.832082  1
  Cu  Cu13  1  0.417918  0.417918  0.746245  1
  Cu  Cu14  1  0.746245  0.417918  0.417918  1
  Cu  Cu15  1  0.417918  0.417918  0.417918  1
  Cu  Cu16  1  0.832082  0.832082  0.503755  1
  Cu  Cu17  1  0.417918  0.746245  0.417918  1
  Cu  Cu18  1  0.832082  0.832082  0.832082  1
  Cu  Cu19  1  0.503755  0.832082  0.832082  1
  Cu  Cu20  1  0.625000  0.125000  0.625000  1
  Cu  Cu21  1  0.625000  0.625000  0.125000  1
  Cu  Cu22  1  0.125000  0.625000  0.625000  1
  Cu  Cu23  1  0.625000  0.625000  0.625000  1
  N  N24  1  0.000000  0.000000  0.000000  1
  N  N25  1  0.250000  0.250000  0.250000  1
