# generated using pymatgen
data_Hf16TaRe3Ni4
_symmetry_space_group_name_H-M   'P 1'
_cell_length_a   8.69510062
_cell_length_b   8.69510102
_cell_length_c   8.69510123
_cell_angle_alpha   60.02357444
_cell_angle_beta   60.02357167
_cell_angle_gamma   60.02357379
_symmetry_Int_Tables_number   1
_chemical_formula_structural   Hf16TaRe3Ni4
_chemical_formula_sum   'Hf16 Ta1 Re3 Ni4'
_cell_volume   465.09418274
_cell_formula_units_Z   1
loop_
 _symmetry_equiv_pos_site_id
 _symmetry_equiv_pos_as_xyz
  1  'x, y, z'
loop_
 _atom_site_type_symbol
 _atom_site_label
 _atom_site_symmetry_multiplicity
 _atom_site_fract_x
 _atom_site_fract_y
 _atom_site_fract_z
 _atom_site_occupancy
  Hf  Hf0  1  0.691401  0.102462  0.102462  1
  Hf  Hf1  1  0.102462  0.691401  0.102462  1
  Hf  Hf2  1  0.102462  0.102462  0.691401  1
  Hf  Hf3  1  0.102428  0.102428  0.102428  1
  Hf  Hf4  1  0.314761  0.314761  0.690024  1
  Hf  Hf5  1  0.685036  0.685036  0.314764  1
  Hf  Hf6  1  0.314761  0.690024  0.314761  1
  Hf  Hf7  1  0.685036  0.314764  0.685036  1
  Hf  Hf8  1  0.690024  0.314761  0.314761  1
  Hf  Hf9  1  0.314764  0.685036  0.685036  1
  Hf  Hf10  1  0.955320  0.955320  0.544415  1
  Hf  Hf11  1  0.547298  0.547298  0.952239  1
  Hf  Hf12  1  0.955320  0.544415  0.955320  1
  Hf  Hf13  1  0.547298  0.952239  0.547298  1
  Hf  Hf14  1  0.544415  0.955320  0.955320  1
  Hf  Hf15  1  0.952239  0.547298  0.547298  1
  Ta  Ta16  1  0.329730  0.329730  0.329730  1
  Re  Re17  1  0.998406  0.333328  0.333328  1
  Re  Re18  1  0.333328  0.998406  0.333328  1
  Re  Re19  1  0.333328  0.333328  0.998406  1
  Ni  Ni20  1  0.326321  0.891188  0.891188  1
  Ni  Ni21  1  0.891188  0.326321  0.891188  1
  Ni  Ni22  1  0.891188  0.891188  0.326321  1
  Ni  Ni23  1  0.891482  0.891482  0.891482  1
