# generated using pymatgen
data_Hf6Fe6Si11As
_symmetry_space_group_name_H-M   'P 1'
_cell_length_a   9.69622147
_cell_length_b   9.70315331
_cell_length_c   9.70315267
_cell_angle_alpha   149.16100279
_cell_angle_beta   133.18212220
_cell_angle_gamma   57.12352002
_symmetry_Int_Tables_number   1
_chemical_formula_structural   Hf6Fe6Si11As
_chemical_formula_sum   'Hf6 Fe6 Si11 As1'
_cell_volume   338.79234644
_cell_formula_units_Z   1
loop_
 _symmetry_equiv_pos_site_id
 _symmetry_equiv_pos_as_xyz
  1  'x, y, z'
loop_
 _atom_site_type_symbol
 _atom_site_label
 _atom_site_symmetry_multiplicity
 _atom_site_fract_x
 _atom_site_fract_y
 _atom_site_fract_z
 _atom_site_occupancy
  Hf  Hf0  1  0.853024  0.595998  0.257026  1
  Hf  Hf1  1  0.145089  0.404744  0.740344  1
  Hf  Hf2  1  0.665481  0.404562  0.260919  1
  Hf  Hf3  1  0.338538  0.595970  0.742567  1
  Hf  Hf4  1  0.141010  0.141918  0.999092  1
  Hf  Hf5  1  0.858981  0.859542  0.999439  1
  Fe  Fe6  1  0.745942  0.001900  0.744041  1
  Fe  Fe7  1  0.997215  0.000526  0.499084  1
  Fe  Fe8  1  0.502423  0.501881  0.500706  1
  Fe  Fe9  1  0.502423  0.001716  0.000542  1
  Fe  Fe10  1  0.251145  0.996212  0.254933  1
  Fe  Fe11  1  0.997215  0.498132  0.996689  1
  Si  Si12  1  0.511927  0.861212  0.650716  1
  Si  Si13  1  0.207632  0.859006  0.348627  1
  Si  Si14  1  0.793380  0.139579  0.653800  1
  Si  Si15  1  0.706836  0.704113  0.002723  1
  Si  Si16  1  0.295913  0.297186  0.998727  1
  Si  Si17  1  0.497876  0.735648  0.240901  1
  Si  Si18  1  0.497876  0.256976  0.762228  1
  Si  Si19  1  0.000787  0.255908  0.254947  1
  Si  Si20  1  0.214243  0.714443  0.499801  1
  Si  Si21  1  0.000787  0.745840  0.744879  1
  Si  Si22  1  0.790934  0.289078  0.501856  1
  As  As23  1  0.483323  0.137910  0.345412  1
