# generated using pymatgen
data_TbYAl8GaRh3
_symmetry_space_group_name_H-M   'P 1'
_cell_length_a   7.53731559
_cell_length_b   7.53734787
_cell_length_c   9.53085100
_cell_angle_alpha   90.00000000
_cell_angle_beta   90.00000000
_cell_angle_gamma   119.30441564
_symmetry_Int_Tables_number   1
_chemical_formula_structural   TbYAl8GaRh3
_chemical_formula_sum   'Tb2 Y2 Al16 Ga2 Rh6'
_cell_volume   472.17081476
_cell_formula_units_Z   2
loop_
 _symmetry_equiv_pos_site_id
 _symmetry_equiv_pos_as_xyz
  1  'x, y, z'
loop_
 _atom_site_type_symbol
 _atom_site_label
 _atom_site_symmetry_multiplicity
 _atom_site_fract_x
 _atom_site_fract_y
 _atom_site_fract_z
 _atom_site_occupancy
  Tb  Tb0  1  0.994234  0.673449  0.250000  1
  Tb  Tb1  1  0.005766  0.326551  0.750000  1
  Y  Y2  1  0.673316  0.994252  0.250000  1
  Y  Y3  1  0.326684  0.005748  0.750000  1
  Al  Al4  1  0.001675  0.335573  0.073209  1
  Al  Al5  1  0.998325  0.664427  0.926791  1
  Al  Al6  1  0.998325  0.664427  0.573209  1
  Al  Al7  1  0.335787  0.001735  0.426938  1
  Al  Al8  1  0.001675  0.335573  0.426791  1
  Al  Al9  1  0.664213  0.998265  0.573062  1
  Al  Al10  1  0.664213  0.998265  0.926938  1
  Al  Al11  1  0.335787  0.001735  0.073062  1
  Al  Al12  1  0.334407  0.334316  0.551787  1
  Al  Al13  1  0.665593  0.665684  0.448213  1
  Al  Al14  1  0.665593  0.665684  0.051787  1
  Al  Al15  1  0.334407  0.334316  0.948213  1
  Al  Al16  1  0.337685  0.549100  0.250000  1
  Al  Al17  1  0.662315  0.450900  0.750000  1
  Al  Al18  1  0.548984  0.337586  0.250000  1
  Al  Al19  1  0.451016  0.662414  0.750000  1
  Ga  Ga20  1  0.131839  0.131690  0.250000  1
  Ga  Ga21  1  0.868161  0.868310  0.750000  1
  Rh  Rh22  1  0.671651  0.328256  0.000004  1
  Rh  Rh23  1  0.328349  0.671744  0.999996  1
  Rh  Rh24  1  0.328349  0.671744  0.500004  1
  Rh  Rh25  1  0.671651  0.328256  0.499996  1
  Rh  Rh26  1  0.000000  0.000000  0.000000  1
  Rh  Rh27  1  0.000000  0.000000  0.500000  1
