# generated using pymatgen
data_GdAlTeO6
_symmetry_space_group_name_H-M   'P 1'
_cell_length_a   5.09508800
_cell_length_b   5.09493989
_cell_length_c   10.01614600
_cell_angle_alpha   90.00215503
_cell_angle_beta   89.99893483
_cell_angle_gamma   119.99900748
_symmetry_Int_Tables_number   1
_chemical_formula_structural   GdAlTeO6
_chemical_formula_sum   'Gd2 Al2 Te2 O12'
_cell_volume   225.17821664
_cell_formula_units_Z   2
loop_
 _symmetry_equiv_pos_site_id
 _symmetry_equiv_pos_as_xyz
  1  'x, y, z'
loop_
 _atom_site_type_symbol
 _atom_site_label
 _atom_site_symmetry_multiplicity
 _atom_site_fract_x
 _atom_site_fract_y
 _atom_site_fract_z
 _atom_site_occupancy
  Gd  Gd0  1  0.000000  0.000000  0.000000  1
  Gd  Gd1  1  0.000000  0.000000  0.500000  1
  Al  Al2  1  0.333253  0.666627  0.250000  1
  Al  Al3  1  0.666747  0.333373  0.750000  1
  Te  Te4  1  0.333423  0.666712  0.750000  1
  Te  Te5  1  0.666577  0.333288  0.250000  1
  O  O6  1  0.366745  0.369760  0.142712  1
  O  O7  1  0.630109  0.996971  0.142703  1
  O  O8  1  0.002892  0.633124  0.142703  1
  O  O9  1  0.633255  0.630240  0.857288  1
  O  O10  1  0.369891  0.003029  0.857297  1
  O  O11  1  0.997108  0.366876  0.857297  1
  O  O12  1  0.630109  0.633138  0.357297  1
  O  O13  1  0.366745  0.996985  0.357288  1
  O  O14  1  0.002892  0.369768  0.357297  1
  O  O15  1  0.369891  0.366862  0.642703  1
  O  O16  1  0.633255  0.003015  0.642712  1
  O  O17  1  0.997108  0.630232  0.642703  1
