# generated using pymatgen
data_La7Ho(WC2)4
_symmetry_space_group_name_H-M   'P 1'
_cell_length_a   5.82685324
_cell_length_b   5.82685251
_cell_length_c   10.61929491
_cell_angle_alpha   89.15592898
_cell_angle_beta   90.84406900
_cell_angle_gamma   90.10336429
_symmetry_Int_Tables_number   1
_chemical_formula_structural   La7Ho(WC2)4
_chemical_formula_sum   'La7 Ho1 W4 C8'
_cell_volume   360.46988064
_cell_formula_units_Z   1
loop_
 _symmetry_equiv_pos_site_id
 _symmetry_equiv_pos_as_xyz
  1  'x, y, z'
loop_
 _atom_site_type_symbol
 _atom_site_label
 _atom_site_symmetry_multiplicity
 _atom_site_fract_x
 _atom_site_fract_y
 _atom_site_fract_z
 _atom_site_occupancy
  La  La0  1  0.188058  0.197405  0.341543  1
  La  La1  1  0.804213  0.808780  0.656005  1
  La  La2  1  0.308045  0.691955  0.842585  1
  La  La3  1  0.802595  0.811942  0.341543  1
  La  La4  1  0.191220  0.195787  0.656005  1
  La  La5  1  0.701402  0.298598  0.160781  1
  La  La6  1  0.692638  0.307362  0.847048  1
  Ho  Ho7  1  0.304934  0.695066  0.151724  1
  W  W8  1  0.183230  0.171928  0.003356  1
  W  W9  1  0.828072  0.816770  0.003356  1
  W  W10  1  0.318383  0.681617  0.495457  1
  W  W11  1  0.671129  0.328871  0.496633  1
  C  C12  1  0.012482  0.987518  0.141010  1
  C  C13  1  0.489504  0.510496  0.352593  1
  C  C14  1  0.497753  0.502247  0.636670  1
  C  C15  1  0.503097  0.987781  0.007102  1
  C  C16  1  0.012219  0.496903  0.007102  1
  C  C17  1  0.000615  0.999385  0.863283  1
  C  C18  1  0.495391  0.004982  0.498103  1
  C  C19  1  0.995018  0.504609  0.498103  1
