# generated using pymatgen
data_Ce4InPdRh3Au
_symmetry_space_group_name_H-M   'P 1'
_cell_length_a   7.69067559
_cell_length_b   7.66505275
_cell_length_c   3.73076800
_cell_angle_alpha   90.00000000
_cell_angle_beta   90.00000000
_cell_angle_gamma   90.50875624
_symmetry_Int_Tables_number   1
_chemical_formula_structural   Ce4InPdRh3Au
_chemical_formula_sum   'Ce4 In1 Pd1 Rh3 Au1'
_cell_volume   219.91799227
_cell_formula_units_Z   1
loop_
 _symmetry_equiv_pos_site_id
 _symmetry_equiv_pos_as_xyz
  1  'x, y, z'
loop_
 _atom_site_type_symbol
 _atom_site_label
 _atom_site_symmetry_multiplicity
 _atom_site_fract_x
 _atom_site_fract_y
 _atom_site_fract_z
 _atom_site_occupancy
  Ce  Ce0  1  0.310062  0.834905  0.500000  1
  Ce  Ce1  1  0.842168  0.671664  0.500000  1
  Ce  Ce2  1  0.169931  0.316204  0.500000  1
  Ce  Ce3  1  0.680518  0.174571  0.500000  1
  In  In4  1  0.500076  0.500633  0.000000  1
  Pd  Pd5  1  0.625831  0.866005  0.000000  1
  Rh  Rh6  1  0.371170  0.137137  0.000000  1
  Rh  Rh7  1  0.861547  0.370232  0.000000  1
  Rh  Rh8  1  0.141157  0.629378  0.000000  1
  Au  Au9  1  0.997540  0.999271  0.000000  1
