# generated using pymatgen
data_Cs6Li4VGaAs6
_symmetry_space_group_name_H-M   'P 1'
_cell_length_a   10.25202471
_cell_length_b   10.25202339
_cell_length_c   17.42237300
_cell_angle_alpha   90.00000000
_cell_angle_beta   90.00000000
_cell_angle_gamma   142.75362773
_symmetry_Int_Tables_number   1
_chemical_formula_structural   Cs6Li4VGaAs6
_chemical_formula_sum   'Cs12 Li8 V2 Ga2 As12'
_cell_volume   1108.29847792
_cell_formula_units_Z   2
loop_
 _symmetry_equiv_pos_site_id
 _symmetry_equiv_pos_as_xyz
  1  'x, y, z'
loop_
 _atom_site_type_symbol
 _atom_site_label
 _atom_site_symmetry_multiplicity
 _atom_site_fract_x
 _atom_site_fract_y
 _atom_site_fract_z
 _atom_site_occupancy
  Cs  Cs0  1  0.098026  0.434796  0.663647  1
  Cs  Cs1  1  0.718945  0.725341  0.675231  1
  Cs  Cs2  1  0.225341  0.218945  0.824769  1
  Cs  Cs3  1  0.781055  0.774659  0.175231  1
  Cs  Cs4  1  0.934796  0.598026  0.836353  1
  Cs  Cs5  1  0.565204  0.901974  0.336353  1
  Cs  Cs6  1  0.401974  0.065204  0.163647  1
  Cs  Cs7  1  0.050378  0.394888  0.166125  1
  Cs  Cs8  1  0.894888  0.550378  0.333875  1
  Cs  Cs9  1  0.449622  0.105112  0.666125  1
  Cs  Cs10  1  0.605112  0.949623  0.833875  1
  Cs  Cs11  1  0.274659  0.281055  0.324769  1
  Li  Li12  1  0.921587  0.078413  0.000000  1
  Li  Li13  1  0.578413  0.421587  0.500000  1
  Li  Li14  1  0.085486  0.914514  0.000000  1
  Li  Li15  1  0.414514  0.585486  0.500000  1
  Li  Li16  1  0.747256  0.252744  0.000000  1
  Li  Li17  1  0.752744  0.247256  0.500000  1
  Li  Li18  1  0.248252  0.751748  0.000000  1
  Li  Li19  1  0.251748  0.748252  0.500000  1
  V  V20  1  0.081733  0.918267  0.500000  1
  V  V21  1  0.418267  0.581733  0.000000  1
  Ga  Ga22  1  0.913866  0.086134  0.500000  1
  Ga  Ga23  1  0.586134  0.413866  0.000000  1
  As  As24  1  0.893395  0.571633  0.081640  1
  As  As25  1  0.428367  0.106605  0.918360  1
  As  As26  1  0.606605  0.928367  0.581640  1
  As  As27  1  0.938345  0.628772  0.573767  1
  As  As28  1  0.128772  0.438345  0.926233  1
  As  As29  1  0.561655  0.871228  0.073767  1
  As  As30  1  0.371228  0.061655  0.426233  1
  As  As31  1  0.216126  0.205693  0.577573  1
  As  As32  1  0.705693  0.716126  0.922427  1
  As  As33  1  0.283874  0.294307  0.077573  1
  As  As34  1  0.071633  0.393395  0.418360  1
  As  As35  1  0.794307  0.783874  0.422427  1
