# generated using pymatgen
data_Dy8Cd2IrPt
_symmetry_space_group_name_H-M   'P 1'
_cell_length_a   9.66163924
_cell_length_b   9.66163918
_cell_length_c   9.64427500
_cell_angle_alpha   60.05943749
_cell_angle_beta   60.05943772
_cell_angle_gamma   60.16853282
_symmetry_Int_Tables_number   1
_chemical_formula_structural   Dy8Cd2IrPt
_chemical_formula_sum   'Dy16 Cd4 Ir2 Pt2'
_cell_volume   637.96507463
_cell_formula_units_Z   2
loop_
 _symmetry_equiv_pos_site_id
 _symmetry_equiv_pos_as_xyz
  1  'x, y, z'
loop_
 _atom_site_type_symbol
 _atom_site_label
 _atom_site_symmetry_multiplicity
 _atom_site_fract_x
 _atom_site_fract_y
 _atom_site_fract_z
 _atom_site_occupancy
  Dy  Dy0  1  0.600894  0.600894  0.596223  1
  Dy  Dy1  1  0.600894  0.600894  0.201989  1
  Dy  Dy2  1  0.605777  0.194743  0.599740  1
  Dy  Dy3  1  0.194743  0.605777  0.599740  1
  Dy  Dy4  1  0.056615  0.439897  0.440786  1
  Dy  Dy5  1  0.439897  0.056615  0.062703  1
  Dy  Dy6  1  0.439897  0.056615  0.440786  1
  Dy  Dy7  1  0.056615  0.439897  0.062703  1
  Dy  Dy8  1  0.441341  0.441341  0.058659  1
  Dy  Dy9  1  0.061103  0.061103  0.438897  1
  Dy  Dy10  1  0.187475  0.814539  0.811968  1
  Dy  Dy11  1  0.814539  0.187475  0.186018  1
  Dy  Dy12  1  0.814539  0.187475  0.811968  1
  Dy  Dy13  1  0.187475  0.814539  0.186018  1
  Dy  Dy14  1  0.813544  0.813544  0.186456  1
  Dy  Dy15  1  0.186831  0.186831  0.813169  1
  Cd  Cd16  1  0.831254  0.831254  0.831703  1
  Cd  Cd17  1  0.831254  0.831254  0.505789  1
  Cd  Cd18  1  0.830966  0.505372  0.831831  1
  Cd  Cd19  1  0.505372  0.830966  0.831831  1
  Ir  Ir20  1  0.391291  0.823306  0.392702  1
  Ir  Ir21  1  0.823306  0.391291  0.392702  1
  Pt  Pt22  1  0.392189  0.392189  0.394432  1
  Pt  Pt23  1  0.392189  0.392189  0.821189  1
