# generated using pymatgen
data_U2Ag2OF11
_symmetry_space_group_name_H-M   'P 1'
_cell_length_a   5.31941175
_cell_length_b   5.31941175
_cell_length_c   9.54687104
_cell_angle_alpha   89.27137698
_cell_angle_beta   89.27137698
_cell_angle_gamma   91.21097735
_symmetry_Int_Tables_number   1
_chemical_formula_structural   U2Ag2OF11
_chemical_formula_sum   'U2 Ag2 O1 F11'
_cell_volume   270.03465627
_cell_formula_units_Z   1
loop_
 _symmetry_equiv_pos_site_id
 _symmetry_equiv_pos_as_xyz
  1  'x, y, z'
loop_
 _atom_site_type_symbol
 _atom_site_label
 _atom_site_symmetry_multiplicity
 _atom_site_fract_x
 _atom_site_fract_y
 _atom_site_fract_z
 _atom_site_occupancy
  U  U0  1  0.998938  0.998938  0.000545  1
  U  U1  1  0.009867  0.009867  0.492195  1
  Ag  Ag2  1  0.482216  0.482216  0.265526  1
  Ag  Ag3  1  0.498025  0.498025  0.753531  1
  O  O4  1  0.194506  0.194506  0.358008  1
  F  F5  1  0.278905  0.278905  0.995376  1
  F  F6  1  0.719461  0.719461  0.000289  1
  F  F7  1  0.728106  0.281119  0.499325  1
  F  F8  1  0.281119  0.728106  0.499325  1
  F  F9  1  0.807484  0.807484  0.642772  1
  F  F10  1  0.797400  0.797400  0.347081  1
  F  F11  1  0.798912  0.199933  0.848980  1
  F  F12  1  0.796616  0.202667  0.148902  1
  F  F13  1  0.205845  0.205845  0.650262  1
  F  F14  1  0.202667  0.796616  0.148902  1
  F  F15  1  0.199933  0.798912  0.848980  1
