# generated using pymatgen
data_HgPb2SeO6
_symmetry_space_group_name_H-M   'P 1'
_cell_length_a   6.58581119
_cell_length_b   7.44914951
_cell_length_c   8.23130729
_cell_angle_alpha   91.72073638
_cell_angle_beta   92.91773147
_cell_angle_gamma   110.50113809
_symmetry_Int_Tables_number   1
_chemical_formula_structural   HgPb2SeO6
_chemical_formula_sum   'Hg2 Pb4 Se2 O12'
_cell_volume   377.25654592
_cell_formula_units_Z   2
loop_
 _symmetry_equiv_pos_site_id
 _symmetry_equiv_pos_as_xyz
  1  'x, y, z'
loop_
 _atom_site_type_symbol
 _atom_site_label
 _atom_site_symmetry_multiplicity
 _atom_site_fract_x
 _atom_site_fract_y
 _atom_site_fract_z
 _atom_site_occupancy
  Hg  Hg0  1  0.316957  0.302193  0.363451  1
  Hg  Hg1  1  0.683043  0.697807  0.636549  1
  Pb  Pb2  1  0.822462  0.267039  0.599119  1
  Pb  Pb3  1  0.223676  0.745197  0.853228  1
  Pb  Pb4  1  0.776324  0.254803  0.146772  1
  Pb  Pb5  1  0.177538  0.732961  0.400881  1
  Se  Se6  1  0.303565  0.233363  0.851275  1
  Se  Se7  1  0.696435  0.766637  0.148725  1
  O  O8  1  0.056086  0.390559  0.372277  1
  O  O9  1  0.943914  0.609441  0.627723  1
  O  O10  1  0.413768  0.769086  0.627702  1
  O  O11  1  0.653976  0.850352  0.967775  1
  O  O12  1  0.455137  0.647979  0.222954  1
  O  O13  1  0.159493  0.044881  0.724469  1
  O  O14  1  0.160750  0.380817  0.869216  1
  O  O15  1  0.346024  0.149648  0.032225  1
  O  O16  1  0.586232  0.230914  0.372298  1
  O  O17  1  0.840507  0.955119  0.275531  1
  O  O18  1  0.839250  0.619183  0.130784  1
  O  O19  1  0.544863  0.352021  0.777046  1
