# generated using pymatgen
data_NaGdAs4F24
_symmetry_space_group_name_H-M   'P 1'
_cell_length_a   9.63512833
_cell_length_b   9.63512757
_cell_length_c   9.63512800
_cell_angle_alpha   131.63550978
_cell_angle_beta   131.63550578
_cell_angle_gamma   70.80532206
_symmetry_Int_Tables_number   1
_chemical_formula_structural   NaGdAs4F24
_chemical_formula_sum   'Na1 Gd1 As4 F24'
_cell_volume   489.38352332
_cell_formula_units_Z   1
loop_
 _symmetry_equiv_pos_site_id
 _symmetry_equiv_pos_as_xyz
  1  'x, y, z'
loop_
 _atom_site_type_symbol
 _atom_site_label
 _atom_site_symmetry_multiplicity
 _atom_site_fract_x
 _atom_site_fract_y
 _atom_site_fract_z
 _atom_site_occupancy
  Na  Na0  1  0.750000  0.250000  0.500000  1
  Gd  Gd1  1  0.000000  0.000000  0.000000  1
  As  As2  1  0.777333  0.777333  0.000000  1
  As  As3  1  0.222667  0.222667  0.000000  1
  As  As4  1  0.971494  0.471494  0.500000  1
  As  As5  1  0.528506  0.028506  0.500000  1
  F  F6  1  0.864206  0.749053  0.202801  1
  F  F7  1  0.546252  0.661405  0.797199  1
  F  F8  1  0.406607  0.800422  0.303104  1
  F  F9  1  0.338595  0.135794  0.884847  1
  F  F10  1  0.250947  0.453748  0.115153  1
  F  F11  1  0.199578  0.502681  0.606184  1
  F  F12  1  0.651480  0.257490  0.690463  1
  F  F13  1  0.742510  0.432973  0.393991  1
  F  F14  1  0.038983  0.348520  0.606009  1
  F  F15  1  0.092617  0.277941  0.106542  1
  F  F16  1  0.171398  0.986074  0.893458  1
  F  F17  1  0.567027  0.961017  0.309537  1
  F  F18  1  0.722059  0.828602  0.814678  1
  F  F19  1  0.013926  0.907383  0.185322  1
  F  F20  1  0.306205  0.096432  0.341238  1
  F  F21  1  0.903568  0.244806  0.209773  1
  F  F22  1  0.035034  0.693795  0.790227  1
  F  F23  1  0.431443  0.275832  0.274882  1
  F  F24  1  0.000950  0.156561  0.725118  1
  F  F25  1  0.755194  0.964966  0.658762  1
  F  F26  1  0.724168  0.999050  0.155611  1
  F  F27  1  0.843439  0.568557  0.844389  1
  F  F28  1  0.497319  0.103501  0.696896  1
  F  F29  1  0.896499  0.593393  0.393816  1
