# generated using pymatgen
data_Zr10SnB2Sb5
_symmetry_space_group_name_H-M   'P 1'
_cell_length_a   8.54232044
_cell_length_b   8.53339191
_cell_length_c   5.79538400
_cell_angle_alpha   90.00000000
_cell_angle_beta   90.00000000
_cell_angle_gamma   119.96543624
_symmetry_Int_Tables_number   1
_chemical_formula_structural   Zr10SnB2Sb5
_chemical_formula_sum   'Zr10 Sn1 B2 Sb5'
_cell_volume   365.98354020
_cell_formula_units_Z   1
loop_
 _symmetry_equiv_pos_site_id
 _symmetry_equiv_pos_as_xyz
  1  'x, y, z'
loop_
 _atom_site_type_symbol
 _atom_site_label
 _atom_site_symmetry_multiplicity
 _atom_site_fract_x
 _atom_site_fract_y
 _atom_site_fract_z
 _atom_site_occupancy
  Zr  Zr0  1  0.665341  0.333052  0.000318  1
  Zr  Zr1  1  0.334659  0.667712  0.000318  1
  Zr  Zr2  1  0.334659  0.667712  0.499682  1
  Zr  Zr3  1  0.665341  0.333052  0.499682  1
  Zr  Zr4  1  0.767406  0.766470  0.750000  1
  Zr  Zr5  1  0.232594  0.999064  0.750000  1
  Zr  Zr6  1  0.000000  0.232303  0.750000  1
  Zr  Zr7  1  0.233200  0.233910  0.250000  1
  Zr  Zr8  1  0.766800  0.000710  0.250000  1
  Zr  Zr9  1  0.000000  0.766380  0.250000  1
  Sn  Sn10  1  0.000000  0.399937  0.250000  1
  B  B11  1  0.000000  0.000088  0.000372  1
  B  B12  1  0.000000  0.000088  0.499628  1
  Sb  Sb13  1  0.398058  0.398854  0.750000  1
  Sb  Sb14  1  0.601942  0.000796  0.750000  1
  Sb  Sb15  1  0.000000  0.597969  0.750000  1
  Sb  Sb16  1  0.601830  0.601867  0.250000  1
  Sb  Sb17  1  0.398170  0.000037  0.250000  1
