# generated using pymatgen
data_Pr3Nd4Th(MgIr)2
_symmetry_space_group_name_H-M   'P 1'
_cell_length_a   10.06601559
_cell_length_b   10.06601557
_cell_length_c   10.10233600
_cell_angle_alpha   59.88056899
_cell_angle_beta   59.88056904
_cell_angle_gamma   59.94935375
_symmetry_Int_Tables_number   1
_chemical_formula_structural   Pr3Nd4Th(MgIr)2
_chemical_formula_sum   'Pr6 Nd8 Th2 Mg4 Ir4'
_cell_volume   722.22040249
_cell_formula_units_Z   2
loop_
 _symmetry_equiv_pos_site_id
 _symmetry_equiv_pos_as_xyz
  1  'x, y, z'
loop_
 _atom_site_type_symbol
 _atom_site_label
 _atom_site_symmetry_multiplicity
 _atom_site_fract_x
 _atom_site_fract_y
 _atom_site_fract_z
 _atom_site_occupancy
  Pr  Pr0  1  0.940582  0.560951  0.562623  1
  Pr  Pr1  1  0.560951  0.940582  0.935843  1
  Pr  Pr2  1  0.560951  0.940582  0.562623  1
  Pr  Pr3  1  0.940582  0.560951  0.935843  1
  Pr  Pr4  1  0.561951  0.561951  0.938049  1
  Pr  Pr5  1  0.938244  0.938244  0.561756  1
  Nd  Nd6  1  0.346909  0.957728  0.347682  1
  Nd  Nd7  1  0.957728  0.346909  0.347682  1
  Nd  Nd8  1  0.811518  0.188519  0.188842  1
  Nd  Nd9  1  0.188519  0.811518  0.811122  1
  Nd  Nd10  1  0.188519  0.811518  0.188842  1
  Nd  Nd11  1  0.811518  0.188519  0.811122  1
  Nd  Nd12  1  0.188797  0.188797  0.811203  1
  Nd  Nd13  1  0.810898  0.810898  0.189102  1
  Th  Th14  1  0.343275  0.343275  0.345282  1
  Th  Th15  1  0.343275  0.343275  0.968168  1
  Mg  Mg16  1  0.577874  0.577874  0.580662  1
  Mg  Mg17  1  0.577874  0.577874  0.263588  1
  Mg  Mg18  1  0.577219  0.262753  0.580014  1
  Mg  Mg19  1  0.262753  0.577219  0.580014  1
  Ir  Ir20  1  0.146124  0.146124  0.137035  1
  Ir  Ir21  1  0.146124  0.146124  0.570718  1
  Ir  Ir22  1  0.150633  0.567181  0.141092  1
  Ir  Ir23  1  0.567181  0.150633  0.141092  1
