# generated using pymatgen
data_Lu5Mg3(B6Os)4
_symmetry_space_group_name_H-M   'P 1'
_cell_length_a   3.56656100
_cell_length_b   8.97708019
_cell_length_c   11.25664800
_cell_angle_alpha   89.98807758
_cell_angle_beta   90.00000000
_cell_angle_gamma   90.00000000
_symmetry_Int_Tables_number   1
_chemical_formula_structural   Lu5Mg3(B6Os)4
_chemical_formula_sum   'Lu5 Mg3 B24 Os4'
_cell_volume   360.40751453
_cell_formula_units_Z   1
loop_
 _symmetry_equiv_pos_site_id
 _symmetry_equiv_pos_as_xyz
  1  'x, y, z'
loop_
 _atom_site_type_symbol
 _atom_site_label
 _atom_site_symmetry_multiplicity
 _atom_site_fract_x
 _atom_site_fract_y
 _atom_site_fract_z
 _atom_site_occupancy
  Lu  Lu0  1  0.000000  0.322147  0.416726  1
  Lu  Lu1  1  0.000000  0.676741  0.588196  1
  Lu  Lu2  1  0.000000  0.824016  0.083834  1
  Lu  Lu3  1  0.000000  0.174382  0.910777  1
  Lu  Lu4  1  0.000000  0.944660  0.372990  1
  Mg  Mg5  1  0.000000  0.054774  0.626826  1
  Mg  Mg6  1  0.000000  0.445040  0.126352  1
  Mg  Mg7  1  0.000000  0.556161  0.871304  1
  B  B8  1  0.500000  0.553408  0.433257  1
  B  B9  1  0.500000  0.444513  0.567829  1
  B  B10  1  0.500000  0.056696  0.065535  1
  B  B11  1  0.500000  0.944097  0.933383  1
  B  B12  1  0.500000  0.750187  0.419743  1
  B  B13  1  0.500000  0.246817  0.582780  1
  B  B14  1  0.500000  0.256323  0.079615  1
  B  B15  1  0.500000  0.744606  0.919554  1
  B  B16  1  0.500000  0.791779  0.262841  1
  B  B17  1  0.500000  0.206360  0.737435  1
  B  B18  1  0.500000  0.295675  0.236132  1
  B  B19  1  0.500000  0.706123  0.763513  1
  B  B20  1  0.500000  0.627414  0.180860  1
  B  B21  1  0.500000  0.371778  0.818444  1
  B  B22  1  0.500000  0.132577  0.316607  1
  B  B23  1  0.500000  0.870682  0.683913  1
  B  B24  1  0.500000  0.983542  0.211790  1
  B  B25  1  0.500000  0.018052  0.787005  1
  B  B26  1  0.500000  0.480114  0.286769  1
  B  B27  1  0.500000  0.519620  0.713356  1
  B  B28  1  0.500000  0.592922  0.025050  1
  B  B29  1  0.500000  0.407108  0.973889  1
  B  B30  1  0.500000  0.100924  0.475478  1
  B  B31  1  0.500000  0.901099  0.529695  1
  Os  Os32  1  0.000000  0.637067  0.316657  1
  Os  Os33  1  0.000000  0.360630  0.682930  1
  Os  Os34  1  0.000000  0.143057  0.177936  1
  Os  Os35  1  0.000000  0.858909  0.821001  1
