# generated using pymatgen
data_NaCe2F8
_symmetry_space_group_name_H-M   'P 1'
_cell_length_a   6.55788577
_cell_length_b   6.55788667
_cell_length_c   4.46504800
_cell_angle_alpha   85.29731268
_cell_angle_beta   85.29732080
_cell_angle_gamma   113.54348287
_symmetry_Int_Tables_number   1
_chemical_formula_structural   NaCe2F8
_chemical_formula_sum   'Na1 Ce2 F8'
_cell_volume   174.05730127
_cell_formula_units_Z   1
loop_
 _symmetry_equiv_pos_site_id
 _symmetry_equiv_pos_as_xyz
  1  'x, y, z'
loop_
 _atom_site_type_symbol
 _atom_site_label
 _atom_site_symmetry_multiplicity
 _atom_site_fract_x
 _atom_site_fract_y
 _atom_site_fract_z
 _atom_site_occupancy
  Na  Na0  1  0.000000  0.000000  0.500000  1
  Ce  Ce1  1  0.677018  0.322982  0.000000  1
  Ce  Ce2  1  0.322982  0.677018  0.000000  1
  F  F3  1  0.955321  0.666524  0.068910  1
  F  F4  1  0.666524  0.955321  0.068910  1
  F  F5  1  0.611292  0.611292  0.735562  1
  F  F6  1  0.261526  0.738474  0.500000  1
  F  F7  1  0.738474  0.261526  0.500000  1
  F  F8  1  0.388708  0.388708  0.264438  1
  F  F9  1  0.333476  0.044679  0.931090  1
  F  F10  1  0.044679  0.333476  0.931090  1
