# generated using pymatgen
data_Rb3Sm(PO4)2
_symmetry_space_group_name_H-M   'P 1'
_cell_length_a   5.81388500
_cell_length_b   5.81388429
_cell_length_c   8.23831400
_cell_angle_alpha   90.00000000
_cell_angle_beta   90.00000000
_cell_angle_gamma   120.00000971
_symmetry_Int_Tables_number   1
_chemical_formula_structural   Rb3Sm(PO4)2
_chemical_formula_sum   'Rb3 Sm1 P2 O8'
_cell_volume   241.15804330
_cell_formula_units_Z   1
loop_
 _symmetry_equiv_pos_site_id
 _symmetry_equiv_pos_as_xyz
  1  'x, y, z'
loop_
 _atom_site_type_symbol
 _atom_site_label
 _atom_site_symmetry_multiplicity
 _atom_site_fract_x
 _atom_site_fract_y
 _atom_site_fract_z
 _atom_site_occupancy
  Rb  Rb0  1  0.333333  0.666667  0.753157  1
  Rb  Rb1  1  0.666667  0.333333  0.246843  1
  Rb  Rb2  1  0.000000  0.000000  0.000000  1
  Sm  Sm3  1  0.000000  0.000000  0.500000  1
  P  P4  1  0.333333  0.666667  0.268205  1
  P  P5  1  0.666667  0.333333  0.731795  1
  O  O6  1  0.333333  0.666667  0.082963  1
  O  O7  1  0.666667  0.333333  0.917037  1
  O  O8  1  0.187206  0.812794  0.334558  1
  O  O9  1  0.812794  0.187206  0.665442  1
  O  O10  1  0.187206  0.374412  0.334558  1
  O  O11  1  0.812794  0.625588  0.665442  1
  O  O12  1  0.625588  0.812794  0.334558  1
  O  O13  1  0.374412  0.187206  0.665442  1
