# generated using pymatgen
data_Sc4FeCu(B2Rh5)2
_symmetry_space_group_name_H-M   'P 1'
_cell_length_a   9.33167600
_cell_length_b   3.05388600
_cell_length_c   9.33167600
_cell_angle_alpha   90.00000000
_cell_angle_beta   90.00000000
_cell_angle_gamma   90.00000000
_symmetry_Int_Tables_number   1
_chemical_formula_structural   Sc4FeCu(B2Rh5)2
_chemical_formula_sum   'Sc4 Fe1 Cu1 B4 Rh10'
_cell_volume   265.93293332
_cell_formula_units_Z   1
loop_
 _symmetry_equiv_pos_site_id
 _symmetry_equiv_pos_as_xyz
  1  'x, y, z'
loop_
 _atom_site_type_symbol
 _atom_site_label
 _atom_site_symmetry_multiplicity
 _atom_site_fract_x
 _atom_site_fract_y
 _atom_site_fract_z
 _atom_site_occupancy
  Sc  Sc0  1  0.674358  0.000000  0.176254  1
  Sc  Sc1  1  0.176254  0.000000  0.325642  1
  Sc  Sc2  1  0.823746  0.000000  0.674358  1
  Sc  Sc3  1  0.325642  0.000000  0.823746  1
  Fe  Fe4  1  0.000000  0.000000  0.000000  1
  Cu  Cu5  1  0.500001  0.000000  0.500001  1
  B  B6  1  0.377235  0.000000  0.128940  1
  B  B7  1  0.871061  0.000000  0.377235  1
  B  B8  1  0.128940  0.000000  0.622765  1
  B  B9  1  0.622765  0.000000  0.871061  1
  Rh  Rh10  1  0.500001  0.499999  0.000000  1
  Rh  Rh11  1  0.215280  0.499999  0.069543  1
  Rh  Rh12  1  0.930457  0.499999  0.215280  1
  Rh  Rh13  1  0.428230  0.499999  0.283985  1
  Rh  Rh14  1  0.716015  0.499999  0.428230  1
  Rh  Rh15  1  0.000000  0.499999  0.500001  1
  Rh  Rh16  1  0.283985  0.499999  0.571771  1
  Rh  Rh17  1  0.571771  0.499999  0.716015  1
  Rh  Rh18  1  0.069543  0.499999  0.784720  1
  Rh  Rh19  1  0.784720  0.499999  0.930457  1
