# generated using pymatgen
data_BaMnH9
_symmetry_space_group_name_H-M   'P 1'
_cell_length_a   9.03868800
_cell_length_b   5.09871414
_cell_length_c   5.11557446
_cell_angle_alpha   61.37706622
_cell_angle_beta   90.00000000
_cell_angle_gamma   90.00000000
_symmetry_Int_Tables_number   1
_chemical_formula_structural   BaMnH9
_chemical_formula_sum   'Ba2 Mn2 H18'
_cell_volume   206.94347684
_cell_formula_units_Z   2
loop_
 _symmetry_equiv_pos_site_id
 _symmetry_equiv_pos_as_xyz
  1  'x, y, z'
loop_
 _atom_site_type_symbol
 _atom_site_label
 _atom_site_symmetry_multiplicity
 _atom_site_fract_x
 _atom_site_fract_y
 _atom_site_fract_z
 _atom_site_occupancy
  Ba  Ba0  1  0.500000  0.000000  0.000000  1
  Ba  Ba1  1  0.000000  0.000000  0.000000  1
  Mn  Mn2  1  0.250000  0.663907  0.642894  1
  Mn  Mn3  1  0.750000  0.336093  0.357106  1
  H  H4  1  0.250000  0.721807  0.915693  1
  H  H5  1  0.750000  0.278193  0.084307  1
  H  H6  1  0.250000  0.336295  0.901666  1
  H  H7  1  0.750000  0.663705  0.098334  1
  H  H8  1  0.250000  0.829319  0.303190  1
  H  H9  1  0.750000  0.170681  0.696810  1
  H  H10  1  0.347952  0.506936  0.512171  1
  H  H11  1  0.847952  0.493064  0.487829  1
  H  H12  1  0.652048  0.493064  0.487829  1
  H  H13  1  0.152048  0.506936  0.512171  1
  H  H14  1  0.347320  0.947912  0.523406  1
  H  H15  1  0.847320  0.052088  0.476594  1
  H  H16  1  0.652680  0.052088  0.476594  1
  H  H17  1  0.152680  0.947912  0.523406  1
  H  H18  1  0.405995  0.597553  0.779086  1
  H  H19  1  0.905995  0.402447  0.220914  1
  H  H20  1  0.594005  0.402447  0.220914  1
  H  H21  1  0.094005  0.597553  0.779086  1
