# generated using pymatgen
data_Th6OsI15
_symmetry_space_group_name_H-M   'P 1'
_cell_length_a   10.77107277
_cell_length_b   10.77107231
_cell_length_c   10.77107200
_cell_angle_alpha   109.47121817
_cell_angle_beta   109.47121731
_cell_angle_gamma   109.47122215
_symmetry_Int_Tables_number   1
_chemical_formula_structural   Th6OsI15
_chemical_formula_sum   'Th6 Os1 I15'
_cell_volume   961.95545687
_cell_formula_units_Z   1
loop_
 _symmetry_equiv_pos_site_id
 _symmetry_equiv_pos_as_xyz
  1  'x, y, z'
loop_
 _atom_site_type_symbol
 _atom_site_label
 _atom_site_symmetry_multiplicity
 _atom_site_fract_x
 _atom_site_fract_y
 _atom_site_fract_z
 _atom_site_occupancy
  Th  Th0  1  0.768668  0.768668  0.000000  1
  Th  Th1  1  0.231332  0.000000  0.231332  1
  Th  Th2  1  0.768668  0.000000  0.768668  1
  Th  Th3  1  0.000000  0.768668  0.768668  1
  Th  Th4  1  0.000000  0.231332  0.231332  1
  Th  Th5  1  0.231332  0.231332  0.000000  1
  Os  Os6  1  0.000000  0.000000  0.000000  1
  I  I7  1  0.500000  0.000000  0.500000  1
  I  I8  1  0.000000  0.500000  0.500000  1
  I  I9  1  0.500000  0.500000  0.000000  1
  I  I10  1  0.495898  0.747948  0.747948  1
  I  I11  1  0.747948  0.000000  0.252052  1
  I  I12  1  0.504102  0.252052  0.252052  1
  I  I13  1  0.252052  0.252052  0.504102  1
  I  I14  1  0.252052  0.747948  0.000000  1
  I  I15  1  0.000000  0.252052  0.747948  1
  I  I16  1  0.000000  0.747948  0.252052  1
  I  I17  1  0.252052  0.000000  0.747948  1
  I  I18  1  0.252052  0.504102  0.252052  1
  I  I19  1  0.747948  0.252052  0.000000  1
  I  I20  1  0.747948  0.495898  0.747948  1
  I  I21  1  0.747948  0.747948  0.495898  1
