# generated using pymatgen
data_Er3Lu(Zr3Si4)2
_symmetry_space_group_name_H-M   'P 1'
_cell_length_a   7.33974649
_cell_length_b   7.13611961
_cell_length_c   7.32580700
_cell_angle_alpha   72.00071956
_cell_angle_beta   89.89015061
_cell_angle_gamma   90.19085140
_symmetry_Int_Tables_number   1
_chemical_formula_structural   Er3Lu(Zr3Si4)2
_chemical_formula_sum   'Er3 Lu1 Zr6 Si8'
_cell_volume   364.92385798
_cell_formula_units_Z   1
loop_
 _symmetry_equiv_pos_site_id
 _symmetry_equiv_pos_as_xyz
  1  'x, y, z'
loop_
 _atom_site_type_symbol
 _atom_site_label
 _atom_site_symmetry_multiplicity
 _atom_site_fract_x
 _atom_site_fract_y
 _atom_site_fract_z
 _atom_site_occupancy
  Er  Er0  1  0.673359  0.924172  0.693424  1
  Er  Er1  1  0.327095  0.075440  0.307033  1
  Er  Er2  1  0.172615  0.574767  0.307831  1
  Lu  Lu3  1  0.826491  0.424484  0.693532  1
  Zr  Zr4  1  0.682197  0.750667  0.248272  1
  Zr  Zr5  1  0.317823  0.249708  0.751338  1
  Zr  Zr6  1  0.181057  0.749224  0.750953  1
  Zr  Zr7  1  0.818302  0.249829  0.249714  1
  Zr  Zr8  1  0.999161  0.000512  0.999696  1
  Zr  Zr9  1  0.501376  0.500372  0.998753  1
  Si  Si10  1  0.969933  0.871093  0.418579  1
  Si  Si11  1  0.029377  0.130185  0.582009  1
  Si  Si12  1  0.470506  0.628138  0.581947  1
  Si  Si13  1  0.530638  0.371449  0.418629  1
  Si  Si14  1  0.877120  0.626863  0.989974  1
  Si  Si15  1  0.122527  0.372455  0.009198  1
  Si  Si16  1  0.377022  0.872318  0.008991  1
  Si  Si17  1  0.623402  0.128324  0.990127  1
