# generated using pymatgen
data_Ba2As2IrPd
_symmetry_space_group_name_H-M   'P 1'
_cell_length_a   6.77687000
_cell_length_b   6.77532653
_cell_length_c   6.78673800
_cell_angle_alpha   89.77653552
_cell_angle_beta   90.00000000
_cell_angle_gamma   90.00000000
_symmetry_Int_Tables_number   1
_chemical_formula_structural   Ba2As2IrPd
_chemical_formula_sum   'Ba4 As4 Ir2 Pd2'
_cell_volume   311.61414682
_cell_formula_units_Z   2
loop_
 _symmetry_equiv_pos_site_id
 _symmetry_equiv_pos_as_xyz
  1  'x, y, z'
loop_
 _atom_site_type_symbol
 _atom_site_label
 _atom_site_symmetry_multiplicity
 _atom_site_fract_x
 _atom_site_fract_y
 _atom_site_fract_z
 _atom_site_occupancy
  Ba  Ba0  1  0.620438  0.377479  0.882284  1
  Ba  Ba1  1  0.380388  0.882249  0.623904  1
  Ba  Ba2  1  0.120438  0.122521  0.117716  1
  Ba  Ba3  1  0.880388  0.617751  0.376096  1
  As  As4  1  0.163765  0.340878  0.670719  1
  As  As5  1  0.663765  0.159122  0.329281  1
  As  As6  1  0.335999  0.669196  0.154591  1
  As  As7  1  0.835999  0.830804  0.845409  1
  Ir  Ir8  1  0.592769  0.906624  0.092693  1
  Ir  Ir9  1  0.092769  0.593376  0.907307  1
  Pd  Pd10  1  0.406641  0.408710  0.405738  1
  Pd  Pd11  1  0.906641  0.091290  0.594262  1
