# generated using pymatgen
data_SrMnCr2O6
_symmetry_space_group_name_H-M   'P 1'
_cell_length_a   6.65741467
_cell_length_b   6.65741942
_cell_length_c   6.65742327
_cell_angle_alpha   45.23451848
_cell_angle_beta   45.23458624
_cell_angle_gamma   45.23455668
_symmetry_Int_Tables_number   1
_chemical_formula_structural   SrMnCr2O6
_chemical_formula_sum   'Sr1 Mn1 Cr2 O6'
_cell_volume   135.44789126
_cell_formula_units_Z   1
loop_
 _symmetry_equiv_pos_site_id
 _symmetry_equiv_pos_as_xyz
  1  'x, y, z'
loop_
 _atom_site_type_symbol
 _atom_site_label
 _atom_site_symmetry_multiplicity
 _atom_site_fract_x
 _atom_site_fract_y
 _atom_site_fract_z
 _atom_site_occupancy
  Sr  Sr0  1  0.500000  0.500000  0.500000  1
  Mn  Mn1  1  0.000000  0.000000  0.000000  1
  Cr  Cr2  1  0.326710  0.326713  0.326712  1
  Cr  Cr3  1  0.673290  0.673287  0.673288  1
  O  O4  1  0.626707  0.272441  0.927238  1
  O  O5  1  0.927236  0.626708  0.272442  1
  O  O6  1  0.727558  0.072762  0.373293  1
  O  O7  1  0.272442  0.927238  0.626707  1
  O  O8  1  0.072764  0.373292  0.727558  1
  O  O9  1  0.373293  0.727559  0.072762  1
