# generated using pymatgen
data_Yb2TmU5(ReB6)4
_symmetry_space_group_name_H-M   'P 1'
_cell_length_a   3.63639600
_cell_length_b   9.26567552
_cell_length_c   11.38246600
_cell_angle_alpha   89.96577892
_cell_angle_beta   90.00000000
_cell_angle_gamma   90.00000000
_symmetry_Int_Tables_number   1
_chemical_formula_structural   Yb2TmU5(ReB6)4
_chemical_formula_sum   'Yb2 Tm1 U5 Re4 B24'
_cell_volume   383.51693251
_cell_formula_units_Z   1
loop_
 _symmetry_equiv_pos_site_id
 _symmetry_equiv_pos_as_xyz
  1  'x, y, z'
loop_
 _atom_site_type_symbol
 _atom_site_label
 _atom_site_symmetry_multiplicity
 _atom_site_fract_x
 _atom_site_fract_y
 _atom_site_fract_z
 _atom_site_occupancy
  Yb  Yb0  1  0.000000  0.662584  0.590940  1
  Yb  Yb1  1  0.000000  0.835633  0.092550  1
  Tm  Tm2  1  0.000000  0.337907  0.408219  1
  U  U3  1  0.000000  0.163029  0.907867  1
  U  U4  1  0.000000  0.954932  0.396208  1
  U  U5  1  0.000000  0.042014  0.603415  1
  U  U6  1  0.000000  0.458674  0.104789  1
  U  U7  1  0.000000  0.544626  0.896244  1
  Re  Re8  1  0.000000  0.644269  0.318245  1
  Re  Re9  1  0.000000  0.351255  0.684507  1
  Re  Re10  1  0.000000  0.147260  0.178059  1
  Re  Re11  1  0.000000  0.858379  0.819695  1
  B  B12  1  0.500000  0.551085  0.432057  1
  B  B13  1  0.500000  0.447610  0.569770  1
  B  B14  1  0.500000  0.053049  0.068189  1
  B  B15  1  0.500000  0.950116  0.930766  1
  B  B16  1  0.500000  0.742024  0.422861  1
  B  B17  1  0.500000  0.256992  0.576612  1
  B  B18  1  0.500000  0.243247  0.076186  1
  B  B19  1  0.500000  0.756722  0.922154  1
  B  B20  1  0.500000  0.801028  0.274730  1
  B  B21  1  0.500000  0.196527  0.726799  1
  B  B22  1  0.500000  0.302869  0.225492  1
  B  B23  1  0.500000  0.698851  0.774604  1
  B  B24  1  0.500000  0.642894  0.188899  1
  B  B25  1  0.500000  0.354880  0.812261  1
  B  B26  1  0.500000  0.144707  0.310930  1
  B  B27  1  0.500000  0.856024  0.688467  1
  B  B28  1  0.500000  0.989575  0.219243  1
  B  B29  1  0.500000  0.013449  0.781728  1
  B  B30  1  0.500000  0.488147  0.281534  1
  B  B31  1  0.500000  0.511136  0.719056  1
  B  B32  1  0.500000  0.638659  0.038020  1
  B  B33  1  0.500000  0.357421  0.960537  1
  B  B34  1  0.500000  0.140770  0.460393  1
  B  B35  1  0.500000  0.861657  0.537974  1
