# generated using pymatgen
data_Ca2DyNpN4
_symmetry_space_group_name_H-M   'P 1'
_cell_length_a   6.05160262
_cell_length_b   6.05121220
_cell_length_c   4.88864921
_cell_angle_alpha   66.18181121
_cell_angle_beta   66.18020315
_cell_angle_gamma   47.59712318
_symmetry_Int_Tables_number   1
_chemical_formula_structural   Ca2DyNpN4
_chemical_formula_sum   'Ca2 Dy1 Np1 N4'
_cell_volume   118.61884112
_cell_formula_units_Z   1
loop_
 _symmetry_equiv_pos_site_id
 _symmetry_equiv_pos_as_xyz
  1  'x, y, z'
loop_
 _atom_site_type_symbol
 _atom_site_label
 _atom_site_symmetry_multiplicity
 _atom_site_fract_x
 _atom_site_fract_y
 _atom_site_fract_z
 _atom_site_occupancy
  Ca  Ca0  1  0.247074  0.252963  0.252913  1
  Ca  Ca1  1  0.496974  0.502967  0.503017  1
  Dy  Dy2  1  0.746972  0.752909  0.752996  1
  Np  Np3  1  0.997062  0.002981  0.002906  1
  N  N4  1  0.987881  0.993909  0.512447  1
  N  N5  1  0.208732  0.214732  0.791182  1
  N  N6  1  0.505850  0.512322  0.993933  1
  N  N7  1  0.785390  0.791284  0.214671  1
