# generated using pymatgen
data_CsBaReN3
_symmetry_space_group_name_H-M   'P 1'
_cell_length_a   6.83269700
_cell_length_b   6.83269567
_cell_length_c   13.44779700
_cell_angle_alpha   90.00000000
_cell_angle_beta   90.00000000
_cell_angle_gamma   126.49525294
_symmetry_Int_Tables_number   1
_chemical_formula_structural   CsBaReN3
_chemical_formula_sum   'Cs4 Ba4 Re4 N12'
_cell_volume   504.70862890
_cell_formula_units_Z   4
loop_
 _symmetry_equiv_pos_site_id
 _symmetry_equiv_pos_as_xyz
  1  'x, y, z'
loop_
 _atom_site_type_symbol
 _atom_site_label
 _atom_site_symmetry_multiplicity
 _atom_site_fract_x
 _atom_site_fract_y
 _atom_site_fract_z
 _atom_site_occupancy
  Cs  Cs0  1  0.457398  0.542602  0.637589  1
  Cs  Cs1  1  0.542602  0.457398  0.362411  1
  Cs  Cs2  1  0.042602  0.957398  0.137589  1
  Cs  Cs3  1  0.957398  0.042602  0.862411  1
  Ba  Ba4  1  0.849357  0.150643  0.415878  1
  Ba  Ba5  1  0.349357  0.650643  0.084122  1
  Ba  Ba6  1  0.650643  0.349357  0.915878  1
  Ba  Ba7  1  0.150643  0.849357  0.584122  1
  Re  Re8  1  0.773936  0.226064  0.666151  1
  Re  Re9  1  0.726064  0.273936  0.166151  1
  Re  Re10  1  0.226064  0.773936  0.333849  1
  Re  Re11  1  0.273936  0.726064  0.833849  1
  N  N12  1  0.991801  0.508199  0.750000  1
  N  N13  1  0.508199  0.991801  0.250000  1
  N  N14  1  0.008199  0.491801  0.250000  1
  N  N15  1  0.491801  0.008199  0.750000  1
  N  N16  1  0.413126  0.586874  0.879024  1
  N  N17  1  0.586874  0.413126  0.120976  1
  N  N18  1  0.086874  0.913126  0.379024  1
  N  N19  1  0.686167  0.313833  0.556409  1
  N  N20  1  0.186167  0.813833  0.943591  1
  N  N21  1  0.813833  0.186167  0.056409  1
  N  N22  1  0.313833  0.686167  0.443591  1
  N  N23  1  0.913126  0.086874  0.620976  1
