# generated using pymatgen
data_Li8Mg7Fe(BO3)8
_symmetry_space_group_name_H-M   'P 1'
_cell_length_a   5.16549272
_cell_length_b   8.98309779
_cell_length_c   10.11984852
_cell_angle_alpha   91.17392166
_cell_angle_beta   90.65855301
_cell_angle_gamma   89.76210295
_symmetry_Int_Tables_number   1
_chemical_formula_structural   Li8Mg7Fe(BO3)8
_chemical_formula_sum   'Li8 Mg7 Fe1 B8 O24'
_cell_volume   469.44931448
_cell_formula_units_Z   1
loop_
 _symmetry_equiv_pos_site_id
 _symmetry_equiv_pos_as_xyz
  1  'x, y, z'
loop_
 _atom_site_type_symbol
 _atom_site_label
 _atom_site_symmetry_multiplicity
 _atom_site_fract_x
 _atom_site_fract_y
 _atom_site_fract_z
 _atom_site_occupancy
  Li  Li0  1  0.846195  0.827668  0.662634  1
  Li  Li1  1  0.815524  0.836278  0.167466  1
  Li  Li2  1  0.680787  0.667771  0.415159  1
  Li  Li3  1  0.659573  0.672330  0.916156  1
  Li  Li4  1  0.346504  0.326975  0.665202  1
  Li  Li5  1  0.316639  0.336922  0.165473  1
  Li  Li6  1  0.180982  0.167754  0.414370  1
  Li  Li7  1  0.161416  0.174246  0.915176  1
  Mg  Mg8  1  0.827961  0.498845  0.132328  1
  Mg  Mg9  1  0.834232  0.164284  0.631179  1
  Mg  Mg10  1  0.673413  0.334887  0.381922  1
  Mg  Mg11  1  0.333169  0.663214  0.631461  1
  Mg  Mg12  1  0.326653  0.998095  0.132056  1
  Mg  Mg13  1  0.174154  0.834798  0.382336  1
  Mg  Mg14  1  0.164308  0.504068  0.882034  1
  Fe  Fe15  1  0.675205  0.001949  0.882500  1
  B  B16  1  0.829791  0.169509  0.128806  1
  B  B17  1  0.838541  0.499697  0.626600  1
  B  B18  1  0.666308  0.002328  0.376692  1
  B  B19  1  0.669595  0.336058  0.876459  1
  B  B20  1  0.328873  0.669002  0.127289  1
  B  B21  1  0.339232  0.999684  0.625185  1
  B  B22  1  0.165365  0.502132  0.376609  1
  B  B23  1  0.171943  0.831729  0.876471  1
  O  O24  1  0.901742  0.512529  0.341954  1
  O  O25  1  0.904527  0.822268  0.863106  1
  O  O26  1  0.819756  0.211365  0.840083  1
  O  O27  1  0.799469  0.129354  0.420127  1
  O  O28  1  0.792103  0.866563  0.364404  1
  O  O29  1  0.792612  0.465180  0.922249  1
  O  O30  1  0.716750  0.636323  0.615136  1
  O  O31  1  0.702647  0.035719  0.097289  1
  O  O32  1  0.702898  0.370047  0.590519  1
  O  O33  1  0.687085  0.294087  0.170213  1
  O  O34  1  0.595127  0.676505  0.116224  1
  O  O35  1  0.598601  0.990757  0.664523  1
  O  O36  1  0.402033  0.011906  0.342738  1
  O  O37  1  0.403563  0.329931  0.863473  1
  O  O38  1  0.320293  0.706548  0.842098  1
  O  O39  1  0.297714  0.628815  0.421757  1
  O  O40  1  0.291590  0.366852  0.363199  1
  O  O41  1  0.286733  0.963181  0.921789  1
  O  O42  1  0.202250  0.536353  0.091292  1
  O  O43  1  0.216709  0.136255  0.615170  1
  O  O44  1  0.202602  0.869365  0.591858  1
  O  O45  1  0.186141  0.792867  0.170671  1
  O  O46  1  0.095663  0.176861  0.115476  1
  O  O47  1  0.095636  0.490743  0.670690  1
