# generated using pymatgen
data_YbPr6CoBr12
_symmetry_space_group_name_H-M   'P 1'
_cell_length_a   9.58511534
_cell_length_b   9.58511549
_cell_length_c   9.58511532
_cell_angle_alpha   107.30350856
_cell_angle_beta   107.30349796
_cell_angle_gamma   107.30349264
_symmetry_Int_Tables_number   1
_chemical_formula_structural   YbPr6CoBr12
_chemical_formula_sum   'Yb1 Pr6 Co1 Br12'
_cell_volume   727.23735740
_cell_formula_units_Z   1
loop_
 _symmetry_equiv_pos_site_id
 _symmetry_equiv_pos_as_xyz
  1  'x, y, z'
loop_
 _atom_site_type_symbol
 _atom_site_label
 _atom_site_symmetry_multiplicity
 _atom_site_fract_x
 _atom_site_fract_y
 _atom_site_fract_z
 _atom_site_occupancy
  Yb  Yb0  1  0.500000  0.500000  0.500000  1
  Pr  Pr1  1  0.975557  0.896209  0.688697  1
  Pr  Pr2  1  0.024443  0.103791  0.311303  1
  Pr  Pr3  1  0.103791  0.311303  0.024443  1
  Pr  Pr4  1  0.311303  0.024443  0.103791  1
  Pr  Pr5  1  0.896209  0.688697  0.975557  1
  Pr  Pr6  1  0.688697  0.975557  0.896209  1
  Co  Co7  1  0.000000  0.000000  0.000000  1
  Br  Br8  1  0.542288  0.620191  0.830777  1
  Br  Br9  1  0.457712  0.379809  0.169223  1
  Br  Br10  1  0.317075  0.929470  0.779055  1
  Br  Br11  1  0.379809  0.169223  0.457712  1
  Br  Br12  1  0.929470  0.779055  0.317075  1
  Br  Br13  1  0.682925  0.070530  0.220945  1
  Br  Br14  1  0.070530  0.220945  0.682925  1
  Br  Br15  1  0.779055  0.317075  0.929470  1
  Br  Br16  1  0.220945  0.682925  0.070530  1
  Br  Br17  1  0.830777  0.542288  0.620191  1
  Br  Br18  1  0.169223  0.457712  0.379809  1
  Br  Br19  1  0.620191  0.830777  0.542288  1
