# generated using pymatgen
data_Y5ErNiI10
_symmetry_space_group_name_H-M   'P 1'
_cell_length_a   7.69335741
_cell_length_b   9.66849693
_cell_length_c   9.69790732
_cell_angle_alpha   106.86481400
_cell_angle_beta   96.80974895
_cell_angle_gamma   104.16545972
_symmetry_Int_Tables_number   1
_chemical_formula_structural   Y5ErNiI10
_chemical_formula_sum   'Y5 Er1 Ni1 I10'
_cell_volume   655.22805406
_cell_formula_units_Z   1
loop_
 _symmetry_equiv_pos_site_id
 _symmetry_equiv_pos_as_xyz
  1  'x, y, z'
loop_
 _atom_site_type_symbol
 _atom_site_label
 _atom_site_symmetry_multiplicity
 _atom_site_fract_x
 _atom_site_fract_y
 _atom_site_fract_z
 _atom_site_occupancy
  Y  Y0  1  0.339193  0.119357  0.161550  1
  Y  Y1  1  0.661014  0.880813  0.838622  1
  Y  Y2  1  0.965355  0.278978  0.081992  1
  Y  Y3  1  0.034676  0.720926  0.916805  1
  Y  Y4  1  0.886439  0.958616  0.236236  1
  Er  Er5  1  0.112695  0.041212  0.768248  1
  Ni  Ni6  1  0.000111  0.999923  0.000028  1
  I  I7  1  0.345144  0.447821  0.271792  1
  I  I8  1  0.654495  0.552282  0.727470  1
  I  I9  1  0.769750  0.254322  0.342517  1
  I  I10  1  0.229846  0.748239  0.656666  1
  I  I11  1  0.543160  0.185497  0.905647  1
  I  I12  1  0.455512  0.813637  0.093102  1
  I  I13  1  0.748156  0.914925  0.539733  1
  I  I14  1  0.254832  0.086047  0.462131  1
  I  I15  1  0.913650  0.626664  0.179407  1
  I  I16  1  0.085971  0.370741  0.818053  1
