# generated using pymatgen
data_ErTh2Ni9
_symmetry_space_group_name_H-M   'P 1'
_cell_length_a   8.73827641
_cell_length_b   8.73827627
_cell_length_c   8.73827655
_cell_angle_alpha   33.21803164
_cell_angle_beta   33.21803453
_cell_angle_gamma   33.21803062
_symmetry_Int_Tables_number   1
_chemical_formula_structural   ErTh2Ni9
_chemical_formula_sum   'Er1 Th2 Ni9'
_cell_volume   178.26464614
_cell_formula_units_Z   1
loop_
 _symmetry_equiv_pos_site_id
 _symmetry_equiv_pos_as_xyz
  1  'x, y, z'
loop_
 _atom_site_type_symbol
 _atom_site_label
 _atom_site_symmetry_multiplicity
 _atom_site_fract_x
 _atom_site_fract_y
 _atom_site_fract_z
 _atom_site_occupancy
  Er  Er0  1  0.137636  0.137636  0.137636  1
  Th  Th1  1  0.001702  0.001702  0.001702  1
  Th  Th2  1  0.860906  0.860906  0.860906  1
  Ni  Ni3  1  0.499375  0.499375  0.499375  1
  Ni  Ni4  1  0.666701  0.666701  0.666701  1
  Ni  Ni5  1  0.333435  0.333435  0.333435  1
  Ni  Ni6  1  0.415833  0.919574  0.415833  1
  Ni  Ni7  1  0.415833  0.415833  0.919574  1
  Ni  Ni8  1  0.919574  0.415833  0.415833  1
  Ni  Ni9  1  0.583990  0.081023  0.583990  1
  Ni  Ni10  1  0.583990  0.583990  0.081023  1
  Ni  Ni11  1  0.081023  0.583990  0.583990  1
