# generated using pymatgen
data_Ca7Dy(OsC2)4
_symmetry_space_group_name_H-M   'P 1'
_cell_length_a   5.17287300
_cell_length_b   6.52880042
_cell_length_c   10.32082700
_cell_angle_alpha   90.25055134
_cell_angle_beta   90.00000000
_cell_angle_gamma   90.00000000
_symmetry_Int_Tables_number   1
_chemical_formula_structural   Ca7Dy(OsC2)4
_chemical_formula_sum   'Ca7 Dy1 Os4 C8'
_cell_volume   348.55840137
_cell_formula_units_Z   1
loop_
 _symmetry_equiv_pos_site_id
 _symmetry_equiv_pos_as_xyz
  1  'x, y, z'
loop_
 _atom_site_type_symbol
 _atom_site_label
 _atom_site_symmetry_multiplicity
 _atom_site_fract_x
 _atom_site_fract_y
 _atom_site_fract_z
 _atom_site_occupancy
  Ca  Ca0  1  0.750000  0.305942  0.450241  1
  Ca  Ca1  1  0.750000  0.807034  0.050663  1
  Ca  Ca2  1  0.250000  0.190473  0.948847  1
  Ca  Ca3  1  0.250000  0.535148  0.218485  1
  Ca  Ca4  1  0.750000  0.464624  0.781745  1
  Ca  Ca5  1  0.750000  0.966425  0.724063  1
  Ca  Ca6  1  0.250000  0.035880  0.277967  1
  Dy  Dy7  1  0.250000  0.682242  0.552267  1
  Os  Os8  1  0.250000  0.730414  0.849552  1
  Os  Os9  1  0.750000  0.267253  0.150417  1
  Os  Os10  1  0.750000  0.767801  0.352750  1
  Os  Os11  1  0.250000  0.230051  0.647606  1
  C  C12  1  0.250000  0.469122  0.755073  1
  C  C13  1  0.750000  0.531691  0.241358  1
  C  C14  1  0.750000  0.029526  0.260137  1
  C  C15  1  0.250000  0.962570  0.734423  1
  C  C16  1  0.250000  0.791820  0.024135  1
  C  C17  1  0.750000  0.210155  0.974737  1
  C  C18  1  0.750000  0.708192  0.529884  1
  C  C19  1  0.250000  0.313639  0.475651  1
