# generated using pymatgen
data_SrTbRh2O7
_symmetry_space_group_name_H-M   'P 1'
_cell_length_a   7.34465566
_cell_length_b   7.35351689
_cell_length_c   7.35351707
_cell_angle_alpha   59.66567287
_cell_angle_beta   60.03985459
_cell_angle_gamma   60.03986215
_symmetry_Int_Tables_number   1
_chemical_formula_structural   SrTbRh2O7
_chemical_formula_sum   'Sr2 Tb2 Rh4 O14'
_cell_volume   280.28339095
_cell_formula_units_Z   2
loop_
 _symmetry_equiv_pos_site_id
 _symmetry_equiv_pos_as_xyz
  1  'x, y, z'
loop_
 _atom_site_type_symbol
 _atom_site_label
 _atom_site_symmetry_multiplicity
 _atom_site_fract_x
 _atom_site_fract_y
 _atom_site_fract_z
 _atom_site_occupancy
  Sr  Sr0  1  0.125000  0.625000  0.125000  1
  Sr  Sr1  1  0.125000  0.125000  0.625000  1
  Tb  Tb2  1  0.125000  0.125000  0.125000  1
  Tb  Tb3  1  0.625000  0.125000  0.125000  1
  Rh  Rh4  1  0.625000  0.625000  0.625000  1
  Rh  Rh5  1  0.625000  0.625000  0.125000  1
  Rh  Rh6  1  0.125000  0.625000  0.625000  1
  Rh  Rh7  1  0.625000  0.125000  0.625000  1
  O  O8  1  0.265379  0.234621  0.234621  1
  O  O9  1  0.299054  0.713668  0.296178  1
  O  O10  1  0.950946  0.953822  0.536332  1
  O  O11  1  0.558900  0.953822  0.536332  1
  O  O12  1  0.691100  0.713668  0.296178  1
  O  O13  1  0.946773  0.553227  0.553227  1
  O  O14  1  0.691100  0.296178  0.713668  1
  O  O15  1  0.299054  0.296178  0.713668  1
  O  O16  1  0.703333  0.296667  0.296667  1
  O  O17  1  0.303227  0.696773  0.696773  1
  O  O18  1  0.950946  0.536332  0.953822  1
  O  O19  1  0.558900  0.536332  0.953822  1
  O  O20  1  0.984621  0.015379  0.015379  1
  O  O21  1  0.546667  0.953333  0.953333  1
