# generated using pymatgen
data_Ho4Al18CuIr5
_symmetry_space_group_name_H-M   'P 1'
_cell_length_a   7.55189311
_cell_length_b   7.55189349
_cell_length_c   9.43482944
_cell_angle_alpha   90.05555041
_cell_angle_beta   90.05555009
_cell_angle_gamma   119.65617879
_symmetry_Int_Tables_number   1
_chemical_formula_structural   Ho4Al18CuIr5
_chemical_formula_sum   'Ho4 Al18 Cu1 Ir5'
_cell_volume   467.59494750
_cell_formula_units_Z   1
loop_
 _symmetry_equiv_pos_site_id
 _symmetry_equiv_pos_as_xyz
  1  'x, y, z'
loop_
 _atom_site_type_symbol
 _atom_site_label
 _atom_site_symmetry_multiplicity
 _atom_site_fract_x
 _atom_site_fract_y
 _atom_site_fract_z
 _atom_site_occupancy
  Ho  Ho0  1  0.995395  0.669889  0.250295  1
  Ho  Ho1  1  0.004605  0.330111  0.749705  1
  Ho  Ho2  1  0.669889  0.995395  0.250295  1
  Ho  Ho3  1  0.330111  0.004605  0.749705  1
  Al  Al4  1  0.127454  0.127454  0.250516  1
  Al  Al5  1  0.872546  0.872546  0.749484  1
  Al  Al6  1  0.000681  0.337506  0.076898  1
  Al  Al7  1  0.999319  0.662494  0.923102  1
  Al  Al8  1  0.000032  0.666247  0.573907  1
  Al  Al9  1  0.333753  0.999968  0.426093  1
  Al  Al10  1  0.999968  0.333753  0.426093  1
  Al  Al11  1  0.666247  0.000032  0.573907  1
  Al  Al12  1  0.662494  0.999319  0.923102  1
  Al  Al13  1  0.337506  0.000681  0.076898  1
  Al  Al14  1  0.333223  0.333223  0.553307  1
  Al  Al15  1  0.666777  0.666777  0.446693  1
  Al  Al16  1  0.663880  0.663880  0.056001  1
  Al  Al17  1  0.336120  0.336120  0.943999  1
  Al  Al18  1  0.338350  0.547632  0.250395  1
  Al  Al19  1  0.661650  0.452368  0.749605  1
  Al  Al20  1  0.547632  0.338350  0.250395  1
  Al  Al21  1  0.452368  0.661650  0.749605  1
  Cu  Cu22  1  0.000000  0.000000  0.000000  1
  Ir  Ir23  1  0.671828  0.328172  0.000000  1
  Ir  Ir24  1  0.328172  0.671828  0.000000  1
  Ir  Ir25  1  0.328216  0.671784  0.500000  1
  Ir  Ir26  1  0.671784  0.328216  0.500000  1
  Ir  Ir27  1  0.000000  0.000000  0.500000  1
