# generated using pymatgen
data_Pr5Lu3(P7Ir8)2
_symmetry_space_group_name_H-M   'P 1'
_cell_length_a   3.96466200
_cell_length_b   12.80036279
_cell_length_c   13.19463798
_cell_angle_alpha   80.94541586
_cell_angle_beta   90.00000000
_cell_angle_gamma   90.00000000
_symmetry_Int_Tables_number   1
_chemical_formula_structural   Pr5Lu3(P7Ir8)2
_chemical_formula_sum   'Pr5 Lu3 P14 Ir16'
_cell_volume   661.27197992
_cell_formula_units_Z   1
loop_
 _symmetry_equiv_pos_site_id
 _symmetry_equiv_pos_as_xyz
  1  'x, y, z'
loop_
 _atom_site_type_symbol
 _atom_site_label
 _atom_site_symmetry_multiplicity
 _atom_site_fract_x
 _atom_site_fract_y
 _atom_site_fract_z
 _atom_site_occupancy
  Pr  Pr0  1  0.250000  0.519291  0.293810  1
  Pr  Pr1  1  0.750000  0.719695  0.897251  1
  Pr  Pr2  1  0.250000  0.105192  0.788393  1
  Pr  Pr3  1  0.750000  0.895817  0.211079  1
  Pr  Pr4  1  0.250000  0.280084  0.102081  1
  Lu  Lu5  1  0.750000  0.791767  0.560559  1
  Lu  Lu6  1  0.250000  0.207819  0.439925  1
  Lu  Lu7  1  0.750000  0.480263  0.705528  1
  P  P8  1  0.250000  0.907539  0.413851  1
  P  P9  1  0.750000  0.472075  0.127648  1
  P  P10  1  0.250000  0.528102  0.868390  1
  P  P11  1  0.750000  0.093080  0.587587  1
  P  P12  1  0.250000  0.741930  0.081874  1
  P  P13  1  0.750000  0.258813  0.917351  1
  P  P14  1  0.750000  0.156679  0.285392  1
  P  P15  1  0.250000  0.841098  0.714258  1
  P  P16  1  0.250000  0.052015  0.100223  1
  P  P17  1  0.750000  0.948272  0.899181  1
  P  P18  1  0.250000  0.316744  0.687786  1
  P  P19  1  0.750000  0.686368  0.314083  1
  P  P20  1  0.250000  0.608049  0.565874  1
  P  P21  1  0.750000  0.388342  0.437623  1
  Ir  Ir22  1  0.250000  0.991118  0.575241  1
  Ir  Ir23  1  0.750000  0.009876  0.425256  1
  Ir  Ir24  1  0.250000  0.660175  0.725690  1
  Ir  Ir25  1  0.750000  0.335285  0.273466  1
  Ir  Ir26  1  0.250000  0.551101  0.046482  1
  Ir  Ir27  1  0.750000  0.449417  0.949292  1
  Ir  Ir28  1  0.250000  0.063863  0.274789  1
  Ir  Ir29  1  0.750000  0.935036  0.725080  1
  Ir  Ir30  1  0.250000  0.421928  0.525943  1
  Ir  Ir31  1  0.750000  0.578422  0.479864  1
  Ir  Ir32  1  0.250000  0.914943  0.997248  1
  Ir  Ir33  1  0.750000  0.085683  0.002056  1
  Ir  Ir34  1  0.250000  0.729978  0.399591  1
  Ir  Ir35  1  0.750000  0.271179  0.603046  1
  Ir  Ir36  1  0.250000  0.344917  0.854905  1
  Ir  Ir37  1  0.750000  0.658043  0.142301  1
