# generated using pymatgen
data_In4(SnRh)3
_symmetry_space_group_name_H-M   'P 1'
_cell_length_a   8.22235676
_cell_length_b   8.22752446
_cell_length_c   8.22235633
_cell_angle_alpha   109.86739608
_cell_angle_beta   109.94178919
_cell_angle_gamma   108.58290193
_symmetry_Int_Tables_number   1
_chemical_formula_structural   In4(SnRh)3
_chemical_formula_sum   'In8 Sn6 Rh6'
_cell_volume   428.25039230
_cell_formula_units_Z   2
loop_
 _symmetry_equiv_pos_site_id
 _symmetry_equiv_pos_as_xyz
  1  'x, y, z'
loop_
 _atom_site_type_symbol
 _atom_site_label
 _atom_site_symmetry_multiplicity
 _atom_site_fract_x
 _atom_site_fract_y
 _atom_site_fract_z
 _atom_site_occupancy
  In  In0  1  0.000083  0.999328  0.679244  1
  In  In1  1  0.320083  0.999328  0.999244  1
  In  In2  1  0.680905  0.678345  0.676664  1
  In  In3  1  0.001651  0.321552  0.999102  1
  In  In4  1  0.322450  0.321552  0.319901  1
  In  In5  1  0.001681  0.678345  0.997442  1
  In  In6  1  0.248151  0.746445  0.498294  1
  In  In7  1  0.748246  0.250554  0.502309  1
  Sn  Sn8  1  0.751326  0.499862  0.251624  1
  Sn  Sn9  1  0.248238  0.499862  0.748537  1
  Sn  Sn10  1  0.497297  0.751035  0.253739  1
  Sn  Sn11  1  0.502110  0.252611  0.750501  1
  Sn  Sn12  1  0.003223  0.000614  0.325039  1
  Sn  Sn13  1  0.675574  0.000614  0.997391  1
  Rh  Rh14  1  0.650454  0.999963  0.655059  1
  Rh  Rh15  1  0.654971  0.660501  0.005531  1
  Rh  Rh16  1  0.353249  0.352811  0.999563  1
  Rh  Rh17  1  0.000611  0.649092  0.648482  1
  Rh  Rh18  1  0.994795  0.337623  0.342828  1
  Rh  Rh19  1  0.344904  0.999963  0.349509  1
