# generated using pymatgen
data_Nd16Cd4PdRuPt2
_symmetry_space_group_name_H-M   'P 1'
_cell_length_a   10.02008904
_cell_length_b   10.02008900
_cell_length_c   10.02567584
_cell_angle_alpha   59.65765662
_cell_angle_beta   59.65765424
_cell_angle_gamma   59.67850322
_symmetry_Int_Tables_number   1
_chemical_formula_structural   Nd16Cd4PdRuPt2
_chemical_formula_sum   'Nd16 Cd4 Pd1 Ru1 Pt2'
_cell_volume   706.34964069
_cell_formula_units_Z   1
loop_
 _symmetry_equiv_pos_site_id
 _symmetry_equiv_pos_as_xyz
  1  'x, y, z'
loop_
 _atom_site_type_symbol
 _atom_site_label
 _atom_site_symmetry_multiplicity
 _atom_site_fract_x
 _atom_site_fract_y
 _atom_site_fract_z
 _atom_site_occupancy
  Nd  Nd0  1  0.351589  0.351589  0.350465  1
  Nd  Nd1  1  0.347712  0.347712  0.951553  1
  Nd  Nd2  1  0.348663  0.950082  0.347175  1
  Nd  Nd3  1  0.950082  0.348663  0.347175  1
  Nd  Nd4  1  0.815715  0.189506  0.188955  1
  Nd  Nd5  1  0.189573  0.807978  0.809462  1
  Nd  Nd6  1  0.189506  0.815715  0.188955  1
  Nd  Nd7  1  0.807978  0.189573  0.809462  1
  Nd  Nd8  1  0.189357  0.189357  0.817118  1
  Nd  Nd9  1  0.808952  0.808952  0.188992  1
  Nd  Nd10  1  0.936882  0.564754  0.563832  1
  Nd  Nd11  1  0.559504  0.937323  0.936965  1
  Nd  Nd12  1  0.564754  0.936882  0.563832  1
  Nd  Nd13  1  0.937323  0.559504  0.936965  1
  Nd  Nd14  1  0.563922  0.563922  0.936656  1
  Nd  Nd15  1  0.936804  0.936804  0.559355  1
  Cd  Cd16  1  0.579867  0.579867  0.579751  1
  Cd  Cd17  1  0.580392  0.580392  0.257987  1
  Cd  Cd18  1  0.580365  0.257959  0.580253  1
  Cd  Cd19  1  0.257959  0.580365  0.580253  1
  Pd  Pd20  1  0.144288  0.144288  0.571733  1
  Ru  Ru21  1  0.142858  0.142858  0.142816  1
  Pt  Pt22  1  0.144277  0.571677  0.145145  1
  Pt  Pt23  1  0.571677  0.144277  0.145145  1
