# generated using pymatgen
data_LiCe3In3RhAu
_symmetry_space_group_name_H-M   'P 1'
_cell_length_a   7.89813100
_cell_length_b   7.89813081
_cell_length_c   3.90672700
_cell_angle_alpha   90.00000000
_cell_angle_beta   90.00000000
_cell_angle_gamma   120.00001337
_symmetry_Int_Tables_number   1
_chemical_formula_structural   LiCe3In3RhAu
_chemical_formula_sum   'Li1 Ce3 In3 Rh1 Au1'
_cell_volume   211.05337047
_cell_formula_units_Z   1
loop_
 _symmetry_equiv_pos_site_id
 _symmetry_equiv_pos_as_xyz
  1  'x, y, z'
loop_
 _atom_site_type_symbol
 _atom_site_label
 _atom_site_symmetry_multiplicity
 _atom_site_fract_x
 _atom_site_fract_y
 _atom_site_fract_z
 _atom_site_occupancy
  Li  Li0  1  0.000000  0.000000  0.000000  1
  Ce  Ce1  1  0.980885  0.574788  0.000000  1
  Ce  Ce2  1  0.425212  0.406097  0.000000  1
  Ce  Ce3  1  0.593903  0.019115  0.000000  1
  In  In4  1  0.750925  0.751620  0.500000  1
  In  In5  1  0.000695  0.249075  0.500000  1
  In  In6  1  0.248380  0.999305  0.500000  1
  Rh  Rh7  1  0.666667  0.333333  0.500000  1
  Au  Au8  1  0.333333  0.666667  0.500000  1
