# generated using pymatgen
data_Li4HfSeBr12
_symmetry_space_group_name_H-M   'P 1'
_cell_length_a   6.61388900
_cell_length_b   6.61388798
_cell_length_c   13.23045100
_cell_angle_alpha   90.00000000
_cell_angle_beta   90.00000000
_cell_angle_gamma   120.00000011
_symmetry_Int_Tables_number   1
_chemical_formula_structural   Li4HfSeBr12
_chemical_formula_sum   'Li4 Hf1 Se1 Br12'
_cell_volume   501.20917979
_cell_formula_units_Z   1
loop_
 _symmetry_equiv_pos_site_id
 _symmetry_equiv_pos_as_xyz
  1  'x, y, z'
loop_
 _atom_site_type_symbol
 _atom_site_label
 _atom_site_symmetry_multiplicity
 _atom_site_fract_x
 _atom_site_fract_y
 _atom_site_fract_z
 _atom_site_occupancy
  Li  Li0  1  0.000000  0.000000  0.750000  1
  Li  Li1  1  0.666667  0.333333  0.750000  1
  Li  Li2  1  0.333333  0.666667  0.250000  1
  Li  Li3  1  0.000000  0.000000  0.250000  1
  Hf  Hf4  1  0.333333  0.666667  0.750000  1
  Se  Se5  1  0.666667  0.333333  0.250000  1
  Br  Br6  1  0.010268  0.343333  0.635193  1
  Br  Br7  1  0.333066  0.989732  0.635193  1
  Br  Br8  1  0.656667  0.666934  0.635193  1
  Br  Br9  1  0.656667  0.989732  0.864807  1
  Br  Br10  1  0.333066  0.343333  0.864807  1
  Br  Br11  1  0.010268  0.666934  0.864807  1
  Br  Br12  1  0.987527  0.333166  0.136324  1
  Br  Br13  1  0.345638  0.012473  0.136324  1
  Br  Br14  1  0.666834  0.654362  0.136324  1
  Br  Br15  1  0.666834  0.012473  0.363676  1
  Br  Br16  1  0.345638  0.333166  0.363676  1
  Br  Br17  1  0.987527  0.654362  0.363676  1
