# generated using pymatgen
data_Sm3CoSn6
_symmetry_space_group_name_H-M   'P 1'
_cell_length_a   8.59206095
_cell_length_b   8.59206122
_cell_length_c   13.26399300
_cell_angle_alpha   90.00000000
_cell_angle_beta   90.00000000
_cell_angle_gamma   148.87220796
_symmetry_Int_Tables_number   1
_chemical_formula_structural   Sm3CoSn6
_chemical_formula_sum   'Sm6 Co2 Sn12'
_cell_volume   506.19327257
_cell_formula_units_Z   2
loop_
 _symmetry_equiv_pos_site_id
 _symmetry_equiv_pos_as_xyz
  1  'x, y, z'
loop_
 _atom_site_type_symbol
 _atom_site_label
 _atom_site_symmetry_multiplicity
 _atom_site_fract_x
 _atom_site_fract_y
 _atom_site_fract_z
 _atom_site_occupancy
  Sm  Sm0  1  0.899091  0.100909  0.091923  1
  Sm  Sm1  1  0.100909  0.899091  0.591923  1
  Sm  Sm2  1  0.899834  0.100166  0.750000  1
  Sm  Sm3  1  0.100909  0.899091  0.908077  1
  Sm  Sm4  1  0.100166  0.899834  0.250000  1
  Sm  Sm5  1  0.899091  0.100909  0.408077  1
  Co  Co6  1  0.298941  0.701059  0.250000  1
  Co  Co7  1  0.701059  0.298941  0.750000  1
  Sn  Sn8  1  0.754426  0.245574  0.571738  1
  Sn  Sn9  1  0.429057  0.570943  0.577036  1
  Sn  Sn10  1  0.570943  0.429057  0.422964  1
  Sn  Sn11  1  0.735388  0.264612  0.250000  1
  Sn  Sn12  1  0.264612  0.735388  0.750000  1
  Sn  Sn13  1  0.245574  0.754426  0.071738  1
  Sn  Sn14  1  0.245574  0.754426  0.428262  1
  Sn  Sn15  1  0.570943  0.429057  0.077036  1
  Sn  Sn16  1  0.452376  0.547624  0.250000  1
  Sn  Sn17  1  0.547624  0.452376  0.750000  1
  Sn  Sn18  1  0.754426  0.245574  0.928262  1
  Sn  Sn19  1  0.429057  0.570943  0.922964  1
