# generated using pymatgen
data_Yb3Lu(Ir2O7)2
_symmetry_space_group_name_H-M   'P 1'
_cell_length_a   7.21602021
_cell_length_b   7.21601983
_cell_length_c   7.19711271
_cell_angle_alpha   59.91305866
_cell_angle_beta   59.91305613
_cell_angle_gamma   59.99999870
_symmetry_Int_Tables_number   1
_chemical_formula_structural   Yb3Lu(Ir2O7)2
_chemical_formula_sum   'Yb3 Lu1 Ir4 O14'
_cell_volume   264.64688494
_cell_formula_units_Z   1
loop_
 _symmetry_equiv_pos_site_id
 _symmetry_equiv_pos_as_xyz
  1  'x, y, z'
loop_
 _atom_site_type_symbol
 _atom_site_label
 _atom_site_symmetry_multiplicity
 _atom_site_fract_x
 _atom_site_fract_y
 _atom_site_fract_z
 _atom_site_occupancy
  Yb  Yb0  1  0.625000  0.625000  0.625000  1
  Yb  Yb1  1  0.625000  0.125000  0.625000  1
  Yb  Yb2  1  0.125000  0.625000  0.625000  1
  Lu  Lu3  1  0.625000  0.625000  0.125000  1
  Ir  Ir4  1  0.125000  0.125000  0.125000  1
  Ir  Ir5  1  0.625000  0.125000  0.125000  1
  Ir  Ir6  1  0.125000  0.125000  0.625000  1
  Ir  Ir7  1  0.125000  0.625000  0.125000  1
  O  O8  1  0.046098  0.454945  0.452859  1
  O  O9  1  0.795179  0.795179  0.195767  1
  O  O10  1  0.795179  0.213875  0.195767  1
  O  O11  1  0.454945  0.046098  0.452859  1
  O  O12  1  0.745027  0.745027  0.764920  1
  O  O13  1  0.036125  0.454821  0.054233  1
  O  O14  1  0.046098  0.046098  0.452859  1
  O  O15  1  0.213875  0.795179  0.195767  1
  O  O16  1  0.203902  0.203902  0.797141  1
  O  O17  1  0.795055  0.203902  0.797141  1
  O  O18  1  0.504973  0.504973  0.485080  1
  O  O19  1  0.454821  0.036125  0.054233  1
  O  O20  1  0.454821  0.454821  0.054233  1
  O  O21  1  0.203902  0.795055  0.797141  1
