# generated using pymatgen
data_Y8Ti11Si16W
_symmetry_space_group_name_H-M   'P 1'
_cell_length_a   7.04549835
_cell_length_b   7.04549901
_cell_length_c   12.95638246
_cell_angle_alpha   90.00248562
_cell_angle_beta   89.99751778
_cell_angle_gamma   90.05338317
_symmetry_Int_Tables_number   1
_chemical_formula_structural   Y8Ti11Si16W
_chemical_formula_sum   'Y8 Ti11 Si16 W1'
_cell_volume   643.14225733
_cell_formula_units_Z   1
loop_
 _symmetry_equiv_pos_site_id
 _symmetry_equiv_pos_as_xyz
  1  'x, y, z'
loop_
 _atom_site_type_symbol
 _atom_site_label
 _atom_site_symmetry_multiplicity
 _atom_site_fract_x
 _atom_site_fract_y
 _atom_site_fract_z
 _atom_site_occupancy
  Y  Y0  1  0.996950  0.659892  0.032907  1
  Y  Y1  1  0.001347  0.341481  0.532829  1
  Y  Y2  1  0.659892  0.996950  0.967093  1
  Y  Y3  1  0.160203  0.502746  0.782536  1
  Y  Y4  1  0.840147  0.498946  0.284431  1
  Y  Y5  1  0.502746  0.160203  0.217464  1
  Y  Y6  1  0.498946  0.840147  0.715569  1
  Y  Y7  1  0.341481  0.001347  0.467171  1
  Ti  Ti8  1  0.348415  0.508707  0.375367  1
  Ti  Ti9  1  0.845871  0.990181  0.377037  1
  Ti  Ti10  1  0.008221  0.152157  0.123906  1
  Ti  Ti11  1  0.990181  0.845871  0.622963  1
  Ti  Ti12  1  0.508707  0.348415  0.624633  1
  Ti  Ti13  1  0.152157  0.008221  0.876094  1
  Ti  Ti14  1  0.826108  0.172694  0.749576  1
  Ti  Ti15  1  0.172694  0.826108  0.250424  1
  Ti  Ti16  1  0.327039  0.327039  0.000000  1
  Ti  Ti17  1  0.492199  0.651673  0.126669  1
  Ti  Ti18  1  0.651673  0.492199  0.873331  1
  Si  Si19  1  0.046103  0.709392  0.435250  1
  Si  Si20  1  0.952646  0.291001  0.934987  1
  Si  Si21  1  0.709392  0.046103  0.564750  1
  Si  Si22  1  0.208542  0.453626  0.185161  1
  Si  Si23  1  0.791246  0.547305  0.684445  1
  Si  Si24  1  0.453626  0.208542  0.814839  1
  Si  Si25  1  0.547305  0.791246  0.315555  1
  Si  Si26  1  0.291001  0.952646  0.065013  1
  Si  Si27  1  0.797966  0.870182  0.184896  1
  Si  Si28  1  0.299430  0.629356  0.565261  1
  Si  Si29  1  0.702409  0.370350  0.065283  1
  Si  Si30  1  0.629356  0.299430  0.434739  1
  Si  Si31  1  0.370350  0.702409  0.934717  1
  Si  Si32  1  0.129651  0.202160  0.315216  1
  Si  Si33  1  0.202160  0.129651  0.684784  1
  Si  Si34  1  0.870182  0.797966  0.815104  1
  W  W35  1  0.673653  0.673653  0.500000  1
