# generated using pymatgen
data_LiNp2Ge3
_symmetry_space_group_name_H-M   'P 1'
_cell_length_a   5.66655300
_cell_length_b   5.66655338
_cell_length_c   7.91045500
_cell_angle_alpha   90.00000000
_cell_angle_beta   90.00000000
_cell_angle_gamma   120.00000362
_symmetry_Int_Tables_number   1
_chemical_formula_structural   LiNp2Ge3
_chemical_formula_sum   'Li2 Np4 Ge6'
_cell_volume   219.97332507
_cell_formula_units_Z   2
loop_
 _symmetry_equiv_pos_site_id
 _symmetry_equiv_pos_as_xyz
  1  'x, y, z'
loop_
 _atom_site_type_symbol
 _atom_site_label
 _atom_site_symmetry_multiplicity
 _atom_site_fract_x
 _atom_site_fract_y
 _atom_site_fract_z
 _atom_site_occupancy
  Li  Li0  1  0.000000  0.000000  0.500000  1
  Li  Li1  1  0.000000  0.000000  0.000000  1
  Np  Np2  1  0.333333  0.666667  0.400283  1
  Np  Np3  1  0.666667  0.333333  0.900283  1
  Np  Np4  1  0.666667  0.333333  0.599717  1
  Np  Np5  1  0.333333  0.666667  0.099717  1
  Ge  Ge6  1  0.177830  0.822170  0.750000  1
  Ge  Ge7  1  0.355662  0.177830  0.250000  1
  Ge  Ge8  1  0.822170  0.177830  0.250000  1
  Ge  Ge9  1  0.644338  0.822170  0.750000  1
  Ge  Ge10  1  0.177830  0.355662  0.750000  1
  Ge  Ge11  1  0.822170  0.644338  0.250000  1
