# generated using pymatgen
data_DyEr(GaHg)2
_symmetry_space_group_name_H-M   'P 1'
_cell_length_a   4.61649900
_cell_length_b   4.61649976
_cell_length_c   7.29497800
_cell_angle_alpha   90.00000000
_cell_angle_beta   90.00000000
_cell_angle_gamma   120.00000172
_symmetry_Int_Tables_number   1
_chemical_formula_structural   DyEr(GaHg)2
_chemical_formula_sum   'Dy1 Er1 Ga2 Hg2'
_cell_volume   134.64188211
_cell_formula_units_Z   1
loop_
 _symmetry_equiv_pos_site_id
 _symmetry_equiv_pos_as_xyz
  1  'x, y, z'
loop_
 _atom_site_type_symbol
 _atom_site_label
 _atom_site_symmetry_multiplicity
 _atom_site_fract_x
 _atom_site_fract_y
 _atom_site_fract_z
 _atom_site_occupancy
  Dy  Dy0  1  0.000000  0.000000  0.495970  1
  Er  Er1  1  0.000000  0.000000  0.996209  1
  Ga  Ga2  1  0.666667  0.333333  0.790551  1
  Ga  Ga3  1  0.333333  0.666667  0.288470  1
  Hg  Hg4  1  0.666667  0.333333  0.206245  1
  Hg  Hg5  1  0.333333  0.666667  0.710156  1
