# generated using pymatgen
data_CuSi4Ni7(W6C)2
_symmetry_space_group_name_H-M   'P 1'
_cell_length_a   7.77584672
_cell_length_b   7.77584644
_cell_length_c   7.75684265
_cell_angle_alpha   59.91892451
_cell_angle_beta   59.91892342
_cell_angle_gamma   59.99999841
_symmetry_Int_Tables_number   1
_chemical_formula_structural   CuSi4Ni7(W6C)2
_chemical_formula_sum   'Cu1 Si4 Ni7 W12 C2'
_cell_volume   331.23181535
_cell_formula_units_Z   1
loop_
 _symmetry_equiv_pos_site_id
 _symmetry_equiv_pos_as_xyz
  1  'x, y, z'
loop_
 _atom_site_type_symbol
 _atom_site_label
 _atom_site_symmetry_multiplicity
 _atom_site_fract_x
 _atom_site_fract_y
 _atom_site_fract_z
 _atom_site_occupancy
  Cu  Cu0  1  0.419348  0.419348  0.741954  1
  Si  Si1  1  0.624640  0.624640  0.126079  1
  Si  Si2  1  0.627410  0.121783  0.623396  1
  Si  Si3  1  0.121783  0.627410  0.623396  1
  Si  Si4  1  0.627410  0.627410  0.623396  1
  Ni  Ni5  1  0.418517  0.742995  0.419969  1
  Ni  Ni6  1  0.742995  0.418517  0.419969  1
  Ni  Ni7  1  0.418517  0.418517  0.419969  1
  Ni  Ni8  1  0.831153  0.831153  0.506542  1
  Ni  Ni9  1  0.830917  0.506976  0.831191  1
  Ni  Ni10  1  0.506976  0.830917  0.831191  1
  Ni  Ni11  1  0.830917  0.830917  0.831191  1
  W  W12  1  0.055518  0.055518  0.444641  1
  W  W13  1  0.444323  0.055518  0.444641  1
  W  W14  1  0.055518  0.444323  0.444641  1
  W  W15  1  0.445224  0.445224  0.056306  1
  W  W16  1  0.053245  0.445224  0.056306  1
  W  W17  1  0.445224  0.053245  0.056306  1
  W  W18  1  0.194215  0.194215  0.805196  1
  W  W19  1  0.806374  0.194215  0.805196  1
  W  W20  1  0.194215  0.806374  0.805196  1
  W  W21  1  0.805044  0.805044  0.194499  1
  W  W22  1  0.195412  0.805044  0.194499  1
  W  W23  1  0.805044  0.195412  0.194499  1
  C  C24  1  0.250293  0.250293  0.249121  1
  C  C25  1  0.999765  0.999765  0.000705  1
