# generated using pymatgen
data_Li2Co2Ni2P7Ru8
_symmetry_space_group_name_H-M   'P 1'
_cell_length_a   9.24608803
_cell_length_b   9.27911674
_cell_length_c   3.72192800
_cell_angle_alpha   90.00000000
_cell_angle_beta   90.00000000
_cell_angle_gamma   119.68328270
_symmetry_Int_Tables_number   1
_chemical_formula_structural   Li2Co2Ni2P7Ru8
_chemical_formula_sum   'Li2 Co2 Ni2 P7 Ru8'
_cell_volume   277.42172267
_cell_formula_units_Z   1
loop_
 _symmetry_equiv_pos_site_id
 _symmetry_equiv_pos_as_xyz
  1  'x, y, z'
loop_
 _atom_site_type_symbol
 _atom_site_label
 _atom_site_symmetry_multiplicity
 _atom_site_fract_x
 _atom_site_fract_y
 _atom_site_fract_z
 _atom_site_occupancy
  Li  Li0  1  0.002559  0.999878  0.000000  1
  Li  Li1  1  0.331659  0.666077  0.500000  1
  Co  Co2  1  0.390731  0.220740  0.000000  1
  Co  Co3  1  0.823872  0.599240  0.000000  1
  Ni  Ni4  1  0.094519  0.398646  0.000000  1
  Ni  Ni5  1  0.785116  0.176328  0.000000  1
  P  P6  1  0.552356  0.916565  0.000000  1
  P  P7  1  0.364526  0.447767  0.000000  1
  P  P8  1  0.079217  0.633141  0.000000  1
  P  P9  1  0.950704  0.210465  0.500000  1
  P  P10  1  0.261648  0.050778  0.500000  1
  P  P11  1  0.783341  0.733533  0.500000  1
  P  P12  1  0.663875  0.331668  0.000000  1
  Ru  Ru13  1  0.302618  0.906472  0.000000  1
  Ru  Ru14  1  0.603188  0.695026  0.000000  1
  Ru  Ru15  1  0.719186  0.948424  0.500000  1
  Ru  Ru16  1  0.227154  0.290008  0.500000  1
  Ru  Ru17  1  0.049946  0.771824  0.500000  1
  Ru  Ru18  1  0.547554  0.133370  0.500000  1
  Ru  Ru19  1  0.583069  0.448759  0.500000  1
  Ru  Ru20  1  0.883164  0.421295  0.500000  1
