# generated using pymatgen
data_Sc2Co3P7(IrRu2)3
_symmetry_space_group_name_H-M   'P 1'
_cell_length_a   9.29653300
_cell_length_b   9.29653347
_cell_length_c   3.79755400
_cell_angle_alpha   90.00000000
_cell_angle_beta   90.00000000
_cell_angle_gamma   120.00000188
_symmetry_Int_Tables_number   1
_chemical_formula_structural   Sc2Co3P7(IrRu2)3
_chemical_formula_sum   'Sc2 Co3 P7 Ir3 Ru6'
_cell_volume   284.23439737
_cell_formula_units_Z   1
loop_
 _symmetry_equiv_pos_site_id
 _symmetry_equiv_pos_as_xyz
  1  'x, y, z'
loop_
 _atom_site_type_symbol
 _atom_site_label
 _atom_site_symmetry_multiplicity
 _atom_site_fract_x
 _atom_site_fract_y
 _atom_site_fract_z
 _atom_site_occupancy
  Sc  Sc0  1  0.666667  0.333333  0.500000  1
  Sc  Sc1  1  0.333333  0.666667  0.000000  1
  Co  Co2  1  0.725819  0.886233  0.000000  1
  Co  Co3  1  0.113767  0.839585  0.000000  1
  Co  Co4  1  0.160415  0.274181  0.000000  1
  P  P5  1  0.595554  0.720649  0.500000  1
  P  P6  1  0.000000  0.000000  0.000000  1
  P  P7  1  0.279351  0.874904  0.500000  1
  P  P8  1  0.125096  0.404446  0.500000  1
  P  P9  1  0.891888  0.591250  0.000000  1
  P  P10  1  0.408750  0.300639  0.000000  1
  P  P11  1  0.699361  0.108112  0.000000  1
  Ir  Ir12  1  0.432671  0.070636  0.000000  1
  Ir  Ir13  1  0.929364  0.362036  0.000000  1
  Ir  Ir14  1  0.637964  0.567329  0.000000  1
  Ru  Ru15  1  0.558356  0.946449  0.500000  1
  Ru  Ru16  1  0.388095  0.441644  0.500000  1
  Ru  Ru17  1  0.913781  0.125883  0.500000  1
  Ru  Ru18  1  0.212102  0.086219  0.500000  1
  Ru  Ru19  1  0.874117  0.787898  0.500000  1
  Ru  Ru20  1  0.053551  0.611905  0.500000  1
