# generated using pymatgen
data_Dy3Y3Ho14Zn3Cd3Ru2
_symmetry_space_group_name_H-M   'P 1'
_cell_length_a   9.52106208
_cell_length_b   9.52106251
_cell_length_c   9.69565300
_cell_angle_alpha   90.00000000
_cell_angle_beta   90.00000000
_cell_angle_gamma   120.01455630
_symmetry_Int_Tables_number   1
_chemical_formula_structural   Dy3Y3Ho14Zn3Cd3Ru2
_chemical_formula_sum   'Dy3 Y3 Ho14 Zn3 Cd3 Ru2'
_cell_volume   761.05280059
_cell_formula_units_Z   1
loop_
 _symmetry_equiv_pos_site_id
 _symmetry_equiv_pos_as_xyz
  1  'x, y, z'
loop_
 _atom_site_type_symbol
 _atom_site_label
 _atom_site_symmetry_multiplicity
 _atom_site_fract_x
 _atom_site_fract_y
 _atom_site_fract_z
 _atom_site_occupancy
  Dy  Dy0  1  0.999977  0.000023  0.474510  1
  Dy  Dy1  1  0.999977  0.000023  0.025490  1
  Dy  Dy2  1  0.541435  0.458565  0.250000  1
  Y  Y3  1  0.459139  0.540861  0.750000  1
  Y  Y4  1  0.459149  0.918280  0.750000  1
  Y  Y5  1  0.081720  0.540851  0.750000  1
  Ho  Ho6  1  0.208273  0.791727  0.438468  1
  Ho  Ho7  1  0.208204  0.416546  0.438500  1
  Ho  Ho8  1  0.583454  0.791796  0.438500  1
  Ho  Ho9  1  0.790691  0.209309  0.557181  1
  Ho  Ho10  1  0.790733  0.581371  0.557242  1
  Ho  Ho11  1  0.418629  0.209267  0.557242  1
  Ho  Ho12  1  0.790691  0.209309  0.942819  1
  Ho  Ho13  1  0.790733  0.581371  0.942758  1
  Ho  Ho14  1  0.418629  0.209267  0.942758  1
  Ho  Ho15  1  0.208273  0.791727  0.061532  1
  Ho  Ho16  1  0.208204  0.416546  0.061500  1
  Ho  Ho17  1  0.583454  0.791796  0.061500  1
  Ho  Ho18  1  0.541457  0.082764  0.250000  1
  Ho  Ho19  1  0.917236  0.458543  0.250000  1
  Zn  Zn20  1  0.878262  0.121738  0.250000  1
  Zn  Zn21  1  0.878380  0.756638  0.250000  1
  Zn  Zn22  1  0.243362  0.121620  0.250000  1
  Cd  Cd23  1  0.110352  0.889648  0.750000  1
  Cd  Cd24  1  0.110341  0.220718  0.750000  1
  Cd  Cd25  1  0.779282  0.889659  0.750000  1
  Ru  Ru26  1  0.333308  0.666692  0.250000  1
  Ru  Ru27  1  0.666653  0.333347  0.750000  1
