# generated using pymatgen
data_Ce7(GdTc2)3
_symmetry_space_group_name_H-M   'P 1'
_cell_length_a   7.93760500
_cell_length_b   7.93760425
_cell_length_c   6.89152500
_cell_angle_alpha   90.00000000
_cell_angle_beta   90.00000000
_cell_angle_gamma   119.99999895
_symmetry_Int_Tables_number   1
_chemical_formula_structural   Ce7(GdTc2)3
_chemical_formula_sum   'Ce7 Gd3 Tc6'
_cell_volume   376.03208074
_cell_formula_units_Z   1
loop_
 _symmetry_equiv_pos_site_id
 _symmetry_equiv_pos_as_xyz
  1  'x, y, z'
loop_
 _atom_site_type_symbol
 _atom_site_label
 _atom_site_symmetry_multiplicity
 _atom_site_fract_x
 _atom_site_fract_y
 _atom_site_fract_z
 _atom_site_occupancy
  Ce  Ce0  1  0.666667  0.333333  0.500000  1
  Ce  Ce1  1  0.762296  0.766480  0.748727  1
  Ce  Ce2  1  0.233520  0.995815  0.748727  1
  Ce  Ce3  1  0.004185  0.237704  0.748727  1
  Ce  Ce4  1  0.233520  0.237704  0.251273  1
  Ce  Ce5  1  0.762296  0.995815  0.251273  1
  Ce  Ce6  1  0.004185  0.766480  0.251273  1
  Gd  Gd7  1  0.666667  0.333333  0.000000  1
  Gd  Gd8  1  0.333333  0.666667  0.000000  1
  Gd  Gd9  1  0.333333  0.666667  0.500000  1
  Tc  Tc10  1  0.366692  0.362527  0.745502  1
  Tc  Tc11  1  0.637473  0.004164  0.745502  1
  Tc  Tc12  1  0.995836  0.633308  0.745502  1
  Tc  Tc13  1  0.637473  0.633308  0.254498  1
  Tc  Tc14  1  0.366692  0.004164  0.254498  1
  Tc  Tc15  1  0.995836  0.362527  0.254498  1
