# generated using pymatgen
data_Dy6Ti7Ga9Ir8
_symmetry_space_group_name_H-M   'P 1'
_cell_length_a   9.07128297
_cell_length_b   9.07128357
_cell_length_c   9.07128400
_cell_angle_alpha   60.09172023
_cell_angle_beta   60.09171803
_cell_angle_gamma   60.09172715
_symmetry_Int_Tables_number   1
_chemical_formula_structural   Dy6Ti7Ga9Ir8
_chemical_formula_sum   'Dy6 Ti7 Ga9 Ir8'
_cell_volume   528.92355268
_cell_formula_units_Z   1
loop_
 _symmetry_equiv_pos_site_id
 _symmetry_equiv_pos_as_xyz
  1  'x, y, z'
loop_
 _atom_site_type_symbol
 _atom_site_label
 _atom_site_symmetry_multiplicity
 _atom_site_fract_x
 _atom_site_fract_y
 _atom_site_fract_z
 _atom_site_occupancy
  Dy  Dy0  1  0.212457  0.212457  0.789618  1
  Dy  Dy1  1  0.789618  0.212457  0.212457  1
  Dy  Dy2  1  0.212457  0.789618  0.212457  1
  Dy  Dy3  1  0.792075  0.792075  0.197843  1
  Dy  Dy4  1  0.197843  0.792075  0.792075  1
  Dy  Dy5  1  0.792075  0.197843  0.792075  1
  Ti  Ti6  1  0.377398  0.377398  0.377398  1
  Ti  Ti7  1  0.379547  0.866036  0.379547  1
  Ti  Ti8  1  0.866036  0.379547  0.379547  1
  Ti  Ti9  1  0.379547  0.379547  0.866036  1
  Ti  Ti10  1  0.830939  0.508597  0.830939  1
  Ti  Ti11  1  0.508597  0.830939  0.830939  1
  Ti  Ti12  1  0.830939  0.830939  0.508597  1
  Ga  Ga13  1  0.169328  0.169328  0.169328  1
  Ga  Ga14  1  0.168586  0.496984  0.168586  1
  Ga  Ga15  1  0.496984  0.168586  0.168586  1
  Ga  Ga16  1  0.168586  0.168586  0.496984  1
  Ga  Ga17  1  0.619095  0.619095  0.619095  1
  Ga  Ga18  1  0.615559  0.146827  0.615559  1
  Ga  Ga19  1  0.146827  0.615559  0.615559  1
  Ga  Ga20  1  0.615559  0.615559  0.146827  1
  Ga  Ga21  1  0.826217  0.826217  0.826217  1
  Ir  Ir22  1  0.001499  0.001499  0.492869  1
  Ir  Ir23  1  0.492869  0.001499  0.001499  1
  Ir  Ir24  1  0.001499  0.492869  0.001499  1
  Ir  Ir25  1  0.503520  0.503520  0.997112  1
  Ir  Ir26  1  0.997112  0.503520  0.503520  1
  Ir  Ir27  1  0.503520  0.997112  0.503520  1
  Ir  Ir28  1  0.500815  0.500815  0.500815  1
  Ir  Ir29  1  0.002889  0.002889  0.002889  1
