# generated using pymatgen
data_Th3Al3ZnCoRh
_symmetry_space_group_name_H-M   'P 1'
_cell_length_a   7.11088800
_cell_length_b   7.11088730
_cell_length_c   4.22216100
_cell_angle_alpha   90.00000000
_cell_angle_beta   90.00000000
_cell_angle_gamma   119.99998464
_symmetry_Int_Tables_number   1
_chemical_formula_structural   Th3Al3ZnCoRh
_chemical_formula_sum   'Th3 Al3 Zn1 Co1 Rh1'
_cell_volume   184.88987244
_cell_formula_units_Z   1
loop_
 _symmetry_equiv_pos_site_id
 _symmetry_equiv_pos_as_xyz
  1  'x, y, z'
loop_
 _atom_site_type_symbol
 _atom_site_label
 _atom_site_symmetry_multiplicity
 _atom_site_fract_x
 _atom_site_fract_y
 _atom_site_fract_z
 _atom_site_occupancy
  Th  Th0  1  0.016523  0.429033  0.500000  1
  Th  Th1  1  0.570967  0.587490  0.500000  1
  Th  Th2  1  0.412510  0.983477  0.500000  1
  Al  Al3  1  0.007949  0.771715  0.000000  1
  Al  Al4  1  0.228285  0.236234  0.000000  1
  Al  Al5  1  0.763766  0.992051  0.000000  1
  Zn  Zn6  1  0.666667  0.333333  0.000000  1
  Co  Co7  1  0.333333  0.666667  0.000000  1
  Rh  Rh8  1  0.000000  0.000000  0.500000  1
