# generated using pymatgen
data_TlCr(SeO3)2
_symmetry_space_group_name_H-M   'P 1'
_cell_length_a   5.51282900
_cell_length_b   8.34410004
_cell_length_c   13.21201200
_cell_angle_alpha   89.99419084
_cell_angle_beta   90.00047809
_cell_angle_gamma   89.99967045
_symmetry_Int_Tables_number   1
_chemical_formula_structural   TlCr(SeO3)2
_chemical_formula_sum   'Tl4 Cr4 Se8 O24'
_cell_volume   607.74722041
_cell_formula_units_Z   4
loop_
 _symmetry_equiv_pos_site_id
 _symmetry_equiv_pos_as_xyz
  1  'x, y, z'
loop_
 _atom_site_type_symbol
 _atom_site_label
 _atom_site_symmetry_multiplicity
 _atom_site_fract_x
 _atom_site_fract_y
 _atom_site_fract_z
 _atom_site_occupancy
  Tl  Tl0  1  0.250040  0.513606  0.877406  1
  Tl  Tl1  1  0.250069  0.986426  0.377388  1
  Tl  Tl2  1  0.750016  0.486452  0.122626  1
  Tl  Tl3  1  0.750025  0.013516  0.622629  1
  Cr  Cr4  1  0.250015  0.809003  0.106977  1
  Cr  Cr5  1  0.749816  0.308963  0.393083  1
  Cr  Cr6  1  0.249920  0.690936  0.606900  1
  Cr  Cr7  1  0.750168  0.191037  0.893064  1
  Se  Se8  1  0.750052  0.017442  0.200135  1
  Se  Se9  1  0.250012  0.982527  0.799900  1
  Se  Se10  1  0.249949  0.517441  0.299878  1
  Se  Se11  1  0.750059  0.798945  0.942848  1
  Se  Se12  1  0.750026  0.701120  0.442785  1
  Se  Se13  1  0.249997  0.201181  0.057178  1
  Se  Se14  1  0.750039  0.482511  0.700078  1
  Se  Se15  1  0.249926  0.298906  0.557164  1
  O  O16  1  0.508374  0.615940  0.705562  1
  O  O17  1  0.008316  0.383996  0.294404  1
  O  O18  1  0.250043  0.004258  0.021681  1
  O  O19  1  0.493870  0.221309  0.490125  1
  O  O20  1  0.250033  0.581823  0.174474  1
  O  O21  1  0.005976  0.221332  0.490083  1
  O  O22  1  0.991653  0.884003  0.205658  1
  O  O23  1  0.249970  0.495828  0.521596  1
  O  O24  1  0.991638  0.615935  0.705555  1
  O  O25  1  0.506062  0.778635  0.509879  1
  O  O26  1  0.749975  0.504201  0.478319  1
  O  O27  1  0.993970  0.721390  0.009915  1
  O  O28  1  0.008372  0.116003  0.794388  1
  O  O29  1  0.249995  0.918167  0.674512  1
  O  O30  1  0.508443  0.883952  0.205624  1
  O  O31  1  0.491540  0.383995  0.294375  1
  O  O32  1  0.993907  0.778639  0.509873  1
  O  O33  1  0.491627  0.115993  0.794382  1
  O  O34  1  0.506089  0.721403  0.009929  1
  O  O35  1  0.750014  0.995875  0.978369  1
  O  O36  1  0.006061  0.278674  0.990092  1
  O  O37  1  0.493903  0.278685  0.990121  1
  O  O38  1  0.750012  0.418178  0.825496  1
  O  O39  1  0.750024  0.081773  0.325549  1
