# generated using pymatgen
data_Ho4TmLu3Au4
_symmetry_space_group_name_H-M   'P 1'
_cell_length_a   4.86834700
_cell_length_b   7.07876822
_cell_length_c   8.84999999
_cell_angle_alpha   90.26274118
_cell_angle_beta   90.00000000
_cell_angle_gamma   90.00000000
_symmetry_Int_Tables_number   1
_chemical_formula_structural   Ho4TmLu3Au4
_chemical_formula_sum   'Ho4 Tm1 Lu3 Au4'
_cell_volume   304.98460828
_cell_formula_units_Z   1
loop_
 _symmetry_equiv_pos_site_id
 _symmetry_equiv_pos_as_xyz
  1  'x, y, z'
loop_
 _atom_site_type_symbol
 _atom_site_label
 _atom_site_symmetry_multiplicity
 _atom_site_fract_x
 _atom_site_fract_y
 _atom_site_fract_z
 _atom_site_occupancy
  Ho  Ho0  1  0.750000  0.649047  0.421976  1
  Ho  Ho1  1  0.250000  0.482807  0.177270  1
  Ho  Ho2  1  0.250000  0.985176  0.322601  1
  Ho  Ho3  1  0.750000  0.516344  0.822194  1
  Tm  Tm4  1  0.750000  0.017313  0.678235  1
  Lu  Lu5  1  0.250000  0.851482  0.922432  1
  Lu  Lu6  1  0.250000  0.351013  0.578405  1
  Lu  Lu7  1  0.750000  0.148853  0.076512  1
  Au  Au8  1  0.250000  0.253281  0.897344  1
  Au  Au9  1  0.250000  0.755656  0.604721  1
  Au  Au10  1  0.750000  0.746537  0.099755  1
  Au  Au11  1  0.750000  0.242491  0.398555  1
