# generated using pymatgen
data_Hf3Np(GaRh5)2
_symmetry_space_group_name_H-M   'P 1'
_cell_length_a   4.07694900
_cell_length_b   5.62061538
_cell_length_c   10.98470073
_cell_angle_alpha   89.39424736
_cell_angle_beta   90.00000000
_cell_angle_gamma   90.00000000
_symmetry_Int_Tables_number   1
_chemical_formula_structural   Hf3Np(GaRh5)2
_chemical_formula_sum   'Hf3 Np1 Ga2 Rh10'
_cell_volume   251.69993530
_cell_formula_units_Z   1
loop_
 _symmetry_equiv_pos_site_id
 _symmetry_equiv_pos_as_xyz
  1  'x, y, z'
loop_
 _atom_site_type_symbol
 _atom_site_label
 _atom_site_symmetry_multiplicity
 _atom_site_fract_x
 _atom_site_fract_y
 _atom_site_fract_z
 _atom_site_occupancy
  Hf  Hf0  1  0.500000  0.810081  0.355807  1
  Hf  Hf1  1  0.500000  0.685924  0.867019  1
  Hf  Hf2  1  0.500000  0.311059  0.138598  1
  Np  Np3  1  0.500000  0.193204  0.637444  1
  Ga  Ga4  1  0.000000  0.513294  0.494361  1
  Ga  Ga5  1  0.000000  0.999742  0.002917  1
  Rh  Rh6  1  0.500000  0.190999  0.888394  1
  Rh  Rh7  1  0.500000  0.802839  0.110090  1
  Rh  Rh8  1  0.500000  0.702623  0.611209  1
  Rh  Rh9  1  0.500000  0.297985  0.393274  1
  Rh  Rh10  1  0.000000  0.430525  0.741546  1
  Rh  Rh11  1  0.000000  0.558415  0.255089  1
  Rh  Rh12  1  0.000000  0.003969  0.503108  1
  Rh  Rh13  1  0.000000  0.499845  0.000387  1
  Rh  Rh14  1  0.000000  0.059636  0.244602  1
  Rh  Rh15  1  0.000000  0.939860  0.756155  1
