# generated using pymatgen
data_Tb2Ho8Cd7InPd4
_symmetry_space_group_name_H-M   'P 1'
_cell_length_a   3.62586900
_cell_length_b   7.97452275
_cell_length_c   18.37967901
_cell_angle_alpha   89.73915843
_cell_angle_beta   90.00000000
_cell_angle_gamma   90.00000000
_symmetry_Int_Tables_number   1
_chemical_formula_structural   Tb2Ho8Cd7InPd4
_chemical_formula_sum   'Tb2 Ho8 Cd7 In1 Pd4'
_cell_volume   531.43509685
_cell_formula_units_Z   1
loop_
 _symmetry_equiv_pos_site_id
 _symmetry_equiv_pos_as_xyz
  1  'x, y, z'
loop_
 _atom_site_type_symbol
 _atom_site_label
 _atom_site_symmetry_multiplicity
 _atom_site_fract_x
 _atom_site_fract_y
 _atom_site_fract_z
 _atom_site_occupancy
  Tb  Tb0  1  0.000000  0.498314  0.500406  1
  Tb  Tb1  1  0.000000  0.001503  0.999561  1
  Ho  Ho2  1  0.000000  0.739702  0.281010  1
  Ho  Ho3  1  0.000000  0.260274  0.718705  1
  Ho  Ho4  1  0.000000  0.758088  0.780712  1
  Ho  Ho5  1  0.000000  0.241034  0.219235  1
  Ho  Ho6  1  0.000000  0.613728  0.083950  1
  Ho  Ho7  1  0.000000  0.387130  0.916260  1
  Ho  Ho8  1  0.000000  0.886484  0.583574  1
  Ho  Ho9  1  0.000000  0.113593  0.416127  1
  Cd  Cd10  1  0.500000  0.713786  0.931788  1
  Cd  Cd11  1  0.500000  0.287036  0.068588  1
  Cd  Cd12  1  0.500000  0.785312  0.431667  1
  Cd  Cd13  1  0.500000  0.212965  0.568716  1
  Cd  Cd14  1  0.500000  0.577090  0.648131  1
  Cd  Cd15  1  0.500000  0.424126  0.351678  1
  Cd  Cd16  1  0.500000  0.924110  0.148452  1
  In  In17  1  0.500000  0.075765  0.850731  1
  Pd  Pd18  1  0.500000  0.525727  0.195790  1
  Pd  Pd19  1  0.500000  0.473994  0.804348  1
  Pd  Pd20  1  0.500000  0.974360  0.696056  1
  Pd  Pd21  1  0.500000  0.025879  0.304517  1
