# generated using pymatgen
data_HoLu2Ga8Ru3Pb
_symmetry_space_group_name_H-M   'P 1'
_cell_length_a   6.41512200
_cell_length_b   6.46099600
_cell_length_c   6.46099600
_cell_angle_alpha   90.00000000
_cell_angle_beta   90.00000000
_cell_angle_gamma   90.00000000
_symmetry_Int_Tables_number   1
_chemical_formula_structural   HoLu2Ga8Ru3Pb
_chemical_formula_sum   'Ho1 Lu2 Ga8 Ru3 Pb1'
_cell_volume   267.79586346
_cell_formula_units_Z   1
loop_
 _symmetry_equiv_pos_site_id
 _symmetry_equiv_pos_as_xyz
  1  'x, y, z'
loop_
 _atom_site_type_symbol
 _atom_site_label
 _atom_site_symmetry_multiplicity
 _atom_site_fract_x
 _atom_site_fract_y
 _atom_site_fract_z
 _atom_site_occupancy
  Ho  Ho0  1  0.000000  0.500000  0.500000  1
  Lu  Lu1  1  0.500000  0.500000  0.000000  1
  Lu  Lu2  1  0.500000  0.000000  0.500000  1
  Ga  Ga3  1  0.210197  0.208437  0.791563  1
  Ga  Ga4  1  0.210197  0.791563  0.208437  1
  Ga  Ga5  1  0.789803  0.208437  0.208437  1
  Ga  Ga6  1  0.789803  0.791563  0.791563  1
  Ga  Ga7  1  0.789803  0.791563  0.208437  1
  Ga  Ga8  1  0.789803  0.208437  0.791563  1
  Ga  Ga9  1  0.210197  0.791563  0.791563  1
  Ga  Ga10  1  0.210197  0.208437  0.208437  1
  Ru  Ru11  1  0.000000  0.000000  0.500000  1
  Ru  Ru12  1  0.000000  0.500000  0.000000  1
  Ru  Ru13  1  0.500000  0.000000  0.000000  1
  Pb  Pb14  1  0.500000  0.500000  0.500000  1
