# generated using pymatgen
data_Tb20Bi8OsPt3
_symmetry_space_group_name_H-M   'P 1'
_cell_length_a   8.08303221
_cell_length_b   9.06407100
_cell_length_c   12.49024634
_cell_angle_alpha   90.00000000
_cell_angle_beta   90.11046547
_cell_angle_gamma   90.00000000
_symmetry_Int_Tables_number   1
_chemical_formula_structural   Tb20Bi8OsPt3
_chemical_formula_sum   'Tb20 Bi8 Os1 Pt3'
_cell_volume   915.09841908
_cell_formula_units_Z   1
loop_
 _symmetry_equiv_pos_site_id
 _symmetry_equiv_pos_as_xyz
  1  'x, y, z'
loop_
 _atom_site_type_symbol
 _atom_site_label
 _atom_site_symmetry_multiplicity
 _atom_site_fract_x
 _atom_site_fract_y
 _atom_site_fract_z
 _atom_site_occupancy
  Tb  Tb0  1  0.835937  0.750000  0.787572  1
  Tb  Tb1  1  0.161513  0.250000  0.210384  1
  Tb  Tb2  1  0.341177  0.250000  0.707205  1
  Tb  Tb3  1  0.655758  0.750000  0.295477  1
  Tb  Tb4  1  0.376475  0.750000  0.696753  1
  Tb  Tb5  1  0.627454  0.250000  0.300488  1
  Tb  Tb6  1  0.872127  0.250000  0.801499  1
  Tb  Tb7  1  0.127645  0.750000  0.197418  1
  Tb  Tb8  1  0.948291  0.750000  0.500756  1
  Tb  Tb9  1  0.049475  0.250000  0.498921  1
  Tb  Tb10  1  0.451811  0.250000  0.001361  1
  Tb  Tb11  1  0.547832  0.750000  0.000429  1
  Tb  Tb12  1  0.678146  0.038711  0.565138  1
  Tb  Tb13  1  0.322249  0.950426  0.436183  1
  Tb  Tb14  1  0.179962  0.955849  0.932420  1
  Tb  Tb15  1  0.322249  0.549574  0.436183  1
  Tb  Tb16  1  0.820863  0.044715  0.066210  1
  Tb  Tb17  1  0.678146  0.461289  0.565138  1
  Tb  Tb18  1  0.820863  0.455285  0.066210  1
  Tb  Tb19  1  0.179962  0.544151  0.932420  1
  Bi  Bi20  1  0.570540  0.489841  0.828334  1
  Bi  Bi21  1  0.428788  0.509466  0.173187  1
  Bi  Bi22  1  0.070421  0.508542  0.673139  1
  Bi  Bi23  1  0.428788  0.990534  0.173187  1
  Bi  Bi24  1  0.930294  0.491592  0.326625  1
  Bi  Bi25  1  0.570540  0.010159  0.828334  1
  Bi  Bi26  1  0.930294  0.008408  0.326625  1
  Bi  Bi27  1  0.070421  0.991458  0.673139  1
  Os  Os28  1  0.576104  0.750000  0.513761  1
  Pt  Pt29  1  0.425657  0.250000  0.487070  1
  Pt  Pt30  1  0.072382  0.250000  0.989087  1
  Pt  Pt31  1  0.927837  0.750000  0.009345  1
