# generated using pymatgen
data_Y2Er3Si10P2Ir19
_symmetry_space_group_name_H-M   'P 1'
_cell_length_a   12.82854702
_cell_length_b   12.82854782
_cell_length_c   3.95453600
_cell_angle_alpha   90.00000000
_cell_angle_beta   90.00000000
_cell_angle_gamma   120.15242446
_symmetry_Int_Tables_number   1
_chemical_formula_structural   Y2Er3Si10P2Ir19
_chemical_formula_sum   'Y2 Er3 Si10 P2 Ir19'
_cell_volume   562.74550619
_cell_formula_units_Z   1
loop_
 _symmetry_equiv_pos_site_id
 _symmetry_equiv_pos_as_xyz
  1  'x, y, z'
loop_
 _atom_site_type_symbol
 _atom_site_label
 _atom_site_symmetry_multiplicity
 _atom_site_fract_x
 _atom_site_fract_y
 _atom_site_fract_z
 _atom_site_occupancy
  Y  Y0  1  0.666582  0.333631  0.000000  1
  Y  Y1  1  0.333631  0.666582  0.000000  1
  Er  Er2  1  0.812658  0.812658  0.500000  1
  Er  Er3  1  0.186333  0.001259  0.500000  1
  Er  Er4  1  0.001259  0.186333  0.500000  1
  Si  Si5  1  0.686209  0.167247  0.500000  1
  Si  Si6  1  0.832381  0.518661  0.500000  1
  Si  Si7  1  0.480776  0.312790  0.500000  1
  Si  Si8  1  0.167247  0.686209  0.500000  1
  Si  Si9  1  0.518661  0.832381  0.500000  1
  Si  Si10  1  0.312790  0.480776  0.500000  1
  Si  Si11  1  0.633390  0.633390  0.000000  1
  Si  Si12  1  0.366983  0.000182  0.000000  1
  Si  Si13  1  0.000182  0.366983  0.000000  1
  Si  Si14  1  0.178402  0.178402  0.000000  1
  P  P15  1  0.821101  0.000892  0.000000  1
  P  P16  1  0.000892  0.821101  0.000000  1
  Ir  Ir17  1  0.807086  0.179946  0.000000  1
  Ir  Ir18  1  0.820542  0.627691  0.000000  1
  Ir  Ir19  1  0.375005  0.193366  0.000000  1
  Ir  Ir20  1  0.179946  0.807086  0.000000  1
  Ir  Ir21  1  0.627691  0.820542  0.000000  1
  Ir  Ir22  1  0.193366  0.375005  0.000000  1
  Ir  Ir23  1  0.447849  0.447849  0.000000  1
  Ir  Ir24  1  0.552461  0.999007  0.000000  1
  Ir  Ir25  1  0.999007  0.552461  0.000000  1
  Ir  Ir26  1  0.281258  0.281258  0.500000  1
  Ir  Ir27  1  0.721502  0.000233  0.500000  1
  Ir  Ir28  1  0.000233  0.721502  0.500000  1
  Ir  Ir29  1  0.872521  0.359473  0.500000  1
  Ir  Ir30  1  0.640491  0.513240  0.500000  1
  Ir  Ir31  1  0.486887  0.125969  0.500000  1
  Ir  Ir32  1  0.359473  0.872521  0.500000  1
  Ir  Ir33  1  0.513240  0.640491  0.500000  1
  Ir  Ir34  1  0.125969  0.486887  0.500000  1
  Ir  Ir35  1  0.995998  0.995998  0.000000  1
