# generated using pymatgen
data_Y4Ho3Er3(In2Pd)4
_symmetry_space_group_name_H-M   'P 1'
_cell_length_a   3.62205500
_cell_length_b   8.15119719
_cell_length_c   18.23153715
_cell_angle_alpha   89.88594859
_cell_angle_beta   90.00000000
_cell_angle_gamma   90.00000000
_symmetry_Int_Tables_number   1
_chemical_formula_structural   Y4Ho3Er3(In2Pd)4
_chemical_formula_sum   'Y4 Ho3 Er3 In8 Pd4'
_cell_volume   538.26837785
_cell_formula_units_Z   1
loop_
 _symmetry_equiv_pos_site_id
 _symmetry_equiv_pos_as_xyz
  1  'x, y, z'
loop_
 _atom_site_type_symbol
 _atom_site_label
 _atom_site_symmetry_multiplicity
 _atom_site_fract_x
 _atom_site_fract_y
 _atom_site_fract_z
 _atom_site_occupancy
  Y  Y0  1  0.000000  0.499995  0.500115  1
  Y  Y1  1  0.000000  0.999749  0.999845  1
  Y  Y2  1  0.000000  0.738828  0.281318  1
  Y  Y3  1  0.000000  0.261289  0.718648  1
  Ho  Ho4  1  0.000000  0.761031  0.781027  1
  Ho  Ho5  1  0.000000  0.239318  0.219152  1
  Ho  Ho6  1  0.000000  0.617068  0.083476  1
  Er  Er7  1  0.000000  0.382856  0.916309  1
  Er  Er8  1  0.000000  0.882854  0.583669  1
  Er  Er9  1  0.000000  0.116996  0.416328  1
  In  In10  1  0.500000  0.707282  0.932664  1
  In  In11  1  0.500000  0.291878  0.067129  1
  In  In12  1  0.500000  0.792898  0.433118  1
  In  In13  1  0.500000  0.206974  0.566812  1
  In  In14  1  0.500000  0.582118  0.650291  1
  In  In15  1  0.500000  0.417954  0.349927  1
  In  In16  1  0.500000  0.919584  0.150309  1
  In  In17  1  0.500000  0.081576  0.849625  1
  Pd  Pd18  1  0.500000  0.522019  0.195437  1
  Pd  Pd19  1  0.500000  0.477455  0.804857  1
  Pd  Pd20  1  0.500000  0.975360  0.695208  1
  Pd  Pd21  1  0.500000  0.024920  0.304736  1
