# generated using pymatgen
data_Ho11Th5Mg3AgRu4
_symmetry_space_group_name_H-M   'P 1'
_cell_length_a   9.68371818
_cell_length_b   9.74690005
_cell_length_c   9.74690000
_cell_angle_alpha   59.83475727
_cell_angle_beta   60.20413033
_cell_angle_gamma   60.20412725
_symmetry_Int_Tables_number   1
_chemical_formula_structural   Ho11Th5Mg3AgRu4
_chemical_formula_sum   'Ho11 Th5 Mg3 Ag1 Ru4'
_cell_volume   651.69542529
_cell_formula_units_Z   1
loop_
 _symmetry_equiv_pos_site_id
 _symmetry_equiv_pos_as_xyz
  1  'x, y, z'
loop_
 _atom_site_type_symbol
 _atom_site_label
 _atom_site_symmetry_multiplicity
 _atom_site_fract_x
 _atom_site_fract_y
 _atom_site_fract_z
 _atom_site_occupancy
  Ho  Ho0  1  0.186065  0.812606  0.812613  1
  Ho  Ho1  1  0.191068  0.809458  0.185125  1
  Ho  Ho2  1  0.812437  0.184703  0.809846  1
  Ho  Ho3  1  0.191072  0.185129  0.809447  1
  Ho  Ho4  1  0.812436  0.809858  0.184702  1
  Ho  Ho5  1  0.929665  0.566546  0.566545  1
  Ho  Ho6  1  0.564037  0.934316  0.934319  1
  Ho  Ho7  1  0.562873  0.931263  0.564354  1
  Ho  Ho8  1  0.936316  0.563766  0.935027  1
  Ho  Ho9  1  0.562873  0.564358  0.931273  1
  Ho  Ho10  1  0.936305  0.935021  0.563765  1
  Th  Th11  1  0.342177  0.348483  0.348486  1
  Th  Th12  1  0.347663  0.348444  0.958048  1
  Th  Th13  1  0.347652  0.958046  0.348450  1
  Th  Th14  1  0.956891  0.350030  0.350033  1
  Th  Th15  1  0.816849  0.183447  0.183431  1
  Mg  Mg16  1  0.579219  0.582207  0.262045  1
  Mg  Mg17  1  0.579207  0.262045  0.582222  1
  Mg  Mg18  1  0.263938  0.579815  0.579801  1
  Ag  Ag19  1  0.583725  0.584111  0.584102  1
  Ru  Ru20  1  0.129517  0.146589  0.146599  1
  Ru  Ru21  1  0.145400  0.143514  0.568174  1
  Ru  Ru22  1  0.145396  0.568175  0.143509  1
  Ru  Ru23  1  0.577214  0.148072  0.148084  1
