# generated using pymatgen
data_Lu7ThMgInNi2
_symmetry_space_group_name_H-M   'P 1'
_cell_length_a   9.44100423
_cell_length_b   9.44100408
_cell_length_c   9.53565700
_cell_angle_alpha   59.66779727
_cell_angle_beta   59.66779780
_cell_angle_gamma   60.09746644
_symmetry_Int_Tables_number   1
_chemical_formula_structural   Lu7ThMgInNi2
_chemical_formula_sum   'Lu14 Th2 Mg2 In2 Ni4'
_cell_volume   598.39585305
_cell_formula_units_Z   2
loop_
 _symmetry_equiv_pos_site_id
 _symmetry_equiv_pos_as_xyz
  1  'x, y, z'
loop_
 _atom_site_type_symbol
 _atom_site_label
 _atom_site_symmetry_multiplicity
 _atom_site_fract_x
 _atom_site_fract_y
 _atom_site_fract_z
 _atom_site_occupancy
  Lu  Lu0  1  0.600072  0.201697  0.599116  1
  Lu  Lu1  1  0.201697  0.600072  0.599116  1
  Lu  Lu2  1  0.063702  0.439282  0.436006  1
  Lu  Lu3  1  0.439282  0.063702  0.061010  1
  Lu  Lu4  1  0.439282  0.063702  0.436006  1
  Lu  Lu5  1  0.063702  0.439282  0.061010  1
  Lu  Lu6  1  0.434579  0.434579  0.065421  1
  Lu  Lu7  1  0.061725  0.061725  0.438275  1
  Lu  Lu8  1  0.184467  0.816716  0.816282  1
  Lu  Lu9  1  0.816716  0.184467  0.182535  1
  Lu  Lu10  1  0.816716  0.184467  0.816282  1
  Lu  Lu11  1  0.184467  0.816716  0.182535  1
  Lu  Lu12  1  0.814690  0.814690  0.185310  1
  Lu  Lu13  1  0.188310  0.188310  0.811690  1
  Th  Th14  1  0.591877  0.591877  0.602995  1
  Th  Th15  1  0.591877  0.591877  0.213252  1
  Mg  Mg16  1  0.830997  0.510890  0.829056  1
  Mg  Mg17  1  0.510890  0.830997  0.829056  1
  In  In18  1  0.833320  0.833320  0.831683  1
  In  In19  1  0.833320  0.833320  0.501676  1
  Ni  Ni20  1  0.389400  0.389400  0.396231  1
  Ni  Ni21  1  0.389400  0.389400  0.824970  1
  Ni  Ni22  1  0.394573  0.824938  0.390244  1
  Ni  Ni23  1  0.824938  0.394573  0.390244  1
