# generated using pymatgen
data_La3TbPrIr2
_symmetry_space_group_name_H-M   'P 1'
_cell_length_a   6.72654200
_cell_length_b   7.28153567
_cell_length_c   9.10106191
_cell_angle_alpha   95.79229535
_cell_angle_beta   111.68768724
_cell_angle_gamma   89.99999843
_symmetry_Int_Tables_number   1
_chemical_formula_structural   La3TbPrIr2
_chemical_formula_sum   'La6 Tb2 Pr2 Ir4'
_cell_volume   411.76075882
_cell_formula_units_Z   2
loop_
 _symmetry_equiv_pos_site_id
 _symmetry_equiv_pos_as_xyz
  1  'x, y, z'
loop_
 _atom_site_type_symbol
 _atom_site_label
 _atom_site_symmetry_multiplicity
 _atom_site_fract_x
 _atom_site_fract_y
 _atom_site_fract_z
 _atom_site_occupancy
  La  La0  1  0.978297  0.920341  0.182077  1
  La  La1  1  0.796219  0.579659  0.817923  1
  La  La2  1  0.020195  0.082473  0.817482  1
  La  La3  1  0.202714  0.417527  0.182518  1
  La  La4  1  0.644577  0.815531  0.427248  1
  La  La5  1  0.217330  0.684469  0.572752  1
  Tb  Tb6  1  0.437519  0.750000  0.000000  1
  Tb  Tb7  1  0.564640  0.250000  0.000000  1
  Pr  Pr8  1  0.353824  0.187055  0.569580  1
  Pr  Pr9  1  0.784244  0.312945  0.430420  1
  Ir  Ir10  1  0.812935  0.575049  0.212544  1
  Ir  Ir11  1  0.600390  0.924951  0.787456  1
  Ir  Ir12  1  0.187522  0.427589  0.787929  1
  Ir  Ir13  1  0.399594  0.072411  0.212071  1
