# generated using pymatgen
data_Li3Tm3Si2Au
_symmetry_space_group_name_H-M   'P 1'
_cell_length_a   6.99781500
_cell_length_b   6.99781476
_cell_length_c   4.15713600
_cell_angle_alpha   90.00000000
_cell_angle_beta   90.00000000
_cell_angle_gamma   120.00000584
_symmetry_Int_Tables_number   1
_chemical_formula_structural   Li3Tm3Si2Au
_chemical_formula_sum   'Li3 Tm3 Si2 Au1'
_cell_volume   176.29895496
_cell_formula_units_Z   1
loop_
 _symmetry_equiv_pos_site_id
 _symmetry_equiv_pos_as_xyz
  1  'x, y, z'
loop_
 _atom_site_type_symbol
 _atom_site_label
 _atom_site_symmetry_multiplicity
 _atom_site_fract_x
 _atom_site_fract_y
 _atom_site_fract_z
 _atom_site_occupancy
  Li  Li0  1  0.247144  0.000000  0.500000  1
  Li  Li1  1  0.000000  0.247144  0.500000  1
  Li  Li2  1  0.752856  0.752856  0.500000  1
  Tm  Tm3  1  0.577761  0.000000  0.000000  1
  Tm  Tm4  1  0.000000  0.577761  0.000000  1
  Tm  Tm5  1  0.422239  0.422239  0.000000  1
  Si  Si6  1  0.333333  0.666667  0.500000  1
  Si  Si7  1  0.666667  0.333333  0.500000  1
  Au  Au8  1  0.000000  0.000000  0.000000  1
