# generated using pymatgen
data_NaErH9W
_symmetry_space_group_name_H-M   'P 1'
_cell_length_a   8.46407400
_cell_length_b   8.46407304
_cell_length_c   5.00480800
_cell_angle_alpha   90.00000000
_cell_angle_beta   90.00000000
_cell_angle_gamma   120.00000373
_symmetry_Int_Tables_number   1
_chemical_formula_structural   NaErH9W
_chemical_formula_sum   'Na3 Er3 H27 W3'
_cell_volume   310.51092924
_cell_formula_units_Z   3
loop_
 _symmetry_equiv_pos_site_id
 _symmetry_equiv_pos_as_xyz
  1  'x, y, z'
loop_
 _atom_site_type_symbol
 _atom_site_label
 _atom_site_symmetry_multiplicity
 _atom_site_fract_x
 _atom_site_fract_y
 _atom_site_fract_z
 _atom_site_occupancy
  Na  Na0  1  0.000000  0.597927  0.000000  1
  Na  Na1  1  0.402073  0.402073  0.000000  1
  Na  Na2  1  0.597927  0.000000  0.000000  1
  Er  Er3  1  0.000000  0.261529  0.500000  1
  Er  Er4  1  0.738471  0.738471  0.500000  1
  Er  Er5  1  0.261529  0.000000  0.500000  1
  H  H6  1  0.820760  0.339516  0.749596  1
  H  H7  1  0.660484  0.481242  0.749596  1
  H  H8  1  0.518758  0.179240  0.749596  1
  H  H9  1  0.179240  0.518758  0.250404  1
  H  H10  1  0.518758  0.179240  0.250404  1
  H  H11  1  0.820760  0.339516  0.250404  1
  H  H12  1  0.660484  0.481242  0.250404  1
  H  H13  1  0.339516  0.820760  0.749596  1
  H  H14  1  0.481242  0.660484  0.749596  1
  H  H15  1  0.211382  0.000000  0.000000  1
  H  H16  1  0.788618  0.788618  0.000000  1
  H  H17  1  0.000000  0.211382  0.000000  1
  H  H18  1  0.845287  0.000000  0.264742  1
  H  H19  1  0.154713  0.154713  0.735258  1
  H  H20  1  0.000000  0.845287  0.735258  1
  H  H21  1  0.000000  0.845287  0.264742  1
  H  H22  1  0.154713  0.154713  0.264742  1
  H  H23  1  0.845287  0.000000  0.735258  1
  H  H24  1  0.134365  0.687457  0.500000  1
  H  H25  1  0.553092  0.865635  0.500000  1
  H  H26  1  0.312543  0.446908  0.500000  1
  H  H27  1  0.446908  0.312543  0.500000  1
  H  H28  1  0.865635  0.553092  0.500000  1
  H  H29  1  0.687457  0.134365  0.500000  1
  H  H30  1  0.179240  0.518758  0.749596  1
  H  H31  1  0.339516  0.820760  0.250404  1
  H  H32  1  0.481242  0.660484  0.250404  1
  W  W33  1  0.666667  0.333333  0.500000  1
  W  W34  1  0.333333  0.666667  0.500000  1
  W  W35  1  0.000000  0.000000  0.000000  1
