# generated using pymatgen
data_Nd3ScHgAu4
_symmetry_space_group_name_H-M   'P 1'
_cell_length_a   8.20226024
_cell_length_b   8.20225965
_cell_length_c   8.20225967
_cell_angle_alpha   65.51440847
_cell_angle_beta   65.51441224
_cell_angle_gamma   65.51438455
_symmetry_Int_Tables_number   1
_chemical_formula_structural   Nd3ScHgAu4
_chemical_formula_sum   'Nd6 Sc2 Hg2 Au8'
_cell_volume   436.97060630
_cell_formula_units_Z   2
loop_
 _symmetry_equiv_pos_site_id
 _symmetry_equiv_pos_as_xyz
  1  'x, y, z'
loop_
 _atom_site_type_symbol
 _atom_site_label
 _atom_site_symmetry_multiplicity
 _atom_site_fract_x
 _atom_site_fract_y
 _atom_site_fract_z
 _atom_site_occupancy
  Nd  Nd0  1  0.892835  0.188585  0.613523  1
  Nd  Nd1  1  0.613523  0.892835  0.188585  1
  Nd  Nd2  1  0.188585  0.613523  0.892835  1
  Nd  Nd3  1  0.107165  0.811415  0.386477  1
  Nd  Nd4  1  0.386477  0.107165  0.811415  1
  Nd  Nd5  1  0.811415  0.386477  0.107165  1
  Sc  Sc6  1  0.660331  0.660331  0.660331  1
  Sc  Sc7  1  0.339669  0.339669  0.339669  1
  Hg  Hg8  1  0.000000  0.000000  0.000000  1
  Hg  Hg9  1  0.500000  0.500000  0.500000  1
  Au  Au10  1  0.802121  0.802121  0.802121  1
  Au  Au11  1  0.197879  0.197879  0.197879  1
  Au  Au12  1  0.939520  0.549326  0.325301  1
  Au  Au13  1  0.325301  0.939520  0.549326  1
  Au  Au14  1  0.549326  0.325301  0.939520  1
  Au  Au15  1  0.060480  0.450674  0.674699  1
  Au  Au16  1  0.674699  0.060480  0.450674  1
  Au  Au17  1  0.450674  0.674699  0.060480  1
