# generated using pymatgen
data_Eu3ScRuC6
_symmetry_space_group_name_H-M   'P 1'
_cell_length_a   8.55009600
_cell_length_b   8.55009384
_cell_length_c   5.24340400
_cell_angle_alpha   90.00000000
_cell_angle_beta   90.00000000
_cell_angle_gamma   119.99999289
_symmetry_Int_Tables_number   1
_chemical_formula_structural   Eu3ScRuC6
_chemical_formula_sum   'Eu6 Sc2 Ru2 C12'
_cell_volume   331.96007656
_cell_formula_units_Z   2
loop_
 _symmetry_equiv_pos_site_id
 _symmetry_equiv_pos_as_xyz
  1  'x, y, z'
loop_
 _atom_site_type_symbol
 _atom_site_label
 _atom_site_symmetry_multiplicity
 _atom_site_fract_x
 _atom_site_fract_y
 _atom_site_fract_z
 _atom_site_occupancy
  Eu  Eu0  1  0.605964  0.681673  0.750000  1
  Eu  Eu1  1  0.924292  0.605964  0.250000  1
  Eu  Eu2  1  0.681673  0.075708  0.250000  1
  Eu  Eu3  1  0.318327  0.924292  0.750000  1
  Eu  Eu4  1  0.075708  0.394036  0.750000  1
  Eu  Eu5  1  0.394036  0.318327  0.250000  1
  Sc  Sc6  1  0.000000  0.000000  0.500000  1
  Sc  Sc7  1  0.000000  0.000000  0.000000  1
  Ru  Ru8  1  0.666667  0.333333  0.750000  1
  Ru  Ru9  1  0.333333  0.666667  0.250000  1
  C  C10  1  0.958898  0.757927  0.750000  1
  C  C11  1  0.200972  0.958898  0.250000  1
  C  C12  1  0.757927  0.799028  0.250000  1
  C  C13  1  0.242073  0.200972  0.750000  1
  C  C14  1  0.799028  0.041102  0.750000  1
  C  C15  1  0.041102  0.242073  0.250000  1
  C  C16  1  0.859627  0.578825  0.750000  1
  C  C17  1  0.280800  0.859627  0.250000  1
  C  C18  1  0.578825  0.719200  0.250000  1
  C  C19  1  0.421175  0.280800  0.750000  1
  C  C20  1  0.140373  0.421175  0.250000  1
  C  C21  1  0.719200  0.140373  0.750000  1
