# generated using pymatgen
data_K2Mg(PS3)2
_symmetry_space_group_name_H-M   'P 1'
_cell_length_a   12.51629000
_cell_length_b   6.21272918
_cell_length_c   8.88661490
_cell_angle_alpha   59.20299844
_cell_angle_beta   90.00000000
_cell_angle_gamma   90.00000000
_symmetry_Int_Tables_number   1
_chemical_formula_structural   K2Mg(PS3)2
_chemical_formula_sum   'K4 Mg2 P4 S12'
_cell_volume   593.58215417
_cell_formula_units_Z   2
loop_
 _symmetry_equiv_pos_site_id
 _symmetry_equiv_pos_as_xyz
  1  'x, y, z'
loop_
 _atom_site_type_symbol
 _atom_site_label
 _atom_site_symmetry_multiplicity
 _atom_site_fract_x
 _atom_site_fract_y
 _atom_site_fract_z
 _atom_site_occupancy
  K  K0  1  0.189472  0.660967  0.042145  1
  K  K1  1  0.689472  0.339033  0.457855  1
  K  K2  1  0.810528  0.339033  0.957855  1
  K  K3  1  0.310528  0.660967  0.542145  1
  Mg  Mg4  1  0.500000  0.000000  0.000000  1
  Mg  Mg5  1  0.000000  0.000000  0.500000  1
  P  P6  1  0.026459  0.349897  0.634802  1
  P  P7  1  0.973541  0.650103  0.365198  1
  P  P8  1  0.473541  0.349897  0.134802  1
  P  P9  1  0.526459  0.650103  0.865198  1
  S  S10  1  0.905979  0.093856  0.728300  1
  S  S11  1  0.405979  0.906144  0.771700  1
  S  S12  1  0.342666  0.190279  0.095177  1
  S  S13  1  0.157334  0.190279  0.595177  1
  S  S14  1  0.842666  0.809721  0.404823  1
  S  S15  1  0.657334  0.809721  0.904823  1
  S  S16  1  0.551245  0.456941  0.740462  1
  S  S17  1  0.051245  0.543059  0.759538  1
  S  S18  1  0.448755  0.543059  0.259538  1
  S  S19  1  0.948755  0.456941  0.240462  1
  S  S20  1  0.594021  0.093856  0.228300  1
  S  S21  1  0.094021  0.906144  0.271700  1
