# generated using pymatgen
data_Dy3ErAl17GeIr6
_symmetry_space_group_name_H-M   'P 1'
_cell_length_a   7.55043468
_cell_length_b   7.55039434
_cell_length_c   9.46189000
_cell_angle_alpha   90.00000000
_cell_angle_beta   90.00000000
_cell_angle_gamma   119.62260911
_symmetry_Int_Tables_number   1
_chemical_formula_structural   Dy3ErAl17GeIr6
_chemical_formula_sum   'Dy3 Er1 Al17 Ge1 Ir6'
_cell_volume   468.90961620
_cell_formula_units_Z   1
loop_
 _symmetry_equiv_pos_site_id
 _symmetry_equiv_pos_as_xyz
  1  'x, y, z'
loop_
 _atom_site_type_symbol
 _atom_site_label
 _atom_site_symmetry_multiplicity
 _atom_site_fract_x
 _atom_site_fract_y
 _atom_site_fract_z
 _atom_site_occupancy
  Dy  Dy0  1  0.994898  0.675150  0.750000  1
  Dy  Dy1  1  0.675022  0.994972  0.750000  1
  Dy  Dy2  1  0.329011  0.004034  0.250000  1
  Er  Er3  1  0.003807  0.328815  0.250000  1
  Al  Al4  1  0.871892  0.872112  0.250000  1
  Al  Al5  1  0.000247  0.337380  0.573325  1
  Al  Al6  1  0.998309  0.664582  0.424863  1
  Al  Al7  1  0.998309  0.664582  0.075137  1
  Al  Al8  1  0.337452  0.000290  0.926389  1
  Al  Al9  1  0.000247  0.337380  0.926675  1
  Al  Al10  1  0.665069  0.998545  0.075080  1
  Al  Al11  1  0.665069  0.998545  0.424920  1
  Al  Al12  1  0.337452  0.000290  0.573611  1
  Al  Al13  1  0.332988  0.333206  0.058414  1
  Al  Al14  1  0.664330  0.664338  0.948084  1
  Al  Al15  1  0.664330  0.664338  0.551916  1
  Al  Al16  1  0.332988  0.333206  0.441586  1
  Al  Al17  1  0.336943  0.552519  0.750000  1
  Al  Al18  1  0.661256  0.451423  0.250000  1
  Al  Al19  1  0.552534  0.336930  0.750000  1
  Al  Al20  1  0.451251  0.660914  0.250000  1
  Ge  Ge21  1  0.134269  0.134390  0.750000  1
  Ir  Ir22  1  0.669897  0.326864  0.500258  1
  Ir  Ir23  1  0.326709  0.669636  0.500266  1
  Ir  Ir24  1  0.326709  0.669636  0.999734  1
  Ir  Ir25  1  0.669897  0.326864  0.999742  1
  Ir  Ir26  1  0.999558  0.999530  0.500712  1
  Ir  Ir27  1  0.999558  0.999530  0.999288  1
