# generated using pymatgen
data_Tb6Al24FeRu5Pt2
_symmetry_space_group_name_H-M   'P 1'
_cell_length_a   8.83393313
_cell_length_b   8.78824404
_cell_length_c   9.54223405
_cell_angle_alpha   89.99999996
_cell_angle_beta   90.07096707
_cell_angle_gamma   119.82905803
_symmetry_Int_Tables_number   1
_chemical_formula_structural   Tb6Al24FeRu5Pt2
_chemical_formula_sum   'Tb6 Al24 Fe1 Ru5 Pt2'
_cell_volume   642.66104813
_cell_formula_units_Z   1
loop_
 _symmetry_equiv_pos_site_id
 _symmetry_equiv_pos_as_xyz
  1  'x, y, z'
loop_
 _atom_site_type_symbol
 _atom_site_label
 _atom_site_symmetry_multiplicity
 _atom_site_fract_x
 _atom_site_fract_y
 _atom_site_fract_z
 _atom_site_occupancy
  Tb  Tb0  1  0.383756  0.191878  0.248934  1
  Tb  Tb1  1  0.808779  0.194239  0.248466  1
  Tb  Tb2  1  0.808779  0.614539  0.248466  1
  Tb  Tb3  1  0.616244  0.808122  0.751066  1
  Tb  Tb4  1  0.191221  0.805761  0.751534  1
  Tb  Tb5  1  0.191221  0.385461  0.751534  1
  Al  Al6  1  0.437466  0.874478  0.247005  1
  Al  Al7  1  0.122401  0.561200  0.250646  1
  Al  Al8  1  0.437466  0.562988  0.247005  1
  Al  Al9  1  0.562534  0.125522  0.752995  1
  Al  Al10  1  0.877599  0.438800  0.749354  1
  Al  Al11  1  0.562534  0.437012  0.752995  1
  Al  Al12  1  0.157691  0.833564  0.421557  1
  Al  Al13  1  0.157691  0.324128  0.421557  1
  Al  Al14  1  0.678039  0.839020  0.420984  1
  Al  Al15  1  0.842309  0.166436  0.578443  1
  Al  Al16  1  0.842309  0.675872  0.578443  1
  Al  Al17  1  0.321961  0.160980  0.579016  1
  Al  Al18  1  0.839652  0.160441  0.924411  1
  Al  Al19  1  0.839652  0.679210  0.924411  1
  Al  Al20  1  0.320552  0.160275  0.925192  1
  Al  Al21  1  0.160348  0.839559  0.075589  1
  Al  Al22  1  0.160348  0.320790  0.075589  1
  Al  Al23  1  0.679448  0.839725  0.074808  1
  Al  Al24  1  0.327277  0.663639  0.522975  1
  Al  Al25  1  0.672723  0.336361  0.477025  1
  Al  Al26  1  0.667106  0.333552  0.020082  1
  Al  Al27  1  0.332894  0.666448  0.979918  1
  Al  Al28  1  0.001905  0.000952  0.243530  1
  Al  Al29  1  0.998095  0.999048  0.756470  1
  Fe  Fe30  1  0.000000  0.000000  0.000000  1
  Ru  Ru31  1  0.000000  0.000000  0.500000  1
  Ru  Ru32  1  0.000000  0.500000  0.500000  1
  Ru  Ru33  1  0.500000  0.000000  0.000000  1
  Ru  Ru34  1  0.000000  0.500000  0.000000  1
  Ru  Ru35  1  0.500000  0.500000  0.000000  1
  Pt  Pt36  1  0.500000  0.000000  0.500000  1
  Pt  Pt37  1  0.500000  0.500000  0.500000  1
