# generated using pymatgen
data_Y8Cu2Si12RhAu
_symmetry_space_group_name_H-M   'P 1'
_cell_length_a   8.09544200
_cell_length_b   8.09543610
_cell_length_c   8.17905100
_cell_angle_alpha   89.99995753
_cell_angle_beta   90.00004247
_cell_angle_gamma   120.00005408
_symmetry_Int_Tables_number   1
_chemical_formula_structural   Y8Cu2Si12RhAu
_chemical_formula_sum   'Y8 Cu2 Si12 Rh1 Au1'
_cell_volume   464.20960920
_cell_formula_units_Z   1
loop_
 _symmetry_equiv_pos_site_id
 _symmetry_equiv_pos_as_xyz
  1  'x, y, z'
loop_
 _atom_site_type_symbol
 _atom_site_label
 _atom_site_symmetry_multiplicity
 _atom_site_fract_x
 _atom_site_fract_y
 _atom_site_fract_z
 _atom_site_occupancy
  Y  Y0  1  0.000000  0.000000  0.247919  1
  Y  Y1  1  0.000000  0.000000  0.752046  1
  Y  Y2  1  0.996492  0.498246  0.249452  1
  Y  Y3  1  0.501754  0.498246  0.249453  1
  Y  Y4  1  0.502068  0.004135  0.750534  1
  Y  Y5  1  0.501754  0.003508  0.249452  1
  Y  Y6  1  0.502067  0.497932  0.750534  1
  Y  Y7  1  0.995866  0.497932  0.750534  1
  Cu  Cu8  1  0.333334  0.666667  0.999087  1
  Cu  Cu9  1  0.666667  0.333333  0.000898  1
  Si  Si10  1  0.169397  0.338793  0.000121  1
  Si  Si11  1  0.661207  0.830603  0.000121  1
  Si  Si12  1  0.161397  0.322793  0.500561  1
  Si  Si13  1  0.337847  0.168923  0.999876  1
  Si  Si14  1  0.169396  0.830604  0.000121  1
  Si  Si15  1  0.677206  0.838603  0.500561  1
  Si  Si16  1  0.831077  0.662153  0.999876  1
  Si  Si17  1  0.338594  0.169297  0.499323  1
  Si  Si18  1  0.161397  0.838603  0.500561  1
  Si  Si19  1  0.830703  0.661406  0.499323  1
  Si  Si20  1  0.831078  0.168922  0.999877  1
  Si  Si21  1  0.830703  0.169297  0.499323  1
  Rh  Rh22  1  0.666666  0.333333  0.500211  1
  Au  Au23  1  0.333333  0.666667  0.500240  1
