# generated using pymatgen
data_HoU3(Al8Pt3)3
_symmetry_space_group_name_H-M   'P 1'
_cell_length_a   7.56594605
_cell_length_b   7.57588972
_cell_length_c   13.17048209
_cell_angle_alpha   84.25429584
_cell_angle_beta   78.82100507
_cell_angle_gamma   59.89886402
_symmetry_Int_Tables_number   1
_chemical_formula_structural   HoU3(Al8Pt3)3
_chemical_formula_sum   'Ho1 U3 Al24 Pt9'
_cell_volume   640.71344700
_cell_formula_units_Z   1
loop_
 _symmetry_equiv_pos_site_id
 _symmetry_equiv_pos_as_xyz
  1  'x, y, z'
loop_
 _atom_site_type_symbol
 _atom_site_label
 _atom_site_symmetry_multiplicity
 _atom_site_fract_x
 _atom_site_fract_y
 _atom_site_fract_z
 _atom_site_occupancy
  Ho  Ho0  1  0.266909  0.501302  0.191626  1
  U  U1  1  0.393813  0.168187  0.804822  1
  U  U2  1  0.604730  0.831868  0.196355  1
  U  U3  1  0.736329  0.498429  0.804596  1
  Al  Al4  1  0.680950  0.834466  0.947135  1
  Al  Al5  1  0.318298  0.164482  0.053977  1
  Al  Al6  1  0.146024  0.832747  0.560368  1
  Al  Al7  1  0.854429  0.166109  0.438685  1
  Al  Al8  1  0.480629  0.167553  0.557979  1
  Al  Al9  1  0.518679  0.833199  0.441878  1
  Al  Al10  1  0.215672  0.167698  0.329874  1
  Al  Al11  1  0.784058  0.834744  0.669613  1
  Al  Al12  1  0.436277  0.507612  0.670495  1
  Al  Al13  1  0.562523  0.491553  0.329337  1
  Al  Al14  1  0.110157  0.156739  0.668570  1
  Al  Al15  1  0.892303  0.840084  0.330730  1
  Al  Al16  1  0.355613  0.497853  0.943740  1
  Al  Al17  1  0.647512  0.502623  0.053792  1
  Al  Al18  1  0.015768  0.169860  0.952554  1
  Al  Al19  1  0.982615  0.832072  0.048028  1
  Al  Al20  1  0.186329  0.500205  0.441370  1
  Al  Al21  1  0.814535  0.499769  0.557740  1
  Al  Al22  1  0.734903  0.164195  0.182823  1
  Al  Al23  1  0.263543  0.836391  0.818132  1
  Al  Al24  1  0.060093  0.632047  0.817520  1
  Al  Al25  1  0.938610  0.368703  0.183909  1
  Al  Al26  1  0.854888  0.040822  0.818134  1
  Al  Al27  1  0.144365  0.959481  0.182875  1
  Pt  Pt28  1  0.119972  0.492209  0.639732  1
  Pt  Pt29  1  0.879942  0.508004  0.361032  1
  Pt  Pt30  1  0.658388  0.171979  0.000779  1
  Pt  Pt31  1  0.338627  0.828415  0.000855  1
  Pt  Pt32  1  0.537574  0.167144  0.361524  1
  Pt  Pt33  1  0.462008  0.832473  0.638712  1
  Pt  Pt34  1  0.779808  0.173892  0.637625  1
  Pt  Pt35  1  0.221120  0.824911  0.361803  1
  Pt  Pt36  1  0.002009  0.500179  0.001281  1
