# generated using pymatgen
data_La3(MgBi3)2
_symmetry_space_group_name_H-M   'P 1'
_cell_length_a   4.48417000
_cell_length_b   11.31155400
_cell_length_c   14.02475200
_cell_angle_alpha   90.00000000
_cell_angle_beta   90.00000000
_cell_angle_gamma   90.00000000
_symmetry_Int_Tables_number   1
_chemical_formula_structural   La3(MgBi3)2
_chemical_formula_sum   'La6 Mg4 Bi12'
_cell_volume   711.37652939
_cell_formula_units_Z   2
loop_
 _symmetry_equiv_pos_site_id
 _symmetry_equiv_pos_as_xyz
  1  'x, y, z'
loop_
 _atom_site_type_symbol
 _atom_site_label
 _atom_site_symmetry_multiplicity
 _atom_site_fract_x
 _atom_site_fract_y
 _atom_site_fract_z
 _atom_site_occupancy
  La  La0  1  0.750000  0.260365  0.750000  1
  La  La1  1  0.750000  0.270725  0.410679  1
  La  La2  1  0.250000  0.729275  0.910679  1
  La  La3  1  0.250000  0.729275  0.589321  1
  La  La4  1  0.250000  0.739635  0.250000  1
  La  La5  1  0.750000  0.270725  0.089321  1
  Mg  Mg6  1  0.250000  0.004089  0.090393  1
  Mg  Mg7  1  0.250000  0.004089  0.409607  1
  Mg  Mg8  1  0.750000  0.995911  0.590393  1
  Mg  Mg9  1  0.750000  0.995911  0.909607  1
  Bi  Bi10  1  0.750000  0.504503  0.250000  1
  Bi  Bi11  1  0.750000  0.493239  0.916652  1
  Bi  Bi12  1  0.750000  0.827324  0.750000  1
  Bi  Bi13  1  0.750000  0.829369  0.419649  1
  Bi  Bi14  1  0.250000  0.170631  0.919649  1
  Bi  Bi15  1  0.250000  0.170631  0.580351  1
  Bi  Bi16  1  0.250000  0.172676  0.250000  1
  Bi  Bi17  1  0.250000  0.506761  0.083348  1
  Bi  Bi18  1  0.250000  0.495497  0.750000  1
  Bi  Bi19  1  0.250000  0.506761  0.416652  1
  Bi  Bi20  1  0.750000  0.493239  0.583348  1
  Bi  Bi21  1  0.750000  0.829369  0.080351  1
