# generated using pymatgen
data_La3Sn3(GeAu3)2
_symmetry_space_group_name_H-M   'P 1'
_cell_length_a   4.62480000
_cell_length_b   10.13641400
_cell_length_c   13.83263500
_cell_angle_alpha   90.00000000
_cell_angle_beta   90.00000000
_cell_angle_gamma   90.00000000
_symmetry_Int_Tables_number   1
_chemical_formula_structural   La3Sn3(GeAu3)2
_chemical_formula_sum   'La6 Sn6 Ge4 Au12'
_cell_volume   648.45853954
_cell_formula_units_Z   2
loop_
 _symmetry_equiv_pos_site_id
 _symmetry_equiv_pos_as_xyz
  1  'x, y, z'
loop_
 _atom_site_type_symbol
 _atom_site_label
 _atom_site_symmetry_multiplicity
 _atom_site_fract_x
 _atom_site_fract_y
 _atom_site_fract_z
 _atom_site_occupancy
  La  La0  1  0.000000  0.737616  0.806550  1
  La  La1  1  0.000000  0.737616  0.193450  1
  La  La2  1  0.500000  0.262384  0.693450  1
  La  La3  1  0.500000  0.262384  0.306550  1
  La  La4  1  0.000000  0.733008  0.500000  1
  La  La5  1  0.500000  0.266992  0.000000  1
  Sn  Sn6  1  0.000000  0.023654  0.359140  1
  Sn  Sn7  1  0.000000  0.023654  0.640860  1
  Sn  Sn8  1  0.500000  0.976346  0.140860  1
  Sn  Sn9  1  0.500000  0.976346  0.859140  1
  Sn  Sn10  1  0.000000  0.280502  0.500000  1
  Sn  Sn11  1  0.500000  0.719498  0.000000  1
  Ge  Ge12  1  0.000000  0.382596  0.840428  1
  Ge  Ge13  1  0.000000  0.382596  0.159572  1
  Ge  Ge14  1  0.500000  0.617404  0.659572  1
  Ge  Ge15  1  0.500000  0.617404  0.340428  1
  Au  Au16  1  0.000000  0.129033  0.840409  1
  Au  Au17  1  0.000000  0.129033  0.159591  1
  Au  Au18  1  0.500000  0.870967  0.659591  1
  Au  Au19  1  0.500000  0.870967  0.340409  1
  Au  Au20  1  0.000000  0.527844  0.000000  1
  Au  Au21  1  0.500000  0.472156  0.500000  1
  Au  Au22  1  0.000000  0.483974  0.345877  1
  Au  Au23  1  0.000000  0.483974  0.654123  1
  Au  Au24  1  0.500000  0.516026  0.154123  1
  Au  Au25  1  0.500000  0.516026  0.845877  1
  Au  Au26  1  0.000000  0.932053  0.000000  1
  Au  Au27  1  0.500000  0.067947  0.500000  1
