# generated using pymatgen
data_NaMn4Cl7O
_symmetry_space_group_name_H-M   'P 1'
_cell_length_a   7.46004768
_cell_length_b   7.44147128
_cell_length_c   7.44036463
_cell_angle_alpha   58.28274384
_cell_angle_beta   58.02257803
_cell_angle_gamma   58.11384475
_symmetry_Int_Tables_number   1
_chemical_formula_structural   NaMn4Cl7O
_chemical_formula_sum   'Na1 Mn4 Cl7 O1'
_cell_volume   279.60817891
_cell_formula_units_Z   1
loop_
 _symmetry_equiv_pos_site_id
 _symmetry_equiv_pos_as_xyz
  1  'x, y, z'
loop_
 _atom_site_type_symbol
 _atom_site_label
 _atom_site_symmetry_multiplicity
 _atom_site_fract_x
 _atom_site_fract_y
 _atom_site_fract_z
 _atom_site_occupancy
  Na  Na0  1  0.040534  0.042640  0.042623  1
  Mn  Mn1  1  0.372450  0.372298  0.372924  1
  Mn  Mn2  1  0.352931  0.353766  0.887539  1
  Mn  Mn3  1  0.353358  0.887817  0.352165  1
  Mn  Mn4  1  0.887449  0.353069  0.353780  1
  Cl  Cl5  1  0.602610  0.602615  0.601901  1
  Cl  Cl6  1  0.618550  0.616352  0.121687  1
  Cl  Cl7  1  0.617291  0.121506  0.617371  1
  Cl  Cl8  1  0.122284  0.617750  0.617925  1
  Cl  Cl9  1  0.616613  0.127388  0.126856  1
  Cl  Cl10  1  0.127108  0.127164  0.617066  1
  Cl  Cl11  1  0.127882  0.616990  0.127748  1
  O  O12  1  0.160939  0.160645  0.160412  1
