# generated using pymatgen
data_Er3Lu2Bi3C
_symmetry_space_group_name_H-M   'P 1'
_cell_length_a   9.05476900
_cell_length_b   9.05476845
_cell_length_c   6.40502400
_cell_angle_alpha   90.00000000
_cell_angle_beta   90.00000000
_cell_angle_gamma   119.99662104
_symmetry_Int_Tables_number   1
_chemical_formula_structural   Er3Lu2Bi3C
_chemical_formula_sum   'Er6 Lu4 Bi6 C2'
_cell_volume   454.80046896
_cell_formula_units_Z   2
loop_
 _symmetry_equiv_pos_site_id
 _symmetry_equiv_pos_as_xyz
  1  'x, y, z'
loop_
 _atom_site_type_symbol
 _atom_site_label
 _atom_site_symmetry_multiplicity
 _atom_site_fract_x
 _atom_site_fract_y
 _atom_site_fract_z
 _atom_site_occupancy
  Er  Er0  1  0.666702  0.333386  0.000577  1
  Er  Er1  1  0.333386  0.666702  0.000577  1
  Er  Er2  1  0.333386  0.666702  0.499423  1
  Er  Er3  1  0.666702  0.333386  0.499423  1
  Er  Er4  1  0.792229  0.000036  0.250000  1
  Er  Er5  1  0.000036  0.792229  0.250000  1
  Lu  Lu6  1  0.797428  0.797428  0.750000  1
  Lu  Lu7  1  0.203482  0.000495  0.750000  1
  Lu  Lu8  1  0.000495  0.203482  0.750000  1
  Lu  Lu9  1  0.203224  0.203224  0.250000  1
  Bi  Bi10  1  0.400463  0.400463  0.750000  1
  Bi  Bi11  1  0.599801  0.999937  0.750000  1
  Bi  Bi12  1  0.999937  0.599801  0.750000  1
  Bi  Bi13  1  0.598922  0.598922  0.250000  1
  Bi  Bi14  1  0.400500  0.000785  0.250000  1
  Bi  Bi15  1  0.000785  0.400500  0.250000  1
  C  C16  1  0.001261  0.001261  0.997838  1
  C  C17  1  0.001261  0.001261  0.502162  1
