# generated using pymatgen
data_Sb2P4O13
_symmetry_space_group_name_H-M   'P 1'
_cell_length_a   6.98746023
_cell_length_b   6.98746007
_cell_length_c   13.77425796
_cell_angle_alpha   75.92717840
_cell_angle_beta   75.92717669
_cell_angle_gamma   58.62771847
_symmetry_Int_Tables_number   1
_chemical_formula_structural   Sb2P4O13
_chemical_formula_sum   'Sb4 P8 O26'
_cell_volume   551.42358228
_cell_formula_units_Z   2
loop_
 _symmetry_equiv_pos_site_id
 _symmetry_equiv_pos_as_xyz
  1  'x, y, z'
loop_
 _atom_site_type_symbol
 _atom_site_label
 _atom_site_symmetry_multiplicity
 _atom_site_fract_x
 _atom_site_fract_y
 _atom_site_fract_z
 _atom_site_occupancy
  Sb  Sb0  1  0.707967  0.707472  0.921125  1
  Sb  Sb1  1  0.292528  0.292033  0.578875  1
  Sb  Sb2  1  0.292033  0.292528  0.078875  1
  Sb  Sb3  1  0.707472  0.707967  0.421125  1
  P  P4  1  0.868155  0.155643  0.639117  1
  P  P5  1  0.844357  0.131845  0.860883  1
  P  P6  1  0.131845  0.844357  0.360883  1
  P  P7  1  0.155643  0.868155  0.139117  1
  P  P8  1  0.769898  0.779960  0.659213  1
  P  P9  1  0.220040  0.230102  0.840787  1
  P  P10  1  0.230102  0.220040  0.340787  1
  P  P11  1  0.779960  0.769898  0.159213  1
  O  O12  1  0.767166  0.232834  0.750000  1
  O  O13  1  0.232834  0.767166  0.250000  1
  O  O14  1  0.692111  0.304007  0.929768  1
  O  O15  1  0.695993  0.307889  0.570232  1
  O  O16  1  0.307889  0.695993  0.070232  1
  O  O17  1  0.304007  0.692111  0.429768  1
  O  O18  1  0.881567  0.889793  0.887722  1
  O  O19  1  0.110207  0.118433  0.612278  1
  O  O20  1  0.118433  0.110207  0.112278  1
  O  O21  1  0.889793  0.881567  0.387722  1
  O  O22  1  0.915800  0.899482  0.658008  1
  O  O23  1  0.100518  0.084200  0.841992  1
  O  O24  1  0.300709  0.286517  0.228462  1
  O  O25  1  0.713483  0.699291  0.271538  1
  O  O26  1  0.699291  0.713483  0.771538  1
  O  O27  1  0.286517  0.300709  0.728462  1
  O  O28  1  0.939360  0.565918  0.103016  1
  O  O29  1  0.434082  0.060640  0.396984  1
  O  O30  1  0.060640  0.434082  0.896984  1
  O  O31  1  0.565918  0.939360  0.603016  1
  O  O32  1  0.576326  0.929038  0.103733  1
  O  O33  1  0.070962  0.423674  0.396267  1
  O  O34  1  0.423674  0.070962  0.896267  1
  O  O35  1  0.929038  0.576326  0.603733  1
  O  O36  1  0.899482  0.915800  0.158008  1
  O  O37  1  0.084200  0.100518  0.341992  1
