# generated using pymatgen
data_SmTmFe2(Co3B)2
_symmetry_space_group_name_H-M   'P 1'
_cell_length_a   5.06262701
_cell_length_b   5.06247198
_cell_length_c   6.80725400
_cell_angle_alpha   90.00000000
_cell_angle_beta   90.00000000
_cell_angle_gamma   120.00641331
_symmetry_Int_Tables_number   1
_chemical_formula_structural   SmTmFe2(Co3B)2
_chemical_formula_sum   'Sm1 Tm1 Fe2 Co6 B2'
_cell_volume   151.08212405
_cell_formula_units_Z   1
loop_
 _symmetry_equiv_pos_site_id
 _symmetry_equiv_pos_as_xyz
  1  'x, y, z'
loop_
 _atom_site_type_symbol
 _atom_site_label
 _atom_site_symmetry_multiplicity
 _atom_site_fract_x
 _atom_site_fract_y
 _atom_site_fract_z
 _atom_site_occupancy
  Sm  Sm0  1  0.999976  0.000000  0.000000  1
  Tm  Tm1  1  0.999993  0.000000  0.500000  1
  Fe  Fe2  1  0.333320  0.666703  0.000000  1
  Fe  Fe3  1  0.666632  0.333299  0.000000  1
  Co  Co4  1  0.499985  0.999996  0.290266  1
  Co  Co5  1  0.499985  0.500004  0.290242  1
  Co  Co6  1  0.999987  0.499999  0.290256  1
  Co  Co7  1  0.499985  0.999996  0.709734  1
  Co  Co8  1  0.499985  0.500004  0.709757  1
  Co  Co9  1  0.999987  0.499999  0.709743  1
  B  B10  1  0.333308  0.666638  0.500000  1
  B  B11  1  0.666656  0.333361  0.500000  1
