# generated using pymatgen
data_TmTh5(GaPd)6
_symmetry_space_group_name_H-M   'P 1'
_cell_length_a   7.32635900
_cell_length_b   7.32993768
_cell_length_c   8.20493300
_cell_angle_alpha   90.00000000
_cell_angle_beta   90.00000000
_cell_angle_gamma   120.01991464
_symmetry_Int_Tables_number   1
_chemical_formula_structural   TmTh5(GaPd)6
_chemical_formula_sum   'Tm1 Th5 Ga6 Pd6'
_cell_volume   381.51091053
_cell_formula_units_Z   1
loop_
 _symmetry_equiv_pos_site_id
 _symmetry_equiv_pos_as_xyz
  1  'x, y, z'
loop_
 _atom_site_type_symbol
 _atom_site_label
 _atom_site_symmetry_multiplicity
 _atom_site_fract_x
 _atom_site_fract_y
 _atom_site_fract_z
 _atom_site_occupancy
  Tm  Tm0  1  0.999935  0.405769  0.250000  1
  Th  Th1  1  0.584067  0.582123  0.250000  1
  Th  Th2  1  0.000067  0.419606  0.750000  1
  Th  Th3  1  0.416183  0.998434  0.250000  1
  Th  Th4  1  0.414898  0.000973  0.750000  1
  Th  Th5  1  0.584895  0.586182  0.750000  1
  Ga  Ga6  1  0.240438  0.243454  0.498977  1
  Ga  Ga7  1  0.759524  0.003026  0.498919  1
  Ga  Ga8  1  0.000055  0.755630  0.495578  1
  Ga  Ga9  1  0.759524  0.003026  0.001081  1
  Ga  Ga10  1  0.240438  0.243454  0.001023  1
  Ga  Ga11  1  0.000055  0.755630  0.004422  1
  Pd  Pd12  1  0.332151  0.666087  0.497525  1
  Pd  Pd13  1  0.999896  0.001767  0.750000  1
  Pd  Pd14  1  0.000012  0.000773  0.250000  1
  Pd  Pd15  1  0.332151  0.666087  0.002475  1
  Pd  Pd16  1  0.667858  0.333991  0.497863  1
  Pd  Pd17  1  0.667858  0.333991  0.002137  1
