# generated using pymatgen
data_Dy3Fe2Sb3O14
_symmetry_space_group_name_H-M   'P 1'
_cell_length_a   7.19969607
_cell_length_b   7.20203053
_cell_length_c   7.17419715
_cell_angle_alpha   117.49342475
_cell_angle_beta   62.48978517
_cell_angle_gamma   117.37920135
_symmetry_Int_Tables_number   1
_chemical_formula_structural   Dy3Fe2Sb3O14
_chemical_formula_sum   'Dy3 Fe2 Sb3 O14'
_cell_volume   277.92216187
_cell_formula_units_Z   1
loop_
 _symmetry_equiv_pos_site_id
 _symmetry_equiv_pos_as_xyz
  1  'x, y, z'
loop_
 _atom_site_type_symbol
 _atom_site_label
 _atom_site_symmetry_multiplicity
 _atom_site_fract_x
 _atom_site_fract_y
 _atom_site_fract_z
 _atom_site_occupancy
  Dy  Dy0  1  0.000092  0.500075  0.999956  1
  Dy  Dy1  1  0.499955  0.999860  0.999994  1
  Dy  Dy2  1  0.499959  0.500036  0.500075  1
  Fe  Fe3  1  0.499864  0.499860  0.999896  1
  Fe  Fe4  1  0.999953  0.000051  0.500111  1
  Sb  Sb5  1  0.499997  0.000035  0.499975  1
  Sb  Sb6  1  0.000005  0.499986  0.499924  1
  Sb  Sb7  1  0.000056  0.000019  0.000048  1
  O  O8  1  0.618025  0.381813  0.114721  1
  O  O9  1  0.381933  0.618108  0.885231  1
  O  O10  1  0.076626  0.322605  0.176218  1
  O  O11  1  0.677349  0.923339  0.176405  1
  O  O12  1  0.675556  0.324263  0.584194  1
  O  O13  1  0.923467  0.677428  0.823762  1
  O  O14  1  0.322672  0.076722  0.823617  1
  O  O15  1  0.324485  0.675756  0.415834  1
  O  O16  1  0.645192  0.902032  0.595972  1
  O  O17  1  0.097971  0.354628  0.595738  1
  O  O18  1  0.095913  0.904321  0.147694  1
  O  O19  1  0.354845  0.097970  0.404044  1
  O  O20  1  0.902021  0.645355  0.404232  1
  O  O21  1  0.904065  0.095737  0.852361  1
