# generated using pymatgen
data_Y5Er5SnSb5
_symmetry_space_group_name_H-M   'P 1'
_cell_length_a   8.95305800
_cell_length_b   8.94345578
_cell_length_c   6.34090100
_cell_angle_alpha   90.00000000
_cell_angle_beta   90.00000000
_cell_angle_gamma   120.03552269
_symmetry_Int_Tables_number   1
_chemical_formula_structural   Y5Er5SnSb5
_chemical_formula_sum   'Y5 Er5 Sn1 Sb5'
_cell_volume   439.54444860
_cell_formula_units_Z   1
loop_
 _symmetry_equiv_pos_site_id
 _symmetry_equiv_pos_as_xyz
  1  'x, y, z'
loop_
 _atom_site_type_symbol
 _atom_site_label
 _atom_site_symmetry_multiplicity
 _atom_site_fract_x
 _atom_site_fract_y
 _atom_site_fract_z
 _atom_site_occupancy
  Y  Y0  1  0.001926  0.754919  0.750000  1
  Y  Y1  1  0.997996  0.244171  0.250000  1
  Y  Y2  1  0.753825  0.755829  0.250000  1
  Y  Y3  1  0.754151  0.000000  0.750000  1
  Y  Y4  1  0.247007  0.245081  0.750000  1
  Er  Er5  1  0.245780  0.000000  0.250000  1
  Er  Er6  1  0.334183  0.667505  0.499838  1
  Er  Er7  1  0.666679  0.332495  0.000162  1
  Er  Er8  1  0.666679  0.332495  0.499838  1
  Er  Er9  1  0.334183  0.667505  0.000162  1
  Sn  Sn10  1  0.604080  0.000000  0.250000  1
  Sb  Sb11  1  0.391840  0.000000  0.750000  1
  Sb  Sb12  1  0.389714  0.389364  0.250000  1
  Sb  Sb13  1  0.000350  0.610636  0.250000  1
  Sb  Sb14  1  0.001073  0.390543  0.750000  1
  Sb  Sb15  1  0.610531  0.609457  0.750000  1
