# generated using pymatgen
data_Pr2Co9As6Ru
_symmetry_space_group_name_H-M   'P 1'
_cell_length_a   3.86729300
_cell_length_b   10.87130700
_cell_length_c   12.31388900
_cell_angle_alpha   90.00000000
_cell_angle_beta   90.00000000
_cell_angle_gamma   90.00000000
_symmetry_Int_Tables_number   1
_chemical_formula_structural   Pr2Co9As6Ru
_chemical_formula_sum   'Pr4 Co18 As12 Ru2'
_cell_volume   517.70704107
_cell_formula_units_Z   2
loop_
 _symmetry_equiv_pos_site_id
 _symmetry_equiv_pos_as_xyz
  1  'x, y, z'
loop_
 _atom_site_type_symbol
 _atom_site_label
 _atom_site_symmetry_multiplicity
 _atom_site_fract_x
 _atom_site_fract_y
 _atom_site_fract_z
 _atom_site_occupancy
  Pr  Pr0  1  0.250000  0.582344  0.700538  1
  Pr  Pr1  1  0.250000  0.917656  0.200538  1
  Pr  Pr2  1  0.750000  0.414405  0.296984  1
  Pr  Pr3  1  0.750000  0.085595  0.796984  1
  Co  Co4  1  0.750000  0.290884  0.009299  1
  Co  Co5  1  0.750000  0.209116  0.509299  1
  Co  Co6  1  0.250000  0.405458  0.489944  1
  Co  Co7  1  0.250000  0.094542  0.989944  1
  Co  Co8  1  0.750000  0.595022  0.508887  1
  Co  Co9  1  0.750000  0.904978  0.008887  1
  Co  Co10  1  0.250000  0.215107  0.176615  1
  Co  Co11  1  0.250000  0.284893  0.676615  1
  Co  Co12  1  0.750000  0.783435  0.824271  1
  Co  Co13  1  0.750000  0.716565  0.324271  1
  Co  Co14  1  0.250000  0.887228  0.698428  1
  Co  Co15  1  0.250000  0.612772  0.198428  1
  Co  Co16  1  0.750000  0.115980  0.303994  1
  Co  Co17  1  0.750000  0.384020  0.803994  1
  Co  Co18  1  0.250000  0.468435  0.933060  1
  Co  Co19  1  0.250000  0.031565  0.433060  1
  Co  Co20  1  0.750000  0.530556  0.067530  1
  Co  Co21  1  0.750000  0.969444  0.567530  1
  As  As22  1  0.250000  0.414081  0.111118  1
  As  As23  1  0.250000  0.085919  0.611118  1
  As  As24  1  0.750000  0.582573  0.887530  1
  As  As25  1  0.750000  0.917427  0.387530  1
  As  As26  1  0.250000  0.273965  0.870401  1
  As  As27  1  0.250000  0.226035  0.370401  1
  As  As28  1  0.750000  0.725503  0.131906  1
  As  As29  1  0.750000  0.774497  0.631906  1
  As  As30  1  0.250000  0.598160  0.391421  1
  As  As31  1  0.250000  0.901840  0.891421  1
  As  As32  1  0.750000  0.395056  0.607210  1
  As  As33  1  0.750000  0.104944  0.107210  1
  Ru  Ru34  1  0.250000  0.709412  0.990864  1
  Ru  Ru35  1  0.250000  0.790588  0.490864  1
