# generated using pymatgen
data_LaNp2Sb4Pt3
_symmetry_space_group_name_H-M   'P 1'
_cell_length_a   8.52609816
_cell_length_b   8.52609785
_cell_length_c   8.52609900
_cell_angle_alpha   109.23717594
_cell_angle_beta   109.23716810
_cell_angle_gamma   109.94033974
_symmetry_Int_Tables_number   1
_chemical_formula_structural   LaNp2Sb4Pt3
_chemical_formula_sum   'La2 Np4 Sb8 Pt6'
_cell_volume   477.09763031
_cell_formula_units_Z   2
loop_
 _symmetry_equiv_pos_site_id
 _symmetry_equiv_pos_as_xyz
  1  'x, y, z'
loop_
 _atom_site_type_symbol
 _atom_site_label
 _atom_site_symmetry_multiplicity
 _atom_site_fract_x
 _atom_site_fract_y
 _atom_site_fract_z
 _atom_site_occupancy
  La  La0  1  0.125269  0.874850  0.250048  1
  La  La1  1  0.375198  0.625150  0.750419  1
  Np  Np2  1  0.875171  0.250000  0.125171  1
  Np  Np3  1  0.623957  0.750000  0.373957  1
  Np  Np4  1  0.249144  0.124172  0.874996  1
  Np  Np5  1  0.750824  0.375828  0.624971  1
  Sb  Sb6  1  0.671038  0.494553  0.997967  1
  Sb  Sb7  1  0.503414  0.005447  0.676485  1
  Sb  Sb8  1  0.996825  0.672054  0.500739  1
  Sb  Sb9  1  0.828685  0.827946  0.824771  1
  Sb  Sb10  1  0.505168  0.002969  0.176975  1
  Sb  Sb11  1  0.174005  0.497031  0.002199  1
  Sb  Sb12  1  0.994303  0.170488  0.498129  1
  Sb  Sb13  1  0.327641  0.329512  0.323815  1
  Pt  Pt14  1  0.374860  0.250000  0.624860  1
  Pt  Pt15  1  0.123697  0.750000  0.873697  1
  Pt  Pt16  1  0.249344  0.624147  0.374731  1
  Pt  Pt17  1  0.750584  0.875853  0.125197  1
  Pt  Pt18  1  0.625597  0.374797  0.250071  1
  Pt  Pt19  1  0.875274  0.125203  0.750801  1
