# generated using pymatgen
data_Pr3Mn4BiF28
_symmetry_space_group_name_H-M   'P 1'
_cell_length_a   5.56656678
_cell_length_b   9.05242874
_cell_length_c   12.06036725
_cell_angle_alpha   61.78055223
_cell_angle_beta   90.10802336
_cell_angle_gamma   89.95901377
_symmetry_Int_Tables_number   1
_chemical_formula_structural   Pr3Mn4BiF28
_chemical_formula_sum   'Pr3 Mn4 Bi1 F28'
_cell_volume   535.49814949
_cell_formula_units_Z   1
loop_
 _symmetry_equiv_pos_site_id
 _symmetry_equiv_pos_as_xyz
  1  'x, y, z'
loop_
 _atom_site_type_symbol
 _atom_site_label
 _atom_site_symmetry_multiplicity
 _atom_site_fract_x
 _atom_site_fract_y
 _atom_site_fract_z
 _atom_site_occupancy
  Pr  Pr0  1  0.259892  0.193410  0.736437  1
  Pr  Pr1  1  0.239821  0.192142  0.235529  1
  Pr  Pr2  1  0.740551  0.808153  0.264086  1
  Mn  Mn3  1  0.756635  0.275071  0.957292  1
  Mn  Mn4  1  0.257342  0.726421  0.543332  1
  Mn  Mn5  1  0.243323  0.726413  0.041076  1
  Mn  Mn6  1  0.743577  0.273343  0.458389  1
  Bi  Bi7  1  0.765863  0.813367  0.762292  1
  F  F8  1  0.425480  0.709408  0.921281  1
  F  F9  1  0.926342  0.290173  0.579191  1
  F  F10  1  0.574543  0.291105  0.077995  1
  F  F11  1  0.074012  0.709150  0.422435  1
  F  F12  1  0.463014  0.280867  0.538112  1
  F  F13  1  0.959679  0.719545  0.960828  1
  F  F14  1  0.536746  0.717739  0.463295  1
  F  F15  1  0.037455  0.282309  0.036609  1
  F  F16  1  0.766155  0.504247  0.865434  1
  F  F17  1  0.266352  0.494684  0.635186  1
  F  F18  1  0.232799  0.495892  0.133839  1
  F  F19  1  0.733483  0.503456  0.366048  1
  F  F20  1  0.759433  0.044245  0.045950  1
  F  F21  1  0.259426  0.956264  0.454273  1
  F  F22  1  0.241148  0.956928  0.952503  1
  F  F23  1  0.741011  0.041738  0.547680  1
  F  F24  1  0.980759  0.729168  0.626908  1
  F  F25  1  0.480952  0.271054  0.873022  1
  F  F26  1  0.018289  0.271152  0.374703  1
  F  F27  1  0.517943  0.728228  0.125923  1
  F  F28  1  0.063196  0.739242  0.165557  1
  F  F29  1  0.564249  0.260298  0.334406  1
  F  F30  1  0.936277  0.260604  0.833043  1
  F  F31  1  0.437646  0.740124  0.667094  1
  F  F32  1  0.395652  0.965345  0.226130  1
  F  F33  1  0.895430  0.035427  0.273651  1
  F  F34  1  0.608638  0.029698  0.773641  1
  F  F35  1  0.096887  0.963589  0.726828  1
