# generated using pymatgen
data_PaCr3(AgS4)2
_symmetry_space_group_name_H-M   'P 1'
_cell_length_a   7.47670354
_cell_length_b   7.47670314
_cell_length_c   7.47670338
_cell_angle_alpha   58.49084640
_cell_angle_beta   58.49084921
_cell_angle_gamma   58.49085382
_symmetry_Int_Tables_number   1
_chemical_formula_structural   PaCr3(AgS4)2
_chemical_formula_sum   'Pa1 Cr3 Ag2 S8'
_cell_volume   285.33598026
_cell_formula_units_Z   1
loop_
 _symmetry_equiv_pos_site_id
 _symmetry_equiv_pos_as_xyz
  1  'x, y, z'
loop_
 _atom_site_type_symbol
 _atom_site_label
 _atom_site_symmetry_multiplicity
 _atom_site_fract_x
 _atom_site_fract_y
 _atom_site_fract_z
 _atom_site_occupancy
  Pa  Pa0  1  0.500000  0.500000  0.500000  1
  Cr  Cr1  1  0.500000  0.000000  0.500000  1
  Cr  Cr2  1  0.500000  0.500000  0.000000  1
  Cr  Cr3  1  0.000000  0.500000  0.500000  1
  Ag  Ag4  1  0.133416  0.133416  0.133416  1
  Ag  Ag5  1  0.866584  0.866584  0.866584  1
  S  S6  1  0.247273  0.716779  0.247273  1
  S  S7  1  0.752727  0.752727  0.283221  1
  S  S8  1  0.283221  0.752727  0.752727  1
  S  S9  1  0.732541  0.732541  0.732541  1
  S  S10  1  0.716779  0.247273  0.247273  1
  S  S11  1  0.267459  0.267459  0.267459  1
  S  S12  1  0.752727  0.283221  0.752727  1
  S  S13  1  0.247273  0.247273  0.716779  1
