# generated using pymatgen
data_Ho7ErSi8Pd3Pt5
_symmetry_space_group_name_H-M   'P 1'
_cell_length_a   4.26697100
_cell_length_b   7.49606798
_cell_length_c   13.98063100
_cell_angle_alpha   89.97213218
_cell_angle_beta   90.00000000
_cell_angle_gamma   90.00000000
_symmetry_Int_Tables_number   1
_chemical_formula_structural   Ho7ErSi8Pd3Pt5
_chemical_formula_sum   'Ho7 Er1 Si8 Pd3 Pt5'
_cell_volume   447.17748578
_cell_formula_units_Z   1
loop_
 _symmetry_equiv_pos_site_id
 _symmetry_equiv_pos_as_xyz
  1  'x, y, z'
loop_
 _atom_site_type_symbol
 _atom_site_label
 _atom_site_symmetry_multiplicity
 _atom_site_fract_x
 _atom_site_fract_y
 _atom_site_fract_z
 _atom_site_occupancy
  Ho  Ho0  1  0.000000  0.299656  0.000182  1
  Ho  Ho1  1  0.500000  0.700452  0.500181  1
  Ho  Ho2  1  0.000000  0.292699  0.499741  1
  Ho  Ho3  1  0.500000  0.706731  0.999895  1
  Ho  Ho4  1  0.000000  0.203478  0.249971  1
  Ho  Ho5  1  0.500000  0.795535  0.249791  1
  Ho  Ho6  1  0.500000  0.796133  0.750573  1
  Er  Er7  1  0.000000  0.204307  0.749737  1
  Si  Si8  1  0.000000  0.907044  0.592240  1
  Si  Si9  1  0.500000  0.093246  0.907906  1
  Si  Si10  1  0.000000  0.907138  0.408141  1
  Si  Si11  1  0.500000  0.094670  0.092875  1
  Si  Si12  1  0.000000  0.593271  0.144189  1
  Si  Si13  1  0.500000  0.404151  0.353905  1
  Si  Si14  1  0.000000  0.595506  0.857434  1
  Si  Si15  1  0.500000  0.404053  0.643201  1
  Pd  Pd16  1  0.000000  0.580409  0.343855  1
  Pd  Pd17  1  0.500000  0.420925  0.840304  1
  Pd  Pd18  1  0.000000  0.578603  0.658320  1
  Pt  Pt19  1  0.500000  0.074968  0.609179  1
  Pt  Pt20  1  0.000000  0.925751  0.891042  1
  Pt  Pt21  1  0.500000  0.074756  0.391611  1
  Pt  Pt22  1  0.000000  0.923989  0.108855  1
  Pt  Pt23  1  0.500000  0.422529  0.156871  1
