# generated using pymatgen
data_Ti4MnCo10SiB4
_symmetry_space_group_name_H-M   'P 1'
_cell_length_a   8.37248300
_cell_length_b   8.37248300
_cell_length_c   2.98393000
_cell_angle_alpha   90.00000000
_cell_angle_beta   90.00000000
_cell_angle_gamma   90.00000000
_symmetry_Int_Tables_number   1
_chemical_formula_structural   Ti4MnCo10SiB4
_chemical_formula_sum   'Ti4 Mn1 Co10 Si1 B4'
_cell_volume   209.16893232
_cell_formula_units_Z   1
loop_
 _symmetry_equiv_pos_site_id
 _symmetry_equiv_pos_as_xyz
  1  'x, y, z'
loop_
 _atom_site_type_symbol
 _atom_site_label
 _atom_site_symmetry_multiplicity
 _atom_site_fract_x
 _atom_site_fract_y
 _atom_site_fract_z
 _atom_site_occupancy
  Ti  Ti0  1  0.824277  0.324407  0.000000  1
  Ti  Ti1  1  0.324407  0.175723  0.000000  1
  Ti  Ti2  1  0.675593  0.824277  0.000000  1
  Ti  Ti3  1  0.175723  0.675593  0.000000  1
  Mn  Mn4  1  0.500000  0.500000  0.000000  1
  Co  Co5  1  0.500000  0.000000  0.500000  1
  Co  Co6  1  0.000000  0.500000  0.500000  1
  Co  Co7  1  0.067591  0.214220  0.500000  1
  Co  Co8  1  0.214220  0.932409  0.500000  1
  Co  Co9  1  0.785780  0.067591  0.500000  1
  Co  Co10  1  0.932409  0.785780  0.500000  1
  Co  Co11  1  0.426964  0.719314  0.500000  1
  Co  Co12  1  0.573036  0.280686  0.500000  1
  Co  Co13  1  0.719314  0.573036  0.500000  1
  Co  Co14  1  0.280686  0.426964  0.500000  1
  Si  Si15  1  0.000000  0.000000  0.000000  1
  B  B16  1  0.621136  0.121146  0.000000  1
  B  B17  1  0.121146  0.378864  0.000000  1
  B  B18  1  0.878854  0.621136  0.000000  1
  B  B19  1  0.378864  0.878854  0.000000  1
