# generated using pymatgen
data_Ba4Sr4Si15Sn
_symmetry_space_group_name_H-M   'P 1'
_cell_length_a   6.65060700
_cell_length_b   8.89156300
_cell_length_c   11.36929457
_cell_angle_alpha   89.93599464
_cell_angle_beta   90.00000000
_cell_angle_gamma   90.00000000
_symmetry_Int_Tables_number   1
_chemical_formula_structural   Ba4Sr4Si15Sn
_chemical_formula_sum   'Ba4 Sr4 Si15 Sn1'
_cell_volume   672.31475561
_cell_formula_units_Z   1
loop_
 _symmetry_equiv_pos_site_id
 _symmetry_equiv_pos_as_xyz
  1  'x, y, z'
loop_
 _atom_site_type_symbol
 _atom_site_label
 _atom_site_symmetry_multiplicity
 _atom_site_fract_x
 _atom_site_fract_y
 _atom_site_fract_z
 _atom_site_occupancy
  Ba  Ba0  1  0.250000  0.851169  0.906321  1
  Ba  Ba1  1  0.250000  0.337377  0.591831  1
  Ba  Ba2  1  0.750000  0.159438  0.093528  1
  Ba  Ba3  1  0.750000  0.658156  0.405431  1
  Sr  Sr4  1  0.250000  0.008482  0.301328  1
  Sr  Sr5  1  0.250000  0.511148  0.207412  1
  Sr  Sr6  1  0.750000  0.987393  0.696945  1
  Sr  Sr7  1  0.750000  0.490162  0.797758  1
  Si  Si8  1  0.250000  0.924417  0.584610  1
  Si  Si9  1  0.750000  0.572953  0.084992  1
  Si  Si10  1  0.750000  0.073398  0.415885  1
  Si  Si11  1  0.250000  0.194929  0.039185  1
  Si  Si12  1  0.250000  0.699574  0.462009  1
  Si  Si13  1  0.750000  0.797538  0.961816  1
  Si  Si14  1  0.750000  0.298477  0.538572  1
  Si  Si15  1  0.067037  0.196061  0.854153  1
  Si  Si16  1  0.431479  0.700260  0.645140  1
  Si  Si17  1  0.567896  0.797488  0.144893  1
  Si  Si18  1  0.931385  0.297206  0.355356  1
  Si  Si19  1  0.932104  0.797488  0.144893  1
  Si  Si20  1  0.568615  0.297206  0.355356  1
  Si  Si21  1  0.432963  0.196061  0.854153  1
  Si  Si22  1  0.068521  0.700260  0.645140  1
  Sn  Sn23  1  0.250000  0.453359  0.913289  1
