# generated using pymatgen
data_Y4Cd2Cu3Ir
_symmetry_space_group_name_H-M   'P 1'
_cell_length_a   7.56033102
_cell_length_b   7.56033102
_cell_length_c   3.77719200
_cell_angle_alpha   90.00000000
_cell_angle_beta   90.00000000
_cell_angle_gamma   90.00780583
_symmetry_Int_Tables_number   1
_chemical_formula_structural   Y4Cd2Cu3Ir
_chemical_formula_sum   'Y4 Cd2 Cu3 Ir1'
_cell_volume   215.89902389
_cell_formula_units_Z   1
loop_
 _symmetry_equiv_pos_site_id
 _symmetry_equiv_pos_as_xyz
  1  'x, y, z'
loop_
 _atom_site_type_symbol
 _atom_site_label
 _atom_site_symmetry_multiplicity
 _atom_site_fract_x
 _atom_site_fract_y
 _atom_site_fract_z
 _atom_site_occupancy
  Y  Y0  1  0.672078  0.172078  0.500000  1
  Y  Y1  1  0.316864  0.816864  0.500000  1
  Y  Y2  1  0.180226  0.337484  0.500000  1
  Y  Y3  1  0.837484  0.680226  0.500000  1
  Cd  Cd4  1  0.999182  0.005751  0.000000  1
  Cd  Cd5  1  0.505751  0.499182  0.000000  1
  Cu  Cu6  1  0.874281  0.374281  0.000000  1
  Cu  Cu7  1  0.617054  0.879598  0.000000  1
  Cu  Cu8  1  0.379598  0.117054  0.000000  1
  Ir  Ir9  1  0.117482  0.617482  0.000000  1
