# generated using pymatgen
data_La3TiCrC6
_symmetry_space_group_name_H-M   'P 1'
_cell_length_a   8.49826500
_cell_length_b   8.49826479
_cell_length_c   5.34342400
_cell_angle_alpha   90.00000000
_cell_angle_beta   90.00000000
_cell_angle_gamma   119.99998915
_symmetry_Int_Tables_number   1
_chemical_formula_structural   La3TiCrC6
_chemical_formula_sum   'La6 Ti2 Cr2 C12'
_cell_volume   334.20338484
_cell_formula_units_Z   2
loop_
 _symmetry_equiv_pos_site_id
 _symmetry_equiv_pos_as_xyz
  1  'x, y, z'
loop_
 _atom_site_type_symbol
 _atom_site_label
 _atom_site_symmetry_multiplicity
 _atom_site_fract_x
 _atom_site_fract_y
 _atom_site_fract_z
 _atom_site_occupancy
  La  La0  1  0.610772  0.685599  0.750000  1
  La  La1  1  0.925174  0.610772  0.250000  1
  La  La2  1  0.685599  0.074826  0.250000  1
  La  La3  1  0.314401  0.925174  0.750000  1
  La  La4  1  0.074826  0.389228  0.750000  1
  La  La5  1  0.389228  0.314401  0.250000  1
  Ti  Ti6  1  0.000000  0.000000  0.500000  1
  Ti  Ti7  1  0.000000  0.000000  0.000000  1
  Cr  Cr8  1  0.666667  0.333333  0.750000  1
  Cr  Cr9  1  0.333333  0.666667  0.250000  1
  C  C10  1  0.950989  0.762512  0.750000  1
  C  C11  1  0.188476  0.950989  0.250000  1
  C  C12  1  0.762512  0.811524  0.250000  1
  C  C13  1  0.237488  0.188476  0.750000  1
  C  C14  1  0.811524  0.049011  0.750000  1
  C  C15  1  0.049011  0.237488  0.250000  1
  C  C16  1  0.853213  0.574876  0.750000  1
  C  C17  1  0.278336  0.853213  0.250000  1
  C  C18  1  0.574876  0.721664  0.250000  1
  C  C19  1  0.425124  0.278336  0.750000  1
  C  C20  1  0.146787  0.425124  0.250000  1
  C  C21  1  0.721664  0.146787  0.750000  1
