# generated using pymatgen
data_TbPrYAl7Ag2
_symmetry_space_group_name_H-M   'P 1'
_cell_length_a   9.44372287
_cell_length_b   9.44372374
_cell_length_c   9.44372287
_cell_angle_alpha   34.44384076
_cell_angle_beta   34.44384353
_cell_angle_gamma   34.44384085
_symmetry_Int_Tables_number   1
_chemical_formula_structural   TbPrYAl7Ag2
_chemical_formula_sum   'Tb1 Pr1 Y1 Al7 Ag2'
_cell_volume   240.34189716
_cell_formula_units_Z   1
loop_
 _symmetry_equiv_pos_site_id
 _symmetry_equiv_pos_as_xyz
  1  'x, y, z'
loop_
 _atom_site_type_symbol
 _atom_site_label
 _atom_site_symmetry_multiplicity
 _atom_site_fract_x
 _atom_site_fract_y
 _atom_site_fract_z
 _atom_site_occupancy
  Tb  Tb0  1  0.857749  0.857749  0.857749  1
  Pr  Pr1  1  0.999818  0.999818  0.999818  1
  Y  Y2  1  0.142195  0.142195  0.142195  1
  Al  Al3  1  0.412181  0.412181  0.922930  1
  Al  Al4  1  0.922930  0.412181  0.412181  1
  Al  Al5  1  0.412181  0.922930  0.412181  1
  Al  Al6  1  0.499971  0.499971  0.499971  1
  Al  Al7  1  0.587930  0.076934  0.587930  1
  Al  Al8  1  0.076934  0.587930  0.587930  1
  Al  Al9  1  0.587930  0.587930  0.076934  1
  Ag  Ag10  1  0.664405  0.664405  0.664405  1
  Ag  Ag11  1  0.335775  0.335775  0.335775  1
