# generated using pymatgen
data_TbDy5TcSb2
_symmetry_space_group_name_H-M   'P 1'
_cell_length_a   8.20748200
_cell_length_b   8.20736393
_cell_length_c   4.24915800
_cell_angle_alpha   90.00000000
_cell_angle_beta   90.00000000
_cell_angle_gamma   120.00048394
_symmetry_Int_Tables_number   1
_chemical_formula_structural   TbDy5TcSb2
_chemical_formula_sum   'Tb1 Dy5 Tc1 Sb2'
_cell_volume   247.88201864
_cell_formula_units_Z   1
loop_
 _symmetry_equiv_pos_site_id
 _symmetry_equiv_pos_as_xyz
  1  'x, y, z'
loop_
 _atom_site_type_symbol
 _atom_site_label
 _atom_site_symmetry_multiplicity
 _atom_site_fract_x
 _atom_site_fract_y
 _atom_site_fract_z
 _atom_site_occupancy
  Tb  Tb0  1  0.601080  0.000000  0.500000  1
  Dy  Dy1  1  0.236549  0.000000  0.000000  1
  Dy  Dy2  1  0.763456  0.763376  0.000000  1
  Dy  Dy3  1  0.000080  0.236624  0.000000  1
  Dy  Dy4  1  0.398850  0.398869  0.500000  1
  Dy  Dy5  1  0.999981  0.601131  0.500000  1
  Tc  Tc6  1  0.000105  0.000000  0.500000  1
  Sb  Sb7  1  0.333229  0.666561  0.000000  1
  Sb  Sb8  1  0.666669  0.333439  0.000000  1
