# generated using pymatgen
data_Tb4Al5ZnPt8
_symmetry_space_group_name_H-M   'P 1'
_cell_length_a   8.17446626
_cell_length_b   8.17446534
_cell_length_c   7.61690628
_cell_angle_alpha   89.97741288
_cell_angle_beta   89.97740646
_cell_angle_gamma   140.12837555
_symmetry_Int_Tables_number   1
_chemical_formula_structural   Tb4Al5ZnPt8
_chemical_formula_sum   'Tb4 Al5 Zn1 Pt8'
_cell_volume   326.28888403
_cell_formula_units_Z   1
loop_
 _symmetry_equiv_pos_site_id
 _symmetry_equiv_pos_as_xyz
  1  'x, y, z'
loop_
 _atom_site_type_symbol
 _atom_site_label
 _atom_site_symmetry_multiplicity
 _atom_site_fract_x
 _atom_site_fract_y
 _atom_site_fract_z
 _atom_site_occupancy
  Tb  Tb0  1  0.106125  0.889992  0.406715  1
  Tb  Tb1  1  0.894357  0.109070  0.590530  1
  Tb  Tb2  1  0.390930  0.605643  0.909470  1
  Tb  Tb3  1  0.610008  0.393875  0.093285  1
  Al  Al4  1  0.999990  0.999249  0.000017  1
  Al  Al5  1  0.500751  0.500010  0.499983  1
  Al  Al6  1  0.476714  0.023286  0.750000  1
  Al  Al7  1  0.976984  0.523016  0.750000  1
  Al  Al8  1  0.523175  0.976825  0.250000  1
  Zn  Zn9  1  0.021919  0.478081  0.250000  1
  Pt  Pt10  1  0.193312  0.306688  0.250000  1
  Pt  Pt11  1  0.309091  0.190909  0.750000  1
  Pt  Pt12  1  0.809877  0.690123  0.750000  1
  Pt  Pt13  1  0.689587  0.810413  0.250000  1
  Pt  Pt14  1  0.189879  0.827003  0.023849  1
  Pt  Pt15  1  0.812196  0.177893  0.967675  1
  Pt  Pt16  1  0.322107  0.687804  0.532325  1
  Pt  Pt17  1  0.672997  0.310121  0.476151  1
