# generated using pymatgen
data_CsSrAsO3
_symmetry_space_group_name_H-M   'P 1'
_cell_length_a   7.96125089
_cell_length_b   7.86987200
_cell_length_c   8.12647000
_cell_angle_alpha   89.99975975
_cell_angle_beta   99.66721022
_cell_angle_gamma   90.00037049
_symmetry_Int_Tables_number   1
_chemical_formula_structural   CsSrAsO3
_chemical_formula_sum   'Cs4 Sr4 As4 O12'
_cell_volume   501.92590623
_cell_formula_units_Z   4
loop_
 _symmetry_equiv_pos_site_id
 _symmetry_equiv_pos_as_xyz
  1  'x, y, z'
loop_
 _atom_site_type_symbol
 _atom_site_label
 _atom_site_symmetry_multiplicity
 _atom_site_fract_x
 _atom_site_fract_y
 _atom_site_fract_z
 _atom_site_occupancy
  Cs  Cs0  1  0.130279  0.441879  0.225544  1
  Cs  Cs1  1  0.869722  0.941882  0.274458  1
  Cs  Cs2  1  0.130276  0.058118  0.725542  1
  Cs  Cs3  1  0.869721  0.558122  0.774456  1
  Sr  Sr4  1  0.565861  0.270507  0.998393  1
  Sr  Sr5  1  0.434139  0.770506  0.501608  1
  Sr  Sr6  1  0.565862  0.229493  0.498391  1
  Sr  Sr7  1  0.434138  0.729492  0.001612  1
  As  As8  1  0.268819  0.026600  0.204071  1
  As  As9  1  0.731184  0.526603  0.295929  1
  As  As10  1  0.268815  0.473401  0.704063  1
  As  As11  1  0.731185  0.973397  0.795932  1
  O  O12  1  0.234215  0.801767  0.205514  1
  O  O13  1  0.709587  0.571911  0.076642  1
  O  O14  1  0.489678  0.026019  0.184661  1
  O  O15  1  0.510330  0.526021  0.315340  1
  O  O16  1  0.290412  0.071911  0.423353  1
  O  O17  1  0.765788  0.301771  0.294485  1
  O  O18  1  0.234213  0.698231  0.705516  1
  O  O19  1  0.709588  0.928091  0.576649  1
  O  O20  1  0.489669  0.473978  0.684659  1
  O  O21  1  0.510326  0.973980  0.815340  1
  O  O22  1  0.290411  0.428091  0.923355  1
  O  O23  1  0.765783  0.198229  0.794486  1
