# generated using pymatgen
data_Ho4Er8Co4BiRu
_symmetry_space_group_name_H-M   'P 1'
_cell_length_a   8.27268462
_cell_length_b   8.27268402
_cell_length_c   8.27268417
_cell_angle_alpha   110.68621296
_cell_angle_beta   111.15860547
_cell_angle_gamma   106.60663793
_symmetry_Int_Tables_number   1
_chemical_formula_structural   Ho4Er8Co4BiRu
_chemical_formula_sum   'Ho4 Er8 Co4 Bi1 Ru1'
_cell_volume   435.01063607
_cell_formula_units_Z   1
loop_
 _symmetry_equiv_pos_site_id
 _symmetry_equiv_pos_as_xyz
  1  'x, y, z'
loop_
 _atom_site_type_symbol
 _atom_site_label
 _atom_site_symmetry_multiplicity
 _atom_site_fract_x
 _atom_site_fract_y
 _atom_site_fract_z
 _atom_site_occupancy
  Ho  Ho0  1  0.284438  0.182971  0.467408  1
  Ho  Ho1  1  0.715562  0.817029  0.532592  1
  Ho  Ho2  1  0.284438  0.817029  0.101468  1
  Ho  Ho3  1  0.715562  0.182971  0.898532  1
  Er  Er4  1  0.620320  0.311457  0.308864  1
  Er  Er5  1  0.379680  0.688543  0.691136  1
  Er  Er6  1  0.002595  0.311457  0.691136  1
  Er  Er7  1  0.997405  0.688543  0.308864  1
  Er  Er8  1  0.212293  0.408510  0.196216  1
  Er  Er9  1  0.787707  0.591490  0.803784  1
  Er  Er10  1  0.212293  0.016076  0.803784  1
  Er  Er11  1  0.787707  0.983924  0.196216  1
  Co  Co12  1  0.000000  0.375968  0.375968  1
  Co  Co13  1  0.000000  0.624032  0.624032  1
  Co  Co14  1  0.388657  0.888657  0.500000  1
  Co  Co15  1  0.611343  0.111343  0.500000  1
  Bi  Bi16  1  0.500000  0.500000  0.000000  1
  Ru  Ru17  1  0.000000  0.000000  0.000000  1
