# generated using pymatgen
data_Rb2Gd10Fe2Cl17
_symmetry_space_group_name_H-M   'P 1'
_cell_length_a   8.67550700
_cell_length_b   10.52212055
_cell_length_c   10.52087300
_cell_angle_alpha   106.89430605
_cell_angle_beta   92.92117165
_cell_angle_gamma   92.92503667
_symmetry_Int_Tables_number   1
_chemical_formula_structural   Rb2Gd10Fe2Cl17
_chemical_formula_sum   'Rb2 Gd10 Fe2 Cl17'
_cell_volume   915.57181952
_cell_formula_units_Z   1
loop_
 _symmetry_equiv_pos_site_id
 _symmetry_equiv_pos_as_xyz
  1  'x, y, z'
loop_
 _atom_site_type_symbol
 _atom_site_label
 _atom_site_symmetry_multiplicity
 _atom_site_fract_x
 _atom_site_fract_y
 _atom_site_fract_z
 _atom_site_occupancy
  Rb  Rb0  1  0.000111  0.818947  0.181057  1
  Rb  Rb1  1  0.999889  0.181052  0.818942  1
  Gd  Gd2  1  0.436690  0.162325  0.162389  1
  Gd  Gd3  1  0.574578  0.512899  0.199201  1
  Gd  Gd4  1  0.828698  0.290990  0.291058  1
  Gd  Gd5  1  0.304829  0.430630  0.430735  1
  Gd  Gd6  1  0.425411  0.800972  0.486954  1
  Gd  Gd7  1  0.574589  0.199029  0.513047  1
  Gd  Gd8  1  0.695171  0.569370  0.569265  1
  Gd  Gd9  1  0.171303  0.709010  0.708942  1
  Gd  Gd10  1  0.425422  0.487102  0.800800  1
  Gd  Gd11  1  0.563309  0.837675  0.837611  1
  Fe  Fe12  1  0.570119  0.358984  0.359143  1
  Fe  Fe13  1  0.429881  0.641016  0.640857  1
  Cl  Cl14  1  0.579571  0.682579  0.017199  1
  Cl  Cl15  1  0.716184  0.068035  0.067997  1
  Cl  Cl16  1  0.860412  0.446640  0.120553  1
  Cl  Cl17  1  0.131504  0.210222  0.210398  1
  Cl  Cl18  1  0.282126  0.609465  0.258985  1
  Cl  Cl19  1  0.420160  0.982511  0.317355  1
  Cl  Cl20  1  0.717889  0.741129  0.390315  1
  Cl  Cl21  1  0.860575  0.120358  0.446480  1
  Cl  Cl22  1  0.000000  0.499999  0.499999  1
  Cl  Cl23  1  0.139425  0.879642  0.553520  1
  Cl  Cl24  1  0.282112  0.258871  0.609685  1
  Cl  Cl25  1  0.579840  0.017489  0.682646  1
  Cl  Cl26  1  0.717875  0.390535  0.741015  1
  Cl  Cl27  1  0.868496  0.789778  0.789602  1
  Cl  Cl28  1  0.139588  0.553360  0.879447  1
  Cl  Cl29  1  0.283816  0.931964  0.932002  1
  Cl  Cl30  1  0.420429  0.317422  0.982801  1
