# generated using pymatgen
data_Er3SnPd3Pb2
_symmetry_space_group_name_H-M   'P 1'
_cell_length_a   7.76007294
_cell_length_b   7.70852744
_cell_length_c   3.86901100
_cell_angle_alpha   90.00000000
_cell_angle_beta   90.00000000
_cell_angle_gamma   119.78050675
_symmetry_Int_Tables_number   1
_chemical_formula_structural   Er3SnPd3Pb2
_chemical_formula_sum   'Er3 Sn1 Pd3 Pb2'
_cell_volume   200.87418796
_cell_formula_units_Z   1
loop_
 _symmetry_equiv_pos_site_id
 _symmetry_equiv_pos_as_xyz
  1  'x, y, z'
loop_
 _atom_site_type_symbol
 _atom_site_label
 _atom_site_symmetry_multiplicity
 _atom_site_fract_x
 _atom_site_fract_y
 _atom_site_fract_z
 _atom_site_occupancy
  Er  Er0  1  0.398289  0.401708  0.500000  1
  Er  Er1  1  0.601711  0.003419  0.500000  1
  Er  Er2  1  0.000000  0.595211  0.500000  1
  Sn  Sn3  1  0.000000  0.264468  0.000000  1
  Pd  Pd4  1  0.673372  0.331336  0.000000  1
  Pd  Pd5  1  0.326628  0.657966  0.000000  1
  Pd  Pd6  1  0.000000  0.010239  0.500000  1
  Pb  Pb7  1  0.733828  0.734741  0.000000  1
  Pb  Pb8  1  0.266172  0.000913  0.000000  1
