# generated using pymatgen
data_Er2Si14TcIr5
_symmetry_space_group_name_H-M   'P 1'
_cell_length_a   7.99152059
_cell_length_b   7.99152170
_cell_length_c   8.07370373
_cell_angle_alpha   56.86208909
_cell_angle_beta   56.86208323
_cell_angle_gamma   57.06368358
_symmetry_Int_Tables_number   1
_chemical_formula_structural   Er2Si14TcIr5
_chemical_formula_sum   'Er2 Si14 Tc1 Ir5'
_cell_volume   338.77294897
_cell_formula_units_Z   1
loop_
 _symmetry_equiv_pos_site_id
 _symmetry_equiv_pos_as_xyz
  1  'x, y, z'
loop_
 _atom_site_type_symbol
 _atom_site_label
 _atom_site_symmetry_multiplicity
 _atom_site_fract_x
 _atom_site_fract_y
 _atom_site_fract_z
 _atom_site_occupancy
  Er  Er0  1  0.000857  0.002845  0.996993  1
  Er  Er1  1  0.497155  0.499143  0.503007  1
  Si  Si2  1  0.754238  0.745762  0.750000  1
  Si  Si3  1  0.249315  0.250685  0.250000  1
  Si  Si4  1  0.848847  0.065045  0.672927  1
  Si  Si5  1  0.671515  0.852845  0.063454  1
  Si  Si6  1  0.061594  0.670862  0.851639  1
  Si  Si7  1  0.647155  0.828485  0.436546  1
  Si  Si8  1  0.434955  0.651153  0.827073  1
  Si  Si9  1  0.829138  0.438406  0.648361  1
  Si  Si10  1  0.171896  0.562024  0.355423  1
  Si  Si11  1  0.566717  0.350505  0.170884  1
  Si  Si12  1  0.351747  0.174717  0.563305  1
  Si  Si13  1  0.937976  0.328104  0.144577  1
  Si  Si14  1  0.325283  0.148253  0.936695  1
  Si  Si15  1  0.149495  0.933283  0.329116  1
  Tc  Tc16  1  0.078141  0.421859  0.750000  1
  Ir  Ir17  1  0.249920  0.927572  0.571693  1
  Ir  Ir18  1  0.572428  0.250080  0.928307  1
  Ir  Ir19  1  0.924421  0.575579  0.250000  1
  Ir  Ir20  1  0.427720  0.750511  0.071851  1
  Ir  Ir21  1  0.749489  0.072280  0.428149  1
