# generated using pymatgen
data_Th2AlNi5Pt4
_symmetry_space_group_name_H-M   'P 1'
_cell_length_a   5.08580682
_cell_length_b   5.08580762
_cell_length_c   8.30120600
_cell_angle_alpha   90.00000000
_cell_angle_beta   90.00000000
_cell_angle_gamma   115.54621857
_symmetry_Int_Tables_number   1
_chemical_formula_structural   Th2AlNi5Pt4
_chemical_formula_sum   'Th2 Al1 Ni5 Pt4'
_cell_volume   193.72334317
_cell_formula_units_Z   1
loop_
 _symmetry_equiv_pos_site_id
 _symmetry_equiv_pos_as_xyz
  1  'x, y, z'
loop_
 _atom_site_type_symbol
 _atom_site_label
 _atom_site_symmetry_multiplicity
 _atom_site_fract_x
 _atom_site_fract_y
 _atom_site_fract_z
 _atom_site_occupancy
  Th  Th0  1  0.000000  0.000000  0.759643  1
  Th  Th1  1  0.000000  0.000000  0.240357  1
  Al  Al2  1  0.500000  0.500000  0.500000  1
  Ni  Ni3  1  0.655980  0.344020  0.751354  1
  Ni  Ni4  1  0.655980  0.344020  0.248646  1
  Ni  Ni5  1  0.500000  0.500000  0.000000  1
  Ni  Ni6  1  0.344020  0.655980  0.751354  1
  Ni  Ni7  1  0.344020  0.655980  0.248646  1
  Pt  Pt8  1  0.500000  0.000000  0.500000  1
  Pt  Pt9  1  0.000000  0.500000  0.000000  1
  Pt  Pt10  1  0.500000  0.000000  0.000000  1
  Pt  Pt11  1  0.000000  0.500000  0.500000  1
