# generated using pymatgen
data_Lu4Sc4Tc3B24Ir
_symmetry_space_group_name_H-M   'P 1'
_cell_length_a   3.54997800
_cell_length_b   8.94557282
_cell_length_c   11.29994863
_cell_angle_alpha   90.04621233
_cell_angle_beta   90.00000000
_cell_angle_gamma   90.00000000
_symmetry_Int_Tables_number   1
_chemical_formula_structural   Lu4Sc4Tc3B24Ir
_chemical_formula_sum   'Lu4 Sc4 Tc3 B24 Ir1'
_cell_volume   358.84768164
_cell_formula_units_Z   1
loop_
 _symmetry_equiv_pos_site_id
 _symmetry_equiv_pos_as_xyz
  1  'x, y, z'
loop_
 _atom_site_type_symbol
 _atom_site_label
 _atom_site_symmetry_multiplicity
 _atom_site_fract_x
 _atom_site_fract_y
 _atom_site_fract_z
 _atom_site_occupancy
  Lu  Lu0  1  0.500000  0.315658  0.415513  1
  Lu  Lu1  1  0.500000  0.680620  0.591211  1
  Lu  Lu2  1  0.500000  0.178792  0.911993  1
  Lu  Lu3  1  0.500000  0.824835  0.081442  1
  Sc  Sc4  1  0.500000  0.440773  0.126929  1
  Sc  Sc5  1  0.500000  0.556235  0.871174  1
  Sc  Sc6  1  0.500000  0.055446  0.628731  1
  Sc  Sc7  1  0.500000  0.946642  0.371527  1
  Tc  Tc8  1  0.500000  0.139770  0.181803  1
  Tc  Tc9  1  0.500000  0.860378  0.819398  1
  Tc  Tc10  1  0.500000  0.360946  0.679304  1
  B  B11  1  0.000000  0.097526  0.473013  1
  B  B12  1  0.000000  0.900334  0.526960  1
  B  B13  1  0.000000  0.401689  0.973197  1
  B  B14  1  0.000000  0.598760  0.027496  1
  B  B15  1  0.000000  0.129139  0.317389  1
  B  B16  1  0.000000  0.870710  0.683358  1
  B  B17  1  0.000000  0.371287  0.816612  1
  B  B18  1  0.000000  0.629489  0.181964  1
  B  B19  1  0.000000  0.053770  0.065989  1
  B  B20  1  0.000000  0.946569  0.933424  1
  B  B21  1  0.000000  0.446246  0.565915  1
  B  B22  1  0.000000  0.554403  0.434674  1
  B  B23  1  0.000000  0.480779  0.286799  1
  B  B24  1  0.000000  0.519932  0.713308  1
  B  B25  1  0.000000  0.019747  0.786287  1
  B  B26  1  0.000000  0.980477  0.213176  1
  B  B27  1  0.000000  0.252777  0.080274  1
  B  B28  1  0.000000  0.747384  0.919605  1
  B  B29  1  0.000000  0.246639  0.580659  1
  B  B30  1  0.000000  0.752930  0.420781  1
  B  B31  1  0.000000  0.294557  0.235918  1
  B  B32  1  0.000000  0.705637  0.765064  1
  B  B33  1  0.000000  0.205823  0.735221  1
  B  B34  1  0.000000  0.793919  0.264333  1
  Ir  Ir35  1  0.500000  0.639383  0.319564  1
