# generated using pymatgen
data_Tm3ScNi14
_symmetry_space_group_name_H-M   'P 1'
_cell_length_a   4.87305558
_cell_length_b   4.87305526
_cell_length_c   12.24601912
_cell_angle_alpha   78.51984440
_cell_angle_beta   78.51985555
_cell_angle_gamma   59.92283237
_symmetry_Int_Tables_number   1
_chemical_formula_structural   Tm3ScNi14
_chemical_formula_sum   'Tm3 Sc1 Ni14'
_cell_volume   244.91564054
_cell_formula_units_Z   1
loop_
 _symmetry_equiv_pos_site_id
 _symmetry_equiv_pos_as_xyz
  1  'x, y, z'
loop_
 _atom_site_type_symbol
 _atom_site_label
 _atom_site_symmetry_multiplicity
 _atom_site_fract_x
 _atom_site_fract_y
 _atom_site_fract_z
 _atom_site_occupancy
  Tm  Tm0  1  0.948811  0.948811  0.153141  1
  Tm  Tm1  1  0.051592  0.051592  0.845639  1
  Tm  Tm2  1  0.851389  0.851389  0.445984  1
  Sc  Sc3  1  0.146674  0.146674  0.559832  1
  Ni  Ni4  1  0.499945  0.499945  0.500303  1
  Ni  Ni5  1  0.722471  0.722471  0.832634  1
  Ni  Ni6  1  0.277825  0.277825  0.166548  1
  Ni  Ni7  1  0.611006  0.611006  0.166562  1
  Ni  Ni8  1  0.389118  0.389118  0.832997  1
  Ni  Ni9  1  0.000003  0.500151  0.999650  1
  Ni  Ni10  1  0.500151  0.000003  0.999650  1
  Ni  Ni11  1  0.500165  0.500165  0.999624  1
  Ni  Ni12  1  0.387914  0.387914  0.332498  1
  Ni  Ni13  1  0.891656  0.387956  0.332419  1
  Ni  Ni14  1  0.387956  0.891656  0.332419  1
  Ni  Ni15  1  0.612092  0.612092  0.666666  1
  Ni  Ni16  1  0.109155  0.612076  0.666718  1
  Ni  Ni17  1  0.612076  0.109155  0.666718  1
