# generated using pymatgen
data_DyHo3Mg3ZnRh4
_symmetry_space_group_name_H-M   'P 1'
_cell_length_a   4.08108100
_cell_length_b   7.05061947
_cell_length_c   8.41748805
_cell_angle_alpha   90.05855653
_cell_angle_beta   90.00000000
_cell_angle_gamma   90.00000000
_symmetry_Int_Tables_number   1
_chemical_formula_structural   DyHo3Mg3ZnRh4
_chemical_formula_sum   'Dy1 Ho3 Mg3 Zn1 Rh4'
_cell_volume   242.20592996
_cell_formula_units_Z   1
loop_
 _symmetry_equiv_pos_site_id
 _symmetry_equiv_pos_as_xyz
  1  'x, y, z'
loop_
 _atom_site_type_symbol
 _atom_site_label
 _atom_site_symmetry_multiplicity
 _atom_site_fract_x
 _atom_site_fract_y
 _atom_site_fract_z
 _atom_site_occupancy
  Dy  Dy0  1  0.250000  0.534316  0.183551  1
  Ho  Ho1  1  0.750000  0.459596  0.819756  1
  Ho  Ho2  1  0.250000  0.048850  0.328369  1
  Ho  Ho3  1  0.750000  0.962141  0.674674  1
  Mg  Mg4  1  0.250000  0.135662  0.939172  1
  Mg  Mg5  1  0.750000  0.863140  0.060447  1
  Mg  Mg6  1  0.250000  0.630601  0.556097  1
  Zn  Zn7  1  0.750000  0.366542  0.438875  1
  Rh  Rh8  1  0.750000  0.749594  0.372261  1
  Rh  Rh9  1  0.250000  0.253192  0.625173  1
  Rh  Rh10  1  0.750000  0.249022  0.132083  1
  Rh  Rh11  1  0.250000  0.747342  0.869541  1
