# generated using pymatgen
data_DyTm(LuBi)3
_symmetry_space_group_name_H-M   'P 1'
_cell_length_a   8.18067700
_cell_length_b   9.39419300
_cell_length_c   11.88272300
_cell_angle_alpha   90.00000000
_cell_angle_beta   90.00000000
_cell_angle_gamma   90.00000000
_symmetry_Int_Tables_number   1
_chemical_formula_structural   DyTm(LuBi)3
_chemical_formula_sum   'Dy4 Tm4 Lu12 Bi12'
_cell_volume   913.19746516
_cell_formula_units_Z   4
loop_
 _symmetry_equiv_pos_site_id
 _symmetry_equiv_pos_as_xyz
  1  'x, y, z'
loop_
 _atom_site_type_symbol
 _atom_site_label
 _atom_site_symmetry_multiplicity
 _atom_site_fract_x
 _atom_site_fract_y
 _atom_site_fract_z
 _atom_site_occupancy
  Dy  Dy0  1  0.312526  0.250000  0.217915  1
  Dy  Dy1  1  0.812526  0.250000  0.282085  1
  Dy  Dy2  1  0.687474  0.750000  0.782085  1
  Dy  Dy3  1  0.187474  0.750000  0.717915  1
  Tm  Tm4  1  0.352179  0.750000  0.217880  1
  Tm  Tm5  1  0.852179  0.750000  0.282120  1
  Tm  Tm6  1  0.647821  0.250000  0.782120  1
  Tm  Tm7  1  0.147821  0.250000  0.717880  1
  Lu  Lu8  1  0.692776  0.567120  0.059667  1
  Lu  Lu9  1  0.192776  0.932880  0.440333  1
  Lu  Lu10  1  0.307224  0.067120  0.940333  1
  Lu  Lu11  1  0.807224  0.432880  0.559667  1
  Lu  Lu12  1  0.307224  0.432880  0.940333  1
  Lu  Lu13  1  0.807224  0.067120  0.559667  1
  Lu  Lu14  1  0.692776  0.932880  0.059667  1
  Lu  Lu15  1  0.192776  0.567120  0.440333  1
  Lu  Lu16  1  0.476485  0.250000  0.489173  1
  Lu  Lu17  1  0.976485  0.250000  0.010827  1
  Lu  Lu18  1  0.523515  0.750000  0.510827  1
  Lu  Lu19  1  0.023515  0.750000  0.989173  1
  Bi  Bi20  1  0.403924  0.750000  0.958833  1
  Bi  Bi21  1  0.903924  0.750000  0.541167  1
  Bi  Bi22  1  0.596076  0.250000  0.041167  1
  Bi  Bi23  1  0.096076  0.250000  0.458833  1
  Bi  Bi24  1  0.565349  0.994574  0.325951  1
  Bi  Bi25  1  0.065349  0.505426  0.174049  1
  Bi  Bi26  1  0.434651  0.494574  0.674049  1
  Bi  Bi27  1  0.934651  0.005426  0.825951  1
  Bi  Bi28  1  0.434651  0.005426  0.674049  1
  Bi  Bi29  1  0.934651  0.494574  0.825951  1
  Bi  Bi30  1  0.565349  0.505426  0.325951  1
  Bi  Bi31  1  0.065349  0.994574  0.174049  1
