# generated using pymatgen
data_Dy14Tm6Ir5Rh7
_symmetry_space_group_name_H-M   'P 1'
_cell_length_a   10.84849647
_cell_length_b   10.84669360
_cell_length_c   6.34840061
_cell_angle_alpha   89.97250824
_cell_angle_beta   89.96540924
_cell_angle_gamma   90.10101192
_symmetry_Int_Tables_number   1
_chemical_formula_structural   Dy14Tm6Ir5Rh7
_chemical_formula_sum   'Dy14 Tm6 Ir5 Rh7'
_cell_volume   747.01693012
_cell_formula_units_Z   1
loop_
 _symmetry_equiv_pos_site_id
 _symmetry_equiv_pos_as_xyz
  1  'x, y, z'
loop_
 _atom_site_type_symbol
 _atom_site_label
 _atom_site_symmetry_multiplicity
 _atom_site_fract_x
 _atom_site_fract_y
 _atom_site_fract_z
 _atom_site_occupancy
  Dy  Dy0  1  0.289360  0.088434  0.377380  1
  Dy  Dy1  1  0.289313  0.909358  0.878735  1
  Dy  Dy2  1  0.709605  0.089632  0.878812  1
  Dy  Dy3  1  0.709213  0.910149  0.377941  1
  Dy  Dy4  1  0.587265  0.789148  0.879274  1
  Dy  Dy5  1  0.586784  0.210686  0.378916  1
  Dy  Dy6  1  0.410808  0.789635  0.379647  1
  Dy  Dy7  1  0.412198  0.210473  0.879054  1
  Dy  Dy8  1  0.210542  0.412825  0.620835  1
  Dy  Dy9  1  0.210117  0.588736  0.120641  1
  Dy  Dy10  1  0.789780  0.413007  0.121228  1
  Dy  Dy11  1  0.789973  0.587678  0.621276  1
  Dy  Dy12  1  0.912809  0.710139  0.121528  1
  Dy  Dy13  1  0.911170  0.290394  0.620872  1
  Tm  Tm14  1  0.089847  0.708931  0.619243  1
  Tm  Tm15  1  0.089471  0.292112  0.120848  1
  Tm  Tm16  1  0.000143  0.999115  0.500531  1
  Tm  Tm17  1  0.000570  0.000823  0.000445  1
  Tm  Tm18  1  0.499724  0.499449  0.000336  1
  Tm  Tm19  1  0.500280  0.500181  0.500120  1
  Ir  Ir20  1  0.151303  0.847645  0.251990  1
  Ir  Ir21  1  0.653180  0.346940  0.749988  1
  Ir  Ir22  1  0.653372  0.652697  0.249571  1
  Ir  Ir23  1  0.345839  0.346531  0.249903  1
  Ir  Ir24  1  0.346376  0.652428  0.749467  1
  Rh  Rh25  1  0.849345  0.152360  0.249309  1
  Rh  Rh26  1  0.848214  0.847947  0.749457  1
  Rh  Rh27  1  0.151123  0.153311  0.752000  1
  Rh  Rh28  1  0.500566  0.000304  0.123877  1
  Rh  Rh29  1  0.500487  0.000178  0.624736  1
  Rh  Rh30  1  0.000614  0.499309  0.875629  1
  Rh  Rh31  1  0.000609  0.499445  0.376412  1
