# generated using pymatgen
data_Tm16Cd4CoNiRu2
_symmetry_space_group_name_H-M   'P 1'
_cell_length_a   9.44121301
_cell_length_b   9.43698215
_cell_length_c   9.51440400
_cell_angle_alpha   59.72824481
_cell_angle_beta   59.74323038
_cell_angle_gamma   59.44481086
_symmetry_Int_Tables_number   1
_chemical_formula_structural   Tm16Cd4CoNiRu2
_chemical_formula_sum   'Tm16 Cd4 Co1 Ni1 Ru2'
_cell_volume   594.48420971
_cell_formula_units_Z   1
loop_
 _symmetry_equiv_pos_site_id
 _symmetry_equiv_pos_as_xyz
  1  'x, y, z'
loop_
 _atom_site_type_symbol
 _atom_site_label
 _atom_site_symmetry_multiplicity
 _atom_site_fract_x
 _atom_site_fract_y
 _atom_site_fract_z
 _atom_site_occupancy
  Tm  Tm0  1  0.347665  0.350878  0.340448  1
  Tm  Tm1  1  0.347665  0.350878  0.961010  1
  Tm  Tm2  1  0.353282  0.956532  0.345094  1
  Tm  Tm3  1  0.958092  0.354089  0.343910  1
  Tm  Tm4  1  0.810857  0.187051  0.189283  1
  Tm  Tm5  1  0.186211  0.808268  0.816580  1
  Tm  Tm6  1  0.186211  0.808268  0.188942  1
  Tm  Tm7  1  0.810857  0.187051  0.812811  1
  Tm  Tm8  1  0.187638  0.187498  0.812432  1
  Tm  Tm9  1  0.814169  0.807886  0.188973  1
  Tm  Tm10  1  0.938421  0.559787  0.564004  1
  Tm  Tm11  1  0.559182  0.938206  0.936322  1
  Tm  Tm12  1  0.559182  0.938206  0.566290  1
  Tm  Tm13  1  0.938421  0.559787  0.937788  1
  Tm  Tm14  1  0.562784  0.566110  0.935553  1
  Tm  Tm15  1  0.940841  0.941203  0.558978  1
  Cd  Cd16  1  0.579023  0.579379  0.582878  1
  Cd  Cd17  1  0.579023  0.579379  0.258722  1
  Cd  Cd18  1  0.579222  0.256820  0.581980  1
  Cd  Cd19  1  0.256271  0.579541  0.582095  1
  Co  Co20  1  0.142292  0.577668  0.140021  1
  Ni  Ni21  1  0.578137  0.141660  0.140102  1
  Ru  Ru22  1  0.142280  0.141931  0.140311  1
  Ru  Ru23  1  0.142280  0.141931  0.575479  1
