# generated using pymatgen
data_TiNb4B4SbRu10
_symmetry_space_group_name_H-M   'P 1'
_cell_length_a   9.45734600
_cell_length_b   9.45734600
_cell_length_c   3.01128300
_cell_angle_alpha   90.00000000
_cell_angle_beta   90.00000000
_cell_angle_gamma   90.00000000
_symmetry_Int_Tables_number   1
_chemical_formula_structural   TiNb4B4SbRu10
_chemical_formula_sum   'Ti1 Nb4 B4 Sb1 Ru10'
_cell_volume   269.33334733
_cell_formula_units_Z   1
loop_
 _symmetry_equiv_pos_site_id
 _symmetry_equiv_pos_as_xyz
  1  'x, y, z'
loop_
 _atom_site_type_symbol
 _atom_site_label
 _atom_site_symmetry_multiplicity
 _atom_site_fract_x
 _atom_site_fract_y
 _atom_site_fract_z
 _atom_site_occupancy
  Ti  Ti0  1  0.500000  0.500000  0.000000  1
  Nb  Nb1  1  0.819924  0.673283  0.000000  1
  Nb  Nb2  1  0.180076  0.326717  0.000000  1
  Nb  Nb3  1  0.326717  0.819924  0.000000  1
  Nb  Nb4  1  0.673283  0.180076  0.000000  1
  B  B5  1  0.619527  0.875373  0.000000  1
  B  B6  1  0.380473  0.124627  0.000000  1
  B  B7  1  0.124627  0.619527  0.000000  1
  B  B8  1  0.875373  0.380473  0.000000  1
  Sb  Sb9  1  0.000000  0.000000  0.000000  1
  Ru  Ru10  1  0.568132  0.716006  0.500000  1
  Ru  Ru11  1  0.431868  0.283994  0.500000  1
  Ru  Ru12  1  0.073303  0.779733  0.500000  1
  Ru  Ru13  1  0.926697  0.220267  0.500000  1
  Ru  Ru14  1  0.283994  0.568132  0.500000  1
  Ru  Ru15  1  0.716006  0.431868  0.500000  1
  Ru  Ru16  1  0.220267  0.073303  0.500000  1
  Ru  Ru17  1  0.779733  0.926697  0.500000  1
  Ru  Ru18  1  0.500000  0.000000  0.500000  1
  Ru  Ru19  1  0.000000  0.500000  0.500000  1
