# generated using pymatgen
data_Dy4ErSi6P6Ir16Os3
_symmetry_space_group_name_H-M   'P 1'
_cell_length_a   12.75535500
_cell_length_b   12.75535485
_cell_length_c   3.96623100
_cell_angle_alpha   90.00000000
_cell_angle_beta   90.00000000
_cell_angle_gamma   120.00000299
_symmetry_Int_Tables_number   1
_chemical_formula_structural   Dy4ErSi6P6Ir16Os3
_chemical_formula_sum   'Dy4 Er1 Si6 P6 Ir16 Os3'
_cell_volume   558.84802238
_cell_formula_units_Z   1
loop_
 _symmetry_equiv_pos_site_id
 _symmetry_equiv_pos_as_xyz
  1  'x, y, z'
loop_
 _atom_site_type_symbol
 _atom_site_label
 _atom_site_symmetry_multiplicity
 _atom_site_fract_x
 _atom_site_fract_y
 _atom_site_fract_z
 _atom_site_occupancy
  Dy  Dy0  1  0.666667  0.333333  0.000000  1
  Dy  Dy1  1  0.815992  0.815119  0.500000  1
  Dy  Dy2  1  0.184881  0.000872  0.500000  1
  Dy  Dy3  1  0.999128  0.184008  0.500000  1
  Er  Er4  1  0.333333  0.666667  0.000000  1
  Si  Si5  1  0.685261  0.163730  0.500000  1
  Si  Si6  1  0.836270  0.521531  0.500000  1
  Si  Si7  1  0.478469  0.314739  0.500000  1
  Si  Si8  1  0.634188  0.632721  0.000000  1
  Si  Si9  1  0.367279  0.001468  0.000000  1
  Si  Si10  1  0.998532  0.365812  0.000000  1
  P  P11  1  0.175936  0.695057  0.500000  1
  P  P12  1  0.519120  0.824064  0.500000  1
  P  P13  1  0.304943  0.480880  0.500000  1
  P  P14  1  0.178580  0.181058  0.000000  1
  P  P15  1  0.818942  0.997522  0.000000  1
  P  P16  1  0.002478  0.821420  0.000000  1
  Ir  Ir17  1  0.807977  0.178043  0.000000  1
  Ir  Ir18  1  0.821957  0.629934  0.000000  1
  Ir  Ir19  1  0.370066  0.192023  0.000000  1
  Ir  Ir20  1  0.184840  0.802545  0.000000  1
  Ir  Ir21  1  0.617705  0.815160  0.000000  1
  Ir  Ir22  1  0.197455  0.382295  0.000000  1
  Ir  Ir23  1  0.451116  0.443625  0.000000  1
  Ir  Ir24  1  0.556375  0.007491  0.000000  1
  Ir  Ir25  1  0.992509  0.548884  0.000000  1
  Ir  Ir26  1  0.871267  0.357237  0.500000  1
  Ir  Ir27  1  0.642763  0.514031  0.500000  1
  Ir  Ir28  1  0.485969  0.128733  0.500000  1
  Ir  Ir29  1  0.368683  0.872254  0.500000  1
  Ir  Ir30  1  0.503572  0.631317  0.500000  1
  Ir  Ir31  1  0.127746  0.496428  0.500000  1
  Ir  Ir32  1  0.000000  0.000000  0.000000  1
  Os  Os33  1  0.278511  0.285824  0.500000  1
  Os  Os34  1  0.714176  0.992688  0.500000  1
  Os  Os35  1  0.007312  0.721489  0.500000  1
