# generated using pymatgen
data_Dy4Er(NiTe)2
_symmetry_space_group_name_H-M   'P 1'
_cell_length_a   7.76423970
_cell_length_b   7.76286646
_cell_length_c   14.90582676
_cell_angle_alpha   90.05712567
_cell_angle_beta   89.94202885
_cell_angle_gamma   150.06719418
_symmetry_Int_Tables_number   1
_chemical_formula_structural   Dy4Er(NiTe)2
_chemical_formula_sum   'Dy8 Er2 Ni4 Te4'
_cell_volume   448.29461169
_cell_formula_units_Z   2
loop_
 _symmetry_equiv_pos_site_id
 _symmetry_equiv_pos_as_xyz
  1  'x, y, z'
loop_
 _atom_site_type_symbol
 _atom_site_label
 _atom_site_symmetry_multiplicity
 _atom_site_fract_x
 _atom_site_fract_y
 _atom_site_fract_z
 _atom_site_occupancy
  Dy  Dy0  1  0.040305  0.960674  0.874263  1
  Dy  Dy1  1  0.960447  0.039387  0.126609  1
  Dy  Dy2  1  0.742066  0.259120  0.629263  1
  Dy  Dy3  1  0.960148  0.039237  0.373173  1
  Dy  Dy4  1  0.257898  0.741078  0.371035  1
  Dy  Dy5  1  0.258107  0.741136  0.128854  1
  Dy  Dy6  1  0.742092  0.258631  0.871251  1
  Dy  Dy7  1  0.040742  0.960852  0.625779  1
  Er  Er8  1  0.395384  0.606008  0.749834  1
  Er  Er9  1  0.606257  0.393021  0.250036  1
  Ni  Ni10  1  0.412322  0.585471  0.249639  1
  Ni  Ni11  1  0.185111  0.813432  0.750703  1
  Ni  Ni12  1  0.586803  0.412912  0.749948  1
  Ni  Ni13  1  0.812252  0.188561  0.249706  1
  Te  Te14  1  0.385187  0.616121  0.539789  1
  Te  Te15  1  0.614831  0.384317  0.460285  1
  Te  Te16  1  0.384706  0.615391  0.960068  1
  Te  Te17  1  0.615341  0.384650  0.039764  1
