# generated using pymatgen
data_Pr2Al8SiIrRh2
_symmetry_space_group_name_H-M   'P 1'
_cell_length_a   7.61510260
_cell_length_b   7.59387401
_cell_length_c   9.60949712
_cell_angle_alpha   89.96156923
_cell_angle_beta   89.92781966
_cell_angle_gamma   119.59312237
_symmetry_Int_Tables_number   1
_chemical_formula_structural   Pr2Al8SiIrRh2
_chemical_formula_sum   'Pr4 Al16 Si2 Ir2 Rh4'
_cell_volume   483.20970346
_cell_formula_units_Z   2
loop_
 _symmetry_equiv_pos_site_id
 _symmetry_equiv_pos_as_xyz
  1  'x, y, z'
loop_
 _atom_site_type_symbol
 _atom_site_label
 _atom_site_symmetry_multiplicity
 _atom_site_fract_x
 _atom_site_fract_y
 _atom_site_fract_z
 _atom_site_occupancy
  Pr  Pr0  1  0.995093  0.664974  0.244312  1
  Pr  Pr1  1  0.004907  0.335026  0.755688  1
  Pr  Pr2  1  0.673587  0.999833  0.247189  1
  Pr  Pr3  1  0.326413  0.000167  0.752811  1
  Al  Al4  1  0.131198  0.129867  0.250352  1
  Al  Al5  1  0.868802  0.870133  0.749648  1
  Al  Al6  1  0.997119  0.665789  0.566937  1
  Al  Al7  1  0.334963  0.001514  0.427930  1
  Al  Al8  1  0.002881  0.334211  0.433063  1
  Al  Al9  1  0.665037  0.998486  0.572070  1
  Al  Al10  1  0.661735  0.993793  0.924571  1
  Al  Al11  1  0.338265  0.006207  0.075429  1
  Al  Al12  1  0.334541  0.333521  0.549706  1
  Al  Al13  1  0.665459  0.666479  0.450294  1
  Al  Al14  1  0.662454  0.665050  0.051078  1
  Al  Al15  1  0.337546  0.334950  0.948922  1
  Al  Al16  1  0.340050  0.546530  0.249484  1
  Al  Al17  1  0.659950  0.453470  0.750516  1
  Al  Al18  1  0.545376  0.341249  0.250039  1
  Al  Al19  1  0.454624  0.658751  0.749961  1
  Si  Si20  1  0.005121  0.328728  0.074003  1
  Si  Si21  1  0.994879  0.671272  0.925997  1
  Ir  Ir22  1  0.328194  0.669839  0.500132  1
  Ir  Ir23  1  0.671806  0.330161  0.499868  1
  Rh  Rh24  1  0.687889  0.337902  0.001047  1
  Rh  Rh25  1  0.312111  0.662098  0.998953  1
  Rh  Rh26  1  0.000000  0.000000  0.000000  1
  Rh  Rh27  1  0.000000  0.000000  0.500000  1
