# generated using pymatgen
data_ZrBe9NbMo
_symmetry_space_group_name_H-M   'P 1'
_cell_length_a   7.56364374
_cell_length_b   7.56364369
_cell_length_c   7.56364442
_cell_angle_alpha   35.13573106
_cell_angle_beta   35.13573498
_cell_angle_gamma   35.13572647
_symmetry_Int_Tables_number   1
_chemical_formula_structural   ZrBe9NbMo
_chemical_formula_sum   'Zr1 Be9 Nb1 Mo1'
_cell_volume   127.99746855
_cell_formula_units_Z   1
loop_
 _symmetry_equiv_pos_site_id
 _symmetry_equiv_pos_as_xyz
  1  'x, y, z'
loop_
 _atom_site_type_symbol
 _atom_site_label
 _atom_site_symmetry_multiplicity
 _atom_site_fract_x
 _atom_site_fract_y
 _atom_site_fract_z
 _atom_site_occupancy
  Zr  Zr0  1  0.001664  0.001664  0.001664  1
  Be  Be1  1  0.499747  0.499747  0.499747  1
  Be  Be2  1  0.334157  0.334157  0.334158  1
  Be  Be3  1  0.664449  0.664449  0.664448  1
  Be  Be4  1  0.080279  0.585313  0.585313  1
  Be  Be5  1  0.585313  0.585313  0.080279  1
  Be  Be6  1  0.585313  0.080279  0.585313  1
  Be  Be7  1  0.413121  0.923103  0.413121  1
  Be  Be8  1  0.923103  0.413121  0.413121  1
  Be  Be9  1  0.413121  0.413121  0.923103  1
  Nb  Nb10  1  0.856772  0.856772  0.856772  1
  Mo  Mo11  1  0.142963  0.142963  0.142963  1
