# generated using pymatgen
data_Tb10Nd6Cd4Pd3Ru
_symmetry_space_group_name_H-M   'P 1'
_cell_length_a   9.83362825
_cell_length_b   9.83362894
_cell_length_c   9.83362899
_cell_angle_alpha   59.72044809
_cell_angle_beta   59.72044831
_cell_angle_gamma   59.72045031
_symmetry_Int_Tables_number   1
_chemical_formula_structural   Tb10Nd6Cd4Pd3Ru
_chemical_formula_sum   'Tb10 Nd6 Cd4 Pd3 Ru1'
_cell_volume   668.12884522
_cell_formula_units_Z   1
loop_
 _symmetry_equiv_pos_site_id
 _symmetry_equiv_pos_as_xyz
  1  'x, y, z'
loop_
 _atom_site_type_symbol
 _atom_site_label
 _atom_site_symmetry_multiplicity
 _atom_site_fract_x
 _atom_site_fract_y
 _atom_site_fract_z
 _atom_site_occupancy
  Tb  Tb0  1  0.352292  0.352292  0.352292  1
  Tb  Tb1  1  0.348041  0.348041  0.950184  1
  Tb  Tb2  1  0.348041  0.950184  0.348041  1
  Tb  Tb3  1  0.950184  0.348041  0.348041  1
  Tb  Tb4  1  0.818305  0.187466  0.187466  1
  Tb  Tb5  1  0.187281  0.810633  0.810633  1
  Tb  Tb6  1  0.187466  0.818305  0.187466  1
  Tb  Tb7  1  0.810633  0.187281  0.810633  1
  Tb  Tb8  1  0.187466  0.187466  0.818305  1
  Tb  Tb9  1  0.810633  0.810633  0.187281  1
  Nd  Nd10  1  0.936365  0.563810  0.563810  1
  Nd  Nd11  1  0.558652  0.937899  0.937899  1
  Nd  Nd12  1  0.563810  0.936365  0.563810  1
  Nd  Nd13  1  0.937899  0.558652  0.937899  1
  Nd  Nd14  1  0.563810  0.563810  0.936365  1
  Nd  Nd15  1  0.937899  0.937899  0.558652  1
  Cd  Cd16  1  0.579514  0.579514  0.579514  1
  Cd  Cd17  1  0.579812  0.579812  0.259181  1
  Cd  Cd18  1  0.579812  0.259181  0.579812  1
  Cd  Cd19  1  0.259181  0.579812  0.579812  1
  Pd  Pd20  1  0.144548  0.144548  0.570679  1
  Pd  Pd21  1  0.144548  0.570679  0.144548  1
  Pd  Pd22  1  0.570679  0.144548  0.144548  1
  Ru  Ru23  1  0.143132  0.143132  0.143132  1
