# generated using pymatgen
data_RbH9PbW
_symmetry_space_group_name_H-M   'P 1'
_cell_length_a   9.16793700
_cell_length_b   9.16793609
_cell_length_c   5.71388000
_cell_angle_alpha   90.00000000
_cell_angle_beta   90.00000000
_cell_angle_gamma   120.00000690
_symmetry_Int_Tables_number   1
_chemical_formula_structural   RbH9PbW
_chemical_formula_sum   'Rb3 H27 Pb3 W3'
_cell_volume   415.91531661
_cell_formula_units_Z   3
loop_
 _symmetry_equiv_pos_site_id
 _symmetry_equiv_pos_as_xyz
  1  'x, y, z'
loop_
 _atom_site_type_symbol
 _atom_site_label
 _atom_site_symmetry_multiplicity
 _atom_site_fract_x
 _atom_site_fract_y
 _atom_site_fract_z
 _atom_site_occupancy
  Rb  Rb0  1  0.000000  0.589822  0.000000  1
  Rb  Rb1  1  0.410178  0.410178  0.000000  1
  Rb  Rb2  1  0.589822  0.000000  0.000000  1
  H  H3  1  0.784835  0.304911  0.725713  1
  H  H4  1  0.695089  0.479924  0.725713  1
  H  H5  1  0.520076  0.215165  0.725713  1
  H  H6  1  0.215165  0.520076  0.274287  1
  H  H7  1  0.520076  0.215165  0.274287  1
  H  H8  1  0.784835  0.304911  0.274287  1
  H  H9  1  0.695089  0.479924  0.274287  1
  H  H10  1  0.304911  0.784835  0.725713  1
  H  H11  1  0.479924  0.695089  0.725713  1
  H  H12  1  0.191676  0.000000  0.000000  1
  H  H13  1  0.808324  0.808324  0.000000  1
  H  H14  1  0.000000  0.191676  0.000000  1
  H  H15  1  0.865103  0.000000  0.226599  1
  H  H16  1  0.134897  0.134897  0.773401  1
  H  H17  1  0.000000  0.865103  0.773401  1
  H  H18  1  0.000000  0.865103  0.226599  1
  H  H19  1  0.134897  0.134897  0.226599  1
  H  H20  1  0.865103  0.000000  0.773401  1
  H  H21  1  0.128204  0.629537  0.500000  1
  H  H22  1  0.501333  0.871796  0.500000  1
  H  H23  1  0.370463  0.498667  0.500000  1
  H  H24  1  0.498667  0.370463  0.500000  1
  H  H25  1  0.871796  0.501333  0.500000  1
  H  H26  1  0.629537  0.128204  0.500000  1
  H  H27  1  0.215165  0.520076  0.725713  1
  H  H28  1  0.304911  0.784835  0.274287  1
  H  H29  1  0.479924  0.695089  0.274287  1
  Pb  Pb30  1  0.000000  0.273703  0.500000  1
  Pb  Pb31  1  0.726297  0.726297  0.500000  1
  Pb  Pb32  1  0.273703  0.000000  0.500000  1
  W  W33  1  0.666667  0.333333  0.500000  1
  W  W34  1  0.333333  0.666667  0.500000  1
  W  W35  1  0.000000  0.000000  0.000000  1
