# generated using pymatgen
data_Sc3Al2Ga3Ni
_symmetry_space_group_name_H-M   'P 1'
_cell_length_a   6.64681610
_cell_length_b   6.64681803
_cell_length_c   4.05439000
_cell_angle_alpha   90.00000000
_cell_angle_beta   90.00000000
_cell_angle_gamma   119.84504379
_symmetry_Int_Tables_number   1
_chemical_formula_structural   Sc3Al2Ga3Ni
_chemical_formula_sum   'Sc3 Al2 Ga3 Ni1'
_cell_volume   155.36729912
_cell_formula_units_Z   1
loop_
 _symmetry_equiv_pos_site_id
 _symmetry_equiv_pos_as_xyz
  1  'x, y, z'
loop_
 _atom_site_type_symbol
 _atom_site_label
 _atom_site_symmetry_multiplicity
 _atom_site_fract_x
 _atom_site_fract_y
 _atom_site_fract_z
 _atom_site_occupancy
  Sc  Sc0  1  0.590039  0.999574  0.000000  1
  Sc  Sc1  1  0.999574  0.590039  0.000000  1
  Sc  Sc2  1  0.410641  0.410641  0.000000  1
  Al  Al3  1  0.235138  0.000749  0.500000  1
  Al  Al4  1  0.000749  0.235138  0.500000  1
  Ga  Ga5  1  0.760997  0.760997  0.500000  1
  Ga  Ga6  1  0.331738  0.666804  0.500000  1
  Ga  Ga7  1  0.666804  0.331738  0.500000  1
  Ni  Ni8  1  0.004320  0.004320  0.000000  1
