# generated using pymatgen
data_La3YTe7Pd
_symmetry_space_group_name_H-M   'P 1'
_cell_length_a   4.35958470
_cell_length_b   8.90377400
_cell_length_c   9.41074400
_cell_angle_alpha   90.00000000
_cell_angle_beta   90.03255394
_cell_angle_gamma   90.00000000
_symmetry_Int_Tables_number   1
_chemical_formula_structural   La3YTe7Pd
_chemical_formula_sum   'La3 Y1 Te7 Pd1'
_cell_volume   365.29450347
_cell_formula_units_Z   1
loop_
 _symmetry_equiv_pos_site_id
 _symmetry_equiv_pos_as_xyz
  1  'x, y, z'
loop_
 _atom_site_type_symbol
 _atom_site_label
 _atom_site_symmetry_multiplicity
 _atom_site_fract_x
 _atom_site_fract_y
 _atom_site_fract_z
 _atom_site_occupancy
  La  La0  1  0.002576  0.250000  0.740777  1
  La  La1  1  0.499338  0.001699  0.270070  1
  La  La2  1  0.499338  0.498301  0.270070  1
  Y  Y3  1  0.000485  0.750000  0.708754  1
  Te  Te4  1  0.998034  0.938919  0.996310  1
  Te  Te5  1  0.998034  0.561081  0.996310  1
  Te  Te6  1  0.503317  0.250000  0.000882  1
  Te  Te7  1  0.999548  0.750000  0.373615  1
  Te  Te8  1  0.999846  0.250000  0.374983  1
  Te  Te9  1  0.501061  0.992741  0.633406  1
  Te  Te10  1  0.501061  0.507259  0.633406  1
  Pd  Pd11  1  0.497360  0.750000  0.002344  1
