# generated using pymatgen
data_La7Nd6Y3(CdIr)4
_symmetry_space_group_name_H-M   'P 1'
_cell_length_a   9.97093145
_cell_length_b   9.99890018
_cell_length_c   10.02055285
_cell_angle_alpha   59.74369352
_cell_angle_beta   60.01597621
_cell_angle_gamma   60.23607095
_symmetry_Int_Tables_number   1
_chemical_formula_structural   La7Nd6Y3(CdIr)4
_chemical_formula_sum   'La7 Nd6 Y3 Cd4 Ir4'
_cell_volume   706.37379372
_cell_formula_units_Z   1
loop_
 _symmetry_equiv_pos_site_id
 _symmetry_equiv_pos_as_xyz
  1  'x, y, z'
loop_
 _atom_site_type_symbol
 _atom_site_label
 _atom_site_symmetry_multiplicity
 _atom_site_fract_x
 _atom_site_fract_y
 _atom_site_fract_z
 _atom_site_occupancy
  La  La0  1  0.345879  0.346663  0.351963  1
  La  La1  1  0.350535  0.344458  0.954053  1
  La  La2  1  0.351968  0.955484  0.345883  1
  La  La3  1  0.954056  0.350960  0.350535  1
  La  La4  1  0.812215  0.188556  0.184138  1
  La  La5  1  0.184127  0.815100  0.812219  1
  La  La6  1  0.187839  0.812171  0.187821  1
  Nd  Nd7  1  0.936180  0.561601  0.564214  1
  Nd  Nd8  1  0.564203  0.938007  0.936181  1
  Nd  Nd9  1  0.562657  0.937341  0.562657  1
  Nd  Nd10  1  0.938664  0.561333  0.938664  1
  Nd  Nd11  1  0.563273  0.559319  0.937740  1
  Nd  Nd12  1  0.937743  0.939670  0.563276  1
  Y  Y13  1  0.810553  0.189452  0.810547  1
  Y  Y14  1  0.189074  0.193748  0.806485  1
  Y  Y15  1  0.806479  0.810692  0.189075  1
  Cd  Cd16  1  0.582690  0.579539  0.579337  1
  Cd  Cd17  1  0.582137  0.581712  0.258137  1
  Cd  Cd18  1  0.579339  0.258435  0.582683  1
  Cd  Cd19  1  0.258142  0.578007  0.582135  1
  Ir  Ir20  1  0.140553  0.140048  0.140896  1
  Ir  Ir21  1  0.141395  0.139545  0.579398  1
  Ir  Ir22  1  0.140888  0.578499  0.140575  1
  Ir  Ir23  1  0.579408  0.139660  0.141389  1
