# generated using pymatgen
data_Er4Tm3Lu(B6Os)4
_symmetry_space_group_name_H-M   'P 1'
_cell_length_a   3.61855300
_cell_length_b   9.07614803
_cell_length_c   11.45565504
_cell_angle_alpha   89.98994849
_cell_angle_beta   90.00000000
_cell_angle_gamma   90.00000000
_symmetry_Int_Tables_number   1
_chemical_formula_structural   Er4Tm3Lu(B6Os)4
_chemical_formula_sum   'Er4 Tm3 Lu1 B24 Os4'
_cell_volume   376.23260504
_cell_formula_units_Z   1
loop_
 _symmetry_equiv_pos_site_id
 _symmetry_equiv_pos_as_xyz
  1  'x, y, z'
loop_
 _atom_site_type_symbol
 _atom_site_label
 _atom_site_symmetry_multiplicity
 _atom_site_fract_x
 _atom_site_fract_y
 _atom_site_fract_z
 _atom_site_occupancy
  Er  Er0  1  0.000000  0.321243  0.413920  1
  Er  Er1  1  0.000000  0.678680  0.585789  1
  Er  Er2  1  0.000000  0.821518  0.086134  1
  Er  Er3  1  0.000000  0.178443  0.914062  1
  Tm  Tm4  1  0.000000  0.055981  0.626582  1
  Tm  Tm5  1  0.000000  0.443902  0.127080  1
  Tm  Tm6  1  0.000000  0.556088  0.873089  1
  Lu  Lu7  1  0.000000  0.943905  0.373036  1
  B  B8  1  0.500000  0.554044  0.433374  1
  B  B9  1  0.500000  0.446271  0.566507  1
  B  B10  1  0.500000  0.053684  0.066764  1
  B  B11  1  0.500000  0.946223  0.933434  1
  B  B12  1  0.500000  0.749330  0.420042  1
  B  B13  1  0.500000  0.251167  0.579796  1
  B  B14  1  0.500000  0.248560  0.080010  1
  B  B15  1  0.500000  0.751321  0.920094  1
  B  B16  1  0.500000  0.792062  0.266241  1
  B  B17  1  0.500000  0.208418  0.733887  1
  B  B18  1  0.500000  0.291274  0.234080  1
  B  B19  1  0.500000  0.708496  0.765995  1
  B  B20  1  0.500000  0.631423  0.184862  1
  B  B21  1  0.500000  0.368729  0.815230  1
  B  B22  1  0.500000  0.130695  0.315493  1
  B  B23  1  0.500000  0.868824  0.684602  1
  B  B24  1  0.500000  0.981899  0.213598  1
  B  B25  1  0.500000  0.017829  0.786783  1
  B  B26  1  0.500000  0.482379  0.286919  1
  B  B27  1  0.500000  0.517782  0.713131  1
  B  B28  1  0.500000  0.606226  0.029417  1
  B  B29  1  0.500000  0.393781  0.970691  1
  B  B30  1  0.500000  0.105239  0.470387  1
  B  B31  1  0.500000  0.894335  0.528731  1
  Os  Os32  1  0.000000  0.638053  0.321160  1
  Os  Os33  1  0.000000  0.362606  0.678799  1
  Os  Os34  1  0.000000  0.136898  0.179250  1
  Os  Os35  1  0.000000  0.862692  0.821031  1
