# generated using pymatgen
data_TbDy7(Er3Sn4)4
_symmetry_space_group_name_H-M   'P 1'
_cell_length_a   7.99995932
_cell_length_b   8.13289409
_cell_length_c   15.37767446
_cell_angle_alpha   90.00378287
_cell_angle_beta   89.97212383
_cell_angle_gamma   90.01696239
_symmetry_Int_Tables_number   1
_chemical_formula_structural   TbDy7(Er3Sn4)4
_chemical_formula_sum   'Tb1 Dy7 Er12 Sn16'
_cell_volume   1000.51473099
_cell_formula_units_Z   1
loop_
 _symmetry_equiv_pos_site_id
 _symmetry_equiv_pos_as_xyz
  1  'x, y, z'
loop_
 _atom_site_type_symbol
 _atom_site_label
 _atom_site_symmetry_multiplicity
 _atom_site_fract_x
 _atom_site_fract_y
 _atom_site_fract_z
 _atom_site_occupancy
  Tb  Tb0  1  0.520645  0.320681  0.902847  1
  Dy  Dy1  1  0.021042  0.179214  0.597168  1
  Dy  Dy2  1  0.478951  0.679259  0.402745  1
  Dy  Dy3  1  0.979067  0.820715  0.097299  1
  Dy  Dy4  1  0.479072  0.679353  0.097309  1
  Dy  Dy5  1  0.978960  0.820778  0.402744  1
  Dy  Dy6  1  0.521081  0.320691  0.597297  1
  Dy  Dy7  1  0.020948  0.179168  0.902727  1
  Er  Er8  1  0.367396  0.836855  0.877484  1
  Er  Er9  1  0.867458  0.663083  0.622483  1
  Er  Er10  1  0.632631  0.163175  0.377467  1
  Er  Er11  1  0.132714  0.336907  0.122611  1
  Er  Er12  1  0.632750  0.163083  0.122667  1
  Er  Er13  1  0.132603  0.336914  0.377457  1
  Er  Er14  1  0.367400  0.836897  0.622456  1
  Er  Er15  1  0.867330  0.663214  0.877434  1
  Er  Er16  1  0.198492  0.503621  0.749855  1
  Er  Er17  1  0.698566  0.996355  0.749928  1
  Er  Er18  1  0.801519  0.496489  0.250030  1
  Er  Er19  1  0.301471  0.003560  0.250063  1
  Sn  Sn20  1  0.293773  0.037342  0.041588  1
  Sn  Sn21  1  0.793590  0.462779  0.458464  1
  Sn  Sn22  1  0.706299  0.962792  0.541552  1
  Sn  Sn23  1  0.205684  0.537532  0.958540  1
  Sn  Sn24  1  0.706369  0.962414  0.958434  1
  Sn  Sn25  1  0.206300  0.537092  0.541548  1
  Sn  Sn26  1  0.293725  0.037284  0.458494  1
  Sn  Sn27  1  0.794138  0.462970  0.041774  1
  Sn  Sn28  1  0.564918  0.620378  0.749967  1
  Sn  Sn29  1  0.065139  0.880063  0.749885  1
  Sn  Sn30  1  0.435246  0.380112  0.250089  1
  Sn  Sn31  1  0.935057  0.119734  0.250025  1
  Sn  Sn32  1  0.329824  0.147473  0.749650  1
  Sn  Sn33  1  0.829985  0.351973  0.749751  1
  Sn  Sn34  1  0.669972  0.851999  0.250042  1
  Sn  Sn35  1  0.169886  0.648052  0.250126  1
