# generated using pymatgen
data_Tl7Pt3
_symmetry_space_group_name_H-M   'P 1'
_cell_length_a   8.67330886
_cell_length_b   8.67330885
_cell_length_c   8.67330900
_cell_angle_alpha   109.47122099
_cell_angle_beta   109.47122096
_cell_angle_gamma   109.47122035
_symmetry_Int_Tables_number   1
_chemical_formula_structural   Tl7Pt3
_chemical_formula_sum   'Tl14 Pt6'
_cell_volume   502.26457698
_cell_formula_units_Z   2
loop_
 _symmetry_equiv_pos_site_id
 _symmetry_equiv_pos_as_xyz
  1  'x, y, z'
loop_
 _atom_site_type_symbol
 _atom_site_label
 _atom_site_symmetry_multiplicity
 _atom_site_fract_x
 _atom_site_fract_y
 _atom_site_fract_z
 _atom_site_occupancy
  Tl  Tl0  1  0.325781  0.000000  0.000000  1
  Tl  Tl1  1  0.674220  0.000000  0.000000  1
  Tl  Tl2  1  0.000000  0.325781  0.000000  1
  Tl  Tl3  1  0.000000  0.674220  0.000000  1
  Tl  Tl4  1  0.750000  0.500000  0.250000  1
  Tl  Tl5  1  0.500000  0.750000  0.250000  1
  Tl  Tl6  1  0.000000  0.000000  0.325781  1
  Tl  Tl7  1  0.325781  0.325781  0.325781  1
  Tl  Tl8  1  0.750000  0.250000  0.500000  1
  Tl  Tl9  1  0.250000  0.750000  0.500000  1
  Tl  Tl10  1  0.000000  0.000000  0.674220  1
  Tl  Tl11  1  0.674220  0.674220  0.674220  1
  Tl  Tl12  1  0.500000  0.250000  0.750000  1
  Tl  Tl13  1  0.250000  0.500000  0.750000  1
  Pt  Pt14  1  0.345608  0.345608  0.000000  1
  Pt  Pt15  1  0.654392  0.654392  0.000000  1
  Pt  Pt16  1  0.345608  0.000000  0.345608  1
  Pt  Pt17  1  0.000000  0.345608  0.345608  1
  Pt  Pt18  1  0.654392  0.000000  0.654392  1
  Pt  Pt19  1  0.000000  0.654392  0.654392  1
