# generated using pymatgen
data_Ce7DyHo2(SiB4)4
_symmetry_space_group_name_H-M   'P 1'
_cell_length_a   7.30698448
_cell_length_b   7.30698432
_cell_length_c   8.24983500
_cell_angle_alpha   89.98504977
_cell_angle_beta   90.01494914
_cell_angle_gamma   90.02804362
_symmetry_Int_Tables_number   1
_chemical_formula_structural   Ce7DyHo2(SiB4)4
_chemical_formula_sum   'Ce7 Dy1 Ho2 Si4 B16'
_cell_volume   440.47528089
_cell_formula_units_Z   1
loop_
 _symmetry_equiv_pos_site_id
 _symmetry_equiv_pos_as_xyz
  1  'x, y, z'
loop_
 _atom_site_type_symbol
 _atom_site_label
 _atom_site_symmetry_multiplicity
 _atom_site_fract_x
 _atom_site_fract_y
 _atom_site_fract_z
 _atom_site_occupancy
  Ce  Ce0  1  0.682321  0.182441  0.226977  1
  Ce  Ce1  1  0.317610  0.817553  0.773119  1
  Ce  Ce2  1  0.317559  0.817679  0.226977  1
  Ce  Ce3  1  0.817521  0.682479  0.226735  1
  Ce  Ce4  1  0.818465  0.681535  0.773032  1
  Ce  Ce5  1  0.682447  0.182390  0.773119  1
  Ce  Ce6  1  0.181791  0.318209  0.774130  1
  Dy  Dy7  1  0.181629  0.318371  0.219566  1
  Ho  Ho8  1  0.000862  0.000312  0.498662  1
  Ho  Ho9  1  0.499688  0.499138  0.498662  1
  Si  Si10  1  0.115924  0.614472  0.498953  1
  Si  Si11  1  0.885528  0.384076  0.498953  1
  Si  Si12  1  0.383563  0.116437  0.498836  1
  Si  Si13  1  0.614454  0.885546  0.499427  1
  B  B14  1  0.172956  0.039181  0.000482  1
  B  B15  1  0.827745  0.961529  0.001325  1
  B  B16  1  0.960795  0.172718  0.000293  1
  B  B17  1  0.327282  0.539205  0.000293  1
  B  B18  1  0.039541  0.827759  0.001280  1
  B  B19  1  0.672241  0.460459  0.001280  1
  B  B20  1  0.538471  0.672255  0.001325  1
  B  B21  1  0.460819  0.327044  0.000482  1
  B  B22  1  0.091560  0.591334  0.001183  1
  B  B23  1  0.908666  0.408440  0.001183  1
  B  B24  1  0.408923  0.091077  0.999966  1
  B  B25  1  0.591227  0.908773  0.000709  1
  B  B26  1  0.000594  0.999678  0.160031  1
  B  B27  1  0.999993  0.000498  0.841496  1
  B  B28  1  0.499502  0.500007  0.841496  1
  B  B29  1  0.500322  0.499406  0.160031  1
