# generated using pymatgen
data_Ba4HoAl2InO10
_symmetry_space_group_name_H-M   'P 1'
_cell_length_a   5.98366200
_cell_length_b   5.98366174
_cell_length_c   20.14684900
_cell_angle_alpha   90.00000000
_cell_angle_beta   90.00000000
_cell_angle_gamma   120.00000143
_symmetry_Int_Tables_number   1
_chemical_formula_structural   Ba4HoAl2InO10
_chemical_formula_sum   'Ba8 Ho2 Al4 In2 O20'
_cell_volume   624.70048769
_cell_formula_units_Z   2
loop_
 _symmetry_equiv_pos_site_id
 _symmetry_equiv_pos_as_xyz
  1  'x, y, z'
loop_
 _atom_site_type_symbol
 _atom_site_label
 _atom_site_symmetry_multiplicity
 _atom_site_fract_x
 _atom_site_fract_y
 _atom_site_fract_z
 _atom_site_occupancy
  Ba  Ba0  1  0.666667  0.333333  0.893931  1
  Ba  Ba1  1  0.333333  0.666667  0.105270  1
  Ba  Ba2  1  0.333333  0.666667  0.393931  1
  Ba  Ba3  1  0.000000  0.000000  0.998822  1
  Ba  Ba4  1  0.000000  0.000000  0.498822  1
  Ba  Ba5  1  0.666667  0.333333  0.251887  1
  Ba  Ba6  1  0.666667  0.333333  0.605270  1
  Ba  Ba7  1  0.333333  0.666667  0.751887  1
  Ho  Ho8  1  0.333333  0.666667  0.567029  1
  Ho  Ho9  1  0.666667  0.333333  0.067029  1
  Al  Al10  1  0.000000  0.000000  0.836912  1
  Al  Al11  1  0.000000  0.000000  0.164918  1
  Al  Al12  1  0.000000  0.000000  0.664918  1
  Al  Al13  1  0.000000  0.000000  0.336912  1
  In  In14  1  0.333333  0.666667  0.932965  1
  In  In15  1  0.666667  0.333333  0.432965  1
  O  O16  1  0.678784  0.839392  0.634822  1
  O  O17  1  0.998423  0.499212  0.498779  1
  O  O18  1  0.000000  0.000000  0.250981  1
  O  O19  1  0.837356  0.674710  0.365494  1
  O  O20  1  0.839392  0.160608  0.134822  1
  O  O21  1  0.160608  0.321216  0.634822  1
  O  O22  1  0.674710  0.837356  0.865494  1
  O  O23  1  0.321216  0.160608  0.134822  1
  O  O24  1  0.000000  0.000000  0.750981  1
  O  O25  1  0.837356  0.162644  0.365494  1
  O  O26  1  0.162644  0.325290  0.865494  1
  O  O27  1  0.499212  0.998423  0.998779  1
  O  O28  1  0.325290  0.162644  0.365494  1
  O  O29  1  0.500788  0.001577  0.498779  1
  O  O30  1  0.839392  0.678784  0.134822  1
  O  O31  1  0.160608  0.839392  0.634822  1
  O  O32  1  0.499212  0.500788  0.998779  1
  O  O33  1  0.001577  0.500788  0.998779  1
  O  O34  1  0.500788  0.499212  0.498779  1
  O  O35  1  0.162644  0.837356  0.865494  1
