# generated using pymatgen
data_Pr2Si2Ag(AsPd5)4
_symmetry_space_group_name_H-M   'P 1'
_cell_length_a   8.82521933
_cell_length_b   8.82522550
_cell_length_c   8.88794400
_cell_angle_alpha   59.76466287
_cell_angle_beta   59.76463599
_cell_angle_gamma   60.47090996
_symmetry_Int_Tables_number   1
_chemical_formula_structural   Pr2Si2Ag(AsPd5)4
_chemical_formula_sum   'Pr2 Si2 Ag1 As4 Pd20'
_cell_volume   489.43397232
_cell_formula_units_Z   1
loop_
 _symmetry_equiv_pos_site_id
 _symmetry_equiv_pos_as_xyz
  1  'x, y, z'
loop_
 _atom_site_type_symbol
 _atom_site_label
 _atom_site_symmetry_multiplicity
 _atom_site_fract_x
 _atom_site_fract_y
 _atom_site_fract_z
 _atom_site_occupancy
  Pr  Pr0  1  0.250000  0.250001  0.250000  1
  Pr  Pr1  1  0.750000  0.749999  0.750000  1
  Si  Si2  1  0.263132  0.263128  0.736869  1
  Si  Si3  1  0.736868  0.736872  0.263131  1
  Ag  Ag4  1  0.000000  0.000000  0.000000  1
  As  As5  1  0.736519  0.263477  0.263427  1
  As  As6  1  0.263481  0.736523  0.736573  1
  As  As7  1  0.263480  0.736521  0.263424  1
  As  As8  1  0.736520  0.263479  0.736576  1
  Pd  Pd9  1  0.382649  0.382644  0.390514  1
  Pd  Pd10  1  0.617351  0.617356  0.609486  1
  Pd  Pd11  1  0.382649  0.382645  0.844194  1
  Pd  Pd12  1  0.390571  0.844165  0.382634  1
  Pd  Pd13  1  0.617351  0.617355  0.155806  1
  Pd  Pd14  1  0.609429  0.155835  0.617366  1
  Pd  Pd15  1  0.844165  0.390569  0.382635  1
  Pd  Pd16  1  0.155835  0.609431  0.617365  1
  Pd  Pd17  1  0.346847  0.006432  0.993546  1
  Pd  Pd18  1  0.653153  0.993568  0.006454  1
  Pd  Pd19  1  0.006432  0.346847  0.653176  1
  Pd  Pd20  1  0.993568  0.653153  0.346824  1
  Pd  Pd21  1  0.006432  0.346847  0.993546  1
  Pd  Pd22  1  0.653152  0.993569  0.346825  1
  Pd  Pd23  1  0.993568  0.653153  0.006454  1
  Pd  Pd24  1  0.346848  0.006431  0.653175  1
  Pd  Pd25  1  0.000000  0.000000  0.347432  1
  Pd  Pd26  1  0.000000  0.000000  0.652568  1
  Pd  Pd27  1  0.652529  0.347470  0.000000  1
  Pd  Pd28  1  0.347471  0.652530  0.000000  1
