# generated using pymatgen
data_Y16MgIn3Pt4
_symmetry_space_group_name_H-M   'P 1'
_cell_length_a   9.79214624
_cell_length_b   9.76393908
_cell_length_c   9.76393900
_cell_angle_alpha   60.00000365
_cell_angle_beta   60.09524715
_cell_angle_gamma   60.09524183
_symmetry_Int_Tables_number   1
_chemical_formula_structural   Y16MgIn3Pt4
_chemical_formula_sum   'Y16 Mg1 In3 Pt4'
_cell_volume   661.05370664
_cell_formula_units_Z   1
loop_
 _symmetry_equiv_pos_site_id
 _symmetry_equiv_pos_as_xyz
  1  'x, y, z'
loop_
 _atom_site_type_symbol
 _atom_site_label
 _atom_site_symmetry_multiplicity
 _atom_site_fract_x
 _atom_site_fract_y
 _atom_site_fract_z
 _atom_site_occupancy
  Y  Y0  1  0.601067  0.600086  0.600086  1
  Y  Y1  1  0.601067  0.600086  0.198762  1
  Y  Y2  1  0.601067  0.198762  0.600086  1
  Y  Y3  1  0.196538  0.601154  0.601154  1
  Y  Y4  1  0.058691  0.440765  0.440765  1
  Y  Y5  1  0.438350  0.061423  0.061423  1
  Y  Y6  1  0.438350  0.061423  0.438804  1
  Y  Y7  1  0.058691  0.440765  0.059780  1
  Y  Y8  1  0.438350  0.438804  0.061423  1
  Y  Y9  1  0.058691  0.059780  0.440765  1
  Y  Y10  1  0.185497  0.813773  0.813773  1
  Y  Y11  1  0.813752  0.187213  0.187213  1
  Y  Y12  1  0.813752  0.187213  0.811821  1
  Y  Y13  1  0.185497  0.813773  0.186956  1
  Y  Y14  1  0.813752  0.811821  0.187213  1
  Y  Y15  1  0.185497  0.186956  0.813773  1
  Mg  Mg16  1  0.515308  0.828230  0.828230  1
  In  In17  1  0.832476  0.833366  0.833366  1
  In  In18  1  0.832476  0.833366  0.500790  1
  In  In19  1  0.832476  0.500790  0.833366  1
  Pt  Pt20  1  0.392095  0.393101  0.393101  1
  Pt  Pt21  1  0.392095  0.393101  0.821704  1
  Pt  Pt22  1  0.392095  0.821704  0.393101  1
  Pt  Pt23  1  0.822372  0.392543  0.392543  1
