# generated using pymatgen
data_Ba2ReWF14
_symmetry_space_group_name_H-M   'P 1'
_cell_length_a   7.60725600
_cell_length_b   5.14676178
_cell_length_c   7.10474400
_cell_angle_alpha   85.47325805
_cell_angle_beta   90.00000000
_cell_angle_gamma   90.00000000
_symmetry_Int_Tables_number   1
_chemical_formula_structural   Ba2ReWF14
_chemical_formula_sum   'Ba2 Re1 W1 F14'
_cell_volume   277.30243260
_cell_formula_units_Z   1
loop_
 _symmetry_equiv_pos_site_id
 _symmetry_equiv_pos_as_xyz
  1  'x, y, z'
loop_
 _atom_site_type_symbol
 _atom_site_label
 _atom_site_symmetry_multiplicity
 _atom_site_fract_x
 _atom_site_fract_y
 _atom_site_fract_z
 _atom_site_occupancy
  Ba  Ba0  1  0.250000  0.034457  0.702080  1
  Ba  Ba1  1  0.750000  0.970405  0.300376  1
  Re  Re2  1  0.750000  0.542956  0.770186  1
  W  W3  1  0.250000  0.461139  0.228501  1
  F  F4  1  0.250000  0.643769  0.968559  1
  F  F5  1  0.538289  0.325451  0.783729  1
  F  F6  1  0.750000  0.367628  0.028143  1
  F  F7  1  0.034514  0.673625  0.215275  1
  F  F8  1  0.250000  0.173591  0.056957  1
  F  F9  1  0.081204  0.196699  0.353465  1
  F  F10  1  0.418796  0.196699  0.353465  1
  F  F11  1  0.579591  0.796444  0.646116  1
  F  F12  1  0.961711  0.325451  0.783729  1
  F  F13  1  0.750000  0.820103  0.944535  1
  F  F14  1  0.465486  0.673625  0.215275  1
  F  F15  1  0.750000  0.423312  0.512008  1
  F  F16  1  0.920409  0.796444  0.646116  1
  F  F17  1  0.250000  0.578197  0.491483  1
