# generated using pymatgen
data_Zr8Ti2ZnSn6As
_symmetry_space_group_name_H-M   'P 1'
_cell_length_a   8.63644400
_cell_length_b   8.63644495
_cell_length_c   5.84166300
_cell_angle_alpha   90.00000000
_cell_angle_beta   90.00000000
_cell_angle_gamma   119.99999636
_symmetry_Int_Tables_number   1
_chemical_formula_structural   Zr8Ti2ZnSn6As
_chemical_formula_sum   'Zr8 Ti2 Zn1 Sn6 As1'
_cell_volume   377.34371205
_cell_formula_units_Z   1
loop_
 _symmetry_equiv_pos_site_id
 _symmetry_equiv_pos_as_xyz
  1  'x, y, z'
loop_
 _atom_site_type_symbol
 _atom_site_label
 _atom_site_symmetry_multiplicity
 _atom_site_fract_x
 _atom_site_fract_y
 _atom_site_fract_z
 _atom_site_occupancy
  Zr  Zr0  1  0.333333  0.666667  0.500000  1
  Zr  Zr1  1  0.666667  0.333333  0.500000  1
  Zr  Zr2  1  0.735020  0.735020  0.744238  1
  Zr  Zr3  1  0.264980  0.000000  0.744238  1
  Zr  Zr4  1  0.000000  0.264980  0.744238  1
  Zr  Zr5  1  0.264980  0.264980  0.255762  1
  Zr  Zr6  1  0.735020  0.000000  0.255762  1
  Zr  Zr7  1  0.000000  0.735020  0.255762  1
  Ti  Ti8  1  0.666667  0.333333  0.000000  1
  Ti  Ti9  1  0.333333  0.666667  0.000000  1
  Zn  Zn10  1  0.000000  0.000000  0.000000  1
  Sn  Sn11  1  0.392345  0.392345  0.762274  1
  Sn  Sn12  1  0.607655  0.000000  0.762274  1
  Sn  Sn13  1  0.000000  0.607655  0.762274  1
  Sn  Sn14  1  0.607655  0.607655  0.237726  1
  Sn  Sn15  1  0.392345  0.000000  0.237726  1
  Sn  Sn16  1  0.000000  0.392345  0.237726  1
  As  As17  1  0.000000  0.000000  0.500000  1
