# generated using pymatgen
data_Dy2Co6CuB3
_symmetry_space_group_name_H-M   'P 1'
_cell_length_a   5.03817600
_cell_length_b   5.03817652
_cell_length_c   12.78388700
_cell_angle_alpha   90.00000000
_cell_angle_beta   90.00000000
_cell_angle_gamma   119.99999662
_symmetry_Int_Tables_number   1
_chemical_formula_structural   Dy2Co6CuB3
_chemical_formula_sum   'Dy4 Co12 Cu2 B6'
_cell_volume   281.02197627
_cell_formula_units_Z   2
loop_
 _symmetry_equiv_pos_site_id
 _symmetry_equiv_pos_as_xyz
  1  'x, y, z'
loop_
 _atom_site_type_symbol
 _atom_site_label
 _atom_site_symmetry_multiplicity
 _atom_site_fract_x
 _atom_site_fract_y
 _atom_site_fract_z
 _atom_site_occupancy
  Dy  Dy0  1  0.000000  0.000000  0.261782  1
  Dy  Dy1  1  0.000000  0.000000  0.500000  1
  Dy  Dy2  1  0.000000  0.000000  0.000000  1
  Dy  Dy3  1  0.000000  0.000000  0.738218  1
  Co  Co4  1  0.500000  0.000000  0.614202  1
  Co  Co5  1  0.500000  0.000000  0.840219  1
  Co  Co6  1  0.500000  0.500000  0.840219  1
  Co  Co7  1  0.500000  0.500000  0.385798  1
  Co  Co8  1  0.000000  0.500000  0.614202  1
  Co  Co9  1  0.000000  0.500000  0.159781  1
  Co  Co10  1  0.000000  0.500000  0.840219  1
  Co  Co11  1  0.500000  0.500000  0.159781  1
  Co  Co12  1  0.500000  0.000000  0.385798  1
  Co  Co13  1  0.500000  0.000000  0.159781  1
  Co  Co14  1  0.500000  0.500000  0.614202  1
  Co  Co15  1  0.000000  0.500000  0.385798  1
  Cu  Cu16  1  0.333333  0.666667  0.000000  1
  Cu  Cu17  1  0.666667  0.333333  0.000000  1
  B  B18  1  0.666667  0.333333  0.730645  1
  B  B19  1  0.333333  0.666667  0.730645  1
  B  B20  1  0.333333  0.666667  0.269355  1
  B  B21  1  0.666667  0.333333  0.500000  1
  B  B22  1  0.666667  0.333333  0.269355  1
  B  B23  1  0.333333  0.666667  0.500000  1
