# generated using pymatgen
data_NdTm3SiBr6
_symmetry_space_group_name_H-M   'P 1'
_cell_length_a   4.04568900
_cell_length_b   13.29995236
_cell_length_c   14.00931872
_cell_angle_alpha   91.11656444
_cell_angle_beta   90.00000000
_cell_angle_gamma   90.00000000
_symmetry_Int_Tables_number   1
_chemical_formula_structural   NdTm3SiBr6
_chemical_formula_sum   'Nd2 Tm6 Si2 Br12'
_cell_volume   753.66287743
_cell_formula_units_Z   2
loop_
 _symmetry_equiv_pos_site_id
 _symmetry_equiv_pos_as_xyz
  1  'x, y, z'
loop_
 _atom_site_type_symbol
 _atom_site_label
 _atom_site_symmetry_multiplicity
 _atom_site_fract_x
 _atom_site_fract_y
 _atom_site_fract_z
 _atom_site_occupancy
  Nd  Nd0  1  0.000000  0.622720  0.917987  1
  Nd  Nd1  1  0.000000  0.377280  0.082013  1
  Tm  Tm2  1  0.500000  0.115473  0.344435  1
  Tm  Tm3  1  0.500000  0.884527  0.655565  1
  Tm  Tm4  1  0.500000  0.618337  0.158631  1
  Tm  Tm5  1  0.500000  0.381663  0.841369  1
  Tm  Tm6  1  0.000000  0.115430  0.577757  1
  Tm  Tm7  1  0.000000  0.884570  0.422243  1
  Si  Si8  1  0.500000  0.000000  0.500000  1
  Si  Si9  1  0.500000  0.500000  0.000000  1
  Br  Br10  1  0.500000  0.232789  0.172479  1
  Br  Br11  1  0.500000  0.767211  0.827521  1
  Br  Br12  1  0.500000  0.750618  0.337504  1
  Br  Br13  1  0.500000  0.249382  0.662496  1
  Br  Br14  1  0.000000  0.250269  0.413801  1
  Br  Br15  1  0.000000  0.749731  0.586199  1
  Br  Br16  1  0.000000  0.755012  0.098910  1
  Br  Br17  1  0.000000  0.244988  0.901090  1
  Br  Br18  1  0.000000  0.001308  0.247463  1
  Br  Br19  1  0.000000  0.998692  0.752537  1
  Br  Br20  1  0.000000  0.513709  0.261080  1
  Br  Br21  1  0.000000  0.486291  0.738920  1
