# generated using pymatgen
data_DyHo4P12Ru10Rh9
_symmetry_space_group_name_H-M   'P 1'
_cell_length_a   12.60552801
_cell_length_b   12.57549979
_cell_length_c   3.92850200
_cell_angle_alpha   90.00000000
_cell_angle_beta   90.00000000
_cell_angle_gamma   119.84309662
_symmetry_Int_Tables_number   1
_chemical_formula_structural   DyHo4P12Ru10Rh9
_chemical_formula_sum   'Dy1 Ho4 P12 Ru10 Rh9'
_cell_volume   540.16741716
_cell_formula_units_Z   1
loop_
 _symmetry_equiv_pos_site_id
 _symmetry_equiv_pos_as_xyz
  1  'x, y, z'
loop_
 _atom_site_type_symbol
 _atom_site_label
 _atom_site_symmetry_multiplicity
 _atom_site_fract_x
 _atom_site_fract_y
 _atom_site_fract_z
 _atom_site_occupancy
  Dy  Dy0  1  0.333412  0.666846  0.000000  1
  Ho  Ho1  1  0.666710  0.332561  0.000000  1
  Ho  Ho2  1  0.812119  0.000913  0.500000  1
  Ho  Ho3  1  0.185647  0.187391  0.500000  1
  Ho  Ho4  1  0.999987  0.813025  0.500000  1
  P  P5  1  0.631169  0.997690  0.000000  1
  P  P6  1  0.366093  0.371748  0.000000  1
  P  P7  1  0.005992  0.633684  0.000000  1
  P  P8  1  0.686935  0.519538  0.500000  1
  P  P9  1  0.831057  0.308460  0.500000  1
  P  P10  1  0.314796  0.832405  0.500000  1
  P  P11  1  0.517901  0.685807  0.500000  1
  P  P12  1  0.180206  0.001299  0.000000  1
  P  P13  1  0.819979  0.819630  0.000000  1
  P  P14  1  0.996027  0.179962  0.000000  1
  P  P15  1  0.479331  0.165562  0.500000  1
  P  P16  1  0.168032  0.482753  0.500000  1
  Ru  Ru17  1  0.126910  0.641403  0.500000  1
  Ru  Ru18  1  0.360326  0.486977  0.500000  1
  Ru  Ru19  1  0.512705  0.871746  0.500000  1
  Ru  Ru20  1  0.717241  0.715893  0.500000  1
  Ru  Ru21  1  0.001087  0.284697  0.500000  1
  Ru  Ru22  1  0.450506  0.002618  0.000000  1
  Ru  Ru23  1  0.553129  0.547983  0.000000  1
  Ru  Ru24  1  0.000276  0.449238  0.000000  1
  Ru  Ru25  1  0.816973  0.194898  0.000000  1
  Ru  Ru26  1  0.283540  0.001292  0.500000  1
  Rh  Rh27  1  0.624659  0.804107  0.000000  1
  Rh  Rh28  1  0.180866  0.375303  0.000000  1
  Rh  Rh29  1  0.375060  0.184141  0.000000  1
  Rh  Rh30  1  0.195647  0.821247  0.000000  1
  Rh  Rh31  1  0.808789  0.624176  0.000000  1
  Rh  Rh32  1  0.869766  0.507431  0.500000  1
  Rh  Rh33  1  0.490349  0.359635  0.500000  1
  Rh  Rh34  1  0.637162  0.127782  0.500000  1
  Rh  Rh35  1  0.999618  0.000154  0.000000  1
