# generated using pymatgen
data_Zr5Si9P3Ir19
_symmetry_space_group_name_H-M   'P 1'
_cell_length_a   12.71274500
_cell_length_b   12.71274551
_cell_length_c   3.91072000
_cell_angle_alpha   90.00000000
_cell_angle_beta   90.00000000
_cell_angle_gamma   119.99999607
_symmetry_Int_Tables_number   1
_chemical_formula_structural   Zr5Si9P3Ir19
_chemical_formula_sum   'Zr5 Si9 P3 Ir19'
_cell_volume   547.35118193
_cell_formula_units_Z   1
loop_
 _symmetry_equiv_pos_site_id
 _symmetry_equiv_pos_as_xyz
  1  'x, y, z'
loop_
 _atom_site_type_symbol
 _atom_site_label
 _atom_site_symmetry_multiplicity
 _atom_site_fract_x
 _atom_site_fract_y
 _atom_site_fract_z
 _atom_site_occupancy
  Zr  Zr0  1  0.333333  0.666667  0.500000  1
  Zr  Zr1  1  0.666667  0.333333  0.500000  1
  Zr  Zr2  1  0.000000  0.816519  0.000000  1
  Zr  Zr3  1  0.183481  0.183481  0.000000  1
  Zr  Zr4  1  0.816519  0.000000  0.000000  1
  Si  Si5  1  0.000000  0.637720  0.500000  1
  Si  Si6  1  0.362280  0.362280  0.500000  1
  Si  Si7  1  0.637720  0.000000  0.500000  1
  Si  Si8  1  0.518019  0.685851  0.000000  1
  Si  Si9  1  0.314149  0.832167  0.000000  1
  Si  Si10  1  0.167833  0.481981  0.000000  1
  Si  Si11  1  0.481981  0.167833  0.000000  1
  Si  Si12  1  0.685851  0.518019  0.000000  1
  Si  Si13  1  0.832167  0.314149  0.000000  1
  P  P14  1  0.000000  0.175316  0.500000  1
  P  P15  1  0.824684  0.824684  0.500000  1
  P  P16  1  0.175316  0.000000  0.500000  1
  Ir  Ir17  1  0.511833  0.871005  0.000000  1
  Ir  Ir18  1  0.128995  0.640828  0.000000  1
  Ir  Ir19  1  0.359172  0.488167  0.000000  1
  Ir  Ir20  1  0.488167  0.359172  0.000000  1
  Ir  Ir21  1  0.871005  0.511833  0.000000  1
  Ir  Ir22  1  0.640828  0.128995  0.000000  1
  Ir  Ir23  1  0.000000  0.449904  0.500000  1
  Ir  Ir24  1  0.550096  0.550096  0.500000  1
  Ir  Ir25  1  0.449904  0.000000  0.500000  1
  Ir  Ir26  1  0.000000  0.276019  0.000000  1
  Ir  Ir27  1  0.723981  0.723981  0.000000  1
  Ir  Ir28  1  0.276019  0.000000  0.000000  1
  Ir  Ir29  1  0.629614  0.808619  0.500000  1
  Ir  Ir30  1  0.191381  0.820995  0.500000  1
  Ir  Ir31  1  0.179005  0.370386  0.500000  1
  Ir  Ir32  1  0.370386  0.179005  0.500000  1
  Ir  Ir33  1  0.808619  0.629614  0.500000  1
  Ir  Ir34  1  0.820995  0.191381  0.500000  1
  Ir  Ir35  1  0.000000  0.000000  0.500000  1
