# generated using pymatgen
data_CeErPt2Pb
_symmetry_space_group_name_H-M   'P 1'
_cell_length_a   7.96720600
_cell_length_b   7.96720600
_cell_length_c   7.23170500
_cell_angle_alpha   90.00000000
_cell_angle_beta   90.00000000
_cell_angle_gamma   90.00000000
_symmetry_Int_Tables_number   1
_chemical_formula_structural   CeErPt2Pb
_chemical_formula_sum   'Ce4 Er4 Pt8 Pb4'
_cell_volume   459.04239277
_cell_formula_units_Z   4
loop_
 _symmetry_equiv_pos_site_id
 _symmetry_equiv_pos_as_xyz
  1  'x, y, z'
loop_
 _atom_site_type_symbol
 _atom_site_label
 _atom_site_symmetry_multiplicity
 _atom_site_fract_x
 _atom_site_fract_y
 _atom_site_fract_z
 _atom_site_occupancy
  Ce  Ce0  1  0.676094  0.676094  0.000000  1
  Ce  Ce1  1  0.823906  0.176094  0.500000  1
  Ce  Ce2  1  0.323906  0.323906  0.000000  1
  Ce  Ce3  1  0.176094  0.823906  0.500000  1
  Er  Er4  1  0.340990  0.340990  0.500000  1
  Er  Er5  1  0.659010  0.659010  0.500000  1
  Er  Er6  1  0.840990  0.159010  0.000000  1
  Er  Er7  1  0.159010  0.840990  0.000000  1
  Pt  Pt8  1  0.871035  0.871035  0.734974  1
  Pt  Pt9  1  0.128965  0.128965  0.734974  1
  Pt  Pt10  1  0.628965  0.371035  0.765026  1
  Pt  Pt11  1  0.628965  0.371035  0.234974  1
  Pt  Pt12  1  0.371035  0.628965  0.234974  1
  Pt  Pt13  1  0.128965  0.128965  0.265026  1
  Pt  Pt14  1  0.871035  0.871035  0.265026  1
  Pt  Pt15  1  0.371035  0.628965  0.765026  1
  Pb  Pb16  1  0.500000  0.000000  0.750000  1
  Pb  Pb17  1  0.500000  0.000000  0.250000  1
  Pb  Pb18  1  0.000000  0.500000  0.750000  1
  Pb  Pb19  1  0.000000  0.500000  0.250000  1
