# generated using pymatgen
data_ErTl(SeO4)2
_symmetry_space_group_name_H-M   'P 1'
_cell_length_a   5.28079513
_cell_length_b   5.28079596
_cell_length_c   8.58316000
_cell_angle_alpha   93.62920160
_cell_angle_beta   93.62920218
_cell_angle_gamma   65.26695007
_symmetry_Int_Tables_number   1
_chemical_formula_structural   ErTl(SeO4)2
_chemical_formula_sum   'Er1 Tl1 Se2 O8'
_cell_volume   216.78495362
_cell_formula_units_Z   1
loop_
 _symmetry_equiv_pos_site_id
 _symmetry_equiv_pos_as_xyz
  1  'x, y, z'
loop_
 _atom_site_type_symbol
 _atom_site_label
 _atom_site_symmetry_multiplicity
 _atom_site_fract_x
 _atom_site_fract_y
 _atom_site_fract_z
 _atom_site_occupancy
  Er  Er0  1  0.000000  0.000000  0.500000  1
  Tl  Tl1  1  0.000000  0.000000  0.000000  1
  Se  Se2  1  0.625884  0.625884  0.285744  1
  Se  Se3  1  0.374117  0.374117  0.714257  1
  O  O4  1  0.692053  0.692053  0.112163  1
  O  O5  1  0.755338  0.279571  0.307445  1
  O  O6  1  0.279571  0.755338  0.307445  1
  O  O7  1  0.755631  0.755631  0.437370  1
  O  O8  1  0.244369  0.244369  0.562629  1
  O  O9  1  0.720429  0.244662  0.692555  1
  O  O10  1  0.244662  0.720429  0.692555  1
  O  O11  1  0.307946  0.307946  0.887837  1
