# generated using pymatgen
data_Tb3Ho2OsAu2
_symmetry_space_group_name_H-M   'P 1'
_cell_length_a   7.77177300
_cell_length_b   8.82130100
_cell_length_c   12.22343600
_cell_angle_alpha   90.00000000
_cell_angle_beta   90.00000000
_cell_angle_gamma   90.00000000
_symmetry_Int_Tables_number   1
_chemical_formula_structural   Tb3Ho2OsAu2
_chemical_formula_sum   'Tb12 Ho8 Os4 Au8'
_cell_volume   838.00392237
_cell_formula_units_Z   4
loop_
 _symmetry_equiv_pos_site_id
 _symmetry_equiv_pos_as_xyz
  1  'x, y, z'
loop_
 _atom_site_type_symbol
 _atom_site_label
 _atom_site_symmetry_multiplicity
 _atom_site_fract_x
 _atom_site_fract_y
 _atom_site_fract_z
 _atom_site_occupancy
  Tb  Tb0  1  0.836657  0.750000  0.780193  1
  Tb  Tb1  1  0.163343  0.250000  0.219807  1
  Tb  Tb2  1  0.336657  0.250000  0.719807  1
  Tb  Tb3  1  0.663343  0.750000  0.280193  1
  Tb  Tb4  1  0.362044  0.750000  0.688869  1
  Tb  Tb5  1  0.637956  0.250000  0.311131  1
  Tb  Tb6  1  0.862044  0.250000  0.811131  1
  Tb  Tb7  1  0.137956  0.750000  0.188869  1
  Tb  Tb8  1  0.952869  0.750000  0.496757  1
  Tb  Tb9  1  0.047131  0.250000  0.503243  1
  Tb  Tb10  1  0.452869  0.250000  0.003243  1
  Tb  Tb11  1  0.547131  0.750000  0.996757  1
  Ho  Ho12  1  0.671708  0.034482  0.582365  1
  Ho  Ho13  1  0.328292  0.965518  0.417635  1
  Ho  Ho14  1  0.171708  0.965518  0.917635  1
  Ho  Ho15  1  0.328292  0.534482  0.417635  1
  Ho  Ho16  1  0.828292  0.034482  0.082365  1
  Ho  Ho17  1  0.671708  0.465518  0.582365  1
  Ho  Ho18  1  0.828292  0.465518  0.082365  1
  Ho  Ho19  1  0.171708  0.534482  0.917635  1
  Os  Os20  1  0.570472  0.750000  0.502040  1
  Os  Os21  1  0.429528  0.250000  0.497960  1
  Os  Os22  1  0.070472  0.250000  0.997960  1
  Os  Os23  1  0.929528  0.750000  0.002040  1
  Au  Au24  1  0.561550  0.491562  0.831229  1
  Au  Au25  1  0.438450  0.508438  0.168771  1
  Au  Au26  1  0.061550  0.508438  0.668771  1
  Au  Au27  1  0.438450  0.991562  0.168771  1
  Au  Au28  1  0.938450  0.491562  0.331229  1
  Au  Au29  1  0.561550  0.008438  0.831229  1
  Au  Au30  1  0.938450  0.008438  0.331229  1
  Au  Au31  1  0.061550  0.991562  0.668771  1
