# generated using pymatgen
data_DyY4Bi2Pt
_symmetry_space_group_name_H-M   'P 1'
_cell_length_a   8.11815817
_cell_length_b   9.03618954
_cell_length_c   12.48426907
_cell_angle_alpha   89.97877851
_cell_angle_beta   89.98240293
_cell_angle_gamma   89.99935334
_symmetry_Int_Tables_number   1
_chemical_formula_structural   DyY4Bi2Pt
_chemical_formula_sum   'Dy4 Y16 Bi8 Pt4'
_cell_volume   915.81111593
_cell_formula_units_Z   4
loop_
 _symmetry_equiv_pos_site_id
 _symmetry_equiv_pos_as_xyz
  1  'x, y, z'
loop_
 _atom_site_type_symbol
 _atom_site_label
 _atom_site_symmetry_multiplicity
 _atom_site_fract_x
 _atom_site_fract_y
 _atom_site_fract_z
 _atom_site_occupancy
  Dy  Dy0  1  0.823120  0.045918  0.066628  1
  Dy  Dy1  1  0.676747  0.453832  0.566897  1
  Dy  Dy2  1  0.822407  0.453989  0.067022  1
  Dy  Dy3  1  0.177189  0.545934  0.933072  1
  Y  Y4  1  0.835948  0.749874  0.789305  1
  Y  Y5  1  0.163758  0.249865  0.210525  1
  Y  Y6  1  0.336394  0.250117  0.710353  1
  Y  Y7  1  0.663894  0.750133  0.289485  1
  Y  Y8  1  0.371291  0.749672  0.697202  1
  Y  Y9  1  0.628790  0.249778  0.302768  1
  Y  Y10  1  0.870901  0.250327  0.802657  1
  Y  Y11  1  0.129014  0.750222  0.197284  1
  Y  Y12  1  0.950720  0.749304  0.499865  1
  Y  Y13  1  0.048772  0.250461  0.500316  1
  Y  Y14  1  0.451461  0.250683  0.000278  1
  Y  Y15  1  0.549050  0.749504  0.999925  1
  Y  Y16  1  0.678727  0.046049  0.567443  1
  Y  Y17  1  0.321668  0.954109  0.432675  1
  Y  Y18  1  0.179122  0.954235  0.932527  1
  Y  Y19  1  0.320998  0.546025  0.432283  1
  Bi  Bi20  1  0.568066  0.491062  0.827665  1
  Bi  Bi21  1  0.431926  0.509100  0.172661  1
  Bi  Bi22  1  0.068216  0.509080  0.672533  1
  Bi  Bi23  1  0.432073  0.990953  0.172173  1
  Bi  Bi24  1  0.931850  0.490971  0.327476  1
  Bi  Bi25  1  0.567889  0.008980  0.827863  1
  Bi  Bi26  1  0.931987  0.008945  0.327996  1
  Bi  Bi27  1  0.068040  0.990863  0.672327  1
  Pt  Pt28  1  0.576942  0.749031  0.511970  1
  Pt  Pt29  1  0.423883  0.250451  0.488427  1
  Pt  Pt30  1  0.075240  0.250995  0.988536  1
  Pt  Pt31  1  0.923914  0.749539  0.011862  1
