# generated using pymatgen
data_Tb4Ga18FeCo2Pd3
_symmetry_space_group_name_H-M   'P 1'
_cell_length_a   7.51391626
_cell_length_b   7.51391674
_cell_length_c   9.50421971
_cell_angle_alpha   90.15453225
_cell_angle_beta   90.15453068
_cell_angle_gamma   119.39386283
_symmetry_Int_Tables_number   1
_chemical_formula_structural   Tb4Ga18FeCo2Pd3
_chemical_formula_sum   'Tb4 Ga18 Fe1 Co2 Pd3'
_cell_volume   467.51328075
_cell_formula_units_Z   1
loop_
 _symmetry_equiv_pos_site_id
 _symmetry_equiv_pos_as_xyz
  1  'x, y, z'
loop_
 _atom_site_type_symbol
 _atom_site_label
 _atom_site_symmetry_multiplicity
 _atom_site_fract_x
 _atom_site_fract_y
 _atom_site_fract_z
 _atom_site_occupancy
  Tb  Tb0  1  0.321027  0.997509  0.249854  1
  Tb  Tb1  1  0.002491  0.678973  0.750146  1
  Tb  Tb2  1  0.671286  0.991764  0.749386  1
  Tb  Tb3  1  0.008236  0.328714  0.250614  1
  Ga  Ga4  1  0.347421  0.015295  0.921745  1
  Ga  Ga5  1  0.984705  0.652579  0.078255  1
  Ga  Ga6  1  0.345512  0.999404  0.573678  1
  Ga  Ga7  1  0.000596  0.654488  0.426322  1
  Ga  Ga8  1  0.664381  0.012814  0.078630  1
  Ga  Ga9  1  0.987186  0.335619  0.921370  1
  Ga  Ga10  1  0.654796  0.002280  0.425961  1
  Ga  Ga11  1  0.997720  0.345204  0.574039  1
  Ga  Ga12  1  0.662815  0.654091  0.932437  1
  Ga  Ga13  1  0.345909  0.337185  0.067563  1
  Ga  Ga14  1  0.658588  0.658301  0.559521  1
  Ga  Ga15  1  0.341699  0.341412  0.440479  1
  Ga  Ga16  1  0.137946  0.139699  0.749453  1
  Ga  Ga17  1  0.860301  0.862054  0.250547  1
  Ga  Ga18  1  0.452701  0.664871  0.259127  1
  Ga  Ga19  1  0.335129  0.547299  0.740873  1
  Ga  Ga20  1  0.561610  0.336508  0.747546  1
  Ga  Ga21  1  0.663492  0.438390  0.252454  1
  Fe  Fe22  1  0.327957  0.672043  0.500000  1
  Co  Co23  1  0.668968  0.331032  0.000000  1
  Co  Co24  1  0.670982  0.329018  0.500000  1
  Pd  Pd25  1  0.998839  0.001161  0.000000  1
  Pd  Pd26  1  0.000050  0.999950  0.500000  1
  Pd  Pd27  1  0.327660  0.672340  0.000000  1
