# generated using pymatgen
data_Tb2Lu(MgHg)3
_symmetry_space_group_name_H-M   'P 1'
_cell_length_a   7.73142600
_cell_length_b   7.67590438
_cell_length_c   4.28647600
_cell_angle_alpha   90.00000000
_cell_angle_beta   90.00000000
_cell_angle_gamma   120.23956335
_symmetry_Int_Tables_number   1
_chemical_formula_structural   Tb2Lu(MgHg)3
_chemical_formula_sum   'Tb2 Lu1 Mg3 Hg3'
_cell_volume   219.76915136
_cell_formula_units_Z   1
loop_
 _symmetry_equiv_pos_site_id
 _symmetry_equiv_pos_as_xyz
  1  'x, y, z'
loop_
 _atom_site_type_symbol
 _atom_site_label
 _atom_site_symmetry_multiplicity
 _atom_site_fract_x
 _atom_site_fract_y
 _atom_site_fract_z
 _atom_site_occupancy
  Tb  Tb0  1  0.999226  0.413821  0.000000  1
  Tb  Tb1  1  0.585405  0.586179  0.000000  1
  Lu  Lu2  1  0.411672  0.000000  0.000000  1
  Mg  Mg3  1  0.749618  0.000000  0.500000  1
  Mg  Mg4  1  0.250929  0.249783  0.500000  1
  Mg  Mg5  1  0.001145  0.750217  0.500000  1
  Hg  Hg6  1  0.003399  0.000000  0.000000  1
  Hg  Hg7  1  0.663583  0.328561  0.500000  1
  Hg  Hg8  1  0.335023  0.671439  0.500000  1
