# generated using pymatgen
data_SrCa4Al9
_symmetry_space_group_name_H-M   'P 1'
_cell_length_a   11.93401419
_cell_length_b   11.93401404
_cell_length_c   11.93401519
_cell_angle_alpha   27.55951498
_cell_angle_beta   27.55951489
_cell_angle_gamma   27.55950964
_symmetry_Int_Tables_number   1
_chemical_formula_structural   SrCa4Al9
_chemical_formula_sum   'Sr1 Ca4 Al9'
_cell_volume   321.15720247
_cell_formula_units_Z   1
loop_
 _symmetry_equiv_pos_site_id
 _symmetry_equiv_pos_as_xyz
  1  'x, y, z'
loop_
 _atom_site_type_symbol
 _atom_site_label
 _atom_site_symmetry_multiplicity
 _atom_site_fract_x
 _atom_site_fract_y
 _atom_site_fract_z
 _atom_site_occupancy
  Sr  Sr0  1  0.500000  0.500000  0.500000  1
  Ca  Ca1  1  0.218192  0.218192  0.218192  1
  Ca  Ca2  1  0.781808  0.781808  0.781808  1
  Ca  Ca3  1  0.317536  0.317536  0.317536  1
  Ca  Ca4  1  0.682464  0.682464  0.682464  1
  Al  Al5  1  0.000000  0.000000  0.000000  1
  Al  Al6  1  0.127042  0.127042  0.127042  1
  Al  Al7  1  0.872958  0.872958  0.872958  1
  Al  Al8  1  0.721046  0.237792  0.237792  1
  Al  Al9  1  0.237792  0.237792  0.721046  1
  Al  Al10  1  0.237792  0.721046  0.237792  1
  Al  Al11  1  0.762208  0.278954  0.762208  1
  Al  Al12  1  0.278954  0.762208  0.762208  1
  Al  Al13  1  0.762208  0.762208  0.278954  1
