# generated using pymatgen
data_Ce4Tc2BiB6
_symmetry_space_group_name_H-M   'P 1'
_cell_length_a   5.43286240
_cell_length_b   5.43286331
_cell_length_c   8.71615204
_cell_angle_alpha   71.84100745
_cell_angle_beta   71.84101448
_cell_angle_gamma   59.99998564
_symmetry_Int_Tables_number   1
_chemical_formula_structural   Ce4Tc2BiB6
_chemical_formula_sum   'Ce4 Tc2 Bi1 B6'
_cell_volume   207.87199918
_cell_formula_units_Z   1
loop_
 _symmetry_equiv_pos_site_id
 _symmetry_equiv_pos_as_xyz
  1  'x, y, z'
loop_
 _atom_site_type_symbol
 _atom_site_label
 _atom_site_symmetry_multiplicity
 _atom_site_fract_x
 _atom_site_fract_y
 _atom_site_fract_z
 _atom_site_occupancy
  Ce  Ce0  1  0.749377  0.749377  0.751868  1
  Ce  Ce1  1  0.250623  0.250623  0.248132  1
  Ce  Ce2  1  0.584205  0.584205  0.247384  1
  Ce  Ce3  1  0.415795  0.415795  0.752616  1
  Tc  Tc4  1  0.885948  0.885948  0.342160  1
  Tc  Tc5  1  0.114052  0.114052  0.657841  1
  Bi  Bi6  1  0.000000  0.000000  0.000000  1
  B  B7  1  0.500000  0.171172  0.500000  1
  B  B8  1  0.828828  0.500000  0.500000  1
  B  B9  1  0.171172  0.828828  0.500000  1
  B  B10  1  0.171172  0.500000  0.500000  1
  B  B11  1  0.828828  0.171172  0.500000  1
  B  B12  1  0.500000  0.828828  0.500000  1
