# generated using pymatgen
data_La2Hg3(TeCl4)2
_symmetry_space_group_name_H-M   'P 1'
_cell_length_a   10.03727887
_cell_length_b   10.03727974
_cell_length_c   13.72343088
_cell_angle_alpha   75.00902564
_cell_angle_beta   75.00902527
_cell_angle_gamma   46.16924243
_symmetry_Int_Tables_number   1
_chemical_formula_structural   La2Hg3(TeCl4)2
_chemical_formula_sum   'La4 Hg6 Te4 Cl16'
_cell_volume   957.14746604
_cell_formula_units_Z   2
loop_
 _symmetry_equiv_pos_site_id
 _symmetry_equiv_pos_as_xyz
  1  'x, y, z'
loop_
 _atom_site_type_symbol
 _atom_site_label
 _atom_site_symmetry_multiplicity
 _atom_site_fract_x
 _atom_site_fract_y
 _atom_site_fract_z
 _atom_site_occupancy
  La  La0  1  0.214147  0.732387  0.930017  1
  La  La1  1  0.267613  0.785853  0.569983  1
  La  La2  1  0.785853  0.267613  0.069983  1
  La  La3  1  0.732387  0.214147  0.430017  1
  Hg  Hg4  1  0.500000  0.000000  0.000000  1
  Hg  Hg5  1  0.000000  0.500000  0.500000  1
  Hg  Hg6  1  0.252010  0.238333  0.755741  1
  Hg  Hg7  1  0.761667  0.747990  0.744259  1
  Hg  Hg8  1  0.747990  0.761667  0.244259  1
  Hg  Hg9  1  0.238333  0.252010  0.255741  1
  Te  Te10  1  0.585668  0.080502  0.802734  1
  Te  Te11  1  0.919498  0.414332  0.697266  1
  Te  Te12  1  0.414332  0.919498  0.197266  1
  Te  Te13  1  0.080502  0.585668  0.302734  1
  Cl  Cl14  1  0.448024  0.361884  0.032888  1
  Cl  Cl15  1  0.638116  0.551976  0.467112  1
  Cl  Cl16  1  0.551976  0.638116  0.967112  1
  Cl  Cl17  1  0.361884  0.448024  0.532888  1
  Cl  Cl18  1  0.172919  0.638718  0.763521  1
  Cl  Cl19  1  0.361282  0.827081  0.736479  1
  Cl  Cl20  1  0.827081  0.361282  0.236479  1
  Cl  Cl21  1  0.638718  0.172919  0.263521  1
  Cl  Cl22  1  0.940008  0.719313  0.024906  1
  Cl  Cl23  1  0.280687  0.059992  0.475094  1
  Cl  Cl24  1  0.059992  0.280687  0.975094  1
  Cl  Cl25  1  0.719313  0.940008  0.524906  1
  Cl  Cl26  1  0.107940  0.888537  0.111528  1
  Cl  Cl27  1  0.111463  0.892060  0.388472  1
  Cl  Cl28  1  0.892060  0.111463  0.888472  1
  Cl  Cl29  1  0.888537  0.107940  0.611528  1
