# generated using pymatgen
data_Rb4Hf4Zr2CBr18
_symmetry_space_group_name_H-M   'P 1'
_cell_length_a   10.60578282
_cell_length_b   10.82111850
_cell_length_c   10.92752909
_cell_angle_alpha   118.39620527
_cell_angle_beta   100.26613230
_cell_angle_gamma   104.05092446
_symmetry_Int_Tables_number   1
_chemical_formula_structural   Rb4Hf4Zr2CBr18
_chemical_formula_sum   'Rb4 Hf4 Zr2 C1 Br18'
_cell_volume   1004.83815759
_cell_formula_units_Z   1
loop_
 _symmetry_equiv_pos_site_id
 _symmetry_equiv_pos_as_xyz
  1  'x, y, z'
loop_
 _atom_site_type_symbol
 _atom_site_label
 _atom_site_symmetry_multiplicity
 _atom_site_fract_x
 _atom_site_fract_y
 _atom_site_fract_z
 _atom_site_occupancy
  Rb  Rb0  1  0.188971  0.725230  0.563128  1
  Rb  Rb1  1  0.844664  0.963273  0.771938  1
  Rb  Rb2  1  0.155691  0.036839  0.228386  1
  Rb  Rb3  1  0.811507  0.274405  0.436814  1
  Hf  Hf4  1  0.636706  0.725964  0.042301  1
  Hf  Hf5  1  0.643027  0.554147  0.219631  1
  Hf  Hf6  1  0.360264  0.274615  0.956627  1
  Hf  Hf7  1  0.631427  0.380149  0.873132  1
  Zr  Zr8  1  0.356280  0.447350  0.782706  1
  Zr  Zr9  1  0.367744  0.618570  0.123679  1
  C  C10  1  0.505297  0.498692  0.001769  1
  Br  Br11  1  0.813368  0.426512  0.107730  1
  Br  Br12  1  0.517021  0.698697  0.398853  1
  Br  Br13  1  0.187917  0.993198  0.902827  1
  Br  Br14  1  0.181982  0.574823  0.890705  1
  Br  Br15  1  0.821868  0.823352  0.301727  1
  Br  Br16  1  0.503845  0.301569  0.202368  1
  Br  Br17  1  0.790221  0.235678  0.723353  1
  Br  Br18  1  0.175813  0.172243  0.697100  1
  Br  Br19  1  0.510440  0.900645  0.191226  1
  Br  Br20  1  0.809451  0.624973  0.907318  1
  Br  Br21  1  0.208373  0.766657  0.279859  1
  Br  Br22  1  0.173771  0.380166  0.509019  1
  Br  Br23  1  0.498867  0.702304  0.798203  1
  Br  Br24  1  0.813256  0.006428  0.097448  1
  Br  Br25  1  0.487685  0.300196  0.602781  1
  Br  Br26  1  0.188293  0.371316  0.092308  1
  Br  Br27  1  0.824091  0.618466  0.486985  1
  Br  Br28  1  0.492159  0.103542  0.810077  1
