# generated using pymatgen
data_TmLu9(SiBi)4
_symmetry_space_group_name_H-M   'P 1'
_cell_length_a   8.49543567
_cell_length_b   8.49296509
_cell_length_c   7.77013824
_cell_angle_alpha   89.97870449
_cell_angle_beta   89.99725409
_cell_angle_gamma   125.70422725
_symmetry_Int_Tables_number   1
_chemical_formula_structural   TmLu9(SiBi)4
_chemical_formula_sum   'Tm1 Lu9 Si4 Bi4'
_cell_volume   455.25147486
_cell_formula_units_Z   1
loop_
 _symmetry_equiv_pos_site_id
 _symmetry_equiv_pos_as_xyz
  1  'x, y, z'
loop_
 _atom_site_type_symbol
 _atom_site_label
 _atom_site_symmetry_multiplicity
 _atom_site_fract_x
 _atom_site_fract_y
 _atom_site_fract_z
 _atom_site_occupancy
  Tm  Tm0  1  0.043430  0.285496  0.335620  1
  Lu  Lu1  1  0.543685  0.784933  0.164230  1
  Lu  Lu2  1  0.285029  0.043649  0.335852  1
  Lu  Lu3  1  0.215041  0.456262  0.835783  1
  Lu  Lu4  1  0.956306  0.714926  0.664214  1
  Lu  Lu5  1  0.714955  0.956299  0.664246  1
  Lu  Lu6  1  0.456387  0.215033  0.835785  1
  Lu  Lu7  1  0.784946  0.543633  0.164178  1
  Lu  Lu8  1  0.500258  0.500114  0.500095  1
  Lu  Lu9  1  0.999974  0.999863  0.999816  1
  Si  Si10  1  0.634428  0.634443  0.866860  1
  Si  Si11  1  0.134514  0.134352  0.633453  1
  Si  Si12  1  0.865379  0.865179  0.366842  1
  Si  Si13  1  0.365976  0.365560  0.132934  1
  Bi  Bi14  1  0.292625  0.708210  0.500261  1
  Bi  Bi15  1  0.207717  0.792204  0.000030  1
  Bi  Bi16  1  0.707377  0.292250  0.500157  1
  Bi  Bi17  1  0.791975  0.207594  0.999643  1
