# generated using pymatgen
data_Zr6Co7Si7Ru9
_symmetry_space_group_name_H-M   'P 1'
_cell_length_a   8.33296138
_cell_length_b   8.35787918
_cell_length_c   8.35787910
_cell_angle_alpha   60.01484651
_cell_angle_beta   59.91495711
_cell_angle_gamma   59.91495338
_symmetry_Int_Tables_number   1
_chemical_formula_structural   Zr6Co7Si7Ru9
_chemical_formula_sum   'Zr6 Co7 Si7 Ru9'
_cell_volume   411.11721437
_cell_formula_units_Z   1
loop_
 _symmetry_equiv_pos_site_id
 _symmetry_equiv_pos_as_xyz
  1  'x, y, z'
loop_
 _atom_site_type_symbol
 _atom_site_label
 _atom_site_symmetry_multiplicity
 _atom_site_fract_x
 _atom_site_fract_y
 _atom_site_fract_z
 _atom_site_occupancy
  Zr  Zr0  1  0.797081  0.795373  0.203795  1
  Zr  Zr1  1  0.797081  0.203795  0.795373  1
  Zr  Zr2  1  0.201627  0.204595  0.796865  1
  Zr  Zr3  1  0.797056  0.203774  0.203774  1
  Zr  Zr4  1  0.201627  0.796865  0.204595  1
  Zr  Zr5  1  0.201648  0.796891  0.796891  1
  Co  Co6  1  0.828829  0.514787  0.828189  1
  Co  Co7  1  0.171296  0.172494  0.483734  1
  Co  Co8  1  0.171302  0.172508  0.172508  1
  Co  Co9  1  0.828829  0.828189  0.514787  1
  Co  Co10  1  0.828821  0.828177  0.828177  1
  Co  Co11  1  0.171296  0.483734  0.172494  1
  Co  Co12  1  0.484594  0.171806  0.171806  1
  Si  Si13  1  0.498996  0.500335  0.500335  1
  Si  Si14  1  0.499723  0.490453  0.004913  1
  Si  Si15  1  0.499723  0.004913  0.490453  1
  Si  Si16  1  0.999805  0.000824  0.499690  1
  Si  Si17  1  0.999805  0.499690  0.000824  1
  Si  Si18  1  0.999811  0.499680  0.499680  1
  Si  Si19  1  0.499749  0.004900  0.004900  1
  Ru  Ru20  1  0.133954  0.622015  0.622015  1
  Ru  Ru21  1  0.623123  0.138629  0.619125  1
  Ru  Ru22  1  0.623123  0.619125  0.138629  1
  Ru  Ru23  1  0.623122  0.619127  0.619127  1
  Ru  Ru24  1  0.378201  0.863380  0.379207  1
  Ru  Ru25  1  0.866079  0.377968  0.377968  1
  Ru  Ru26  1  0.378201  0.379207  0.863380  1
  Ru  Ru27  1  0.378196  0.379201  0.379201  1
  Ru  Ru28  1  0.517298  0.827563  0.827563  1
