# generated using pymatgen
data_Ho2Co3Mo2P6Rh5
_symmetry_space_group_name_H-M   'P 1'
_cell_length_a   3.83993900
_cell_length_b   10.70959500
_cell_length_c   12.32446800
_cell_angle_alpha   90.00000000
_cell_angle_beta   90.00000000
_cell_angle_gamma   90.00000000
_symmetry_Int_Tables_number   1
_chemical_formula_structural   Ho2Co3Mo2P6Rh5
_chemical_formula_sum   'Ho4 Co6 Mo4 P12 Rh10'
_cell_volume   506.83378235
_cell_formula_units_Z   2
loop_
 _symmetry_equiv_pos_site_id
 _symmetry_equiv_pos_as_xyz
  1  'x, y, z'
loop_
 _atom_site_type_symbol
 _atom_site_label
 _atom_site_symmetry_multiplicity
 _atom_site_fract_x
 _atom_site_fract_y
 _atom_site_fract_z
 _atom_site_occupancy
  Ho  Ho0  1  0.250000  0.580311  0.708927  1
  Ho  Ho1  1  0.250000  0.919689  0.208927  1
  Ho  Ho2  1  0.750000  0.414867  0.292853  1
  Ho  Ho3  1  0.750000  0.085133  0.792853  1
  Co  Co4  1  0.750000  0.114416  0.303855  1
  Co  Co5  1  0.750000  0.385584  0.803855  1
  Co  Co6  1  0.250000  0.463897  0.933244  1
  Co  Co7  1  0.250000  0.036103  0.433244  1
  Co  Co8  1  0.750000  0.534769  0.062802  1
  Co  Co9  1  0.750000  0.965231  0.562802  1
  Mo  Mo10  1  0.250000  0.706090  0.984832  1
  Mo  Mo11  1  0.250000  0.793910  0.484832  1
  Mo  Mo12  1  0.750000  0.293326  0.013174  1
  Mo  Mo13  1  0.750000  0.206674  0.513174  1
  P  P14  1  0.250000  0.421241  0.107561  1
  P  P15  1  0.250000  0.078759  0.607561  1
  P  P16  1  0.750000  0.569071  0.887007  1
  P  P17  1  0.750000  0.930929  0.387007  1
  P  P18  1  0.250000  0.272863  0.869721  1
  P  P19  1  0.250000  0.227137  0.369721  1
  P  P20  1  0.750000  0.729880  0.127515  1
  P  P21  1  0.750000  0.770120  0.627515  1
  P  P22  1  0.250000  0.598535  0.391336  1
  P  P23  1  0.250000  0.901465  0.891336  1
  P  P24  1  0.750000  0.399017  0.615884  1
  P  P25  1  0.750000  0.100983  0.115884  1
  Rh  Rh26  1  0.250000  0.403782  0.484835  1
  Rh  Rh27  1  0.250000  0.096218  0.984835  1
  Rh  Rh28  1  0.750000  0.593472  0.515889  1
  Rh  Rh29  1  0.750000  0.906528  0.015889  1
  Rh  Rh30  1  0.250000  0.224667  0.181896  1
  Rh  Rh31  1  0.250000  0.275333  0.681896  1
  Rh  Rh32  1  0.750000  0.768540  0.819306  1
  Rh  Rh33  1  0.750000  0.731460  0.319306  1
  Rh  Rh34  1  0.250000  0.891030  0.699365  1
  Rh  Rh35  1  0.250000  0.608970  0.199365  1
