# generated using pymatgen
data_Tl2CdAg(Ru2O7)2
_symmetry_space_group_name_H-M   'P 1'
_cell_length_a   7.30297579
_cell_length_b   7.26222673
_cell_length_c   7.30297585
_cell_angle_alpha   59.87117666
_cell_angle_beta   60.10329680
_cell_angle_gamma   59.87118803
_symmetry_Int_Tables_number   1
_chemical_formula_structural   Tl2CdAg(Ru2O7)2
_chemical_formula_sum   'Tl2 Cd1 Ag1 Ru4 O14'
_cell_volume   273.55379134
_cell_formula_units_Z   1
loop_
 _symmetry_equiv_pos_site_id
 _symmetry_equiv_pos_as_xyz
  1  'x, y, z'
loop_
 _atom_site_type_symbol
 _atom_site_label
 _atom_site_symmetry_multiplicity
 _atom_site_fract_x
 _atom_site_fract_y
 _atom_site_fract_z
 _atom_site_occupancy
  Tl  Tl0  1  0.125000  0.125000  0.625000  1
  Tl  Tl1  1  0.625000  0.125000  0.125000  1
  Cd  Cd2  1  0.125000  0.125000  0.125000  1
  Ag  Ag3  1  0.125000  0.625000  0.125000  1
  Ru  Ru4  1  0.625000  0.125000  0.625000  1
  Ru  Ru5  1  0.625000  0.625000  0.125000  1
  Ru  Ru6  1  0.125000  0.625000  0.625000  1
  Ru  Ru7  1  0.625000  0.625000  0.625000  1
  O  O8  1  0.689909  0.697745  0.306627  1
  O  O9  1  0.943373  0.552255  0.560091  1
  O  O10  1  0.556832  0.945569  0.943820  1
  O  O11  1  0.943820  0.945569  0.556832  1
  O  O12  1  0.941386  0.556702  0.941386  1
  O  O13  1  0.554906  0.945627  0.554906  1
  O  O14  1  0.308614  0.693298  0.308614  1
  O  O15  1  0.306627  0.697745  0.689909  1
  O  O16  1  0.693168  0.304431  0.306180  1
  O  O17  1  0.695094  0.304373  0.695094  1
  O  O18  1  0.560091  0.552255  0.943373  1
  O  O19  1  0.306180  0.304431  0.693168  1
  O  O20  1  0.240639  0.263004  0.240639  1
  O  O21  1  0.009361  0.986996  0.009361  1
