# generated using pymatgen
data_Er2Zr2AlOs7
_symmetry_space_group_name_H-M   'P 1'
_cell_length_a   5.31360400
_cell_length_b   5.31360532
_cell_length_c   8.54690000
_cell_angle_alpha   90.00000000
_cell_angle_beta   90.00000000
_cell_angle_gamma   120.00000421
_symmetry_Int_Tables_number   1
_chemical_formula_structural   Er2Zr2AlOs7
_chemical_formula_sum   'Er2 Zr2 Al1 Os7'
_cell_volume   208.98625061
_cell_formula_units_Z   1
loop_
 _symmetry_equiv_pos_site_id
 _symmetry_equiv_pos_as_xyz
  1  'x, y, z'
loop_
 _atom_site_type_symbol
 _atom_site_label
 _atom_site_symmetry_multiplicity
 _atom_site_fract_x
 _atom_site_fract_y
 _atom_site_fract_z
 _atom_site_occupancy
  Er  Er0  1  0.666667  0.333333  0.940140  1
  Er  Er1  1  0.333333  0.666667  0.059860  1
  Zr  Zr2  1  0.333333  0.666667  0.425452  1
  Zr  Zr3  1  0.666667  0.333333  0.574548  1
  Al  Al4  1  0.000000  0.000000  0.500000  1
  Os  Os5  1  0.000000  0.000000  0.000000  1
  Os  Os6  1  0.827967  0.172033  0.256947  1
  Os  Os7  1  0.827967  0.655932  0.256947  1
  Os  Os8  1  0.344068  0.172033  0.256947  1
  Os  Os9  1  0.172033  0.827967  0.743053  1
  Os  Os10  1  0.172033  0.344068  0.743053  1
  Os  Os11  1  0.655932  0.827967  0.743053  1
