# generated using pymatgen
data_Er13Th3(NiAg)4
_symmetry_space_group_name_H-M   'P 1'
_cell_length_a   9.41924539
_cell_length_b   9.39821996
_cell_length_c   9.39822200
_cell_angle_alpha   59.99999985
_cell_angle_beta   60.07381227
_cell_angle_gamma   60.07380851
_symmetry_Int_Tables_number   1
_chemical_formula_structural   Er13Th3(NiAg)4
_chemical_formula_sum   'Er13 Th3 Ni4 Ag4'
_cell_volume   588.94675820
_cell_formula_units_Z   1
loop_
 _symmetry_equiv_pos_site_id
 _symmetry_equiv_pos_as_xyz
  1  'x, y, z'
loop_
 _atom_site_type_symbol
 _atom_site_label
 _atom_site_symmetry_multiplicity
 _atom_site_fract_x
 _atom_site_fract_y
 _atom_site_fract_z
 _atom_site_occupancy
  Er  Er0  1  0.940703  0.353099  0.353099  1
  Er  Er1  1  0.811469  0.188503  0.188503  1
  Er  Er2  1  0.188771  0.813107  0.813107  1
  Er  Er3  1  0.188771  0.813107  0.185015  1
  Er  Er4  1  0.811469  0.188503  0.811525  1
  Er  Er5  1  0.188771  0.185015  0.813107  1
  Er  Er6  1  0.811469  0.811525  0.188503  1
  Er  Er7  1  0.933579  0.565906  0.565906  1
  Er  Er8  1  0.565795  0.934080  0.934080  1
  Er  Er9  1  0.565795  0.934080  0.566045  1
  Er  Er10  1  0.933579  0.565906  0.934607  1
  Er  Er11  1  0.565795  0.566045  0.934080  1
  Er  Er12  1  0.933579  0.934607  0.565906  1
  Th  Th13  1  0.348644  0.354416  0.354416  1
  Th  Th14  1  0.348644  0.354416  0.942524  1
  Th  Th15  1  0.348644  0.942524  0.354416  1
  Ni  Ni16  1  0.145635  0.141748  0.141748  1
  Ni  Ni17  1  0.145635  0.141748  0.570867  1
  Ni  Ni18  1  0.145635  0.570867  0.141748  1
  Ni  Ni19  1  0.567010  0.144330  0.144330  1
  Ag  Ag20  1  0.588683  0.582671  0.582671  1
  Ag  Ag21  1  0.588683  0.582671  0.245974  1
  Ag  Ag22  1  0.588683  0.245974  0.582671  1
  Ag  Ag23  1  0.244554  0.585148  0.585148  1
