# generated using pymatgen
data_PrEr9(Ga2Ru3)2
_symmetry_space_group_name_H-M   'P 1'
_cell_length_a   8.29728504
_cell_length_b   8.29728606
_cell_length_c   8.29649345
_cell_angle_alpha   109.00929236
_cell_angle_beta   109.49154517
_cell_angle_gamma   109.91793312
_symmetry_Int_Tables_number   1
_chemical_formula_structural   PrEr9(Ga2Ru3)2
_chemical_formula_sum   'Pr1 Er9 Ga4 Ru6'
_cell_volume   439.63966770
_cell_formula_units_Z   1
loop_
 _symmetry_equiv_pos_site_id
 _symmetry_equiv_pos_as_xyz
  1  'x, y, z'
loop_
 _atom_site_type_symbol
 _atom_site_label
 _atom_site_symmetry_multiplicity
 _atom_site_fract_x
 _atom_site_fract_y
 _atom_site_fract_z
 _atom_site_occupancy
  Pr  Pr0  1  0.186719  0.936719  0.250000  1
  Er  Er1  1  0.781373  0.784227  0.782578  1
  Er  Er2  1  0.317083  0.567083  0.750000  1
  Er  Er3  1  0.753967  0.322540  0.571929  1
  Er  Er4  1  0.569361  0.748067  0.318169  1
  Er  Er5  1  0.713458  0.498220  0.997680  1
  Er  Er6  1  0.000541  0.715778  0.502320  1
  Er  Er7  1  0.501649  0.998795  0.717422  1
  Er  Er8  1  0.250611  0.182038  0.928071  1
  Er  Er9  1  0.929897  0.251191  0.181831  1
  Ga  Ga10  1  0.415758  0.415713  0.413309  1
  Ga  Ga11  1  0.089935  0.496377  0.002126  1
  Ga  Ga12  1  0.994250  0.087810  0.497874  1
  Ga  Ga13  1  0.502402  0.002448  0.086691  1
  Ru  Ru14  1  0.874025  0.124025  0.750000  1
  Ru  Ru15  1  0.743611  0.871278  0.119411  1
  Ru  Ru16  1  0.122569  0.746741  0.871565  1
  Ru  Ru17  1  0.251867  0.624201  0.380589  1
  Ru  Ru18  1  0.375177  0.251004  0.628435  1
  Ru  Ru19  1  0.625746  0.375746  0.250000  1
