# generated using pymatgen
data_Hf2TaNb7N12
_symmetry_space_group_name_H-M   'P 1'
_cell_length_a   5.28887800
_cell_length_b   5.28887826
_cell_length_c   10.49205100
_cell_angle_alpha   90.00000000
_cell_angle_beta   90.00000000
_cell_angle_gamma   119.99999840
_symmetry_Int_Tables_number   1
_chemical_formula_structural   Hf2TaNb7N12
_chemical_formula_sum   'Hf2 Ta1 Nb7 N12'
_cell_volume   254.16640773
_cell_formula_units_Z   1
loop_
 _symmetry_equiv_pos_site_id
 _symmetry_equiv_pos_as_xyz
  1  'x, y, z'
loop_
 _atom_site_type_symbol
 _atom_site_label
 _atom_site_symmetry_multiplicity
 _atom_site_fract_x
 _atom_site_fract_y
 _atom_site_fract_z
 _atom_site_occupancy
  Hf  Hf0  1  0.333333  0.666667  0.000000  1
  Hf  Hf1  1  0.333333  0.666667  0.500000  1
  Ta  Ta2  1  0.666667  0.333333  0.500000  1
  Nb  Nb3  1  0.676138  0.676437  0.750024  1
  Nb  Nb4  1  0.323563  0.999702  0.750024  1
  Nb  Nb5  1  0.000298  0.323862  0.750024  1
  Nb  Nb6  1  0.323563  0.323862  0.249976  1
  Nb  Nb7  1  0.676138  0.999702  0.249976  1
  Nb  Nb8  1  0.000298  0.676437  0.249976  1
  Nb  Nb9  1  0.666667  0.333333  0.000000  1
  N  N10  1  0.659176  0.652711  0.378617  1
  N  N11  1  0.347289  0.006465  0.378617  1
  N  N12  1  0.993535  0.340824  0.378617  1
  N  N13  1  0.347289  0.340824  0.621383  1
  N  N14  1  0.659176  0.006465  0.621383  1
  N  N15  1  0.993535  0.652711  0.621383  1
  N  N16  1  0.343745  0.340682  0.876831  1
  N  N17  1  0.659318  0.003063  0.876831  1
  N  N18  1  0.996937  0.656255  0.876831  1
  N  N19  1  0.659318  0.656255  0.123169  1
  N  N20  1  0.343745  0.003063  0.123169  1
  N  N21  1  0.996937  0.340682  0.123169  1
