# generated using pymatgen
data_Th2InPdAu
_symmetry_space_group_name_H-M   'P 1'
_cell_length_a   8.03912400
_cell_length_b   8.01129300
_cell_length_c   3.91214600
_cell_angle_alpha   90.00000000
_cell_angle_beta   90.00000000
_cell_angle_gamma   90.00000000
_symmetry_Int_Tables_number   1
_chemical_formula_structural   Th2InPdAu
_chemical_formula_sum   'Th4 In2 Pd2 Au2'
_cell_volume   251.95698181
_cell_formula_units_Z   2
loop_
 _symmetry_equiv_pos_site_id
 _symmetry_equiv_pos_as_xyz
  1  'x, y, z'
loop_
 _atom_site_type_symbol
 _atom_site_label
 _atom_site_symmetry_multiplicity
 _atom_site_fract_x
 _atom_site_fract_y
 _atom_site_fract_z
 _atom_site_occupancy
  Th  Th0  1  0.324484  0.166466  0.500001  1
  Th  Th1  1  0.824484  0.333534  0.500001  1
  Th  Th2  1  0.176318  0.682381  0.500001  1
  Th  Th3  1  0.676319  0.817620  0.500001  1
  In  In4  1  0.001164  0.995366  0.000000  1
  In  In5  1  0.501164  0.504634  0.000000  1
  Pd  Pd6  1  0.871843  0.628650  0.000000  1
  Pd  Pd7  1  0.371841  0.871351  0.000000  1
  Au  Au8  1  0.626191  0.124788  0.000000  1
  Au  Au9  1  0.126192  0.375212  0.000000  1
