# generated using pymatgen
data_Nd3Mg3Ag2Ru
_symmetry_space_group_name_H-M   'P 1'
_cell_length_a   7.81130500
_cell_length_b   7.81130563
_cell_length_c   4.14003900
_cell_angle_alpha   90.00000000
_cell_angle_beta   90.00000000
_cell_angle_gamma   120.00000159
_symmetry_Int_Tables_number   1
_chemical_formula_structural   Nd3Mg3Ag2Ru
_chemical_formula_sum   'Nd3 Mg3 Ag2 Ru1'
_cell_volume   218.76723761
_cell_formula_units_Z   1
loop_
 _symmetry_equiv_pos_site_id
 _symmetry_equiv_pos_as_xyz
  1  'x, y, z'
loop_
 _atom_site_type_symbol
 _atom_site_label
 _atom_site_symmetry_multiplicity
 _atom_site_fract_x
 _atom_site_fract_y
 _atom_site_fract_z
 _atom_site_occupancy
  Nd  Nd0  1  0.567456  0.969907  0.000000  1
  Nd  Nd1  1  0.030093  0.597549  0.000000  1
  Nd  Nd2  1  0.402451  0.432544  0.000000  1
  Mg  Mg3  1  0.247089  0.996469  0.500000  1
  Mg  Mg4  1  0.003531  0.250620  0.500000  1
  Mg  Mg5  1  0.749380  0.752911  0.500000  1
  Ag  Ag6  1  0.666667  0.333333  0.500000  1
  Ag  Ag7  1  0.000000  0.000000  0.000000  1
  Ru  Ru8  1  0.333333  0.666667  0.500000  1
