# generated using pymatgen
data_Na3La2Ga2P10Ir19
_symmetry_space_group_name_H-M   'P 1'
_cell_length_a   12.85733863
_cell_length_b   12.78839066
_cell_length_c   3.98869900
_cell_angle_alpha   90.00000000
_cell_angle_beta   90.00000000
_cell_angle_gamma   120.10186209
_symmetry_Int_Tables_number   1
_chemical_formula_structural   Na3La2Ga2P10Ir19
_chemical_formula_sum   'Na3 La2 Ga2 P10 Ir19'
_cell_volume   567.39066254
_cell_formula_units_Z   1
loop_
 _symmetry_equiv_pos_site_id
 _symmetry_equiv_pos_as_xyz
  1  'x, y, z'
loop_
 _atom_site_type_symbol
 _atom_site_label
 _atom_site_symmetry_multiplicity
 _atom_site_fract_x
 _atom_site_fract_y
 _atom_site_fract_z
 _atom_site_occupancy
  Na  Na0  1  0.001902  0.814744  0.500000  1
  Na  Na1  1  0.334902  0.667739  0.000000  1
  Na  Na2  1  0.664690  0.333314  0.000000  1
  La  La3  1  0.179888  0.179634  0.500000  1
  La  La4  1  0.818275  0.996976  0.500000  1
  Ga  Ga5  1  0.510113  0.679379  0.500000  1
  Ga  Ga6  1  0.321253  0.827821  0.500000  1
  P  P7  1  0.995145  0.184370  0.000000  1
  P  P8  1  0.823115  0.811879  0.000000  1
  P  P9  1  0.180459  0.993174  0.000000  1
  P  P10  1  0.173897  0.487624  0.500000  1
  P  P11  1  0.485891  0.180261  0.500000  1
  P  P12  1  0.693432  0.512695  0.500000  1
  P  P13  1  0.818856  0.311446  0.500000  1
  P  P14  1  0.002483  0.636821  0.000000  1
  P  P15  1  0.367396  0.369710  0.000000  1
  P  P16  1  0.630604  0.996173  0.000000  1
  Ir  Ir17  1  0.992898  0.291847  0.500000  1
  Ir  Ir18  1  0.720501  0.707692  0.500000  1
  Ir  Ir19  1  0.291898  0.009496  0.500000  1
  Ir  Ir20  1  0.635450  0.808085  0.000000  1
  Ir  Ir21  1  0.187947  0.815238  0.000000  1
  Ir  Ir22  1  0.171136  0.379186  0.000000  1
  Ir  Ir23  1  0.379994  0.186509  0.000000  1
  Ir  Ir24  1  0.806138  0.615743  0.000000  1
  Ir  Ir25  1  0.812338  0.193826  0.000000  1
  Ir  Ir26  1  0.535708  0.888698  0.500000  1
  Ir  Ir27  1  0.121822  0.632995  0.500000  1
  Ir  Ir28  1  0.345414  0.466035  0.500000  1
  Ir  Ir29  1  0.496742  0.366762  0.500000  1
  Ir  Ir30  1  0.870612  0.508160  0.500000  1
  Ir  Ir31  1  0.636094  0.136355  0.500000  1
  Ir  Ir32  1  0.001478  0.004070  0.000000  1
  Ir  Ir33  1  0.992267  0.451778  0.000000  1
  Ir  Ir34  1  0.545232  0.549278  0.000000  1
  Ir  Ir35  1  0.454028  0.004485  0.000000  1
