# generated using pymatgen
data_YTh(Ni3As2)2
_symmetry_space_group_name_H-M   'P 1'
_cell_length_a   3.98328600
_cell_length_b   10.88048819
_cell_length_c   12.85643290
_cell_angle_alpha   89.89964640
_cell_angle_beta   90.00000000
_cell_angle_gamma   90.00000000
_symmetry_Int_Tables_number   1
_chemical_formula_structural   YTh(Ni3As2)2
_chemical_formula_sum   'Y3 Th3 Ni18 As12'
_cell_volume   557.19818543
_cell_formula_units_Z   3
loop_
 _symmetry_equiv_pos_site_id
 _symmetry_equiv_pos_as_xyz
  1  'x, y, z'
loop_
 _atom_site_type_symbol
 _atom_site_label
 _atom_site_symmetry_multiplicity
 _atom_site_fract_x
 _atom_site_fract_y
 _atom_site_fract_z
 _atom_site_occupancy
  Y  Y0  1  0.500000  0.187146  0.206026  1
  Y  Y1  1  0.000000  0.685714  0.795654  1
  Y  Y2  1  0.000000  0.313842  0.793165  1
  Th  Th3  1  0.000000  0.500174  0.522409  1
  Th  Th4  1  0.500000  0.001488  0.479419  1
  Th  Th5  1  0.500000  0.814468  0.205388  1
  Ni  Ni6  1  0.500000  0.499616  0.151079  1
  Ni  Ni7  1  0.000000  0.000469  0.849737  1
  Ni  Ni8  1  0.500000  0.499488  0.696302  1
  Ni  Ni9  1  0.000000  0.998684  0.302298  1
  Ni  Ni10  1  0.000000  0.495626  0.976511  1
  Ni  Ni11  1  0.500000  0.002123  0.020030  1
  Ni  Ni12  1  0.500000  0.333266  0.996267  1
  Ni  Ni13  1  0.500000  0.663997  0.995026  1
  Ni  Ni14  1  0.000000  0.170004  0.001883  1
  Ni  Ni15  1  0.000000  0.833657  0.003828  1
  Ni  Ni16  1  0.500000  0.302731  0.427936  1
  Ni  Ni17  1  0.500000  0.695288  0.427612  1
  Ni  Ni18  1  0.000000  0.196884  0.572096  1
  Ni  Ni19  1  0.000000  0.804370  0.576712  1
  Ni  Ni20  1  0.500000  0.881217  0.711895  1
  Ni  Ni21  1  0.500000  0.119020  0.711090  1
  Ni  Ni22  1  0.000000  0.619282  0.289188  1
  Ni  Ni23  1  0.000000  0.381348  0.288466  1
  As  As24  1  0.500000  0.499076  0.873640  1
  As  As25  1  0.000000  0.004696  0.122275  1
  As  As26  1  0.500000  0.499218  0.337316  1
  As  As27  1  0.000000  0.000984  0.664060  1
  As  As28  1  0.500000  0.308060  0.615333  1
  As  As29  1  0.500000  0.691884  0.616651  1
  As  As30  1  0.000000  0.191659  0.383962  1
  As  As31  1  0.000000  0.808308  0.390152  1
  As  As32  1  0.500000  0.848337  0.894410  1
  As  As33  1  0.500000  0.152411  0.892223  1
  As  As34  1  0.000000  0.647061  0.102941  1
  As  As35  1  0.000000  0.348405  0.107019  1
