# generated using pymatgen
data_CeEr(PaH6)2
_symmetry_space_group_name_H-M   'P 1'
_cell_length_a   6.67422000
_cell_length_b   6.57876500
_cell_length_c   6.57876500
_cell_angle_alpha   90.00000000
_cell_angle_beta   90.00000000
_cell_angle_gamma   90.00000000
_symmetry_Int_Tables_number   1
_chemical_formula_structural   CeEr(PaH6)2
_chemical_formula_sum   'Ce2 Er2 Pa4 H24'
_cell_volume   288.86123556
_cell_formula_units_Z   2
loop_
 _symmetry_equiv_pos_site_id
 _symmetry_equiv_pos_as_xyz
  1  'x, y, z'
loop_
 _atom_site_type_symbol
 _atom_site_label
 _atom_site_symmetry_multiplicity
 _atom_site_fract_x
 _atom_site_fract_y
 _atom_site_fract_z
 _atom_site_occupancy
  Ce  Ce0  1  0.250000  0.000000  0.500000  1
  Ce  Ce1  1  0.750000  0.000000  0.500000  1
  Er  Er2  1  0.000000  0.000000  0.000000  1
  Er  Er3  1  0.500000  0.500000  0.500000  1
  Pa  Pa4  1  0.000000  0.500000  0.250188  1
  Pa  Pa5  1  0.000000  0.500000  0.749812  1
  Pa  Pa6  1  0.500000  0.750188  0.000000  1
  Pa  Pa7  1  0.500000  0.249812  0.000000  1
  H  H8  1  0.000000  0.160145  0.296944  1
  H  H9  1  0.500000  0.203056  0.660145  1
  H  H10  1  0.500000  0.796944  0.339855  1
  H  H11  1  0.807808  0.647585  0.500000  1
  H  H12  1  0.192192  0.647585  0.500000  1
  H  H13  1  0.345168  0.500000  0.804308  1
  H  H14  1  0.654832  0.500000  0.804308  1
  H  H15  1  0.307808  0.000000  0.147585  1
  H  H16  1  0.154832  0.304308  0.000000  1
  H  H17  1  0.845168  0.695692  0.000000  1
  H  H18  1  0.307808  0.000000  0.852415  1
  H  H19  1  0.845168  0.304308  0.000000  1
  H  H20  1  0.692192  0.000000  0.147585  1
  H  H21  1  0.692192  0.000000  0.852415  1
  H  H22  1  0.154832  0.695692  0.000000  1
  H  H23  1  0.000000  0.839855  0.703056  1
  H  H24  1  0.000000  0.160145  0.703056  1
  H  H25  1  0.000000  0.839855  0.296944  1
  H  H26  1  0.654832  0.500000  0.195692  1
  H  H27  1  0.345168  0.500000  0.195692  1
  H  H28  1  0.807808  0.352415  0.500000  1
  H  H29  1  0.192192  0.352415  0.500000  1
  H  H30  1  0.500000  0.796944  0.660145  1
  H  H31  1  0.500000  0.203056  0.339855  1
