# generated using pymatgen
data_La2NdIn3HgIr2
_symmetry_space_group_name_H-M   'P 1'
_cell_length_a   7.86971590
_cell_length_b   7.85728236
_cell_length_c   4.15817300
_cell_angle_alpha   90.00000000
_cell_angle_beta   90.00000000
_cell_angle_gamma   119.91186668
_symmetry_Int_Tables_number   1
_chemical_formula_structural   La2NdIn3HgIr2
_chemical_formula_sum   'La2 Nd1 In3 Hg1 Ir2'
_cell_volume   222.86897103
_cell_formula_units_Z   1
loop_
 _symmetry_equiv_pos_site_id
 _symmetry_equiv_pos_as_xyz
  1  'x, y, z'
loop_
 _atom_site_type_symbol
 _atom_site_label
 _atom_site_symmetry_multiplicity
 _atom_site_fract_x
 _atom_site_fract_y
 _atom_site_fract_z
 _atom_site_occupancy
  La  La0  1  0.388907  0.417179  0.500000  1
  La  La1  1  0.580081  0.969264  0.500000  1
  Nd  Nd2  1  0.026333  0.612155  0.500000  1
  In  In3  1  0.759027  0.756245  0.000000  1
  In  In4  1  0.240382  0.995172  0.000000  1
  In  In5  1  0.999215  0.246546  0.000000  1
  Hg  Hg6  1  0.669823  0.335876  0.000000  1
  Ir  Ir7  1  0.000066  0.000732  0.500000  1
  Ir  Ir8  1  0.336166  0.666831  0.000000  1
