# generated using pymatgen
data_ErTm4Lu(Sb4Au3)2
_symmetry_space_group_name_H-M   'P 1'
_cell_length_a   8.55843556
_cell_length_b   8.55843627
_cell_length_c   8.55843620
_cell_angle_alpha   109.47305909
_cell_angle_beta   109.46755205
_cell_angle_gamma   109.47304800
_symmetry_Int_Tables_number   1
_chemical_formula_structural   ErTm4Lu(Sb4Au3)2
_chemical_formula_sum   'Er1 Tm4 Lu1 Sb8 Au6'
_cell_volume   482.57114107
_cell_formula_units_Z   1
loop_
 _symmetry_equiv_pos_site_id
 _symmetry_equiv_pos_as_xyz
  1  'x, y, z'
loop_
 _atom_site_type_symbol
 _atom_site_label
 _atom_site_symmetry_multiplicity
 _atom_site_fract_x
 _atom_site_fract_y
 _atom_site_fract_z
 _atom_site_occupancy
  Er  Er0  1  0.875000  0.250000  0.125000  1
  Tm  Tm1  1  0.249978  0.125019  0.874953  1
  Tm  Tm2  1  0.749935  0.374981  0.624960  1
  Tm  Tm3  1  0.125047  0.875025  0.250065  1
  Tm  Tm4  1  0.375040  0.624975  0.750022  1
  Lu  Lu5  1  0.625000  0.750000  0.375000  1
  Sb  Sb6  1  0.679624  0.499967  0.999970  1
  Sb  Sb7  1  0.500003  0.000033  0.679656  1
  Sb  Sb8  1  0.999974  0.679874  0.499966  1
  Sb  Sb9  1  0.820093  0.820126  0.820100  1
  Sb  Sb10  1  0.500034  0.000008  0.179907  1
  Sb  Sb11  1  0.179900  0.499992  0.000026  1
  Sb  Sb12  1  0.000030  0.179653  0.499997  1
  Sb  Sb13  1  0.320344  0.320347  0.320376  1
  Au  Au14  1  0.375000  0.250000  0.625000  1
  Au  Au15  1  0.125000  0.750000  0.875000  1
  Au  Au16  1  0.251097  0.625699  0.375334  1
  Au  Au17  1  0.749635  0.874301  0.125398  1
  Au  Au18  1  0.624666  0.375763  0.250365  1
  Au  Au19  1  0.874602  0.124237  0.748903  1
