# generated using pymatgen
data_AcYbB8Ru7
_symmetry_space_group_name_H-M   'P 1'
_cell_length_a   6.47965106
_cell_length_b   6.48055906
_cell_length_c   10.13769000
_cell_angle_alpha   90.00000000
_cell_angle_beta   90.00000000
_cell_angle_gamma   89.98437654
_symmetry_Int_Tables_number   1
_chemical_formula_structural   AcYbB8Ru7
_chemical_formula_sum   'Ac2 Yb2 B16 Ru14'
_cell_volume   425.69944365
_cell_formula_units_Z   2
loop_
 _symmetry_equiv_pos_site_id
 _symmetry_equiv_pos_as_xyz
  1  'x, y, z'
loop_
 _atom_site_type_symbol
 _atom_site_label
 _atom_site_symmetry_multiplicity
 _atom_site_fract_x
 _atom_site_fract_y
 _atom_site_fract_z
 _atom_site_occupancy
  Ac  Ac0  1  0.728773  0.889604  0.000000  1
  Ac  Ac1  1  0.109649  0.725020  0.500000  1
  Yb  Yb2  1  0.867739  0.255021  0.500000  1
  Yb  Yb3  1  0.257403  0.131678  0.000000  1
  B  B4  1  0.502560  0.000263  0.589182  1
  B  B5  1  0.502560  0.000263  0.410818  1
  B  B6  1  0.898845  0.277299  0.170614  1
  B  B7  1  0.104025  0.724372  0.830480  1
  B  B8  1  0.499558  0.500523  0.341178  1
  B  B9  1  0.499144  0.498560  0.841074  1
  B  B10  1  0.279689  0.103673  0.670635  1
  B  B11  1  0.104025  0.724372  0.169520  1
  B  B12  1  0.279689  0.103673  0.329365  1
  B  B13  1  0.898845  0.277299  0.829386  1
  B  B14  1  0.499558  0.500523  0.658822  1
  B  B15  1  0.499144  0.498560  0.158926  1
  B  B16  1  0.999211  0.499169  0.910700  1
  B  B17  1  0.726359  0.898650  0.669875  1
  B  B18  1  0.726359  0.898650  0.330125  1
  B  B19  1  0.999211  0.499169  0.089300  1
  Ru  Ru20  1  0.206203  0.395129  0.755256  1
  Ru  Ru21  1  0.405949  0.286013  0.500000  1
  Ru  Ru22  1  0.398722  0.795081  0.252877  1
  Ru  Ru23  1  0.206203  0.395129  0.244744  1
  Ru  Ru24  1  0.599062  0.713666  0.500000  1
  Ru  Ru25  1  0.604840  0.206365  0.744054  1
  Ru  Ru26  1  0.284270  0.594567  0.000000  1
  Ru  Ru27  1  0.712135  0.401360  0.000000  1
  Ru  Ru28  1  0.794633  0.600303  0.246972  1
  Ru  Ru29  1  0.794633  0.600303  0.753028  1
  Ru  Ru30  1  0.398722  0.795081  0.747123  1
  Ru  Ru31  1  0.003721  0.002149  0.250044  1
  Ru  Ru32  1  0.604840  0.206365  0.255946  1
  Ru  Ru33  1  0.003721  0.002149  0.749956  1
