# generated using pymatgen
data_HoPa2P4Pd7
_symmetry_space_group_name_H-M   'P 1'
_cell_length_a   7.90499025
_cell_length_b   7.90499072
_cell_length_c   9.44994690
_cell_angle_alpha   55.98578508
_cell_angle_beta   55.98578264
_cell_angle_gamma   29.54406148
_symmetry_Int_Tables_number   1
_chemical_formula_structural   HoPa2P4Pd7
_chemical_formula_sum   'Ho1 Pa2 P4 Pd7'
_cell_volume   237.50582423
_cell_formula_units_Z   1
loop_
 _symmetry_equiv_pos_site_id
 _symmetry_equiv_pos_as_xyz
  1  'x, y, z'
loop_
 _atom_site_type_symbol
 _atom_site_label
 _atom_site_symmetry_multiplicity
 _atom_site_fract_x
 _atom_site_fract_y
 _atom_site_fract_z
 _atom_site_occupancy
  Ho  Ho0  1  0.183903  0.183903  0.817182  1
  Pa  Pa1  1  0.498333  0.498333  0.502931  1
  Pa  Pa2  1  0.818311  0.818311  0.178301  1
  P  P3  1  0.394305  0.394305  0.323059  1
  P  P4  1  0.605585  0.605585  0.675692  1
  P  P5  1  0.845797  0.845797  0.742856  1
  P  P6  1  0.153606  0.153606  0.259036  1
  Pd  Pd7  1  0.669728  0.669728  0.070500  1
  Pd  Pd8  1  0.010206  0.010206  0.206301  1
  Pd  Pd9  1  0.988773  0.988773  0.796482  1
  Pd  Pd10  1  0.500256  0.500256  0.997112  1
  Pd  Pd11  1  0.190596  0.190596  0.477805  1
  Pd  Pd12  1  0.807990  0.807990  0.522794  1
  Pd  Pd13  1  0.332610  0.332610  0.929949  1
