# generated using pymatgen
data_Pr16Nd4(IrRh3)3
_symmetry_space_group_name_H-M   'P 1'
_cell_length_a   11.32346381
_cell_length_b   11.32346381
_cell_length_c   6.65967236
_cell_angle_alpha   89.97327173
_cell_angle_beta   89.97327173
_cell_angle_gamma   89.96600437
_symmetry_Int_Tables_number   1
_chemical_formula_structural   Pr16Nd4(IrRh3)3
_chemical_formula_sum   'Pr16 Nd4 Ir3 Rh9'
_cell_volume   853.90839889
_cell_formula_units_Z   1
loop_
 _symmetry_equiv_pos_site_id
 _symmetry_equiv_pos_as_xyz
  1  'x, y, z'
loop_
 _atom_site_type_symbol
 _atom_site_label
 _atom_site_symmetry_multiplicity
 _atom_site_fract_x
 _atom_site_fract_y
 _atom_site_fract_z
 _atom_site_occupancy
  Pr  Pr0  1  0.090925  0.290517  0.114100  1
  Pr  Pr1  1  0.790771  0.409033  0.114696  1
  Pr  Pr2  1  0.208383  0.590419  0.115561  1
  Pr  Pr3  1  0.908945  0.709290  0.114334  1
  Pr  Pr4  1  0.409581  0.791617  0.384439  1
  Pr  Pr5  1  0.590967  0.209229  0.385304  1
  Pr  Pr6  1  0.290710  0.091055  0.385666  1
  Pr  Pr7  1  0.709483  0.909075  0.385900  1
  Pr  Pr8  1  0.409730  0.208851  0.883509  1
  Pr  Pr9  1  0.708745  0.090444  0.883539  1
  Pr  Pr10  1  0.290885  0.911418  0.883518  1
  Pr  Pr11  1  0.591853  0.791931  0.883840  1
  Pr  Pr12  1  0.088582  0.709115  0.616482  1
  Pr  Pr13  1  0.909556  0.291255  0.616461  1
  Pr  Pr14  1  0.208069  0.408147  0.616160  1
  Pr  Pr15  1  0.791149  0.590270  0.616491  1
  Nd  Nd16  1  0.999893  0.999879  0.000550  1
  Nd  Nd17  1  0.500283  0.499972  0.999900  1
  Nd  Nd18  1  0.500028  0.499717  0.500100  1
  Nd  Nd19  1  0.000121  0.000107  0.499450  1
  Ir  Ir20  1  0.152980  0.152724  0.750049  1
  Ir  Ir21  1  0.847276  0.847020  0.749951  1
  Ir  Ir22  1  0.652749  0.347251  0.750000  1
  Rh  Rh23  1  0.153986  0.846014  0.250000  1
  Rh  Rh24  1  0.347022  0.347426  0.250251  1
  Rh  Rh25  1  0.652574  0.652978  0.249749  1
  Rh  Rh26  1  0.846767  0.153233  0.250000  1
  Rh  Rh27  1  0.347328  0.652672  0.750000  1
  Rh  Rh28  1  0.000527  0.500372  0.378849  1
  Rh  Rh29  1  0.499628  0.999473  0.121151  1
  Rh  Rh30  1  0.499490  0.998985  0.619774  1
  Rh  Rh31  1  0.001015  0.500510  0.880226  1
