# generated using pymatgen
data_Er2Sc4Fe3(Co5P4)3
_symmetry_space_group_name_H-M   'P 1'
_cell_length_a   3.62974100
_cell_length_b   10.44361100
_cell_length_c   11.98080100
_cell_angle_alpha   90.00000000
_cell_angle_beta   90.00000000
_cell_angle_gamma   90.00000000
_symmetry_Int_Tables_number   1
_chemical_formula_structural   Er2Sc4Fe3(Co5P4)3
_chemical_formula_sum   'Er2 Sc4 Fe3 Co15 P12'
_cell_volume   454.16344835
_cell_formula_units_Z   1
loop_
 _symmetry_equiv_pos_site_id
 _symmetry_equiv_pos_as_xyz
  1  'x, y, z'
loop_
 _atom_site_type_symbol
 _atom_site_label
 _atom_site_symmetry_multiplicity
 _atom_site_fract_x
 _atom_site_fract_y
 _atom_site_fract_z
 _atom_site_occupancy
  Er  Er0  1  0.750000  0.250000  0.475341  1
  Er  Er1  1  0.250000  0.750000  0.524745  1
  Sc  Sc2  1  0.250000  0.931307  0.795993  1
  Sc  Sc3  1  0.250000  0.568693  0.795993  1
  Sc  Sc4  1  0.750000  0.070354  0.202893  1
  Sc  Sc5  1  0.750000  0.429646  0.202893  1
  Fe  Fe6  1  0.250000  0.250000  0.843425  1
  Fe  Fe7  1  0.750000  0.750000  0.157815  1
  Fe  Fe8  1  0.750000  0.250000  0.011778  1
  Co  Co9  1  0.250000  0.250000  0.295551  1
  Co  Co10  1  0.750000  0.750000  0.704264  1
  Co  Co11  1  0.250000  0.750000  0.986460  1
  Co  Co12  1  0.250000  0.418890  0.006144  1
  Co  Co13  1  0.250000  0.081110  0.006144  1
  Co  Co14  1  0.750000  0.583009  0.993476  1
  Co  Co15  1  0.750000  0.916991  0.993476  1
  Co  Co16  1  0.250000  0.453198  0.570138  1
  Co  Co17  1  0.250000  0.046802  0.570138  1
  Co  Co18  1  0.750000  0.546212  0.430193  1
  Co  Co19  1  0.750000  0.953788  0.430193  1
  Co  Co20  1  0.250000  0.873089  0.290236  1
  Co  Co21  1  0.250000  0.626911  0.290236  1
  Co  Co22  1  0.750000  0.127210  0.710580  1
  Co  Co23  1  0.750000  0.372790  0.710580  1
  P  P24  1  0.250000  0.250000  0.117302  1
  P  P25  1  0.750000  0.750000  0.881079  1
  P  P26  1  0.250000  0.250000  0.656384  1
  P  P27  1  0.750000  0.750000  0.344580  1
  P  P28  1  0.250000  0.437819  0.380181  1
  P  P29  1  0.250000  0.062181  0.380181  1
  P  P30  1  0.750000  0.561819  0.619963  1
  P  P31  1  0.750000  0.938181  0.619963  1
  P  P32  1  0.250000  0.905227  0.109253  1
  P  P33  1  0.250000  0.594773  0.109253  1
  P  P34  1  0.750000  0.094971  0.891587  1
  P  P35  1  0.750000  0.405029  0.891587  1
