# generated using pymatgen
data_Sc5Nb3Co16SiP11
_symmetry_space_group_name_H-M   'P 1'
_cell_length_a   12.03491309
_cell_length_b   12.04240785
_cell_length_c   3.62210000
_cell_angle_alpha   90.00000000
_cell_angle_beta   90.00000000
_cell_angle_gamma   120.09476845
_symmetry_Int_Tables_number   1
_chemical_formula_structural   Sc5Nb3Co16SiP11
_chemical_formula_sum   'Sc5 Nb3 Co16 Si1 P11'
_cell_volume   454.18400540
_cell_formula_units_Z   1
loop_
 _symmetry_equiv_pos_site_id
 _symmetry_equiv_pos_as_xyz
  1  'x, y, z'
loop_
 _atom_site_type_symbol
 _atom_site_label
 _atom_site_symmetry_multiplicity
 _atom_site_fract_x
 _atom_site_fract_y
 _atom_site_fract_z
 _atom_site_occupancy
  Sc  Sc0  1  0.817032  0.999395  0.500000  1
  Sc  Sc1  1  0.000174  0.817473  0.500000  1
  Sc  Sc2  1  0.181713  0.181808  0.500000  1
  Sc  Sc3  1  0.330955  0.666328  0.000000  1
  Sc  Sc4  1  0.667177  0.333822  0.000000  1
  Nb  Nb5  1  0.445326  0.000867  0.000000  1
  Nb  Nb6  1  0.000334  0.446096  0.000000  1
  Nb  Nb7  1  0.555339  0.553423  0.000000  1
  Co  Co8  1  0.277105  0.999909  0.500000  1
  Co  Co9  1  0.999381  0.277142  0.500000  1
  Co  Co10  1  0.725695  0.722614  0.500000  1
  Co  Co11  1  0.630516  0.807056  0.000000  1
  Co  Co12  1  0.195521  0.823408  0.000000  1
  Co  Co13  1  0.174937  0.370510  0.000000  1
  Co  Co14  1  0.371546  0.176691  0.000000  1
  Co  Co15  1  0.805906  0.627659  0.000000  1
  Co  Co16  1  0.822941  0.195439  0.000000  1
  Co  Co17  1  0.520834  0.877312  0.500000  1
  Co  Co18  1  0.128071  0.647373  0.500000  1
  Co  Co19  1  0.349885  0.474683  0.500000  1
  Co  Co20  1  0.481300  0.352177  0.500000  1
  Co  Co21  1  0.872165  0.518878  0.500000  1
  Co  Co22  1  0.647071  0.129818  0.500000  1
  Co  Co23  1  0.000192  0.000196  0.000000  1
  Si  Si24  1  0.515973  0.687769  0.500000  1
  P  P25  1  0.175503  0.999676  0.000000  1
  P  P26  1  0.999008  0.175106  0.000000  1
  P  P27  1  0.824283  0.824234  0.000000  1
  P  P28  1  0.313127  0.829660  0.500000  1
  P  P29  1  0.170909  0.482663  0.500000  1
  P  P30  1  0.483119  0.171007  0.500000  1
  P  P31  1  0.688116  0.517413  0.500000  1
  P  P32  1  0.829533  0.312782  0.500000  1
  P  P33  1  0.649077  0.999941  0.000000  1
  P  P34  1  0.000298  0.649173  0.000000  1
  P  P35  1  0.349937  0.350500  0.000000  1
