# generated using pymatgen
data_Y7Er7(Tm3Pt8)2
_symmetry_space_group_name_H-M   'P 1'
_cell_length_a   7.44775264
_cell_length_b   7.52655816
_cell_length_c   14.67042969
_cell_angle_alpha   90.00744582
_cell_angle_beta   90.04869284
_cell_angle_gamma   89.97279346
_symmetry_Int_Tables_number   1
_chemical_formula_structural   Y7Er7(Tm3Pt8)2
_chemical_formula_sum   'Y7 Er7 Tm6 Pt16'
_cell_volume   822.36438078
_cell_formula_units_Z   1
loop_
 _symmetry_equiv_pos_site_id
 _symmetry_equiv_pos_as_xyz
  1  'x, y, z'
loop_
 _atom_site_type_symbol
 _atom_site_label
 _atom_site_symmetry_multiplicity
 _atom_site_fract_x
 _atom_site_fract_y
 _atom_site_fract_z
 _atom_site_occupancy
  Y  Y0  1  0.498796  0.679432  0.093214  1
  Y  Y1  1  0.501375  0.320566  0.592968  1
  Y  Y2  1  0.001293  0.179482  0.906886  1
  Y  Y3  1  0.000791  0.178539  0.592778  1
  Y  Y4  1  0.501303  0.320775  0.906879  1
  Y  Y5  1  0.498843  0.679624  0.407109  1
  Y  Y6  1  0.998797  0.820353  0.092894  1
  Er  Er7  1  0.844150  0.332034  0.377631  1
  Er  Er8  1  0.343965  0.167919  0.122412  1
  Er  Er9  1  0.343699  0.167622  0.377799  1
  Er  Er10  1  0.844130  0.332073  0.122462  1
  Er  Er11  1  0.155417  0.668286  0.622190  1
  Er  Er12  1  0.655936  0.832032  0.877735  1
  Er  Er13  1  0.997778  0.819460  0.406788  1
  Tm  Tm14  1  0.681240  0.988979  0.250205  1
  Tm  Tm15  1  0.181303  0.511202  0.250244  1
  Tm  Tm16  1  0.818908  0.489017  0.749943  1
  Tm  Tm17  1  0.318822  0.010948  0.750065  1
  Tm  Tm18  1  0.655800  0.832261  0.622393  1
  Tm  Tm19  1  0.155887  0.667845  0.877594  1
  Pt  Pt20  1  0.817630  0.642556  0.251069  1
  Pt  Pt21  1  0.315978  0.858209  0.250486  1
  Pt  Pt22  1  0.683540  0.141709  0.749678  1
  Pt  Pt23  1  0.183603  0.358480  0.749765  1
  Pt  Pt24  1  0.547052  0.385023  0.250201  1
  Pt  Pt25  1  0.046534  0.114461  0.250512  1
  Pt  Pt26  1  0.953199  0.884637  0.749899  1
  Pt  Pt27  1  0.453192  0.615484  0.749823  1
  Pt  Pt28  1  0.817629  0.534467  0.541403  1
  Pt  Pt29  1  0.317454  0.966346  0.958104  1
  Pt  Pt30  1  0.684309  0.031877  0.457916  1
  Pt  Pt31  1  0.182243  0.466963  0.041871  1
  Pt  Pt32  1  0.181844  0.468237  0.457624  1
  Pt  Pt33  1  0.682377  0.033473  0.041924  1
  Pt  Pt34  1  0.317417  0.966162  0.541398  1
  Pt  Pt35  1  0.817772  0.533467  0.958137  1
