# generated using pymatgen
data_Hf4Mn2Si4IrPt
_symmetry_space_group_name_H-M   'P 1'
_cell_length_a   3.86579900
_cell_length_b   6.47451382
_cell_length_c   7.53037177
_cell_angle_alpha   89.84634612
_cell_angle_beta   90.00000000
_cell_angle_gamma   90.00000000
_symmetry_Int_Tables_number   1
_chemical_formula_structural   Hf4Mn2Si4IrPt
_chemical_formula_sum   'Hf4 Mn2 Si4 Ir1 Pt1'
_cell_volume   188.47827030
_cell_formula_units_Z   1
loop_
 _symmetry_equiv_pos_site_id
 _symmetry_equiv_pos_as_xyz
  1  'x, y, z'
loop_
 _atom_site_type_symbol
 _atom_site_label
 _atom_site_symmetry_multiplicity
 _atom_site_fract_x
 _atom_site_fract_y
 _atom_site_fract_z
 _atom_site_occupancy
  Hf  Hf0  1  0.250000  0.973133  0.318943  1
  Hf  Hf1  1  0.250000  0.475656  0.178536  1
  Hf  Hf2  1  0.750000  0.018158  0.679118  1
  Hf  Hf3  1  0.750000  0.523376  0.824321  1
  Mn  Mn4  1  0.750000  0.652502  0.436752  1
  Mn  Mn5  1  0.750000  0.151815  0.061992  1
  Si  Si6  1  0.250000  0.730420  0.624254  1
  Si  Si7  1  0.250000  0.226516  0.879545  1
  Si  Si8  1  0.750000  0.268767  0.372261  1
  Si  Si9  1  0.750000  0.771523  0.123032  1
  Ir  Ir10  1  0.250000  0.854135  0.938316  1
  Pt  Pt11  1  0.250000  0.353997  0.562929  1
