# generated using pymatgen
data_YTm4(RhO6)2
_symmetry_space_group_name_H-M   'P 1'
_cell_length_a   6.78983478
_cell_length_b   6.78983434
_cell_length_c   7.21363421
_cell_angle_alpha   74.52094816
_cell_angle_beta   74.52094984
_cell_angle_gamma   51.22062134
_symmetry_Int_Tables_number   1
_chemical_formula_structural   YTm4(RhO6)2
_chemical_formula_sum   'Y1 Tm4 Rh2 O12'
_cell_volume   247.63841044
_cell_formula_units_Z   1
loop_
 _symmetry_equiv_pos_site_id
 _symmetry_equiv_pos_as_xyz
  1  'x, y, z'
loop_
 _atom_site_type_symbol
 _atom_site_label
 _atom_site_symmetry_multiplicity
 _atom_site_fract_x
 _atom_site_fract_y
 _atom_site_fract_z
 _atom_site_occupancy
  Y  Y0  1  0.500000  0.500000  0.500000  1
  Tm  Tm1  1  0.191093  0.191093  0.171001  1
  Tm  Tm2  1  0.808907  0.808907  0.828999  1
  Tm  Tm3  1  0.801794  0.801794  0.360694  1
  Tm  Tm4  1  0.198206  0.198206  0.639306  1
  Rh  Rh5  1  0.747599  0.252401  0.000000  1
  Rh  Rh6  1  0.252401  0.747599  0.000000  1
  O  O7  1  0.999861  0.999861  0.194939  1
  O  O8  1  0.000139  0.000139  0.805061  1
  O  O9  1  0.499953  0.499953  0.816071  1
  O  O10  1  0.500047  0.500047  0.183929  1
  O  O11  1  0.597100  0.093723  0.574893  1
  O  O12  1  0.906277  0.402900  0.425107  1
  O  O13  1  0.402900  0.906277  0.425107  1
  O  O14  1  0.401833  0.933909  0.914469  1
  O  O15  1  0.066091  0.598167  0.085531  1
  O  O16  1  0.598167  0.066091  0.085531  1
  O  O17  1  0.933909  0.401833  0.914469  1
  O  O18  1  0.093723  0.597100  0.574893  1
