# generated using pymatgen
data_Tb2Cr2Ni10As7
_symmetry_space_group_name_H-M   'P 1'
_cell_length_a   3.82268200
_cell_length_b   9.42830189
_cell_length_c   9.44048143
_cell_angle_alpha   119.88237481
_cell_angle_beta   90.00000000
_cell_angle_gamma   90.00000000
_symmetry_Int_Tables_number   1
_chemical_formula_structural   Tb2Cr2Ni10As7
_chemical_formula_sum   'Tb2 Cr2 Ni10 As7'
_cell_volume   295.01219060
_cell_formula_units_Z   1
loop_
 _symmetry_equiv_pos_site_id
 _symmetry_equiv_pos_as_xyz
  1  'x, y, z'
loop_
 _atom_site_type_symbol
 _atom_site_label
 _atom_site_symmetry_multiplicity
 _atom_site_fract_x
 _atom_site_fract_y
 _atom_site_fract_z
 _atom_site_occupancy
  Tb  Tb0  1  0.000000  0.669697  0.337444  1
  Tb  Tb1  1  0.500000  0.331311  0.665630  1
  Cr  Cr2  1  0.500000  0.785428  0.898578  1
  Cr  Cr3  1  0.500000  0.116411  0.214295  1
  Ni  Ni4  1  0.000000  0.564679  0.939417  1
  Ni  Ni5  1  0.000000  0.371690  0.432383  1
  Ni  Ni6  1  0.000000  0.060187  0.625248  1
  Ni  Ni7  1  0.500000  0.103671  0.879853  1
  Ni  Ni8  1  0.000000  0.870115  0.152782  1
  Ni  Ni9  1  0.000000  0.283898  0.127967  1
  Ni  Ni10  1  0.000000  0.846839  0.721287  1
  Ni  Ni11  1  0.500000  0.946181  0.381151  1
  Ni  Ni12  1  0.500000  0.429500  0.049123  1
  Ni  Ni13  1  0.500000  0.620230  0.568928  1
  As  As14  1  0.000000  0.002698  0.000964  1
  As  As15  1  0.500000  0.704643  0.113533  1
  As  As16  1  0.500000  0.410237  0.296944  1
  As  As17  1  0.500000  0.890176  0.599069  1
  As  As18  1  0.000000  0.589782  0.704556  1
  As  As19  1  0.000000  0.111788  0.405883  1
  As  As20  1  0.000000  0.290836  0.884966  1
