# generated using pymatgen
data_Tb2(YAu2)5
_symmetry_space_group_name_H-M   'P 1'
_cell_length_a   8.76541208
_cell_length_b   8.76541098
_cell_length_c   10.44655304
_cell_angle_alpha   89.99384390
_cell_angle_beta   89.99384510
_cell_angle_gamma   107.14009727
_symmetry_Int_Tables_number   1
_chemical_formula_structural   Tb2(YAu2)5
_chemical_formula_sum   'Tb4 Y10 Au20'
_cell_volume   766.98675140
_cell_formula_units_Z   2
loop_
 _symmetry_equiv_pos_site_id
 _symmetry_equiv_pos_as_xyz
  1  'x, y, z'
loop_
 _atom_site_type_symbol
 _atom_site_label
 _atom_site_symmetry_multiplicity
 _atom_site_fract_x
 _atom_site_fract_y
 _atom_site_fract_z
 _atom_site_occupancy
  Tb  Tb0  1  0.000000  0.000000  0.000000  1
  Tb  Tb1  1  0.500000  0.500000  0.500000  1
  Tb  Tb2  1  0.186575  0.186575  0.687780  1
  Tb  Tb3  1  0.813425  0.813425  0.312220  1
  Y  Y4  1  0.693363  0.306637  0.000000  1
  Y  Y5  1  0.306637  0.693363  0.000000  1
  Y  Y6  1  0.806375  0.193625  0.500000  1
  Y  Y7  1  0.193625  0.806375  0.500000  1
  Y  Y8  1  0.002804  0.502497  0.250094  1
  Y  Y9  1  0.997196  0.497503  0.749906  1
  Y  Y10  1  0.497503  0.997196  0.749906  1
  Y  Y11  1  0.502497  0.002804  0.250094  1
  Y  Y12  1  0.312878  0.312878  0.188324  1
  Y  Y13  1  0.687122  0.687122  0.811676  1
  Au  Au14  1  0.859764  0.149208  0.209268  1
  Au  Au15  1  0.140236  0.850792  0.790732  1
  Au  Au16  1  0.640098  0.350756  0.709488  1
  Au  Au17  1  0.649244  0.359902  0.290512  1
  Au  Au18  1  0.359902  0.649244  0.290512  1
  Au  Au19  1  0.350756  0.640098  0.709488  1
  Au  Au20  1  0.850792  0.140236  0.790732  1
  Au  Au21  1  0.149208  0.859764  0.209268  1
  Au  Au22  1  0.936893  0.645209  0.002572  1
  Au  Au23  1  0.063107  0.354791  0.997428  1
  Au  Au24  1  0.562883  0.854635  0.502421  1
  Au  Au25  1  0.145365  0.437117  0.497579  1
  Au  Au26  1  0.437117  0.145365  0.497579  1
  Au  Au27  1  0.854635  0.562883  0.502421  1
  Au  Au28  1  0.354791  0.063107  0.997428  1
  Au  Au29  1  0.645209  0.936893  0.002572  1
  Au  Au30  1  0.104681  0.104681  0.397155  1
  Au  Au31  1  0.895319  0.895319  0.602845  1
  Au  Au32  1  0.394949  0.394949  0.896774  1
  Au  Au33  1  0.605051  0.605051  0.103226  1
