# generated using pymatgen
data_Ac4CuSi8Pt7
_symmetry_space_group_name_H-M   'P 1'
_cell_length_a   4.34573848
_cell_length_b   8.78344376
_cell_length_c   10.08503900
_cell_angle_alpha   89.98814090
_cell_angle_beta   89.97297206
_cell_angle_gamma   89.95617836
_symmetry_Int_Tables_number   1
_chemical_formula_structural   Ac4CuSi8Pt7
_chemical_formula_sum   'Ac4 Cu1 Si8 Pt7'
_cell_volume   384.95131723
_cell_formula_units_Z   1
loop_
 _symmetry_equiv_pos_site_id
 _symmetry_equiv_pos_as_xyz
  1  'x, y, z'
loop_
 _atom_site_type_symbol
 _atom_site_label
 _atom_site_symmetry_multiplicity
 _atom_site_fract_x
 _atom_site_fract_y
 _atom_site_fract_z
 _atom_site_occupancy
  Ac  Ac0  1  0.750963  0.625084  0.754663  1
  Ac  Ac1  1  0.749523  0.124991  0.750785  1
  Ac  Ac2  1  0.250928  0.877383  0.247931  1
  Ac  Ac3  1  0.248867  0.372539  0.247733  1
  Cu  Cu4  1  0.243632  0.126433  0.499945  1
  Si  Si5  1  0.748844  0.374275  0.002308  1
  Si  Si6  1  0.746710  0.124768  0.373811  1
  Si  Si7  1  0.253378  0.878033  0.627081  1
  Si  Si8  1  0.251213  0.625013  0.998173  1
  Si  Si9  1  0.751663  0.875538  0.002242  1
  Si  Si10  1  0.248174  0.372777  0.627720  1
  Si  Si11  1  0.249221  0.124920  0.996882  1
  Si  Si12  1  0.751255  0.624721  0.369220  1
  Pt  Pt13  1  0.249247  0.374883  0.882156  1
  Pt  Pt14  1  0.750884  0.624927  0.118585  1
  Pt  Pt15  1  0.755627  0.868840  0.500053  1
  Pt  Pt16  1  0.746889  0.380102  0.500125  1
  Pt  Pt17  1  0.749413  0.124837  0.118729  1
  Pt  Pt18  1  0.252088  0.624847  0.499871  1
  Pt  Pt19  1  0.251483  0.875090  0.881986  1
