# generated using pymatgen
data_LaPa3(Al3Rh)6
_symmetry_space_group_name_H-M   'P 1'
_cell_length_a   7.63998228
_cell_length_b   7.62741590
_cell_length_c   9.46803200
_cell_angle_alpha   90.00000000
_cell_angle_beta   90.00000000
_cell_angle_gamma   119.51095407
_symmetry_Int_Tables_number   1
_chemical_formula_structural   LaPa3(Al3Rh)6
_chemical_formula_sum   'La1 Pa3 Al18 Rh6'
_cell_volume   480.15260023
_cell_formula_units_Z   1
loop_
 _symmetry_equiv_pos_site_id
 _symmetry_equiv_pos_as_xyz
  1  'x, y, z'
loop_
 _atom_site_type_symbol
 _atom_site_label
 _atom_site_symmetry_multiplicity
 _atom_site_fract_x
 _atom_site_fract_y
 _atom_site_fract_z
 _atom_site_occupancy
  La  La0  1  0.329829  0.005026  0.750000  1
  Pa  Pa1  1  0.995352  0.669907  0.250000  1
  Pa  Pa2  1  0.002044  0.328604  0.750000  1
  Pa  Pa3  1  0.673386  0.997384  0.250000  1
  Al  Al4  1  0.128862  0.129767  0.250000  1
  Al  Al5  1  0.868087  0.872069  0.750000  1
  Al  Al6  1  0.002832  0.335542  0.074886  1
  Al  Al7  1  0.996727  0.663541  0.926579  1
  Al  Al8  1  0.996727  0.663541  0.573421  1
  Al  Al9  1  0.335676  0.002850  0.422190  1
  Al  Al10  1  0.002832  0.335542  0.425114  1
  Al  Al11  1  0.665774  0.997286  0.573403  1
  Al  Al12  1  0.665774  0.997286  0.926597  1
  Al  Al13  1  0.335676  0.002850  0.077810  1
  Al  Al14  1  0.333835  0.335229  0.548982  1
  Al  Al15  1  0.665295  0.665147  0.448400  1
  Al  Al16  1  0.665295  0.665147  0.051600  1
  Al  Al17  1  0.333835  0.335229  0.951018  1
  Al  Al18  1  0.341267  0.549369  0.250000  1
  Al  Al19  1  0.663752  0.454857  0.750000  1
  Al  Al20  1  0.548684  0.342257  0.250000  1
  Al  Al21  1  0.449241  0.653652  0.750000  1
  Rh  Rh22  1  0.673240  0.328470  0.002083  1
  Rh  Rh23  1  0.328037  0.671659  0.002359  1
  Rh  Rh24  1  0.328037  0.671659  0.497641  1
  Rh  Rh25  1  0.673240  0.328470  0.497917  1
  Rh  Rh26  1  0.998331  0.998831  0.002394  1
  Rh  Rh27  1  0.998331  0.998831  0.497606  1
