# generated using pymatgen
data_Tb3ErThIr3
_symmetry_space_group_name_H-M   'P 1'
_cell_length_a   11.11987300
_cell_length_b   11.01319000
_cell_length_c   6.33814900
_cell_angle_alpha   90.00000000
_cell_angle_beta   90.00000000
_cell_angle_gamma   90.00000000
_symmetry_Int_Tables_number   1
_chemical_formula_structural   Tb3ErThIr3
_chemical_formula_sum   'Tb12 Er4 Th4 Ir12'
_cell_volume   776.20315473
_cell_formula_units_Z   4
loop_
 _symmetry_equiv_pos_site_id
 _symmetry_equiv_pos_as_xyz
  1  'x, y, z'
loop_
 _atom_site_type_symbol
 _atom_site_label
 _atom_site_symmetry_multiplicity
 _atom_site_fract_x
 _atom_site_fract_y
 _atom_site_fract_z
 _atom_site_occupancy
  Tb  Tb0  1  0.588446  0.785192  0.878128  1
  Tb  Tb1  1  0.588446  0.214808  0.378128  1
  Tb  Tb2  1  0.411554  0.785192  0.378128  1
  Tb  Tb3  1  0.411554  0.214808  0.878128  1
  Tb  Tb4  1  0.208484  0.413007  0.621182  1
  Tb  Tb5  1  0.208484  0.586993  0.121182  1
  Tb  Tb6  1  0.791516  0.413007  0.121182  1
  Tb  Tb7  1  0.791516  0.586993  0.621182  1
  Tb  Tb8  1  0.913867  0.707316  0.119248  1
  Tb  Tb9  1  0.913867  0.292684  0.619248  1
  Tb  Tb10  1  0.086133  0.707316  0.619248  1
  Tb  Tb11  1  0.086133  0.292684  0.119248  1
  Er  Er12  1  0.000000  0.000000  0.501861  1
  Er  Er13  1  0.000000  0.000000  0.001861  1
  Er  Er14  1  0.500000  0.500000  0.003732  1
  Er  Er15  1  0.500000  0.500000  0.503732  1
  Th  Th16  1  0.291055  0.093005  0.379378  1
  Th  Th17  1  0.291055  0.906995  0.879378  1
  Th  Th18  1  0.708945  0.093005  0.879378  1
  Th  Th19  1  0.708945  0.906995  0.379378  1
  Ir  Ir20  1  0.845590  0.149803  0.246356  1
  Ir  Ir21  1  0.845590  0.850197  0.746356  1
  Ir  Ir22  1  0.154410  0.149803  0.746356  1
  Ir  Ir23  1  0.154410  0.850197  0.246356  1
  Ir  Ir24  1  0.652745  0.346708  0.754957  1
  Ir  Ir25  1  0.652745  0.653292  0.254957  1
  Ir  Ir26  1  0.347255  0.346708  0.254957  1
  Ir  Ir27  1  0.347255  0.653292  0.754957  1
  Ir  Ir28  1  0.500000  0.000000  0.117879  1
  Ir  Ir29  1  0.500000  0.000000  0.617879  1
  Ir  Ir30  1  0.000000  0.500000  0.878031  1
  Ir  Ir31  1  0.000000  0.500000  0.378031  1
