# generated using pymatgen
data_Tb7Gd2Ho3Ga2TcNi3
_symmetry_space_group_name_H-M   'P 1'
_cell_length_a   8.39094876
_cell_length_b   8.38976986
_cell_length_c   8.38653008
_cell_angle_alpha   112.80390144
_cell_angle_beta   109.53998402
_cell_angle_gamma   106.15766151
_symmetry_Int_Tables_number   1
_chemical_formula_structural   Tb7Gd2Ho3Ga2TcNi3
_chemical_formula_sum   'Tb7 Gd2 Ho3 Ga2 Tc1 Ni3'
_cell_volume   452.84874744
_cell_formula_units_Z   1
loop_
 _symmetry_equiv_pos_site_id
 _symmetry_equiv_pos_as_xyz
  1  'x, y, z'
loop_
 _atom_site_type_symbol
 _atom_site_label
 _atom_site_symmetry_multiplicity
 _atom_site_fract_x
 _atom_site_fract_y
 _atom_site_fract_z
 _atom_site_occupancy
  Tb  Tb0  1  0.441467  0.247744  0.194277  1
  Tb  Tb1  1  0.576259  0.769220  0.807334  1
  Tb  Tb2  1  0.035578  0.229731  0.805022  1
  Tb  Tb3  1  0.944842  0.752446  0.193600  1
  Tb  Tb4  1  0.186548  0.280445  0.468047  1
  Tb  Tb5  1  0.827792  0.721256  0.548003  1
  Tb  Tb6  1  0.186198  0.719320  0.904569  1
  Gd  Gd7  1  0.824113  0.278593  0.104594  1
  Gd  Gd8  1  0.326892  0.640483  0.308376  1
  Ho  Ho9  1  0.668374  0.359181  0.684334  1
  Ho  Ho10  1  0.324976  0.016981  0.685925  1
  Ho  Ho11  1  0.669100  0.983647  0.308756  1
  Ga  Ga12  1  0.492958  0.499313  0.991262  1
  Ga  Ga13  1  0.019489  0.999689  0.019019  1
  Tc  Tc14  1  0.324784  0.000420  0.324780  1
  Ni  Ni15  1  0.650909  0.001032  0.651638  1
  Ni  Ni16  1  0.118669  0.619172  0.500834  1
  Ni  Ni17  1  0.881049  0.381326  0.499630  1
