# generated using pymatgen
data_NaPr5TmCoBr12
_symmetry_space_group_name_H-M   'P 1'
_cell_length_a   9.49058014
_cell_length_b   9.56052042
_cell_length_c   9.45411371
_cell_angle_alpha   107.44567237
_cell_angle_beta   107.16522460
_cell_angle_gamma   106.46535680
_symmetry_Int_Tables_number   1
_chemical_formula_structural   NaPr5TmCoBr12
_chemical_formula_sum   'Na1 Pr5 Tm1 Co1 Br12'
_cell_volume   713.86024366
_cell_formula_units_Z   1
loop_
 _symmetry_equiv_pos_site_id
 _symmetry_equiv_pos_as_xyz
  1  'x, y, z'
loop_
 _atom_site_type_symbol
 _atom_site_label
 _atom_site_symmetry_multiplicity
 _atom_site_fract_x
 _atom_site_fract_y
 _atom_site_fract_z
 _atom_site_occupancy
  Na  Na0  1  0.499562  0.501367  0.497941  1
  Pr  Pr1  1  0.308924  0.024899  0.107803  1
  Pr  Pr2  1  0.030612  0.112316  0.313090  1
  Pr  Pr3  1  0.972216  0.895500  0.689834  1
  Pr  Pr4  1  0.690874  0.971896  0.893363  1
  Pr  Pr5  1  0.886827  0.672738  0.969790  1
  Tm  Tm6  1  0.109543  0.312592  0.030473  1
  Co  Co7  1  0.000903  0.999968  0.002062  1
  Br  Br8  1  0.216384  0.671430  0.070555  1
  Br  Br9  1  0.436895  0.368262  0.143684  1
  Br  Br10  1  0.684243  0.076546  0.222766  1
  Br  Br11  1  0.928383  0.785400  0.319701  1
  Br  Br12  1  0.152404  0.454813  0.357404  1
  Br  Br13  1  0.373912  0.157858  0.457729  1
  Br  Br14  1  0.627400  0.846255  0.544259  1
  Br  Br15  1  0.845516  0.547336  0.624668  1
  Br  Br16  1  0.077098  0.229651  0.699713  1
  Br  Br17  1  0.317133  0.926778  0.779403  1
  Br  Br18  1  0.545656  0.628428  0.845555  1
  Br  Br19  1  0.795519  0.315968  0.930212  1
