# generated using pymatgen
data_Lu3Hf(InRh2)4
_symmetry_space_group_name_H-M   'P 1'
_cell_length_a   6.29778201
_cell_length_b   6.30015003
_cell_length_c   7.07959904
_cell_angle_alpha   90.00043477
_cell_angle_beta   90.00004315
_cell_angle_gamma   89.99887130
_symmetry_Int_Tables_number   1
_chemical_formula_structural   Lu3Hf(InRh2)4
_chemical_formula_sum   'Lu3 Hf1 In4 Rh8'
_cell_volume   280.89704938
_cell_formula_units_Z   1
loop_
 _symmetry_equiv_pos_site_id
 _symmetry_equiv_pos_as_xyz
  1  'x, y, z'
loop_
 _atom_site_type_symbol
 _atom_site_label
 _atom_site_symmetry_multiplicity
 _atom_site_fract_x
 _atom_site_fract_y
 _atom_site_fract_z
 _atom_site_occupancy
  Lu  Lu0  1  0.749990  0.250000  0.999988  1
  Lu  Lu1  1  0.250021  0.750015  0.000002  1
  Lu  Lu2  1  0.250018  0.749983  0.499983  1
  Hf  Hf3  1  0.749987  0.250005  0.500014  1
  In  In4  1  0.250006  0.250003  0.000132  1
  In  In5  1  0.750023  0.750016  0.000150  1
  In  In6  1  0.750058  0.749980  0.499859  1
  In  In7  1  0.249944  0.250011  0.499880  1
  Rh  Rh8  1  0.995926  0.004005  0.254388  1
  Rh  Rh9  1  0.995936  0.495976  0.254373  1
  Rh  Rh10  1  0.504051  0.495972  0.254392  1
  Rh  Rh11  1  0.504049  0.004003  0.254411  1
  Rh  Rh12  1  0.504058  0.004027  0.745585  1
  Rh  Rh13  1  0.504043  0.496001  0.745604  1
  Rh  Rh14  1  0.995944  0.496004  0.745633  1
  Rh  Rh15  1  0.995949  0.003998  0.745604  1
