# generated using pymatgen
data_Sm3Y14Er3Pb16
_symmetry_space_group_name_H-M   'P 1'
_cell_length_a   8.22772683
_cell_length_b   8.30816143
_cell_length_c   15.69844500
_cell_angle_alpha   90.01722012
_cell_angle_beta   90.29334201
_cell_angle_gamma   89.87091077
_symmetry_Int_Tables_number   1
_chemical_formula_structural   Sm3Y14Er3Pb16
_chemical_formula_sum   'Sm3 Y14 Er3 Pb16'
_cell_volume   1073.08621124
_cell_formula_units_Z   1
loop_
 _symmetry_equiv_pos_site_id
 _symmetry_equiv_pos_as_xyz
  1  'x, y, z'
loop_
 _atom_site_type_symbol
 _atom_site_label
 _atom_site_symmetry_multiplicity
 _atom_site_fract_x
 _atom_site_fract_y
 _atom_site_fract_z
 _atom_site_occupancy
  Sm  Sm0  1  0.031229  0.177541  0.098501  1
  Sm  Sm1  1  0.469531  0.677124  0.902770  1
  Sm  Sm2  1  0.966876  0.823136  0.597900  1
  Y  Y3  1  0.623395  0.158704  0.620284  1
  Y  Y4  1  0.126264  0.341533  0.878634  1
  Y  Y5  1  0.373923  0.843046  0.122588  1
  Y  Y6  1  0.875416  0.658188  0.378592  1
  Y  Y7  1  0.376901  0.842675  0.378864  1
  Y  Y8  1  0.875047  0.658033  0.122204  1
  Y  Y9  1  0.624454  0.157471  0.878498  1
  Y  Y10  1  0.122037  0.341712  0.620934  1
  Y  Y11  1  0.461446  0.674350  0.600304  1
  Y  Y12  1  0.963742  0.823620  0.900120  1
  Y  Y13  1  0.535684  0.324377  0.100095  1
  Y  Y14  1  0.038569  0.176167  0.398865  1
  Y  Y15  1  0.536315  0.324650  0.400405  1
  Y  Y16  1  0.792184  0.494904  0.749740  1
  Er  Er17  1  0.292118  0.004568  0.749560  1
  Er  Er18  1  0.207971  0.504218  0.250970  1
  Er  Er19  1  0.707767  0.995559  0.249978  1
  Pb  Pb20  1  0.718583  0.970141  0.454980  1
  Pb  Pb21  1  0.216805  0.534589  0.044496  1
  Pb  Pb22  1  0.282490  0.033039  0.956107  1
  Pb  Pb23  1  0.779455  0.466708  0.542608  1
  Pb  Pb24  1  0.284372  0.036550  0.542259  1
  Pb  Pb25  1  0.786957  0.460592  0.958504  1
  Pb  Pb26  1  0.713045  0.961524  0.042414  1
  Pb  Pb27  1  0.217786  0.534581  0.457159  1
  Pb  Pb28  1  0.428470  0.373473  0.749629  1
  Pb  Pb29  1  0.929683  0.125370  0.749929  1
  Pb  Pb30  1  0.570126  0.625553  0.250245  1
  Pb  Pb31  1  0.070221  0.873881  0.250481  1
  Pb  Pb32  1  0.653390  0.846877  0.748978  1
  Pb  Pb33  1  0.154198  0.653900  0.751233  1
  Pb  Pb34  1  0.348085  0.155469  0.250010  1
  Pb  Pb35  1  0.845468  0.346180  0.251163  1
