# generated using pymatgen
data_LaZnPt3Au
_symmetry_space_group_name_H-M   'P 1'
_cell_length_a   5.52024151
_cell_length_b   5.52024073
_cell_length_c   5.25914200
_cell_angle_alpha   58.34365079
_cell_angle_beta   58.34364362
_cell_angle_gamma   60.00000486
_symmetry_Int_Tables_number   1
_chemical_formula_structural   LaZnPt3Au
_chemical_formula_sum   'La1 Zn1 Pt3 Au1'
_cell_volume   110.40195741
_cell_formula_units_Z   1
loop_
 _symmetry_equiv_pos_site_id
 _symmetry_equiv_pos_as_xyz
  1  'x, y, z'
loop_
 _atom_site_type_symbol
 _atom_site_label
 _atom_site_symmetry_multiplicity
 _atom_site_fract_x
 _atom_site_fract_y
 _atom_site_fract_z
 _atom_site_occupancy
  La  La0  1  0.004100  0.004100  0.987700  1
  Zn  Zn1  1  0.622427  0.622427  0.132719  1
  Pt  Pt2  1  0.622390  0.125108  0.630111  1
  Pt  Pt3  1  0.125108  0.622390  0.630111  1
  Pt  Pt4  1  0.622390  0.622390  0.630111  1
  Au  Au5  1  0.253585  0.253585  0.239247  1
