# generated using pymatgen
data_La3GeAuS7
_symmetry_space_group_name_H-M   'P 1'
_cell_length_a   10.45442000
_cell_length_b   10.45462120
_cell_length_c   5.95183800
_cell_angle_alpha   90.00259822
_cell_angle_beta   89.99767332
_cell_angle_gamma   119.99775899
_symmetry_Int_Tables_number   1
_chemical_formula_structural   La3GeAuS7
_chemical_formula_sum   'La6 Ge2 Au2 S14'
_cell_volume   563.37787269
_cell_formula_units_Z   2
loop_
 _symmetry_equiv_pos_site_id
 _symmetry_equiv_pos_as_xyz
  1  'x, y, z'
loop_
 _atom_site_type_symbol
 _atom_site_label
 _atom_site_symmetry_multiplicity
 _atom_site_fract_x
 _atom_site_fract_y
 _atom_site_fract_z
 _atom_site_occupancy
  La  La0  1  0.642130  0.766645  0.453922  1
  La  La1  1  0.124393  0.357858  0.453883  1
  La  La2  1  0.233450  0.875538  0.453869  1
  La  La3  1  0.357985  0.233375  0.954517  1
  La  La4  1  0.766530  0.124558  0.954421  1
  La  La5  1  0.875585  0.641990  0.954424  1
  Ge  Ge6  1  0.333316  0.666644  0.039114  1
  Ge  Ge7  1  0.666651  0.333368  0.539332  1
  Au  Au8  1  0.999980  0.000036  0.419969  1
  Au  Au9  1  0.999976  0.000027  0.919912  1
  S  S10  1  0.666672  0.333337  0.168088  1
  S  S11  1  0.109196  0.587469  0.192071  1
  S  S12  1  0.412525  0.521720  0.192080  1
  S  S13  1  0.478259  0.890778  0.192048  1
  S  S14  1  0.826309  0.092354  0.437108  1
  S  S15  1  0.266038  0.173681  0.437108  1
  S  S16  1  0.907662  0.733965  0.437100  1
  S  S17  1  0.333324  0.666663  0.667424  1
  S  S18  1  0.890872  0.412544  0.692441  1
  S  S19  1  0.587441  0.478324  0.692492  1
  S  S20  1  0.521684  0.109129  0.692442  1
  S  S21  1  0.092358  0.266021  0.937080  1
  S  S22  1  0.173682  0.907641  0.937071  1
  S  S23  1  0.733986  0.826333  0.937083  1
