# generated using pymatgen
data_TbHoMgNi9
_symmetry_space_group_name_H-M   'P 1'
_cell_length_a   8.46280760
_cell_length_b   8.46280747
_cell_length_c   8.46280721
_cell_angle_alpha   33.67471511
_cell_angle_beta   33.67471475
_cell_angle_gamma   33.67471820
_symmetry_Int_Tables_number   1
_chemical_formula_structural   TbHoMgNi9
_chemical_formula_sum   'Tb1 Ho1 Mg1 Ni9'
_cell_volume   166.01133509
_cell_formula_units_Z   1
loop_
 _symmetry_equiv_pos_site_id
 _symmetry_equiv_pos_as_xyz
  1  'x, y, z'
loop_
 _atom_site_type_symbol
 _atom_site_label
 _atom_site_symmetry_multiplicity
 _atom_site_fract_x
 _atom_site_fract_y
 _atom_site_fract_z
 _atom_site_occupancy
  Tb  Tb0  1  0.996195  0.996195  0.996195  1
  Ho  Ho1  1  0.143219  0.143219  0.143219  1
  Mg  Mg2  1  0.860306  0.860306  0.860306  1
  Ni  Ni3  1  0.584252  0.584252  0.081224  1
  Ni  Ni4  1  0.333452  0.333452  0.333452  1
  Ni  Ni5  1  0.917136  0.416146  0.416148  1
  Ni  Ni6  1  0.416146  0.917136  0.416148  1
  Ni  Ni7  1  0.500537  0.500537  0.500537  1
  Ni  Ni8  1  0.584253  0.081223  0.584251  1
  Ni  Ni9  1  0.081223  0.584253  0.584251  1
  Ni  Ni10  1  0.667135  0.667135  0.667135  1
  Ni  Ni11  1  0.416147  0.416147  0.917135  1
