# generated using pymatgen
data_Tb3Sc2Ge3O
_symmetry_space_group_name_H-M   'P 1'
_cell_length_a   8.34021500
_cell_length_b   8.34021656
_cell_length_c   6.03285000
_cell_angle_alpha   90.00000000
_cell_angle_beta   90.00000000
_cell_angle_gamma   120.00000571
_symmetry_Int_Tables_number   1
_chemical_formula_structural   Tb3Sc2Ge3O
_chemical_formula_sum   'Tb6 Sc4 Ge6 O2'
_cell_volume   363.41906601
_cell_formula_units_Z   2
loop_
 _symmetry_equiv_pos_site_id
 _symmetry_equiv_pos_as_xyz
  1  'x, y, z'
loop_
 _atom_site_type_symbol
 _atom_site_label
 _atom_site_symmetry_multiplicity
 _atom_site_fract_x
 _atom_site_fract_y
 _atom_site_fract_z
 _atom_site_occupancy
  Tb  Tb0  1  0.235261  0.000000  0.250000  1
  Tb  Tb1  1  0.764739  0.000000  0.750000  1
  Tb  Tb2  1  0.000000  0.235261  0.250000  1
  Tb  Tb3  1  0.000000  0.764739  0.750000  1
  Tb  Tb4  1  0.764739  0.764739  0.250000  1
  Tb  Tb5  1  0.235261  0.235261  0.750000  1
  Sc  Sc6  1  0.333333  0.666667  0.000000  1
  Sc  Sc7  1  0.666667  0.333333  0.000000  1
  Sc  Sc8  1  0.666667  0.333333  0.500000  1
  Sc  Sc9  1  0.333333  0.666667  0.500000  1
  Ge  Ge10  1  0.596519  0.000000  0.250000  1
  Ge  Ge11  1  0.403481  0.000000  0.750000  1
  Ge  Ge12  1  0.000000  0.596519  0.250000  1
  Ge  Ge13  1  0.000000  0.403481  0.750000  1
  Ge  Ge14  1  0.403481  0.403481  0.250000  1
  Ge  Ge15  1  0.596519  0.596519  0.750000  1
  O  O16  1  0.000000  0.000000  0.000000  1
  O  O17  1  0.000000  0.000000  0.500000  1
