# generated using pymatgen
data_PrNd2In3Cu2Rh
_symmetry_space_group_name_H-M   'P 1'
_cell_length_a   7.68328913
_cell_length_b   7.68843065
_cell_length_c   4.07141000
_cell_angle_alpha   90.00000000
_cell_angle_beta   90.00000000
_cell_angle_gamma   119.99880905
_symmetry_Int_Tables_number   1
_chemical_formula_structural   PrNd2In3Cu2Rh
_chemical_formula_sum   'Pr1 Nd2 In3 Cu2 Rh1'
_cell_volume   208.28862855
_cell_formula_units_Z   1
loop_
 _symmetry_equiv_pos_site_id
 _symmetry_equiv_pos_as_xyz
  1  'x, y, z'
loop_
 _atom_site_type_symbol
 _atom_site_label
 _atom_site_symmetry_multiplicity
 _atom_site_fract_x
 _atom_site_fract_y
 _atom_site_fract_z
 _atom_site_occupancy
  Pr  Pr0  1  0.988853  0.580102  0.500000  1
  Nd  Nd1  1  0.419930  0.408256  0.500000  1
  Nd  Nd2  1  0.591514  0.011584  0.500000  1
  In  In3  1  0.752626  0.754105  0.000000  1
  In  In4  1  0.246544  0.999778  0.000000  1
  In  In5  1  0.000721  0.246227  0.000000  1
  Cu  Cu6  1  0.334013  0.666880  0.000000  1
  Cu  Cu7  1  0.000017  0.000387  0.500000  1
  Rh  Rh8  1  0.665781  0.332680  0.000000  1
