# generated using pymatgen
data_Y2Si5Ru3
_symmetry_space_group_name_H-M   'P 1'
_cell_length_a   8.25631936
_cell_length_b   8.25631888
_cell_length_c   8.25631991
_cell_angle_alpha   140.21146851
_cell_angle_beta   108.46560627
_cell_angle_gamma   85.11552349
_symmetry_Int_Tables_number   1
_chemical_formula_structural   Y2Si5Ru3
_chemical_formula_sum   'Y4 Si10 Ru6'
_cell_volume   329.81589577
_cell_formula_units_Z   2
loop_
 _symmetry_equiv_pos_site_id
 _symmetry_equiv_pos_as_xyz
  1  'x, y, z'
loop_
 _atom_site_type_symbol
 _atom_site_label
 _atom_site_symmetry_multiplicity
 _atom_site_fract_x
 _atom_site_fract_y
 _atom_site_fract_z
 _atom_site_occupancy
  Y  Y0  1  0.632060  0.364051  0.268009  1
  Y  Y1  1  0.096043  0.864051  0.231991  1
  Y  Y2  1  0.903957  0.135949  0.768009  1
  Y  Y3  1  0.367940  0.635949  0.731991  1
  Si  Si4  1  0.235577  0.403728  0.831848  1
  Si  Si5  1  0.292077  0.042077  0.750000  1
  Si  Si6  1  0.707923  0.457923  0.750000  1
  Si  Si7  1  0.428120  0.096272  0.331848  1
  Si  Si8  1  0.000000  0.250000  0.250000  1
  Si  Si9  1  0.764423  0.596272  0.168152  1
  Si  Si10  1  0.571880  0.903728  0.668152  1
  Si  Si11  1  0.292077  0.542077  0.250000  1
  Si  Si12  1  0.707923  0.957923  0.250000  1
  Si  Si13  1  0.000000  0.750000  0.750000  1
  Ru  Ru14  1  0.947255  0.353987  0.593268  1
  Ru  Ru15  1  0.239279  0.146013  0.093268  1
  Ru  Ru16  1  0.052745  0.646013  0.406732  1
  Ru  Ru17  1  0.760721  0.853987  0.906732  1
  Ru  Ru18  1  0.500000  0.750000  0.250000  1
  Ru  Ru19  1  0.500000  0.250000  0.750000  1
