# generated using pymatgen
data_Cd3(P3Pd10)2
_symmetry_space_group_name_H-M   'P 1'
_cell_length_a   8.60774849
_cell_length_b   8.60774821
_cell_length_c   8.60774800
_cell_angle_alpha   60.00000080
_cell_angle_beta   60.00000187
_cell_angle_gamma   60.00000018
_symmetry_Int_Tables_number   1
_chemical_formula_structural   Cd3(P3Pd10)2
_chemical_formula_sum   'Cd3 P6 Pd20'
_cell_volume   450.97625827
_cell_formula_units_Z   1
loop_
 _symmetry_equiv_pos_site_id
 _symmetry_equiv_pos_as_xyz
  1  'x, y, z'
loop_
 _atom_site_type_symbol
 _atom_site_label
 _atom_site_symmetry_multiplicity
 _atom_site_fract_x
 _atom_site_fract_y
 _atom_site_fract_z
 _atom_site_occupancy
  Cd  Cd0  1  0.250000  0.250000  0.250000  1
  Cd  Cd1  1  0.750000  0.750000  0.750000  1
  Cd  Cd2  1  0.000000  0.000000  0.000000  1
  P  P3  1  0.733183  0.733183  0.266817  1
  P  P4  1  0.266817  0.266817  0.733183  1
  P  P5  1  0.266817  0.733183  0.733183  1
  P  P6  1  0.733183  0.266817  0.733183  1
  P  P7  1  0.266817  0.733183  0.266817  1
  P  P8  1  0.733183  0.266817  0.266817  1
  Pd  Pd9  1  0.616450  0.616450  0.616450  1
  Pd  Pd10  1  0.383550  0.849348  0.383550  1
  Pd  Pd11  1  0.657297  0.342703  0.000000  1
  Pd  Pd12  1  0.000000  0.342703  0.657297  1
  Pd  Pd13  1  0.657297  0.000000  0.000000  1
  Pd  Pd14  1  0.616450  0.616450  0.150652  1
  Pd  Pd15  1  0.000000  0.000000  0.657297  1
  Pd  Pd16  1  0.000000  0.342703  0.000000  1
  Pd  Pd17  1  0.657297  0.000000  0.342703  1
  Pd  Pd18  1  0.342703  0.000000  0.000000  1
  Pd  Pd19  1  0.000000  0.657297  0.000000  1
  Pd  Pd20  1  0.342703  0.000000  0.657297  1
  Pd  Pd21  1  0.000000  0.657297  0.342703  1
  Pd  Pd22  1  0.342703  0.657297  0.000000  1
  Pd  Pd23  1  0.150652  0.616450  0.616450  1
  Pd  Pd24  1  0.383550  0.383550  0.383550  1
  Pd  Pd25  1  0.849348  0.383550  0.383550  1
  Pd  Pd26  1  0.383550  0.383550  0.849348  1
  Pd  Pd27  1  0.616450  0.150652  0.616450  1
  Pd  Pd28  1  0.000000  0.000000  0.342703  1
