# generated using pymatgen
data_Pr3HgIr3RhO14
_symmetry_space_group_name_H-M   'P 1'
_cell_length_a   7.31072226
_cell_length_b   7.31072359
_cell_length_c   7.31072314
_cell_angle_alpha   61.67650119
_cell_angle_beta   61.67649762
_cell_angle_gamma   61.67650370
_symmetry_Int_Tables_number   1
_chemical_formula_structural   Pr3HgIr3RhO14
_chemical_formula_sum   'Pr3 Hg1 Ir3 Rh1 O14'
_cell_volume   286.67527309
_cell_formula_units_Z   1
loop_
 _symmetry_equiv_pos_site_id
 _symmetry_equiv_pos_as_xyz
  1  'x, y, z'
loop_
 _atom_site_type_symbol
 _atom_site_label
 _atom_site_symmetry_multiplicity
 _atom_site_fract_x
 _atom_site_fract_y
 _atom_site_fract_z
 _atom_site_occupancy
  Pr  Pr0  1  0.125000  0.125000  0.625000  1
  Pr  Pr1  1  0.625000  0.125000  0.125000  1
  Pr  Pr2  1  0.125000  0.625000  0.125000  1
  Hg  Hg3  1  0.125000  0.125000  0.125000  1
  Ir  Ir4  1  0.125000  0.625000  0.625000  1
  Ir  Ir5  1  0.625000  0.125000  0.625000  1
  Ir  Ir6  1  0.625000  0.625000  0.125000  1
  Rh  Rh7  1  0.625000  0.625000  0.625000  1
  O  O8  1  0.960538  0.540103  0.540103  1
  O  O9  1  0.304369  0.304369  0.692288  1
  O  O10  1  0.945631  0.557712  0.945631  1
  O  O11  1  0.692288  0.304369  0.304369  1
  O  O12  1  0.540103  0.540103  0.960538  1
  O  O13  1  0.540103  0.960538  0.540103  1
  O  O14  1  0.557712  0.945631  0.945631  1
  O  O15  1  0.244613  0.244613  0.244613  1
  O  O16  1  0.289462  0.709897  0.709897  1
  O  O17  1  0.709897  0.289462  0.709897  1
  O  O18  1  0.005387  0.005387  0.005387  1
  O  O19  1  0.945631  0.945631  0.557712  1
  O  O20  1  0.304369  0.692288  0.304369  1
  O  O21  1  0.709897  0.709897  0.289462  1
