# generated using pymatgen
data_Y16Hf4Ir5Rh7
_symmetry_space_group_name_H-M   'P 1'
_cell_length_a   10.88154527
_cell_length_b   10.88154527
_cell_length_c   6.26473404
_cell_angle_alpha   89.99061564
_cell_angle_beta   89.99061564
_cell_angle_gamma   89.91170924
_symmetry_Int_Tables_number   1
_chemical_formula_structural   Y16Hf4Ir5Rh7
_chemical_formula_sum   'Y16 Hf4 Ir5 Rh7'
_cell_volume   741.79389940
_cell_formula_units_Z   1
loop_
 _symmetry_equiv_pos_site_id
 _symmetry_equiv_pos_as_xyz
  1  'x, y, z'
loop_
 _atom_site_type_symbol
 _atom_site_label
 _atom_site_symmetry_multiplicity
 _atom_site_fract_x
 _atom_site_fract_y
 _atom_site_fract_z
 _atom_site_occupancy
  Y  Y0  1  0.288334  0.086182  0.374781  1
  Y  Y1  1  0.288156  0.912523  0.875721  1
  Y  Y2  1  0.711465  0.087311  0.875309  1
  Y  Y3  1  0.711225  0.912509  0.374864  1
  Y  Y4  1  0.584918  0.787432  0.876319  1
  Y  Y5  1  0.584872  0.212603  0.376221  1
  Y  Y6  1  0.413754  0.787806  0.375908  1
  Y  Y7  1  0.414924  0.212583  0.876312  1
  Y  Y8  1  0.212568  0.415082  0.623681  1
  Y  Y9  1  0.212194  0.586246  0.124092  1
  Y  Y10  1  0.787397  0.415128  0.123779  1
  Y  Y11  1  0.787417  0.585076  0.623688  1
  Y  Y12  1  0.913818  0.711666  0.125219  1
  Y  Y13  1  0.912689  0.288535  0.624691  1
  Y  Y14  1  0.087477  0.711844  0.624279  1
  Y  Y15  1  0.087491  0.288775  0.125136  1
  Hf  Hf16  1  0.000414  0.999592  0.499724  1
  Hf  Hf17  1  0.000408  0.999586  0.000276  1
  Hf  Hf18  1  0.499980  0.500040  0.000214  1
  Hf  Hf19  1  0.499960  0.500020  0.499786  1
  Ir  Ir20  1  0.141749  0.858251  0.250000  1
  Ir  Ir21  1  0.643182  0.356818  0.750000  1
  Ir  Ir22  1  0.643176  0.643035  0.250021  1
  Ir  Ir23  1  0.356965  0.356824  0.249979  1
  Ir  Ir24  1  0.357179  0.642821  0.750000  1
  Rh  Rh25  1  0.858409  0.141591  0.250000  1
  Rh  Rh26  1  0.857598  0.858442  0.749847  1
  Rh  Rh27  1  0.141558  0.142402  0.750153  1
  Rh  Rh28  1  0.500552  0.000110  0.122419  1
  Rh  Rh29  1  0.500342  0.000060  0.622699  1
  Rh  Rh30  1  0.999940  0.499658  0.877301  1
  Rh  Rh31  1  0.999890  0.499448  0.377581  1
