# generated using pymatgen
data_HoLuZn4(InPt2)2
_symmetry_space_group_name_H-M   'P 1'
_cell_length_a   4.15590900
_cell_length_b   6.61352859
_cell_length_c   8.17276929
_cell_angle_alpha   92.71255305
_cell_angle_beta   90.00000000
_cell_angle_gamma   90.00000000
_symmetry_Int_Tables_number   1
_chemical_formula_structural   HoLuZn4(InPt2)2
_chemical_formula_sum   'Ho1 Lu1 Zn4 In2 Pt4'
_cell_volume   224.37869469
_cell_formula_units_Z   1
loop_
 _symmetry_equiv_pos_site_id
 _symmetry_equiv_pos_as_xyz
  1  'x, y, z'
loop_
 _atom_site_type_symbol
 _atom_site_label
 _atom_site_symmetry_multiplicity
 _atom_site_fract_x
 _atom_site_fract_y
 _atom_site_fract_z
 _atom_site_occupancy
  Ho  Ho0  1  0.750000  0.962382  0.682579  1
  Lu  Lu1  1  0.250000  0.038587  0.317472  1
  Zn  Zn2  1  0.250000  0.643430  0.555129  1
  Zn  Zn3  1  0.750000  0.357479  0.443595  1
  Zn  Zn4  1  0.750000  0.860544  0.059086  1
  Zn  Zn5  1  0.250000  0.139267  0.941991  1
  In  In6  1  0.250000  0.539770  0.175822  1
  In  In7  1  0.750000  0.458987  0.824684  1
  Pt  Pt8  1  0.250000  0.744577  0.874161  1
  Pt  Pt9  1  0.750000  0.252213  0.128226  1
  Pt  Pt10  1  0.750000  0.742182  0.367164  1
  Pt  Pt11  1  0.250000  0.260584  0.630092  1
