# generated using pymatgen
data_Rb2CaLuF7
_symmetry_space_group_name_H-M   'P 1'
_cell_length_a   8.37262782
_cell_length_b   8.37262767
_cell_length_c   8.37262700
_cell_angle_alpha   120.69755866
_cell_angle_beta   117.39073142
_cell_angle_gamma   91.68688500
_symmetry_Int_Tables_number   1
_chemical_formula_structural   Rb2CaLuF7
_chemical_formula_sum   'Rb4 Ca2 Lu2 F14'
_cell_volume   420.39731226
_cell_formula_units_Z   2
loop_
 _symmetry_equiv_pos_site_id
 _symmetry_equiv_pos_as_xyz
  1  'x, y, z'
loop_
 _atom_site_type_symbol
 _atom_site_label
 _atom_site_symmetry_multiplicity
 _atom_site_fract_x
 _atom_site_fract_y
 _atom_site_fract_z
 _atom_site_occupancy
  Rb  Rb0  1  0.500000  0.500000  0.000000  1
  Rb  Rb1  1  0.000000  0.000000  0.000000  1
  Rb  Rb2  1  0.000000  0.500000  0.000000  1
  Rb  Rb3  1  0.000000  0.000000  0.500000  1
  Ca  Ca4  1  0.500000  0.500000  0.500000  1
  Ca  Ca5  1  0.500000  0.000000  0.000000  1
  Lu  Lu6  1  0.000000  0.500000  0.500000  1
  Lu  Lu7  1  0.500000  0.000000  0.500000  1
  F  F8  1  0.875337  0.588662  0.286675  1
  F  F9  1  0.198012  0.911338  0.286675  1
  F  F10  1  0.185159  0.800810  0.757446  1
  F  F11  1  0.456636  0.699190  0.384349  1
  F  F12  1  0.456636  0.072288  0.757446  1
  F  F13  1  0.185159  0.427712  0.384349  1
  F  F14  1  0.814841  0.572288  0.615651  1
  F  F15  1  0.543364  0.927712  0.242554  1
  F  F16  1  0.543364  0.300810  0.615651  1
  F  F17  1  0.814841  0.199190  0.242554  1
  F  F18  1  0.396919  0.250000  0.146919  1
  F  F19  1  0.124663  0.411338  0.713325  1
  F  F20  1  0.801988  0.088662  0.713325  1
  F  F21  1  0.603081  0.750000  0.853081  1
