# generated using pymatgen
data_LaYbB5Os3
_symmetry_space_group_name_H-M   'P 1'
_cell_length_a   5.73253751
_cell_length_b   5.68763061
_cell_length_c   8.09965430
_cell_angle_alpha   57.16088310
_cell_angle_beta   57.50598353
_cell_angle_gamma   41.84917564
_symmetry_Int_Tables_number   1
_chemical_formula_structural   LaYbB5Os3
_chemical_formula_sum   'La1 Yb1 B5 Os3'
_cell_volume   143.79054962
_cell_formula_units_Z   1
loop_
 _symmetry_equiv_pos_site_id
 _symmetry_equiv_pos_as_xyz
  1  'x, y, z'
loop_
 _atom_site_type_symbol
 _atom_site_label
 _atom_site_symmetry_multiplicity
 _atom_site_fract_x
 _atom_site_fract_y
 _atom_site_fract_z
 _atom_site_occupancy
  La  La0  1  0.390363  0.939243  0.735617  1
  Yb  Yb1  1  0.082389  0.599703  0.250360  1
  B  B2  1  0.735269  0.260336  0.004950  1
  B  B3  1  0.533156  0.521865  0.381571  1
  B  B4  1  0.476509  0.471166  0.621225  1
  B  B5  1  0.080797  0.624247  0.813775  1
  B  B6  1  0.372288  0.917700  0.189039  1
  Os  Os7  1  0.010075  0.989097  0.498739  1
  Os  Os8  1  0.611442  0.122767  0.905329  1
  Os  Os9  1  0.873987  0.387604  0.099394  1
