# generated using pymatgen
data_Yb6Si24AgRu7
_symmetry_space_group_name_H-M   'P 1'
_cell_length_a   10.18297075
_cell_length_b   10.18297058
_cell_length_c   8.18766284
_cell_angle_alpha   90.05506885
_cell_angle_beta   90.05506602
_cell_angle_gamma   132.56414148
_symmetry_Int_Tables_number   1
_chemical_formula_structural   Yb6Si24AgRu7
_chemical_formula_sum   'Yb6 Si24 Ag1 Ru7'
_cell_volume   625.30596885
_cell_formula_units_Z   1
loop_
 _symmetry_equiv_pos_site_id
 _symmetry_equiv_pos_as_xyz
  1  'x, y, z'
loop_
 _atom_site_type_symbol
 _atom_site_label
 _atom_site_symmetry_multiplicity
 _atom_site_fract_x
 _atom_site_fract_y
 _atom_site_fract_z
 _atom_site_occupancy
  Yb  Yb0  1  0.997843  0.002157  0.000000  1
  Yb  Yb1  1  0.500652  0.499348  0.500000  1
  Yb  Yb2  1  0.003264  0.503985  0.251911  1
  Yb  Yb3  1  0.998668  0.499525  0.749828  1
  Yb  Yb4  1  0.496015  0.996736  0.748089  1
  Yb  Yb5  1  0.500475  0.001332  0.250172  1
  Si  Si6  1  0.695910  0.304090  0.000000  1
  Si  Si7  1  0.293053  0.706947  0.000000  1
  Si  Si8  1  0.792973  0.207027  0.500000  1
  Si  Si9  1  0.204790  0.795210  0.500000  1
  Si  Si10  1  0.337393  0.329534  0.168198  1
  Si  Si11  1  0.670466  0.662607  0.831802  1
  Si  Si12  1  0.170284  0.163346  0.666594  1
  Si  Si13  1  0.836654  0.829716  0.333406  1
  Si  Si14  1  0.848352  0.619423  0.005179  1
  Si  Si15  1  0.175083  0.403777  0.999722  1
  Si  Si16  1  0.651268  0.883077  0.505131  1
  Si  Si17  1  0.116923  0.348732  0.494869  1
  Si  Si18  1  0.346303  0.112567  0.493503  1
  Si  Si19  1  0.887433  0.653697  0.506497  1
  Si  Si20  1  0.380577  0.151648  0.994821  1
  Si  Si21  1  0.596223  0.824917  0.000278  1
  Si  Si22  1  0.887304  0.116247  0.288906  1
  Si  Si23  1  0.107680  0.874951  0.730384  1
  Si  Si24  1  0.608976  0.378353  0.767231  1
  Si  Si25  1  0.621647  0.391024  0.232769  1
  Si  Si26  1  0.391657  0.622980  0.233110  1
  Si  Si27  1  0.377020  0.608343  0.766890  1
  Si  Si28  1  0.883753  0.112696  0.711094  1
  Si  Si29  1  0.125049  0.892320  0.269616  1
  Ag  Ag30  1  0.829416  0.170584  0.000000  1
  Ru  Ru31  1  0.168997  0.831003  0.000000  1
  Ru  Ru32  1  0.669126  0.330874  0.500000  1
  Ru  Ru33  1  0.330384  0.669616  0.500000  1
  Ru  Ru34  1  0.125814  0.126517  0.374832  1
  Ru  Ru35  1  0.873483  0.874186  0.625168  1
  Ru  Ru36  1  0.372964  0.373874  0.873701  1
  Ru  Ru37  1  0.626126  0.627036  0.126299  1
