# generated using pymatgen
data_Hf18GaRe4W4Se
_symmetry_space_group_name_H-M   'P 1'
_cell_length_a   8.71617761
_cell_length_b   8.68176831
_cell_length_c   8.61438000
_cell_angle_alpha   90.00000000
_cell_angle_beta   90.00000000
_cell_angle_gamma   119.86949503
_symmetry_Int_Tables_number   1
_chemical_formula_structural   Hf18GaRe4W4Se
_chemical_formula_sum   'Hf18 Ga1 Re4 W4 Se1'
_cell_volume   565.27338852
_cell_formula_units_Z   1
loop_
 _symmetry_equiv_pos_site_id
 _symmetry_equiv_pos_as_xyz
  1  'x, y, z'
loop_
 _atom_site_type_symbol
 _atom_site_label
 _atom_site_symmetry_multiplicity
 _atom_site_fract_x
 _atom_site_fract_y
 _atom_site_fract_z
 _atom_site_occupancy
  Hf  Hf0  1  0.193926  0.805937  0.451935  1
  Hf  Hf1  1  0.193926  0.387989  0.451935  1
  Hf  Hf2  1  0.611174  0.805587  0.450880  1
  Hf  Hf3  1  0.806642  0.193830  0.546951  1
  Hf  Hf4  1  0.806642  0.612814  0.546951  1
  Hf  Hf5  1  0.387946  0.193974  0.548130  1
  Hf  Hf6  1  0.806642  0.193830  0.953049  1
  Hf  Hf7  1  0.806642  0.612814  0.953049  1
  Hf  Hf8  1  0.387946  0.193974  0.951870  1
  Hf  Hf9  1  0.193926  0.805937  0.048065  1
  Hf  Hf10  1  0.193926  0.387989  0.048065  1
  Hf  Hf11  1  0.611174  0.805587  0.049120  1
  Hf  Hf12  1  0.540461  0.460169  0.250000  1
  Hf  Hf13  1  0.540461  0.080292  0.250000  1
  Hf  Hf14  1  0.919576  0.459788  0.250000  1
  Hf  Hf15  1  0.455693  0.543541  0.750000  1
  Hf  Hf16  1  0.455693  0.912151  0.750000  1
  Hf  Hf17  1  0.088132  0.544065  0.750000  1
  Ga  Ga18  1  0.333280  0.666641  0.250000  1
  Re  Re19  1  0.889532  0.111376  0.250000  1
  Re  Re20  1  0.889532  0.778155  0.250000  1
  Re  Re21  1  0.109965  0.888155  0.750000  1
  Re  Re22  1  0.109965  0.221810  0.750000  1
  W  W23  1  0.220130  0.110065  0.250000  1
  W  W24  1  0.780299  0.890149  0.750000  1
  W  W25  1  0.000195  0.000097  0.499246  1
  W  W26  1  0.000195  0.000097  0.000754  1
  Se  Se27  1  0.666377  0.333188  0.750000  1
