# generated using pymatgen
data_Sr6SnPd4Pb3
_symmetry_space_group_name_H-M   'P 1'
_cell_length_a   6.21951100
_cell_length_b   9.08997200
_cell_length_c   14.60085700
_cell_angle_alpha   90.00000000
_cell_angle_beta   90.00000000
_cell_angle_gamma   90.00000000
_symmetry_Int_Tables_number   1
_chemical_formula_structural   Sr6SnPd4Pb3
_chemical_formula_sum   'Sr12 Sn2 Pd8 Pb6'
_cell_volume   825.46209097
_cell_formula_units_Z   2
loop_
 _symmetry_equiv_pos_site_id
 _symmetry_equiv_pos_as_xyz
  1  'x, y, z'
loop_
 _atom_site_type_symbol
 _atom_site_label
 _atom_site_symmetry_multiplicity
 _atom_site_fract_x
 _atom_site_fract_y
 _atom_site_fract_z
 _atom_site_occupancy
  Sr  Sr0  1  0.151094  0.396797  0.598554  1
  Sr  Sr1  1  0.848906  0.603203  0.098554  1
  Sr  Sr2  1  0.151094  0.103203  0.401446  1
  Sr  Sr3  1  0.848906  0.896797  0.901446  1
  Sr  Sr4  1  0.852080  0.605580  0.401324  1
  Sr  Sr5  1  0.147920  0.394420  0.901324  1
  Sr  Sr6  1  0.852080  0.894420  0.598676  1
  Sr  Sr7  1  0.147920  0.105580  0.098676  1
  Sr  Sr8  1  0.645656  0.255904  0.751039  1
  Sr  Sr9  1  0.354344  0.744096  0.251039  1
  Sr  Sr10  1  0.645656  0.244096  0.248961  1
  Sr  Sr11  1  0.354344  0.755904  0.748961  1
  Sn  Sn12  1  0.367012  0.750000  0.500000  1
  Sn  Sn13  1  0.632988  0.250000  0.000000  1
  Pd  Pd14  1  0.378964  0.022949  0.585716  1
  Pd  Pd15  1  0.621036  0.977051  0.085716  1
  Pd  Pd16  1  0.378964  0.477051  0.414284  1
  Pd  Pd17  1  0.621036  0.522949  0.914284  1
  Pd  Pd18  1  0.613762  0.962718  0.413277  1
  Pd  Pd19  1  0.386238  0.037282  0.913277  1
  Pd  Pd20  1  0.613762  0.537282  0.586723  1
  Pd  Pd21  1  0.386238  0.462718  0.086723  1
  Pb  Pb22  1  0.638318  0.250000  0.500000  1
  Pb  Pb23  1  0.361682  0.750000  0.000000  1
  Pb  Pb24  1  0.150586  0.104192  0.749287  1
  Pb  Pb25  1  0.849414  0.895808  0.249287  1
  Pb  Pb26  1  0.150586  0.395808  0.250713  1
  Pb  Pb27  1  0.849414  0.604192  0.750713  1
