# generated using pymatgen
data_Tb3HoTmSi3
_symmetry_space_group_name_H-M   'P 1'
_cell_length_a   8.45113800
_cell_length_b   8.45113746
_cell_length_c   6.33461200
_cell_angle_alpha   90.00000000
_cell_angle_beta   90.00000000
_cell_angle_gamma   120.00000994
_symmetry_Int_Tables_number   1
_chemical_formula_structural   Tb3HoTmSi3
_chemical_formula_sum   'Tb6 Ho2 Tm2 Si6'
_cell_volume   391.81491730
_cell_formula_units_Z   2
loop_
 _symmetry_equiv_pos_site_id
 _symmetry_equiv_pos_as_xyz
  1  'x, y, z'
loop_
 _atom_site_type_symbol
 _atom_site_label
 _atom_site_symmetry_multiplicity
 _atom_site_fract_x
 _atom_site_fract_y
 _atom_site_fract_z
 _atom_site_occupancy
  Tb  Tb0  1  0.755275  0.755275  0.248174  1
  Tb  Tb1  1  0.244725  0.000000  0.248174  1
  Tb  Tb2  1  0.000000  0.244725  0.248174  1
  Tb  Tb3  1  0.244725  0.244725  0.751826  1
  Tb  Tb4  1  0.755275  0.000000  0.751826  1
  Tb  Tb5  1  0.000000  0.755275  0.751826  1
  Ho  Ho6  1  0.666667  0.333333  0.500000  1
  Ho  Ho7  1  0.333333  0.666667  0.500000  1
  Tm  Tm8  1  0.333333  0.666667  0.000000  1
  Tm  Tm9  1  0.666667  0.333333  0.000000  1
  Si  Si10  1  0.394602  0.394602  0.244949  1
  Si  Si11  1  0.605398  0.000000  0.244949  1
  Si  Si12  1  0.000000  0.605398  0.244949  1
  Si  Si13  1  0.605398  0.605398  0.755051  1
  Si  Si14  1  0.394602  0.000000  0.755051  1
  Si  Si15  1  0.000000  0.394602  0.755051  1
