# generated using pymatgen
data_UIO2
_symmetry_space_group_name_H-M   'P 1'
_cell_length_a   4.06469400
_cell_length_b   4.15577600
_cell_length_c   23.21860500
_cell_angle_alpha   90.00000000
_cell_angle_beta   90.00000000
_cell_angle_gamma   90.00000000
_symmetry_Int_Tables_number   1
_chemical_formula_structural   UIO2
_chemical_formula_sum   'U4 I4 O8'
_cell_volume   392.20769520
_cell_formula_units_Z   4
loop_
 _symmetry_equiv_pos_site_id
 _symmetry_equiv_pos_as_xyz
  1  'x, y, z'
loop_
 _atom_site_type_symbol
 _atom_site_label
 _atom_site_symmetry_multiplicity
 _atom_site_fract_x
 _atom_site_fract_y
 _atom_site_fract_z
 _atom_site_occupancy
  U  U0  1  0.250000  0.505282  0.933177  1
  U  U1  1  0.750000  0.005282  0.566823  1
  U  U2  1  0.750000  0.494718  0.066823  1
  U  U3  1  0.250000  0.994718  0.433177  1
  I  I4  1  0.250000  0.005708  0.672387  1
  I  I5  1  0.750000  0.994292  0.327613  1
  I  I6  1  0.250000  0.494292  0.172387  1
  I  I7  1  0.750000  0.505708  0.827613  1
  O  O8  1  0.250000  0.494322  0.431619  1
  O  O9  1  0.750000  0.505678  0.568381  1
  O  O10  1  0.250000  0.005678  0.931619  1
  O  O11  1  0.750000  0.992933  0.467901  1
  O  O12  1  0.250000  0.007067  0.532099  1
  O  O13  1  0.250000  0.492933  0.032099  1
  O  O14  1  0.750000  0.994322  0.068381  1
  O  O15  1  0.750000  0.507067  0.967901  1
