# generated using pymatgen
data_Er6Zn20Pd3Se
_symmetry_space_group_name_H-M   'P 1'
_cell_length_a   8.99387879
_cell_length_b   8.99387878
_cell_length_c   9.03196988
_cell_angle_alpha   59.81881370
_cell_angle_beta   59.81881245
_cell_angle_gamma   60.23876318
_symmetry_Int_Tables_number   1
_chemical_formula_structural   Er6Zn20Pd3Se
_chemical_formula_sum   'Er6 Zn20 Pd3 Se1'
_cell_volume   516.10719997
_cell_formula_units_Z   1
loop_
 _symmetry_equiv_pos_site_id
 _symmetry_equiv_pos_as_xyz
  1  'x, y, z'
loop_
 _atom_site_type_symbol
 _atom_site_label
 _atom_site_symmetry_multiplicity
 _atom_site_fract_x
 _atom_site_fract_y
 _atom_site_fract_z
 _atom_site_occupancy
  Er  Er0  1  0.717019  0.281577  0.282431  1
  Er  Er1  1  0.718423  0.282981  0.717569  1
  Er  Er2  1  0.718749  0.718749  0.283210  1
  Er  Er3  1  0.282981  0.718423  0.717569  1
  Er  Er4  1  0.281577  0.717019  0.282431  1
  Er  Er5  1  0.281251  0.281251  0.716790  1
  Zn  Zn6  1  0.630474  0.122601  0.126410  1
  Zn  Zn7  1  0.122601  0.630474  0.126410  1
  Zn  Zn8  1  0.124458  0.124458  0.629546  1
  Zn  Zn9  1  0.122035  0.122035  0.123900  1
  Zn  Zn10  1  0.369526  0.877399  0.873590  1
  Zn  Zn11  1  0.877399  0.369526  0.873590  1
  Zn  Zn12  1  0.875542  0.875542  0.370454  1
  Zn  Zn13  1  0.877965  0.877965  0.876100  1
  Zn  Zn14  1  0.500000  0.000000  0.000000  1
  Zn  Zn15  1  0.500000  0.500000  0.000000  1
  Zn  Zn16  1  0.000000  0.500000  0.000000  1
  Zn  Zn17  1  0.000000  0.000000  0.500000  1
  Zn  Zn18  1  0.009499  0.330771  0.328670  1
  Zn  Zn19  1  0.330771  0.009499  0.328670  1
  Zn  Zn20  1  0.329803  0.329803  0.008588  1
  Zn  Zn21  1  0.330045  0.330045  0.327958  1
  Zn  Zn22  1  0.990501  0.669229  0.671330  1
  Zn  Zn23  1  0.669229  0.990501  0.671330  1
  Zn  Zn24  1  0.670197  0.670197  0.991412  1
  Zn  Zn25  1  0.669955  0.669955  0.672042  1
  Pd  Pd26  1  0.500000  0.000000  0.500000  1
  Pd  Pd27  1  0.000000  0.500000  0.500000  1
  Pd  Pd28  1  0.000000  0.000000  0.000000  1
  Se  Se29  1  0.500000  0.500000  0.500000  1
