# generated using pymatgen
data_Ho3Tm(TcB2)4
_symmetry_space_group_name_H-M   'P 1'
_cell_length_a   5.27448400
_cell_length_b   5.93595215
_cell_length_c   6.42984916
_cell_angle_alpha   89.95272323
_cell_angle_beta   90.00000000
_cell_angle_gamma   90.00000000
_symmetry_Int_Tables_number   1
_chemical_formula_structural   Ho3Tm(TcB2)4
_chemical_formula_sum   'Ho3 Tm1 Tc4 B8'
_cell_volume   201.31262308
_cell_formula_units_Z   1
loop_
 _symmetry_equiv_pos_site_id
 _symmetry_equiv_pos_as_xyz
  1  'x, y, z'
loop_
 _atom_site_type_symbol
 _atom_site_label
 _atom_site_symmetry_multiplicity
 _atom_site_fract_x
 _atom_site_fract_y
 _atom_site_fract_z
 _atom_site_occupancy
  Ho  Ho0  1  0.250000  0.014318  0.338548  1
  Ho  Ho1  1  0.250000  0.514431  0.161366  1
  Ho  Ho2  1  0.750000  0.986036  0.660238  1
  Tm  Tm3  1  0.750000  0.485675  0.838911  1
  Tc  Tc4  1  0.250000  0.182306  0.814929  1
  Tc  Tc5  1  0.250000  0.681117  0.685720  1
  Tc  Tc6  1  0.750000  0.818133  0.184535  1
  Tc  Tc7  1  0.750000  0.318293  0.314640  1
  B  B8  1  0.077632  0.369667  0.536621  1
  B  B9  1  0.422183  0.869876  0.963691  1
  B  B10  1  0.578683  0.629645  0.465607  1
  B  B11  1  0.921577  0.130657  0.034637  1
  B  B12  1  0.921317  0.629645  0.465607  1
  B  B13  1  0.578423  0.130657  0.034637  1
  B  B14  1  0.422368  0.369667  0.536621  1
  B  B15  1  0.077817  0.869876  0.963691  1
