# generated using pymatgen
data_Tb7DyNb12Si15Ge
_symmetry_space_group_name_H-M   'P 1'
_cell_length_a   6.89634692
_cell_length_b   7.09178984
_cell_length_c   13.47198528
_cell_angle_alpha   90.03716003
_cell_angle_beta   89.92632619
_cell_angle_gamma   90.01428054
_symmetry_Int_Tables_number   1
_chemical_formula_structural   Tb7DyNb12Si15Ge
_chemical_formula_sum   'Tb7 Dy1 Nb12 Si15 Ge1'
_cell_volume   658.87964842
_cell_formula_units_Z   1
loop_
 _symmetry_equiv_pos_site_id
 _symmetry_equiv_pos_as_xyz
  1  'x, y, z'
loop_
 _atom_site_type_symbol
 _atom_site_label
 _atom_site_symmetry_multiplicity
 _atom_site_fract_x
 _atom_site_fract_y
 _atom_site_fract_z
 _atom_site_occupancy
  Tb  Tb0  1  0.502950  0.328797  0.095761  1
  Tb  Tb1  1  0.001913  0.170839  0.403878  1
  Tb  Tb2  1  0.500062  0.673079  0.596466  1
  Tb  Tb3  1  0.997024  0.828639  0.904678  1
  Tb  Tb4  1  0.496964  0.671140  0.904534  1
  Tb  Tb5  1  0.996917  0.829418  0.595956  1
  Tb  Tb6  1  0.503399  0.327516  0.403338  1
  Dy  Dy7  1  0.002823  0.171665  0.095613  1
  Nb  Nb8  1  0.664491  0.008965  0.750187  1
  Nb  Nb9  1  0.164385  0.490166  0.751907  1
  Nb  Nb10  1  0.335113  0.991125  0.249709  1
  Nb  Nb11  1  0.835563  0.509208  0.249804  1
  Nb  Nb12  1  0.836467  0.324353  0.626067  1
  Nb  Nb13  1  0.338218  0.175010  0.874590  1
  Nb  Nb14  1  0.161657  0.675337  0.125514  1
  Nb  Nb15  1  0.661358  0.825296  0.373872  1
  Nb  Nb16  1  0.160128  0.677647  0.372723  1
  Nb  Nb17  1  0.661046  0.824734  0.125470  1
  Nb  Nb18  1  0.838289  0.324640  0.874591  1
  Nb  Nb19  1  0.340807  0.171572  0.626926  1
  Si  Si20  1  0.797375  0.624955  0.750197  1
  Si  Si21  1  0.296315  0.873907  0.750577  1
  Si  Si22  1  0.202885  0.374844  0.249601  1
  Si  Si23  1  0.703385  0.125067  0.249459  1
  Si  Si24  1  0.543024  0.375893  0.750405  1
  Si  Si25  1  0.043051  0.124446  0.750083  1
  Si  Si26  1  0.456587  0.624287  0.249853  1
  Si  Si27  1  0.955952  0.876377  0.248996  1
  Si  Si28  1  0.663417  0.037970  0.540185  1
  Si  Si29  1  0.162610  0.462219  0.959592  1
  Si  Si30  1  0.336641  0.962747  0.040676  1
  Si  Si31  1  0.833232  0.538485  0.458573  1
  Si  Si32  1  0.336699  0.961984  0.459488  1
  Si  Si33  1  0.837423  0.537401  0.040838  1
  Si  Si34  1  0.662968  0.037632  0.959524  1
  Ge  Ge35  1  0.168861  0.462641  0.540368  1
