# generated using pymatgen
data_BaLi5Pr5Mg(TeO6)4
_symmetry_space_group_name_H-M   'P 1'
_cell_length_a   11.16495155
_cell_length_b   11.13932081
_cell_length_c   11.14992600
_cell_angle_alpha   109.58874393
_cell_angle_beta   109.68218113
_cell_angle_gamma   109.15322348
_symmetry_Int_Tables_number   1
_chemical_formula_structural   BaLi5Pr5Mg(TeO6)4
_chemical_formula_sum   'Ba2 Li10 Pr10 Mg2 Te8 O48'
_cell_volume   1067.33691874
_cell_formula_units_Z   2
loop_
 _symmetry_equiv_pos_site_id
 _symmetry_equiv_pos_as_xyz
  1  'x, y, z'
loop_
 _atom_site_type_symbol
 _atom_site_label
 _atom_site_symmetry_multiplicity
 _atom_site_fract_x
 _atom_site_fract_y
 _atom_site_fract_z
 _atom_site_occupancy
  Ba  Ba0  1  0.747829  0.371312  0.125892  1
  Ba  Ba1  1  0.378059  0.254565  0.125889  1
  Li  Li2  1  0.873085  0.125387  0.250716  1
  Li  Li3  1  0.377639  0.625313  0.250700  1
  Li  Li4  1  0.750897  0.626170  0.375339  1
  Li  Li5  1  0.624458  0.249110  0.375281  1
  Li  Li6  1  0.377019  0.751153  0.626527  1
  Li  Li7  1  0.249529  0.375396  0.626519  1
  Li  Li8  1  0.124054  0.871786  0.747753  1
  Li  Li9  1  0.623703  0.375995  0.747780  1
  Li  Li10  1  0.124465  0.250161  0.875194  1
  Li  Li11  1  0.750663  0.124999  0.875167  1
  Pr  Pr12  1  0.624044  0.874013  0.248059  1
  Pr  Pr13  1  0.125250  0.375256  0.250500  1
  Pr  Pr14  1  0.255651  0.135921  0.384097  1
  Pr  Pr15  1  0.128453  0.748192  0.384097  1
  Pr  Pr16  1  0.748160  0.873304  0.624091  1
  Pr  Pr17  1  0.875911  0.250811  0.624104  1
  Pr  Pr18  1  0.376889  0.126894  0.753786  1
  Pr  Pr19  1  0.870638  0.620643  0.741258  1
  Pr  Pr20  1  0.250653  0.619543  0.868927  1
  Pr  Pr21  1  0.618232  0.749306  0.868886  1
  Mg  Mg22  1  0.873377  0.750357  0.124593  1
  Mg  Mg23  1  0.251201  0.874241  0.124573  1
  Te  Te24  1  0.994566  0.999999  0.999381  1
  Te  Te25  1  0.498321  0.993831  0.993758  1
  Te  Te26  1  0.495448  0.499910  0.993787  1
  Te  Te27  1  0.004785  0.499381  0.999380  1
  Te  Te28  1  0.999571  0.001181  0.502252  1
  Te  Te29  1  0.499571  0.502310  0.504420  1
  Te  Te30  1  0.502669  0.001086  0.502223  1
  Te  Te31  1  0.004884  0.502124  0.504435  1
  O  O32  1  0.917039  0.331044  0.017239  1
  O  O33  1  0.100180  0.186216  0.017269  1
  O  O34  1  0.402030  0.876967  0.072140  1
  O  O35  1  0.670108  0.695157  0.072148  1
  O  O36  1  0.665701  0.967435  0.088186  1
  O  O37  1  0.422472  0.620710  0.088191  1
  O  O38  1  0.939732  0.608190  0.118985  1
  O  O39  1  0.179240  0.010814  0.118997  1
  O  O40  1  0.577081  0.171535  0.170363  1
  O  O41  1  0.593338  0.498876  0.170424  1
  O  O42  1  0.173234  0.578573  0.192340  1
  O  O43  1  0.019071  0.113759  0.192331  1
  O  O44  1  0.382266  0.488174  0.321015  1
  O  O45  1  0.938789  0.332863  0.321027  1
  O  O46  1  0.310625  0.928187  0.330121  1
  O  O47  1  0.019501  0.901964  0.330144  1
  O  O48  1  0.920540  0.591006  0.403266  1
  O  O49  1  0.482773  0.312272  0.403253  1
  O  O50  1  0.522476  0.831604  0.404862  1
  O  O51  1  0.882402  0.073281  0.404876  1
  O  O52  1  0.810240  0.831533  0.425704  1
  O  O53  1  0.615451  0.094158  0.425664  1
  O  O54  1  0.308887  0.387418  0.483825  1
  O  O55  1  0.174979  0.596439  0.483855  1
  O  O56  1  0.690132  0.615678  0.522542  1
  O  O57  1  0.832414  0.406850  0.522500  1
  O  O58  1  0.187440  0.167596  0.570632  1
  O  O59  1  0.383199  0.903049  0.570610  1
  O  O60  1  0.118216  0.928331  0.595573  1
  O  O61  1  0.477345  0.167254  0.595549  1
  O  O62  1  0.524216  0.696058  0.618044  1
  O  O63  1  0.093845  0.421995  0.618063  1
  O  O64  1  0.977466  0.094806  0.670152  1
  O  O65  1  0.692674  0.075371  0.670132  1
  O  O66  1  0.618980  0.528708  0.697367  1
  O  O67  1  0.078389  0.668658  0.697385  1
  O  O68  1  0.975989  0.881258  0.810542  1
  O  O69  1  0.834543  0.429298  0.810523  1
  O  O70  1  0.408847  0.528610  0.827287  1
  O  O71  1  0.418428  0.798622  0.827278  1
  O  O72  1  0.802372  0.972197  0.880789  1
  O  O73  1  0.078401  0.408588  0.880815  1
  O  O74  1  0.567604  0.386456  0.894842  1
  O  O75  1  0.327224  0.008357  0.894817  1
  O  O76  1  0.323722  0.311397  0.906901  1
  O  O77  1  0.583147  0.095462  0.906873  1
  O  O78  1  0.097477  0.670913  0.977604  1
  O  O79  1  0.880111  0.806676  0.977591  1
