# generated using pymatgen
data_YbPrY3Ru2
_symmetry_space_group_name_H-M   'P 1'
_cell_length_a   6.46608164
_cell_length_b   7.32647815
_cell_length_c   8.65707867
_cell_angle_alpha   96.97422206
_cell_angle_beta   111.92893870
_cell_angle_gamma   90.00000251
_symmetry_Int_Tables_number   1
_chemical_formula_structural   YbPrY3Ru2
_chemical_formula_sum   'Yb2 Pr2 Y6 Ru4'
_cell_volume   377.17098095
_cell_formula_units_Z   2
loop_
 _symmetry_equiv_pos_site_id
 _symmetry_equiv_pos_as_xyz
  1  'x, y, z'
loop_
 _atom_site_type_symbol
 _atom_site_label
 _atom_site_symmetry_multiplicity
 _atom_site_fract_x
 _atom_site_fract_y
 _atom_site_fract_z
 _atom_site_occupancy
  Yb  Yb0  1  0.016070  0.082162  0.813752  1
  Yb  Yb1  1  0.202318  0.417838  0.186248  1
  Pr  Pr2  1  0.982889  0.917439  0.188947  1
  Pr  Pr3  1  0.793942  0.582561  0.811053  1
  Y  Y4  1  0.634336  0.816086  0.430421  1
  Y  Y5  1  0.203914  0.683914  0.569579  1
  Y  Y6  1  0.365390  0.186196  0.568047  1
  Y  Y7  1  0.797344  0.313804  0.431953  1
  Y  Y8  1  0.425236  0.750000  0.000000  1
  Y  Y9  1  0.567639  0.250000  0.000000  1
  Ru  Ru10  1  0.821214  0.577181  0.223657  1
  Ru  Ru11  1  0.597558  0.922819  0.776343  1
  Ru  Ru12  1  0.180405  0.425329  0.768658  1
  Ru  Ru13  1  0.411746  0.074671  0.231342  1
