# generated using pymatgen
data_Hf2ScCoSn3Ir2
_symmetry_space_group_name_H-M   'P 1'
_cell_length_a   7.45953626
_cell_length_b   7.45953685
_cell_length_c   3.45780300
_cell_angle_alpha   90.00000000
_cell_angle_beta   90.00000000
_cell_angle_gamma   120.21998488
_symmetry_Int_Tables_number   1
_chemical_formula_structural   Hf2ScCoSn3Ir2
_chemical_formula_sum   'Hf2 Sc1 Co1 Sn3 Ir2'
_cell_volume   166.25992888
_cell_formula_units_Z   1
loop_
 _symmetry_equiv_pos_site_id
 _symmetry_equiv_pos_as_xyz
  1  'x, y, z'
loop_
 _atom_site_type_symbol
 _atom_site_label
 _atom_site_symmetry_multiplicity
 _atom_site_fract_x
 _atom_site_fract_y
 _atom_site_fract_z
 _atom_site_occupancy
  Hf  Hf0  1  0.608002  0.001277  0.500000  1
  Hf  Hf1  1  0.001277  0.608002  0.500000  1
  Sc  Sc2  1  0.394748  0.394748  0.500000  1
  Co  Co3  1  0.991222  0.991222  0.500000  1
  Sn  Sn4  1  0.732483  0.732483  0.000000  1
  Sn  Sn5  1  0.261086  0.005972  0.000000  1
  Sn  Sn6  1  0.005972  0.261086  0.000000  1
  Ir  Ir7  1  0.673952  0.331260  0.000000  1
  Ir  Ir8  1  0.331260  0.673952  0.000000  1
