# generated using pymatgen
data_AcSb5O12
_symmetry_space_group_name_H-M   'P 1'
_cell_length_a   7.15274199
_cell_length_b   7.15274127
_cell_length_c   7.15274248
_cell_angle_alpha   62.37250226
_cell_angle_beta   62.37250353
_cell_angle_gamma   62.37251029
_symmetry_Int_Tables_number   1
_chemical_formula_structural   AcSb5O12
_chemical_formula_sum   'Ac1 Sb5 O12'
_cell_volume   272.45762771
_cell_formula_units_Z   1
loop_
 _symmetry_equiv_pos_site_id
 _symmetry_equiv_pos_as_xyz
  1  'x, y, z'
loop_
 _atom_site_type_symbol
 _atom_site_label
 _atom_site_symmetry_multiplicity
 _atom_site_fract_x
 _atom_site_fract_y
 _atom_site_fract_z
 _atom_site_occupancy
  Ac  Ac0  1  0.500000  0.500000  0.500000  1
  Sb  Sb1  1  0.000000  0.500000  0.500000  1
  Sb  Sb2  1  0.500000  0.000000  0.500000  1
  Sb  Sb3  1  0.500000  0.500000  0.000000  1
  Sb  Sb4  1  0.842231  0.842231  0.842231  1
  Sb  Sb5  1  0.157769  0.157769  0.157769  1
  O  O6  1  0.045142  0.648887  0.648887  1
  O  O7  1  0.648887  0.045142  0.648887  1
  O  O8  1  0.648887  0.648887  0.045142  1
  O  O9  1  0.954858  0.351113  0.351113  1
  O  O10  1  0.351113  0.954858  0.351113  1
  O  O11  1  0.351113  0.351113  0.954858  1
  O  O12  1  0.239735  0.616451  0.239735  1
  O  O13  1  0.616451  0.239735  0.239735  1
  O  O14  1  0.239735  0.239735  0.616451  1
  O  O15  1  0.383549  0.760265  0.760265  1
  O  O16  1  0.760265  0.760265  0.383549  1
  O  O17  1  0.760265  0.383549  0.760265  1
