# generated using pymatgen
data_Tb5Ho7ZnCo4Hg
_symmetry_space_group_name_H-M   'P 1'
_cell_length_a   8.26967486
_cell_length_b   8.26967530
_cell_length_c   8.27522731
_cell_angle_alpha   112.36282763
_cell_angle_beta   109.51117941
_cell_angle_gamma   106.56238899
_symmetry_Int_Tables_number   1
_chemical_formula_structural   Tb5Ho7ZnCo4Hg
_chemical_formula_sum   'Tb5 Ho7 Zn1 Co4 Hg1'
_cell_volume   434.68824622
_cell_formula_units_Z   1
loop_
 _symmetry_equiv_pos_site_id
 _symmetry_equiv_pos_as_xyz
  1  'x, y, z'
loop_
 _atom_site_type_symbol
 _atom_site_label
 _atom_site_symmetry_multiplicity
 _atom_site_fract_x
 _atom_site_fract_y
 _atom_site_fract_z
 _atom_site_occupancy
  Tb  Tb0  1  0.432576  0.234033  0.197937  1
  Tb  Tb1  1  0.569313  0.767309  0.803084  1
  Tb  Tb2  1  0.035774  0.233771  0.803084  1
  Tb  Tb3  1  0.963904  0.765361  0.197937  1
  Tb  Tb4  1  0.179790  0.282591  0.462379  1
  Ho  Ho5  1  0.820319  0.718218  0.538538  1
  Ho  Ho6  1  0.179991  0.718246  0.898237  1
  Ho  Ho7  1  0.819662  0.281895  0.101558  1
  Ho  Ho8  1  0.326025  0.637606  0.311671  1
  Ho  Ho9  1  0.675036  0.362967  0.688977  1
  Ho  Ho10  1  0.326010  0.013940  0.688977  1
  Ho  Ho11  1  0.674065  0.985647  0.311671  1
  Zn  Zn12  1  0.000628  0.999024  0.999652  1
  Co  Co13  1  0.341148  0.999078  0.340225  1
  Co  Co14  1  0.658512  0.999668  0.658180  1
  Co  Co15  1  0.113379  0.615120  0.499515  1
  Co  Co16  1  0.884395  0.386135  0.499515  1
  Hg  Hg17  1  0.499476  0.499389  0.998865  1
