# generated using pymatgen
data_Dy7Y(Ga3Pt)4
_symmetry_space_group_name_H-M   'P 1'
_cell_length_a   8.86664400
_cell_length_b   8.88861240
_cell_length_c   7.04840300
_cell_angle_alpha   90.00000000
_cell_angle_beta   90.00000000
_cell_angle_gamma   120.08373231
_symmetry_Int_Tables_number   1
_chemical_formula_structural   Dy7Y(Ga3Pt)4
_chemical_formula_sum   'Dy7 Y1 Ga12 Pt4'
_cell_volume   480.67058756
_cell_formula_units_Z   1
loop_
 _symmetry_equiv_pos_site_id
 _symmetry_equiv_pos_as_xyz
  1  'x, y, z'
loop_
 _atom_site_type_symbol
 _atom_site_label
 _atom_site_symmetry_multiplicity
 _atom_site_fract_x
 _atom_site_fract_y
 _atom_site_fract_z
 _atom_site_occupancy
  Dy  Dy0  1  0.000150  0.999979  0.250000  1
  Dy  Dy1  1  0.999742  0.999969  0.750000  1
  Dy  Dy2  1  0.519881  0.039769  0.250000  1
  Dy  Dy3  1  0.519815  0.480237  0.250000  1
  Dy  Dy4  1  0.960829  0.480442  0.250000  1
  Dy  Dy5  1  0.480010  0.960230  0.750000  1
  Dy  Dy6  1  0.480074  0.519664  0.750000  1
  Y  Y7  1  0.039563  0.519723  0.750000  1
  Ga  Ga8  1  0.166906  0.333899  0.046556  1
  Ga  Ga9  1  0.167044  0.832958  0.453454  1
  Ga  Ga10  1  0.665567  0.832827  0.453239  1
  Ga  Ga11  1  0.665567  0.832827  0.046761  1
  Ga  Ga12  1  0.167044  0.832958  0.046546  1
  Ga  Ga13  1  0.833036  0.665837  0.952757  1
  Ga  Ga14  1  0.832896  0.167248  0.952772  1
  Ga  Ga15  1  0.334389  0.167154  0.953302  1
  Ga  Ga16  1  0.166906  0.333899  0.453444  1
  Ga  Ga17  1  0.334389  0.167154  0.546698  1
  Ga  Ga18  1  0.833036  0.665837  0.547243  1
  Ga  Ga19  1  0.832896  0.167248  0.547228  1
  Pt  Pt20  1  0.333201  0.666528  0.030597  1
  Pt  Pt21  1  0.333201  0.666528  0.469403  1
  Pt  Pt22  1  0.666929  0.333542  0.969250  1
  Pt  Pt23  1  0.666929  0.333542  0.530750  1
