# generated using pymatgen
data_Ba4PPt
_symmetry_space_group_name_H-M   'P 1'
_cell_length_a   4.67400500
_cell_length_b   4.67400519
_cell_length_c   15.43621600
_cell_angle_alpha   90.00000000
_cell_angle_beta   90.00000000
_cell_angle_gamma   120.00000572
_symmetry_Int_Tables_number   1
_chemical_formula_structural   Ba4PPt
_chemical_formula_sum   'Ba4 P1 Pt1'
_cell_volume   292.04502795
_cell_formula_units_Z   1
loop_
 _symmetry_equiv_pos_site_id
 _symmetry_equiv_pos_as_xyz
  1  'x, y, z'
loop_
 _atom_site_type_symbol
 _atom_site_label
 _atom_site_symmetry_multiplicity
 _atom_site_fract_x
 _atom_site_fract_y
 _atom_site_fract_z
 _atom_site_occupancy
  Ba  Ba0  1  0.000000  0.000000  0.263556  1
  Ba  Ba1  1  0.666666  0.333332  0.486111  1
  Ba  Ba2  1  0.000000  0.000000  0.767592  1
  Ba  Ba3  1  0.333334  0.666667  0.983029  1
  P  P4  1  0.333334  0.666667  0.374588  1
  Pt  Pt5  1  0.666666  0.333332  0.875124  1
