# generated using pymatgen
data_Cs2Eu3(TlI4)3
_symmetry_space_group_name_H-M   'P 1'
_cell_length_a   15.31076100
_cell_length_b   15.31076214
_cell_length_c   4.95132400
_cell_angle_alpha   90.00000000
_cell_angle_beta   90.00000000
_cell_angle_gamma   119.99999971
_symmetry_Int_Tables_number   1
_chemical_formula_structural   Cs2Eu3(TlI4)3
_chemical_formula_sum   'Cs2 Eu3 Tl3 I12'
_cell_volume   1005.18399716
_cell_formula_units_Z   1
loop_
 _symmetry_equiv_pos_site_id
 _symmetry_equiv_pos_as_xyz
  1  'x, y, z'
loop_
 _atom_site_type_symbol
 _atom_site_label
 _atom_site_symmetry_multiplicity
 _atom_site_fract_x
 _atom_site_fract_y
 _atom_site_fract_z
 _atom_site_occupancy
  Cs  Cs0  1  0.666667  0.333333  0.500000  1
  Cs  Cs1  1  0.333333  0.666667  0.500000  1
  Eu  Eu2  1  0.321987  0.000000  0.000000  1
  Eu  Eu3  1  0.000000  0.321987  0.000000  1
  Eu  Eu4  1  0.678013  0.678013  0.000000  1
  Tl  Tl5  1  0.710400  0.000000  0.500000  1
  Tl  Tl6  1  0.289600  0.289600  0.500000  1
  Tl  Tl7  1  0.000000  0.710400  0.500000  1
  I  I8  1  0.183628  0.000000  0.500000  1
  I  I9  1  0.241899  0.432511  0.000000  1
  I  I10  1  0.567489  0.809389  0.000000  1
  I  I11  1  0.000000  0.183628  0.500000  1
  I  I12  1  0.816372  0.816372  0.500000  1
  I  I13  1  0.000000  0.462767  0.500000  1
  I  I14  1  0.462767  0.000000  0.500000  1
  I  I15  1  0.537233  0.537233  0.500000  1
  I  I16  1  0.758101  0.190611  0.000000  1
  I  I17  1  0.432511  0.241899  0.000000  1
  I  I18  1  0.809389  0.567489  0.000000  1
  I  I19  1  0.190611  0.758101  0.000000  1
