# generated using pymatgen
data_Th2Fe11NiP7
_symmetry_space_group_name_H-M   'P 1'
_cell_length_a   9.07401107
_cell_length_b   9.04926479
_cell_length_c   3.70113800
_cell_angle_alpha   90.00000000
_cell_angle_beta   90.00000000
_cell_angle_gamma   119.82287869
_symmetry_Int_Tables_number   1
_chemical_formula_structural   Th2Fe11NiP7
_chemical_formula_sum   'Th2 Fe11 Ni1 P7'
_cell_volume   263.66402208
_cell_formula_units_Z   1
loop_
 _symmetry_equiv_pos_site_id
 _symmetry_equiv_pos_as_xyz
  1  'x, y, z'
loop_
 _atom_site_type_symbol
 _atom_site_label
 _atom_site_symmetry_multiplicity
 _atom_site_fract_x
 _atom_site_fract_y
 _atom_site_fract_z
 _atom_site_occupancy
  Th  Th0  1  0.000503  0.000579  0.000000  1
  Th  Th1  1  0.334911  0.668495  0.500000  1
  Fe  Fe2  1  0.300628  0.906022  0.000000  1
  Fe  Fe3  1  0.603686  0.699579  0.000000  1
  Fe  Fe4  1  0.816698  0.604839  0.000000  1
  Fe  Fe5  1  0.786647  0.181869  0.000000  1
  Fe  Fe6  1  0.395364  0.210742  0.000000  1
  Fe  Fe7  1  0.048239  0.766465  0.500000  1
  Fe  Fe8  1  0.717388  0.949072  0.500000  1
  Fe  Fe9  1  0.233557  0.282801  0.500000  1
  Fe  Fe10  1  0.881598  0.432504  0.500000  1
  Fe  Fe11  1  0.548175  0.115008  0.500000  1
  Fe  Fe12  1  0.566812  0.450762  0.500000  1
  Ni  Ni13  1  0.098425  0.397193  0.000000  1
  P  P14  1  0.071958  0.640944  0.000000  1
  P  P15  1  0.564314  0.930321  0.000000  1
  P  P16  1  0.370750  0.435811  0.000000  1
  P  P17  1  0.769457  0.726715  0.500000  1
  P  P18  1  0.951357  0.223973  0.500000  1
  P  P19  1  0.273329  0.043746  0.500000  1
  P  P20  1  0.666203  0.332560  0.000000  1
