# generated using pymatgen
data_Tb12Tc3Os
_symmetry_space_group_name_H-M   'P 1'
_cell_length_a   6.34771000
_cell_length_b   7.41534801
_cell_length_c   9.19464200
_cell_angle_alpha   90.00000000
_cell_angle_beta   90.00000000
_cell_angle_gamma   89.99600559
_symmetry_Int_Tables_number   1
_chemical_formula_structural   Tb12Tc3Os
_chemical_formula_sum   'Tb12 Tc3 Os1'
_cell_volume   432.79619946
_cell_formula_units_Z   1
loop_
 _symmetry_equiv_pos_site_id
 _symmetry_equiv_pos_as_xyz
  1  'x, y, z'
loop_
 _atom_site_type_symbol
 _atom_site_label
 _atom_site_symmetry_multiplicity
 _atom_site_fract_x
 _atom_site_fract_y
 _atom_site_fract_z
 _atom_site_occupancy
  Tb  Tb0  1  0.336302  0.675328  0.062173  1
  Tb  Tb1  1  0.162844  0.174813  0.436766  1
  Tb  Tb2  1  0.663429  0.325350  0.563070  1
  Tb  Tb3  1  0.834627  0.824420  0.935984  1
  Tb  Tb4  1  0.663429  0.325350  0.936930  1
  Tb  Tb5  1  0.834627  0.824420  0.564016  1
  Tb  Tb6  1  0.336302  0.675328  0.437827  1
  Tb  Tb7  1  0.162844  0.174813  0.063234  1
  Tb  Tb8  1  0.872344  0.543095  0.250000  1
  Tb  Tb9  1  0.629189  0.041457  0.250000  1
  Tb  Tb10  1  0.130140  0.456743  0.750000  1
  Tb  Tb11  1  0.371177  0.957160  0.750000  1
  Tc  Tc12  1  0.038930  0.884893  0.250000  1
  Tc  Tc13  1  0.463018  0.387402  0.250000  1
  Tc  Tc14  1  0.961591  0.114853  0.750000  1
  Os  Os15  1  0.539205  0.614577  0.750000  1
