# generated using pymatgen
data_Zr8Hg4Pd5Au3
_symmetry_space_group_name_H-M   'P 1'
_cell_length_a   7.58807950
_cell_length_b   7.58339334
_cell_length_c   6.95725870
_cell_angle_alpha   90.03393118
_cell_angle_beta   90.05246756
_cell_angle_gamma   90.21793837
_symmetry_Int_Tables_number   1
_chemical_formula_structural   Zr8Hg4Pd5Au3
_chemical_formula_sum   'Zr8 Hg4 Pd5 Au3'
_cell_volume   400.34112632
_cell_formula_units_Z   1
loop_
 _symmetry_equiv_pos_site_id
 _symmetry_equiv_pos_as_xyz
  1  'x, y, z'
loop_
 _atom_site_type_symbol
 _atom_site_label
 _atom_site_symmetry_multiplicity
 _atom_site_fract_x
 _atom_site_fract_y
 _atom_site_fract_z
 _atom_site_occupancy
  Zr  Zr0  1  0.141133  0.154725  0.003294  1
  Zr  Zr1  1  0.840711  0.852112  0.999524  1
  Zr  Zr2  1  0.655254  0.347975  0.496837  1
  Zr  Zr3  1  0.358383  0.646299  0.496221  1
  Zr  Zr4  1  0.694648  0.310100  0.002100  1
  Zr  Zr5  1  0.316964  0.689893  0.002615  1
  Zr  Zr6  1  0.801418  0.810097  0.500146  1
  Zr  Zr7  1  0.187142  0.197174  0.496072  1
  Hg  Hg8  1  0.503856  0.002852  0.249549  1
  Hg  Hg9  1  0.506118  0.996772  0.749263  1
  Hg  Hg10  1  0.999584  0.496186  0.249035  1
  Hg  Hg11  1  0.992801  0.497649  0.749117  1
  Pd  Pd12  1  0.372508  0.370569  0.210639  1
  Pd  Pd13  1  0.630150  0.628482  0.788331  1
  Pd  Pd14  1  0.630666  0.628499  0.211459  1
  Pd  Pd15  1  0.870267  0.129473  0.712416  1
  Pd  Pd16  1  0.870092  0.128848  0.289237  1
  Au  Au17  1  0.372615  0.369910  0.792701  1
  Au  Au18  1  0.127139  0.870960  0.290577  1
  Au  Au19  1  0.128549  0.871425  0.710867  1
