# generated using pymatgen
data_NdEr7(WC2)4
_symmetry_space_group_name_H-M   'P 1'
_cell_length_a   5.72560555
_cell_length_b   5.72560555
_cell_length_c   9.85637906
_cell_angle_alpha   90.50033395
_cell_angle_beta   89.49966605
_cell_angle_gamma   90.12608911
_symmetry_Int_Tables_number   1
_chemical_formula_structural   NdEr7(WC2)4
_chemical_formula_sum   'Nd1 Er7 W4 C8'
_cell_volume   323.09195883
_cell_formula_units_Z   1
loop_
 _symmetry_equiv_pos_site_id
 _symmetry_equiv_pos_as_xyz
  1  'x, y, z'
loop_
 _atom_site_type_symbol
 _atom_site_label
 _atom_site_symmetry_multiplicity
 _atom_site_fract_x
 _atom_site_fract_y
 _atom_site_fract_z
 _atom_site_occupancy
  Nd  Nd0  1  0.299836  0.700164  0.160360  1
  Er  Er1  1  0.200681  0.197962  0.343682  1
  Er  Er2  1  0.801700  0.797175  0.658956  1
  Er  Er3  1  0.299030  0.700970  0.841893  1
  Er  Er4  1  0.802038  0.799319  0.343682  1
  Er  Er5  1  0.202825  0.198300  0.658956  1
  Er  Er6  1  0.697648  0.302352  0.156442  1
  Er  Er7  1  0.700469  0.299531  0.839975  1
  W  W8  1  0.174536  0.181192  0.996854  1
  W  W9  1  0.818808  0.825464  0.996854  1
  W  W10  1  0.324956  0.675044  0.503986  1
  W  W11  1  0.682029  0.317971  0.502228  1
  C  C12  1  0.990987  0.009013  0.153126  1
  C  C13  1  0.507163  0.492837  0.351042  1
  C  C14  1  0.501711  0.498289  0.657533  1
  C  C15  1  0.498649  0.009022  0.993593  1
  C  C16  1  0.990978  0.501351  0.993593  1
  C  C17  1  0.999654  0.000346  0.842634  1
  C  C18  1  0.502964  0.996663  0.502306  1
  C  C19  1  0.003337  0.497036  0.502306  1
