# generated using pymatgen
data_Y8Fe(Si4Pt)3
_symmetry_space_group_name_H-M   'P 1'
_cell_length_a   8.12305400
_cell_length_b   8.12305390
_cell_length_c   8.14621800
_cell_angle_alpha   90.00000000
_cell_angle_beta   90.00000000
_cell_angle_gamma   120.00000042
_symmetry_Int_Tables_number   1
_chemical_formula_structural   Y8Fe(Si4Pt)3
_chemical_formula_sum   'Y8 Fe1 Si12 Pt3'
_cell_volume   465.50605345
_cell_formula_units_Z   1
loop_
 _symmetry_equiv_pos_site_id
 _symmetry_equiv_pos_as_xyz
  1  'x, y, z'
loop_
 _atom_site_type_symbol
 _atom_site_label
 _atom_site_symmetry_multiplicity
 _atom_site_fract_x
 _atom_site_fract_y
 _atom_site_fract_z
 _atom_site_occupancy
  Y  Y0  1  0.000000  0.000000  0.250227  1
  Y  Y1  1  0.000000  0.000000  0.749440  1
  Y  Y2  1  0.996915  0.498457  0.254074  1
  Y  Y3  1  0.501543  0.498457  0.254074  1
  Y  Y4  1  0.502388  0.004775  0.746106  1
  Y  Y5  1  0.501543  0.003085  0.254074  1
  Y  Y6  1  0.502388  0.497612  0.746106  1
  Y  Y7  1  0.995225  0.497612  0.746106  1
  Fe  Fe8  1  0.666667  0.333333  0.497235  1
  Si  Si9  1  0.165693  0.331387  0.001174  1
  Si  Si10  1  0.668613  0.834307  0.001174  1
  Si  Si11  1  0.164203  0.328406  0.499943  1
  Si  Si12  1  0.329888  0.164944  0.998564  1
  Si  Si13  1  0.165693  0.834307  0.001174  1
  Si  Si14  1  0.671594  0.835797  0.499943  1
  Si  Si15  1  0.835056  0.670112  0.998564  1
  Si  Si16  1  0.345513  0.172757  0.500243  1
  Si  Si17  1  0.164203  0.835797  0.499943  1
  Si  Si18  1  0.827243  0.654487  0.500243  1
  Si  Si19  1  0.835056  0.164944  0.998564  1
  Si  Si20  1  0.827243  0.172757  0.500243  1
  Pt  Pt21  1  0.333333  0.666667  0.998549  1
  Pt  Pt22  1  0.333333  0.666667  0.501756  1
  Pt  Pt23  1  0.666667  0.333333  0.002481  1
