# generated using pymatgen
data_Nd3ThIn2(CuPd)2
_symmetry_space_group_name_H-M   'P 1'
_cell_length_a   7.85680799
_cell_length_b   7.87876265
_cell_length_c   3.82313300
_cell_angle_alpha   90.00000000
_cell_angle_beta   90.00000000
_cell_angle_gamma   91.21698650
_symmetry_Int_Tables_number   1
_chemical_formula_structural   Nd3ThIn2(CuPd)2
_chemical_formula_sum   'Nd3 Th1 In2 Cu2 Pd2'
_cell_volume   236.60591055
_cell_formula_units_Z   1
loop_
 _symmetry_equiv_pos_site_id
 _symmetry_equiv_pos_as_xyz
  1  'x, y, z'
loop_
 _atom_site_type_symbol
 _atom_site_label
 _atom_site_symmetry_multiplicity
 _atom_site_fract_x
 _atom_site_fract_y
 _atom_site_fract_z
 _atom_site_occupancy
  Nd  Nd0  1  0.823604  0.674445  0.500000  1
  Nd  Nd1  1  0.174330  0.322887  0.500000  1
  Nd  Nd2  1  0.678062  0.176383  0.500000  1
  Th  Th3  1  0.327659  0.823415  0.500000  1
  In  In4  1  0.999547  0.000744  0.000000  1
  In  In5  1  0.501762  0.493200  0.000000  1
  Cu  Cu6  1  0.374605  0.121886  0.000000  1
  Cu  Cu7  1  0.880701  0.381596  0.000000  1
  Pd  Pd8  1  0.129223  0.628904  0.000000  1
  Pd  Pd9  1  0.610506  0.876539  0.000000  1
