# generated using pymatgen
data_Hf18CuRe6NiW2
_symmetry_space_group_name_H-M   'P 1'
_cell_length_a   8.66571500
_cell_length_b   8.66571583
_cell_length_c   8.45704200
_cell_angle_alpha   90.00000000
_cell_angle_beta   90.00000000
_cell_angle_gamma   120.00000065
_symmetry_Int_Tables_number   1
_chemical_formula_structural   Hf18CuRe6NiW2
_chemical_formula_sum   'Hf18 Cu1 Re6 Ni1 W2'
_cell_volume   549.99401214
_cell_formula_units_Z   1
loop_
 _symmetry_equiv_pos_site_id
 _symmetry_equiv_pos_as_xyz
  1  'x, y, z'
loop_
 _atom_site_type_symbol
 _atom_site_label
 _atom_site_symmetry_multiplicity
 _atom_site_fract_x
 _atom_site_fract_y
 _atom_site_fract_z
 _atom_site_occupancy
  Hf  Hf0  1  0.196022  0.803978  0.446456  1
  Hf  Hf1  1  0.196022  0.392043  0.446456  1
  Hf  Hf2  1  0.607957  0.803978  0.446456  1
  Hf  Hf3  1  0.801224  0.198776  0.556413  1
  Hf  Hf4  1  0.801224  0.602447  0.556413  1
  Hf  Hf5  1  0.397553  0.198776  0.556413  1
  Hf  Hf6  1  0.801224  0.198776  0.943587  1
  Hf  Hf7  1  0.801224  0.602447  0.943587  1
  Hf  Hf8  1  0.397553  0.198776  0.943587  1
  Hf  Hf9  1  0.196022  0.803978  0.053544  1
  Hf  Hf10  1  0.196022  0.392043  0.053544  1
  Hf  Hf11  1  0.607957  0.803978  0.053544  1
  Hf  Hf12  1  0.541350  0.458650  0.250000  1
  Hf  Hf13  1  0.541350  0.082699  0.250000  1
  Hf  Hf14  1  0.917301  0.458650  0.250000  1
  Hf  Hf15  1  0.458763  0.541237  0.750000  1
  Hf  Hf16  1  0.458763  0.917527  0.750000  1
  Hf  Hf17  1  0.082473  0.541237  0.750000  1
  Cu  Cu18  1  0.333333  0.666667  0.250000  1
  Re  Re19  1  0.888302  0.111698  0.250000  1
  Re  Re20  1  0.888302  0.776602  0.250000  1
  Re  Re21  1  0.223398  0.111698  0.250000  1
  Re  Re22  1  0.111273  0.888727  0.750000  1
  Re  Re23  1  0.111273  0.222546  0.750000  1
  Re  Re24  1  0.777454  0.888727  0.750000  1
  Ni  Ni25  1  0.666667  0.333333  0.750000  1
  W  W26  1  0.000000  0.000000  0.499432  1
  W  W27  1  0.000000  0.000000  0.000568  1
