# generated using pymatgen
data_Np2CrIrF24
_symmetry_space_group_name_H-M   'P 1'
_cell_length_a   5.34542687
_cell_length_b   9.14487100
_cell_length_c   10.11322461
_cell_angle_alpha   90.00000000
_cell_angle_beta   90.10959025
_cell_angle_gamma   90.00000000
_symmetry_Int_Tables_number   1
_chemical_formula_structural   Np2CrIrF24
_chemical_formula_sum   'Np2 Cr1 Ir1 F24'
_cell_volume   494.36627239
_cell_formula_units_Z   1
loop_
 _symmetry_equiv_pos_site_id
 _symmetry_equiv_pos_as_xyz
  1  'x, y, z'
loop_
 _atom_site_type_symbol
 _atom_site_label
 _atom_site_symmetry_multiplicity
 _atom_site_fract_x
 _atom_site_fract_y
 _atom_site_fract_z
 _atom_site_occupancy
  Np  Np0  1  0.408526  0.750000  0.126442  1
  Np  Np1  1  0.092544  0.750000  0.627370  1
  Cr  Cr2  1  0.592318  0.250000  0.872849  1
  Ir  Ir3  1  0.906357  0.250000  0.372969  1
  F  F4  1  0.251254  0.594764  0.514999  1
  F  F5  1  0.248923  0.905177  0.014235  1
  F  F6  1  0.935497  0.905330  0.739727  1
  F  F7  1  0.188197  0.250000  0.483901  1
  F  F8  1  0.731741  0.113881  0.971795  1
  F  F9  1  0.566694  0.905198  0.238949  1
  F  F10  1  0.328833  0.250000  0.976903  1
  F  F11  1  0.251254  0.905236  0.514999  1
  F  F12  1  0.758423  0.394911  0.478510  1
  F  F13  1  0.452903  0.385997  0.774012  1
  F  F14  1  0.731741  0.386119  0.971795  1
  F  F15  1  0.790020  0.750000  0.509099  1
  F  F16  1  0.710485  0.750000  0.008501  1
  F  F17  1  0.248923  0.594823  0.014235  1
  F  F18  1  0.452903  0.114003  0.774012  1
  F  F19  1  0.054385  0.394837  0.267405  1
  F  F20  1  0.624150  0.250000  0.262139  1
  F  F21  1  0.566694  0.594802  0.238949  1
  F  F22  1  0.856581  0.250000  0.769136  1
  F  F23  1  0.107010  0.750000  0.245403  1
  F  F24  1  0.054385  0.105163  0.267405  1
  F  F25  1  0.935497  0.594670  0.739727  1
  F  F26  1  0.395340  0.750000  0.746024  1
  F  F27  1  0.758423  0.105089  0.478510  1
