# generated using pymatgen
data_YEr11Tc3Ni
_symmetry_space_group_name_H-M   'P 1'
_cell_length_a   6.23328779
_cell_length_b   7.30652783
_cell_length_c   9.10133400
_cell_angle_alpha   90.00000000
_cell_angle_beta   90.00000000
_cell_angle_gamma   90.11431801
_symmetry_Int_Tables_number   1
_chemical_formula_structural   YEr11Tc3Ni
_chemical_formula_sum   'Y1 Er11 Tc3 Ni1'
_cell_volume   414.50751624
_cell_formula_units_Z   1
loop_
 _symmetry_equiv_pos_site_id
 _symmetry_equiv_pos_as_xyz
  1  'x, y, z'
loop_
 _atom_site_type_symbol
 _atom_site_label
 _atom_site_symmetry_multiplicity
 _atom_site_fract_x
 _atom_site_fract_y
 _atom_site_fract_z
 _atom_site_occupancy
  Y  Y0  1  0.139258  0.458437  0.750000  1
  Er  Er1  1  0.329387  0.677840  0.066642  1
  Er  Er2  1  0.163143  0.176493  0.437327  1
  Er  Er3  1  0.665816  0.322761  0.562316  1
  Er  Er4  1  0.834824  0.823664  0.938772  1
  Er  Er5  1  0.665816  0.322761  0.937684  1
  Er  Er6  1  0.834824  0.823664  0.561228  1
  Er  Er7  1  0.329387  0.677840  0.433358  1
  Er  Er8  1  0.163143  0.176493  0.062673  1
  Er  Er9  1  0.872273  0.540354  0.250000  1
  Er  Er10  1  0.623412  0.039625  0.250000  1
  Er  Er11  1  0.374004  0.958017  0.750000  1
  Tc  Tc12  1  0.037370  0.885500  0.250000  1
  Tc  Tc13  1  0.461087  0.387770  0.250000  1
  Tc  Tc14  1  0.960774  0.112763  0.750000  1
  Ni  Ni15  1  0.545481  0.616018  0.750000  1
