# generated using pymatgen
data_Tb2Al9RePd2
_symmetry_space_group_name_H-M   'P 1'
_cell_length_a   7.60469538
_cell_length_b   7.60469621
_cell_length_c   9.55959700
_cell_angle_alpha   90.00000000
_cell_angle_beta   90.00000000
_cell_angle_gamma   118.46625324
_symmetry_Int_Tables_number   1
_chemical_formula_structural   Tb2Al9RePd2
_chemical_formula_sum   'Tb4 Al18 Re2 Pd4'
_cell_volume   486.00481256
_cell_formula_units_Z   2
loop_
 _symmetry_equiv_pos_site_id
 _symmetry_equiv_pos_as_xyz
  1  'x, y, z'
loop_
 _atom_site_type_symbol
 _atom_site_label
 _atom_site_symmetry_multiplicity
 _atom_site_fract_x
 _atom_site_fract_y
 _atom_site_fract_z
 _atom_site_occupancy
  Tb  Tb0  1  0.994272  0.680300  0.250000  1
  Tb  Tb1  1  0.005728  0.319700  0.750000  1
  Tb  Tb2  1  0.680300  0.994272  0.250000  1
  Tb  Tb3  1  0.319700  0.005728  0.750000  1
  Al  Al4  1  0.131801  0.131801  0.250000  1
  Al  Al5  1  0.868199  0.868199  0.750000  1
  Al  Al6  1  0.002256  0.334648  0.075982  1
  Al  Al7  1  0.997744  0.665352  0.924018  1
  Al  Al8  1  0.997744  0.665352  0.575982  1
  Al  Al9  1  0.334648  0.002256  0.424018  1
  Al  Al10  1  0.002256  0.334648  0.424018  1
  Al  Al11  1  0.665352  0.997744  0.575982  1
  Al  Al12  1  0.665352  0.997744  0.924018  1
  Al  Al13  1  0.334648  0.002256  0.075982  1
  Al  Al14  1  0.329492  0.329492  0.549435  1
  Al  Al15  1  0.670508  0.670508  0.450565  1
  Al  Al16  1  0.670508  0.670508  0.049435  1
  Al  Al17  1  0.329492  0.329492  0.950565  1
  Al  Al18  1  0.343695  0.551308  0.250000  1
  Al  Al19  1  0.656305  0.448692  0.750000  1
  Al  Al20  1  0.551308  0.343695  0.250000  1
  Al  Al21  1  0.448692  0.656305  0.750000  1
  Re  Re22  1  0.000000  0.000000  0.000000  1
  Re  Re23  1  0.000000  0.000000  0.500000  1
  Pd  Pd24  1  0.671533  0.328467  0.000000  1
  Pd  Pd25  1  0.328467  0.671533  0.000000  1
  Pd  Pd26  1  0.328467  0.671533  0.500000  1
  Pd  Pd27  1  0.671533  0.328467  0.500000  1
