# generated using pymatgen
data_Nb2B2PRu5
_symmetry_space_group_name_H-M   'P 1'
_cell_length_a   9.28697700
_cell_length_b   9.28697700
_cell_length_c   2.94239200
_cell_angle_alpha   90.00000000
_cell_angle_beta   90.00000000
_cell_angle_gamma   90.00000000
_symmetry_Int_Tables_number   1
_chemical_formula_structural   Nb2B2PRu5
_chemical_formula_sum   'Nb4 B4 P2 Ru10'
_cell_volume   253.77525396
_cell_formula_units_Z   2
loop_
 _symmetry_equiv_pos_site_id
 _symmetry_equiv_pos_as_xyz
  1  'x, y, z'
loop_
 _atom_site_type_symbol
 _atom_site_label
 _atom_site_symmetry_multiplicity
 _atom_site_fract_x
 _atom_site_fract_y
 _atom_site_fract_z
 _atom_site_occupancy
  Nb  Nb0  1  0.823170  0.676830  0.000000  1
  Nb  Nb1  1  0.176830  0.323170  0.000000  1
  Nb  Nb2  1  0.323170  0.823170  0.000000  1
  Nb  Nb3  1  0.676830  0.176830  0.000000  1
  B  B4  1  0.624634  0.875366  0.000000  1
  B  B5  1  0.375366  0.124634  0.000000  1
  B  B6  1  0.124634  0.624634  0.000000  1
  B  B7  1  0.875366  0.375366  0.000000  1
  P  P8  1  0.500000  0.500000  0.000000  1
  P  P9  1  0.000000  0.000000  0.000000  1
  Ru  Ru10  1  0.566406  0.709146  0.500000  1
  Ru  Ru11  1  0.433594  0.290854  0.500000  1
  Ru  Ru12  1  0.066406  0.790854  0.500000  1
  Ru  Ru13  1  0.933594  0.209146  0.500000  1
  Ru  Ru14  1  0.290854  0.566406  0.500000  1
  Ru  Ru15  1  0.709146  0.433594  0.500000  1
  Ru  Ru16  1  0.209146  0.066406  0.500000  1
  Ru  Ru17  1  0.790854  0.933594  0.500000  1
  Ru  Ru18  1  0.500000  0.000000  0.500000  1
  Ru  Ru19  1  0.000000  0.500000  0.500000  1
