# generated using pymatgen
data_Li4TbNd3(Si2Sn)2
_symmetry_space_group_name_H-M   'P 1'
_cell_length_a   9.72455432
_cell_length_b   9.72455408
_cell_length_c   6.86235500
_cell_angle_alpha   90.00000000
_cell_angle_beta   90.00000000
_cell_angle_gamma   153.24473758
_symmetry_Int_Tables_number   1
_chemical_formula_structural   Li4TbNd3(Si2Sn)2
_chemical_formula_sum   'Li4 Tb1 Nd3 Si4 Sn2'
_cell_volume   292.14551293
_cell_formula_units_Z   1
loop_
 _symmetry_equiv_pos_site_id
 _symmetry_equiv_pos_as_xyz
  1  'x, y, z'
loop_
 _atom_site_type_symbol
 _atom_site_label
 _atom_site_symmetry_multiplicity
 _atom_site_fract_x
 _atom_site_fract_y
 _atom_site_fract_z
 _atom_site_occupancy
  Li  Li0  1  0.184517  0.815483  0.055797  1
  Li  Li1  1  0.184517  0.815483  0.444203  1
  Li  Li2  1  0.816178  0.183822  0.946113  1
  Li  Li3  1  0.816178  0.183822  0.553887  1
  Tb  Tb4  1  0.351199  0.648801  0.250000  1
  Nd  Nd5  1  0.650009  0.349991  0.750000  1
  Nd  Nd6  1  0.548242  0.451758  0.250000  1
  Nd  Nd7  1  0.450493  0.549507  0.750000  1
  Si  Si8  1  0.056636  0.943364  0.925939  1
  Si  Si9  1  0.941573  0.058427  0.075300  1
  Si  Si10  1  0.941573  0.058427  0.424700  1
  Si  Si11  1  0.056636  0.943364  0.574061  1
  Sn  Sn12  1  0.721202  0.278798  0.250000  1
  Sn  Sn13  1  0.281045  0.718955  0.750000  1
