# generated using pymatgen
data_Tb4DyY3Pt4
_symmetry_space_group_name_H-M   'P 1'
_cell_length_a   4.77524200
_cell_length_b   7.20297517
_cell_length_c   8.85749303
_cell_angle_alpha   89.87748948
_cell_angle_beta   90.00000000
_cell_angle_gamma   90.00000000
_symmetry_Int_Tables_number   1
_chemical_formula_structural   Tb4DyY3Pt4
_chemical_formula_sum   'Tb4 Dy1 Y3 Pt4'
_cell_volume   304.66118693
_cell_formula_units_Z   1
loop_
 _symmetry_equiv_pos_site_id
 _symmetry_equiv_pos_as_xyz
  1  'x, y, z'
loop_
 _atom_site_type_symbol
 _atom_site_label
 _atom_site_symmetry_multiplicity
 _atom_site_fract_x
 _atom_site_fract_y
 _atom_site_fract_z
 _atom_site_occupancy
  Tb  Tb0  1  0.250000  0.854840  0.919615  1
  Tb  Tb1  1  0.250000  0.354754  0.579988  1
  Tb  Tb2  1  0.750000  0.144720  0.080330  1
  Tb  Tb3  1  0.250000  0.990780  0.332428  1
  Dy  Dy4  1  0.750000  0.645429  0.419582  1
  Y  Y5  1  0.250000  0.490399  0.168509  1
  Y  Y6  1  0.750000  0.009203  0.668829  1
  Y  Y7  1  0.750000  0.509476  0.831711  1
  Pt  Pt8  1  0.250000  0.257241  0.906541  1
  Pt  Pt9  1  0.250000  0.758129  0.592504  1
  Pt  Pt10  1  0.750000  0.742714  0.093750  1
  Pt  Pt11  1  0.750000  0.242314  0.406214  1
