# generated using pymatgen
data_Dy5Ho(Si3Os)8
_symmetry_space_group_name_H-M   'P 1'
_cell_length_a   10.14345628
_cell_length_b   10.14355166
_cell_length_c   8.16653004
_cell_angle_alpha   90.03359007
_cell_angle_beta   89.96646651
_cell_angle_gamma   132.58056446
_symmetry_Int_Tables_number   1
_chemical_formula_structural   Dy5Ho(Si3Os)8
_chemical_formula_sum   'Dy5 Ho1 Si24 Os8'
_cell_volume   618.70553612
_cell_formula_units_Z   1
loop_
 _symmetry_equiv_pos_site_id
 _symmetry_equiv_pos_as_xyz
  1  'x, y, z'
loop_
 _atom_site_type_symbol
 _atom_site_label
 _atom_site_symmetry_multiplicity
 _atom_site_fract_x
 _atom_site_fract_y
 _atom_site_fract_z
 _atom_site_occupancy
  Dy  Dy0  1  0.501117  0.001116  0.749996  1
  Dy  Dy1  1  0.998988  0.498985  0.250004  1
  Dy  Dy2  1  0.499043  0.999043  0.250005  1
  Dy  Dy3  1  0.999995  0.999993  0.000000  1
  Dy  Dy4  1  0.499995  0.499997  0.500001  1
  Ho  Ho5  1  0.000833  0.500834  0.749983  1
  Si  Si6  1  0.795260  0.204776  0.500110  1
  Si  Si7  1  0.704775  0.295260  0.999888  1
  Si  Si8  1  0.204705  0.795218  0.500121  1
  Si  Si9  1  0.295218  0.704705  0.999880  1
  Si  Si10  1  0.667662  0.667863  0.166876  1
  Si  Si11  1  0.167866  0.167664  0.333125  1
  Si  Si12  1  0.832273  0.832273  0.666869  1
  Si  Si13  1  0.332276  0.332275  0.833132  1
  Si  Si14  1  0.844620  0.610895  0.995877  1
  Si  Si15  1  0.110893  0.344621  0.504117  1
  Si  Si16  1  0.655084  0.888964  0.495855  1
  Si  Si17  1  0.388962  0.155085  0.004150  1
  Si  Si18  1  0.155241  0.388994  0.004317  1
  Si  Si19  1  0.888994  0.655240  0.495689  1
  Si  Si20  1  0.121225  0.886588  0.727949  1
  Si  Si21  1  0.386593  0.621227  0.772046  1
  Si  Si22  1  0.379401  0.613978  0.228022  1
  Si  Si23  1  0.113984  0.879407  0.271984  1
  Si  Si24  1  0.878917  0.113630  0.272145  1
  Si  Si25  1  0.613623  0.378915  0.227859  1
  Si  Si26  1  0.620496  0.385795  0.772033  1
  Si  Si27  1  0.885791  0.120492  0.727965  1
  Si  Si28  1  0.611093  0.845006  0.995750  1
  Si  Si29  1  0.345006  0.111089  0.504246  1
  Os  Os30  1  0.626833  0.626719  0.872120  1
  Os  Os31  1  0.126706  0.126827  0.627877  1
  Os  Os32  1  0.373311  0.373222  0.127898  1
  Os  Os33  1  0.873229  0.873314  0.372110  1
  Os  Os34  1  0.168814  0.830206  0.999736  1
  Os  Os35  1  0.330214  0.668815  0.500268  1
  Os  Os36  1  0.831281  0.169683  0.000055  1
  Os  Os37  1  0.669685  0.331289  0.499944  1
