# generated using pymatgen
data_Dy10IrPt5
_symmetry_space_group_name_H-M   'P 1'
_cell_length_a   11.05328600
_cell_length_b   11.05328600
_cell_length_c   6.42319200
_cell_angle_alpha   90.00000000
_cell_angle_beta   90.00000000
_cell_angle_gamma   90.00000000
_symmetry_Int_Tables_number   1
_chemical_formula_structural   Dy10IrPt5
_chemical_formula_sum   'Dy20 Ir2 Pt10'
_cell_volume   784.75432659
_cell_formula_units_Z   2
loop_
 _symmetry_equiv_pos_site_id
 _symmetry_equiv_pos_as_xyz
  1  'x, y, z'
loop_
 _atom_site_type_symbol
 _atom_site_label
 _atom_site_symmetry_multiplicity
 _atom_site_fract_x
 _atom_site_fract_y
 _atom_site_fract_z
 _atom_site_occupancy
  Dy  Dy0  1  0.292527  0.088443  0.377568  1
  Dy  Dy1  1  0.292527  0.911557  0.877568  1
  Dy  Dy2  1  0.707473  0.088443  0.877568  1
  Dy  Dy3  1  0.707473  0.911557  0.377568  1
  Dy  Dy4  1  0.588443  0.792527  0.877568  1
  Dy  Dy5  1  0.588443  0.207473  0.377568  1
  Dy  Dy6  1  0.411557  0.792527  0.377568  1
  Dy  Dy7  1  0.411557  0.207473  0.877568  1
  Dy  Dy8  1  0.205193  0.412238  0.623054  1
  Dy  Dy9  1  0.205193  0.587762  0.123054  1
  Dy  Dy10  1  0.794807  0.412238  0.123054  1
  Dy  Dy11  1  0.794807  0.587762  0.623054  1
  Dy  Dy12  1  0.912238  0.705193  0.123054  1
  Dy  Dy13  1  0.912238  0.294807  0.623054  1
  Dy  Dy14  1  0.087762  0.705193  0.623054  1
  Dy  Dy15  1  0.087762  0.294807  0.123054  1
  Dy  Dy16  1  0.000000  0.000000  0.500303  1
  Dy  Dy17  1  0.000000  0.000000  0.000303  1
  Dy  Dy18  1  0.500000  0.500000  0.000303  1
  Dy  Dy19  1  0.500000  0.500000  0.500303  1
  Ir  Ir20  1  0.000000  0.500000  0.877607  1
  Ir  Ir21  1  0.000000  0.500000  0.377607  1
  Pt  Pt22  1  0.845943  0.153066  0.249789  1
  Pt  Pt23  1  0.845943  0.846934  0.749789  1
  Pt  Pt24  1  0.154057  0.153066  0.749789  1
  Pt  Pt25  1  0.154057  0.846934  0.249789  1
  Pt  Pt26  1  0.653066  0.345943  0.749789  1
  Pt  Pt27  1  0.653066  0.654057  0.249789  1
  Pt  Pt28  1  0.346934  0.345943  0.249789  1
  Pt  Pt29  1  0.346934  0.654057  0.749789  1
  Pt  Pt30  1  0.500000  0.000000  0.120144  1
  Pt  Pt31  1  0.500000  0.000000  0.620144  1
