# generated using pymatgen
data_Ti6SiGe4POs6
_symmetry_space_group_name_H-M   'P 1'
_cell_length_a   6.63035635
_cell_length_b   7.01172215
_cell_length_c   7.46290574
_cell_angle_alpha   118.01947974
_cell_angle_beta   115.90289884
_cell_angle_gamma   89.99999807
_symmetry_Int_Tables_number   1
_chemical_formula_structural   Ti6SiGe4POs6
_chemical_formula_sum   'Ti6 Si1 Ge4 P1 Os6'
_cell_volume   266.15522744
_cell_formula_units_Z   1
loop_
 _symmetry_equiv_pos_site_id
 _symmetry_equiv_pos_as_xyz
  1  'x, y, z'
loop_
 _atom_site_type_symbol
 _atom_site_label
 _atom_site_symmetry_multiplicity
 _atom_site_fract_x
 _atom_site_fract_y
 _atom_site_fract_z
 _atom_site_occupancy
  Ti  Ti0  1  0.252281  0.469163  0.438326  1
  Ti  Ti1  1  0.821789  0.540127  0.580253  1
  Ti  Ti2  1  0.659674  0.748913  0.997824  1
  Ti  Ti3  1  0.656894  0.254191  0.008383  1
  Ti  Ti4  1  0.844500  0.046766  0.593532  1
  Ti  Ti5  1  0.232811  0.941876  0.383751  1
  Si  Si6  1  0.211212  0.724862  0.949721  1
  Ge  Ge7  1  0.578914  0.840053  0.666642  1
  Ge  Ge8  1  0.912938  0.166442  0.332970  1
  Ge  Ge9  1  0.912938  0.666528  0.332970  1
  Ge  Ge10  1  0.578914  0.326589  0.666642  1
  P  P11  1  0.306511  0.283218  0.066437  1
  Os  Os12  1  0.999259  0.032412  0.996873  1
  Os  Os13  1  0.999259  0.464461  0.996873  1
  Os  Os14  1  0.493657  0.657345  0.245538  1
  Os  Os15  1  0.242597  0.338381  0.748864  1
  Os  Os16  1  0.242597  0.910482  0.748864  1
  Os  Os17  1  0.493657  0.088194  0.245538  1
