# generated using pymatgen
data_La2Y2B4I5
_symmetry_space_group_name_H-M   'P 1'
_cell_length_a   9.82834837
_cell_length_b   9.82834816
_cell_length_c   9.79512793
_cell_angle_alpha   75.41630528
_cell_angle_beta   75.41630623
_cell_angle_gamma   25.41253526
_symmetry_Int_Tables_number   1
_chemical_formula_structural   La2Y2B4I5
_chemical_formula_sum   'La2 Y2 B4 I5'
_cell_volume   392.27561410
_cell_formula_units_Z   1
loop_
 _symmetry_equiv_pos_site_id
 _symmetry_equiv_pos_as_xyz
  1  'x, y, z'
loop_
 _atom_site_type_symbol
 _atom_site_label
 _atom_site_symmetry_multiplicity
 _atom_site_fract_x
 _atom_site_fract_y
 _atom_site_fract_z
 _atom_site_occupancy
  La  La0  1  0.135608  0.135608  0.930375  1
  La  La1  1  0.866107  0.866107  0.068378  1
  Y  Y2  1  0.503453  0.503453  0.754182  1
  Y  Y3  1  0.498405  0.498405  0.244728  1
  B  B4  1  0.315808  0.685892  0.999516  1
  B  B5  1  0.685892  0.315808  0.999516  1
  B  B6  1  0.000792  0.000792  0.096992  1
  B  B7  1  0.000897  0.000897  0.902012  1
  I  I8  1  0.671373  0.671373  0.665330  1
  I  I9  1  0.330533  0.330533  0.333632  1
  I  I10  1  0.330797  0.330797  0.833062  1
  I  I11  1  0.671366  0.671366  0.164785  1
  I  I12  1  0.003269  0.003269  0.497692  1
