# generated using pymatgen
data_Zr6CBr15
_symmetry_space_group_name_H-M   'P 1'
_cell_length_a   9.27534149
_cell_length_b   9.27534297
_cell_length_c   9.27534200
_cell_angle_alpha   109.47121415
_cell_angle_beta   109.47121737
_cell_angle_gamma   109.47122685
_symmetry_Int_Tables_number   1
_chemical_formula_structural   Zr6CBr15
_chemical_formula_sum   'Zr6 C1 Br15'
_cell_volume   614.28222055
_cell_formula_units_Z   1
loop_
 _symmetry_equiv_pos_site_id
 _symmetry_equiv_pos_as_xyz
  1  'x, y, z'
loop_
 _atom_site_type_symbol
 _atom_site_label
 _atom_site_symmetry_multiplicity
 _atom_site_fract_x
 _atom_site_fract_y
 _atom_site_fract_z
 _atom_site_occupancy
  Zr  Zr0  1  0.219879  0.000000  0.219879  1
  Zr  Zr1  1  0.219879  0.219879  0.000000  1
  Zr  Zr2  1  0.780121  0.000000  0.780121  1
  Zr  Zr3  1  0.000000  0.219879  0.219879  1
  Zr  Zr4  1  0.000000  0.780121  0.780121  1
  Zr  Zr5  1  0.780121  0.780121  0.000000  1
  C  C6  1  0.000000  0.000000  0.000000  1
  Br  Br7  1  0.000000  0.751860  0.248140  1
  Br  Br8  1  0.248140  0.751860  0.000000  1
  Br  Br9  1  0.503720  0.751860  0.751860  1
  Br  Br10  1  0.000000  0.248140  0.751860  1
  Br  Br11  1  0.751860  0.000000  0.248140  1
  Br  Br12  1  0.248140  0.496280  0.248140  1
  Br  Br13  1  0.751860  0.248140  0.000000  1
  Br  Br14  1  0.500000  0.500000  0.000000  1
  Br  Br15  1  0.248140  0.248140  0.496280  1
  Br  Br16  1  0.751860  0.503720  0.751860  1
  Br  Br17  1  0.751860  0.751860  0.503720  1
  Br  Br18  1  0.496280  0.248140  0.248140  1
  Br  Br19  1  0.248140  0.000000  0.751860  1
  Br  Br20  1  0.000000  0.500000  0.500000  1
  Br  Br21  1  0.500000  0.000000  0.500000  1
