# generated using pymatgen
data_NdSm3Co8(PRu)12
_symmetry_space_group_name_H-M   'P 1'
_cell_length_a   3.80800600
_cell_length_b   10.67896807
_cell_length_c   12.19168408
_cell_angle_alpha   89.98724201
_cell_angle_beta   90.00000000
_cell_angle_gamma   90.00000000
_symmetry_Int_Tables_number   1
_chemical_formula_structural   NdSm3Co8(PRu)12
_chemical_formula_sum   'Nd1 Sm3 Co8 P12 Ru12'
_cell_volume   495.78182440
_cell_formula_units_Z   1
loop_
 _symmetry_equiv_pos_site_id
 _symmetry_equiv_pos_as_xyz
  1  'x, y, z'
loop_
 _atom_site_type_symbol
 _atom_site_label
 _atom_site_symmetry_multiplicity
 _atom_site_fract_x
 _atom_site_fract_y
 _atom_site_fract_z
 _atom_site_occupancy
  Nd  Nd0  1  0.750000  0.084237  0.793219  1
  Sm  Sm1  1  0.250000  0.584265  0.706610  1
  Sm  Sm2  1  0.250000  0.915573  0.206758  1
  Sm  Sm3  1  0.750000  0.415799  0.293338  1
  Co  Co4  1  0.250000  0.886346  0.694132  1
  Co  Co5  1  0.250000  0.612831  0.194817  1
  Co  Co6  1  0.750000  0.112825  0.305050  1
  Co  Co7  1  0.750000  0.387633  0.805388  1
  Co  Co8  1  0.250000  0.463468  0.935638  1
  Co  Co9  1  0.250000  0.036862  0.434892  1
  Co  Co10  1  0.750000  0.537029  0.064682  1
  Co  Co11  1  0.750000  0.962748  0.563907  1
  P  P12  1  0.250000  0.425668  0.111450  1
  P  P13  1  0.250000  0.074684  0.610165  1
  P  P14  1  0.750000  0.574477  0.888746  1
  P  P15  1  0.750000  0.925381  0.388345  1
  P  P16  1  0.250000  0.274731  0.871726  1
  P  P17  1  0.250000  0.226449  0.371216  1
  P  P18  1  0.750000  0.726175  0.128937  1
  P  P19  1  0.750000  0.773609  0.628773  1
  P  P20  1  0.250000  0.603085  0.388004  1
  P  P21  1  0.250000  0.895850  0.888757  1
  P  P22  1  0.750000  0.397051  0.611883  1
  P  P23  1  0.750000  0.102976  0.112036  1
  Ru  Ru24  1  0.250000  0.705246  0.986321  1
  Ru  Ru25  1  0.250000  0.794306  0.485865  1
  Ru  Ru26  1  0.750000  0.294634  0.014156  1
  Ru  Ru27  1  0.750000  0.205641  0.513869  1
  Ru  Ru28  1  0.250000  0.404942  0.486382  1
  Ru  Ru29  1  0.250000  0.095146  0.987836  1
  Ru  Ru30  1  0.750000  0.595178  0.513360  1
  Ru  Ru31  1  0.750000  0.904334  0.013671  1
  Ru  Ru32  1  0.250000  0.223335  0.180031  1
  Ru  Ru33  1  0.250000  0.278039  0.679485  1
  Ru  Ru34  1  0.750000  0.776533  0.820330  1
  Ru  Ru35  1  0.750000  0.722913  0.320223  1
