# generated using pymatgen
data_LiPr4Sc5Si8
_symmetry_space_group_name_H-M   'P 1'
_cell_length_a   7.18118900
_cell_length_b   7.57508600
_cell_length_c   14.27150100
_cell_angle_alpha   90.00000000
_cell_angle_beta   90.00000000
_cell_angle_gamma   90.00000000
_symmetry_Int_Tables_number   1
_chemical_formula_structural   LiPr4Sc5Si8
_chemical_formula_sum   'Li2 Pr8 Sc10 Si16'
_cell_volume   776.34288474
_cell_formula_units_Z   2
loop_
 _symmetry_equiv_pos_site_id
 _symmetry_equiv_pos_as_xyz
  1  'x, y, z'
loop_
 _atom_site_type_symbol
 _atom_site_label
 _atom_site_symmetry_multiplicity
 _atom_site_fract_x
 _atom_site_fract_y
 _atom_site_fract_z
 _atom_site_occupancy
  Li  Li0  1  0.655111  0.003420  0.750000  1
  Li  Li1  1  0.844889  0.503420  0.250000  1
  Pr  Pr2  1  0.009749  0.181370  0.400205  1
  Pr  Pr3  1  0.519048  0.328692  0.398809  1
  Pr  Pr4  1  0.490251  0.681370  0.900205  1
  Pr  Pr5  1  0.490251  0.681370  0.599795  1
  Pr  Pr6  1  0.980952  0.828692  0.601191  1
  Pr  Pr7  1  0.980952  0.828692  0.898809  1
  Pr  Pr8  1  0.519048  0.328692  0.101191  1
  Pr  Pr9  1  0.009749  0.181370  0.099795  1
  Sc  Sc10  1  0.335123  0.172867  0.625619  1
  Sc  Sc11  1  0.673785  0.815444  0.374048  1
  Sc  Sc12  1  0.164877  0.672867  0.374381  1
  Sc  Sc13  1  0.826215  0.315444  0.874048  1
  Sc  Sc14  1  0.826215  0.315444  0.625952  1
  Sc  Sc15  1  0.340620  0.996541  0.250000  1
  Sc  Sc16  1  0.335123  0.172867  0.874381  1
  Sc  Sc17  1  0.164877  0.672867  0.125619  1
  Sc  Sc18  1  0.673785  0.815444  0.125952  1
  Sc  Sc19  1  0.159380  0.496541  0.750000  1
  Si  Si20  1  0.280522  0.886094  0.750000  1
  Si  Si21  1  0.459309  0.623427  0.250000  1
  Si  Si22  1  0.040691  0.123427  0.750000  1
  Si  Si23  1  0.531127  0.384258  0.750000  1
  Si  Si24  1  0.153010  0.465415  0.540569  1
  Si  Si25  1  0.968873  0.884258  0.250000  1
  Si  Si26  1  0.709617  0.098917  0.250000  1
  Si  Si27  1  0.849050  0.539883  0.031791  1
  Si  Si28  1  0.346990  0.965415  0.040569  1
  Si  Si29  1  0.153010  0.465415  0.959431  1
  Si  Si30  1  0.650950  0.039883  0.531791  1
  Si  Si31  1  0.346990  0.965415  0.459431  1
  Si  Si32  1  0.849050  0.539883  0.468209  1
  Si  Si33  1  0.790383  0.598917  0.750000  1
  Si  Si34  1  0.219478  0.386094  0.250000  1
  Si  Si35  1  0.650950  0.039883  0.968209  1
