# generated using pymatgen
data_Sr4Ho5Tm2LuSe16
_symmetry_space_group_name_H-M   'P 1'
_cell_length_a   4.12132500
_cell_length_b   12.62867018
_cell_length_c   14.90452400
_cell_angle_alpha   89.93746478
_cell_angle_beta   90.00000000
_cell_angle_gamma   90.00000000
_symmetry_Int_Tables_number   1
_chemical_formula_structural   Sr4Ho5Tm2LuSe16
_chemical_formula_sum   'Sr4 Ho5 Tm2 Lu1 Se16'
_cell_volume   775.73312492
_cell_formula_units_Z   1
loop_
 _symmetry_equiv_pos_site_id
 _symmetry_equiv_pos_as_xyz
  1  'x, y, z'
loop_
 _atom_site_type_symbol
 _atom_site_label
 _atom_site_symmetry_multiplicity
 _atom_site_fract_x
 _atom_site_fract_y
 _atom_site_fract_z
 _atom_site_occupancy
  Sr  Sr0  1  0.250000  0.759106  0.335260  1
  Sr  Sr1  1  0.250000  0.258064  0.166126  1
  Sr  Sr2  1  0.750000  0.240727  0.663768  1
  Sr  Sr3  1  0.750000  0.740641  0.834836  1
  Ho  Ho4  1  0.250000  0.437189  0.388340  1
  Ho  Ho5  1  0.250000  0.937194  0.111533  1
  Ho  Ho6  1  0.750000  0.563611  0.610694  1
  Ho  Ho7  1  0.750000  0.061959  0.887748  1
  Ho  Ho8  1  0.250000  0.417682  0.903200  1
  Tm  Tm9  1  0.750000  0.582817  0.098353  1
  Tm  Tm10  1  0.750000  0.081557  0.402534  1
  Lu  Lu11  1  0.250000  0.918157  0.597185  1
  Se  Se12  1  0.250000  0.205799  0.826947  1
  Se  Se13  1  0.250000  0.708050  0.670617  1
  Se  Se14  1  0.750000  0.793202  0.172150  1
  Se  Se15  1  0.750000  0.292543  0.329215  1
  Se  Se16  1  0.250000  0.127169  0.528959  1
  Se  Se17  1  0.250000  0.629479  0.972369  1
  Se  Se18  1  0.750000  0.872256  0.471306  1
  Se  Se19  1  0.750000  0.372203  0.031653  1
  Se  Se20  1  0.250000  0.027086  0.285630  1
  Se  Se21  1  0.250000  0.527576  0.214849  1
  Se  Se22  1  0.750000  0.971929  0.713142  1
  Se  Se23  1  0.750000  0.474156  0.784932  1
  Se  Se24  1  0.250000  0.410626  0.577083  1
  Se  Se25  1  0.250000  0.910044  0.922596  1
  Se  Se26  1  0.750000  0.589642  0.422133  1
  Se  Se27  1  0.750000  0.089535  0.076846  1
