# generated using pymatgen
data_Tm2NiGeSe
_symmetry_space_group_name_H-M   'P 1'
_cell_length_a   4.08332000
_cell_length_b   4.08332099
_cell_length_c   14.16206600
_cell_angle_alpha   90.00000000
_cell_angle_beta   90.00000000
_cell_angle_gamma   119.99999194
_symmetry_Int_Tables_number   1
_chemical_formula_structural   Tm2NiGeSe
_chemical_formula_sum   'Tm4 Ni2 Ge2 Se2'
_cell_volume   204.49571794
_cell_formula_units_Z   2
loop_
 _symmetry_equiv_pos_site_id
 _symmetry_equiv_pos_as_xyz
  1  'x, y, z'
loop_
 _atom_site_type_symbol
 _atom_site_label
 _atom_site_symmetry_multiplicity
 _atom_site_fract_x
 _atom_site_fract_y
 _atom_site_fract_z
 _atom_site_occupancy
  Tm  Tm0  1  0.333333  0.666667  0.873785  1
  Tm  Tm1  1  0.666667  0.333333  0.373785  1
  Tm  Tm2  1  0.666667  0.333333  0.126215  1
  Tm  Tm3  1  0.333333  0.666667  0.626215  1
  Ni  Ni4  1  0.000000  0.000000  0.750000  1
  Ni  Ni5  1  0.000000  0.000000  0.250000  1
  Ge  Ge6  1  0.333333  0.666667  0.250000  1
  Ge  Ge7  1  0.666667  0.333333  0.750000  1
  Se  Se8  1  0.000000  0.000000  0.000000  1
  Se  Se9  1  0.000000  0.000000  0.500000  1
