# generated using pymatgen
data_Yb5SnBi2
_symmetry_space_group_name_H-M   'P 1'
_cell_length_a   9.29655989
_cell_length_b   6.94443800
_cell_length_c   9.30408201
_cell_angle_alpha   90.00000000
_cell_angle_beta   119.97326178
_cell_angle_gamma   90.00000000
_symmetry_Int_Tables_number   1
_chemical_formula_structural   Yb5SnBi2
_chemical_formula_sum   'Yb10 Sn2 Bi4'
_cell_volume   520.33194279
_cell_formula_units_Z   2
loop_
 _symmetry_equiv_pos_site_id
 _symmetry_equiv_pos_as_xyz
  1  'x, y, z'
loop_
 _atom_site_type_symbol
 _atom_site_label
 _atom_site_symmetry_multiplicity
 _atom_site_fract_x
 _atom_site_fract_y
 _atom_site_fract_z
 _atom_site_occupancy
  Yb  Yb0  1  0.271987  0.000000  0.000000  1
  Yb  Yb1  1  0.728013  0.500000  0.000000  1
  Yb  Yb2  1  0.992696  0.000000  0.264742  1
  Yb  Yb3  1  0.272046  0.500000  0.264742  1
  Yb  Yb4  1  0.663199  0.250000  0.326400  1
  Yb  Yb5  1  0.663199  0.750000  0.326400  1
  Yb  Yb6  1  0.336800  0.250000  0.673600  1
  Yb  Yb7  1  0.336800  0.750000  0.673600  1
  Yb  Yb8  1  0.007304  0.500000  0.735258  1
  Yb  Yb9  1  0.727954  0.000000  0.735258  1
  Sn  Sn10  1  0.613080  0.000000  0.000000  1
  Sn  Sn11  1  0.386920  0.500000  0.000000  1
  Bi  Bi12  1  0.376939  0.000000  0.379969  1
  Bi  Bi13  1  0.003030  0.500000  0.379970  1
  Bi  Bi14  1  0.623059  0.500000  0.620030  1
  Bi  Bi15  1  0.996970  0.000000  0.620031  1
