# generated using pymatgen
data_RbCu(BrO3)4
_symmetry_space_group_name_H-M   'P 1'
_cell_length_a   5.82332400
_cell_length_b   7.54957380
_cell_length_c   8.51167317
_cell_angle_alpha   109.40117064
_cell_angle_beta   90.00000000
_cell_angle_gamma   112.68547975
_symmetry_Int_Tables_number   1
_chemical_formula_structural   RbCu(BrO3)4
_chemical_formula_sum   'Rb1 Cu1 Br4 O12'
_cell_volume   322.10092156
_cell_formula_units_Z   1
loop_
 _symmetry_equiv_pos_site_id
 _symmetry_equiv_pos_as_xyz
  1  'x, y, z'
loop_
 _atom_site_type_symbol
 _atom_site_label
 _atom_site_symmetry_multiplicity
 _atom_site_fract_x
 _atom_site_fract_y
 _atom_site_fract_z
 _atom_site_occupancy
  Rb  Rb0  1  0.948104  0.000000  0.000000  1
  Cu  Cu1  1  0.756608  0.000000  0.500000  1
  Br  Br2  1  0.743227  0.362185  0.831548  1
  Br  Br3  1  0.381041  0.637815  0.168452  1
  Br  Br4  1  0.335725  0.728012  0.643679  1
  Br  Br5  1  0.607713  0.271988  0.356321  1
  O  O6  1  0.876886  0.182674  0.719989  1
  O  O7  1  0.694212  0.817326  0.280011  1
  O  O8  1  0.913622  0.577377  0.800594  1
  O  O9  1  0.336245  0.422623  0.199406  1
  O  O10  1  0.850461  0.390306  0.023005  1
  O  O11  1  0.460156  0.609694  0.976995  1
  O  O12  1  0.370407  0.939560  0.803725  1
  O  O13  1  0.430847  0.060440  0.196275  1
  O  O14  1  0.166385  0.717691  0.481703  1
  O  O15  1  0.448695  0.282309  0.518298  1
  O  O16  1  0.643514  0.782693  0.581736  1
  O  O17  1  0.860821  0.217307  0.418264  1
