# generated using pymatgen
data_Ac2SnPt9
_symmetry_space_group_name_H-M   'P 1'
_cell_length_a   5.54949743
_cell_length_b   5.54949752
_cell_length_c   8.97532200
_cell_angle_alpha   90.00000000
_cell_angle_beta   90.00000000
_cell_angle_gamma   119.26734046
_symmetry_Int_Tables_number   1
_chemical_formula_structural   Ac2SnPt9
_chemical_formula_sum   'Ac2 Sn1 Pt9'
_cell_volume   241.12773566
_cell_formula_units_Z   1
loop_
 _symmetry_equiv_pos_site_id
 _symmetry_equiv_pos_as_xyz
  1  'x, y, z'
loop_
 _atom_site_type_symbol
 _atom_site_label
 _atom_site_symmetry_multiplicity
 _atom_site_fract_x
 _atom_site_fract_y
 _atom_site_fract_z
 _atom_site_occupancy
  Ac  Ac0  1  0.000000  0.000000  0.769192  1
  Ac  Ac1  1  0.000000  0.000000  0.230808  1
  Sn  Sn2  1  0.500000  0.500000  0.500000  1
  Pt  Pt3  1  0.669388  0.330612  0.750544  1
  Pt  Pt4  1  0.669388  0.330612  0.249456  1
  Pt  Pt5  1  0.500000  0.500000  0.000000  1
  Pt  Pt6  1  0.330612  0.669388  0.750544  1
  Pt  Pt7  1  0.500000  0.000000  0.500000  1
  Pt  Pt8  1  0.000000  0.500000  0.000000  1
  Pt  Pt9  1  0.500000  0.000000  0.000000  1
  Pt  Pt10  1  0.330612  0.669388  0.249456  1
  Pt  Pt11  1  0.000000  0.500000  0.500000  1
