# generated using pymatgen
data_Na2Pa(SnPt)3
_symmetry_space_group_name_H-M   'P 1'
_cell_length_a   7.51999087
_cell_length_b   7.51999118
_cell_length_c   3.98831900
_cell_angle_alpha   90.00000000
_cell_angle_beta   90.00000000
_cell_angle_gamma   118.92422152
_symmetry_Int_Tables_number   1
_chemical_formula_structural   Na2Pa(SnPt)3
_chemical_formula_sum   'Na2 Pa1 Sn3 Pt3'
_cell_volume   197.40660722
_cell_formula_units_Z   1
loop_
 _symmetry_equiv_pos_site_id
 _symmetry_equiv_pos_as_xyz
  1  'x, y, z'
loop_
 _atom_site_type_symbol
 _atom_site_label
 _atom_site_symmetry_multiplicity
 _atom_site_fract_x
 _atom_site_fract_y
 _atom_site_fract_z
 _atom_site_occupancy
  Na  Na0  1  0.997450  0.597931  0.000000  1
  Na  Na1  1  0.597931  0.997450  0.000000  1
  Pa  Pa2  1  0.412904  0.412904  0.000000  1
  Sn  Sn3  1  0.760411  0.760411  0.500000  1
  Sn  Sn4  1  0.974695  0.262951  0.500000  1
  Sn  Sn5  1  0.262951  0.974695  0.500000  1
  Pt  Pt6  1  0.029428  0.029428  0.000000  1
  Pt  Pt7  1  0.630310  0.333919  0.500000  1
  Pt  Pt8  1  0.333919  0.630310  0.500000  1
