# generated using pymatgen
data_NaAs12Ru3Pt
_symmetry_space_group_name_H-M   'P 1'
_cell_length_a   7.46678036
_cell_length_b   7.46677969
_cell_length_c   7.46678083
_cell_angle_alpha   109.40857151
_cell_angle_beta   109.40857532
_cell_angle_gamma   109.40857422
_symmetry_Int_Tables_number   1
_chemical_formula_structural   NaAs12Ru3Pt
_chemical_formula_sum   'Na1 As12 Ru3 Pt1'
_cell_volume   321.20439124
_cell_formula_units_Z   1
loop_
 _symmetry_equiv_pos_site_id
 _symmetry_equiv_pos_as_xyz
  1  'x, y, z'
loop_
 _atom_site_type_symbol
 _atom_site_label
 _atom_site_symmetry_multiplicity
 _atom_site_fract_x
 _atom_site_fract_y
 _atom_site_fract_z
 _atom_site_occupancy
  Na  Na0  1  0.000000  0.000000  0.000000  1
  As  As1  1  0.859614  0.652478  0.501554  1
  As  As2  1  0.140386  0.347522  0.498446  1
  As  As3  1  0.149474  0.651804  0.800759  1
  As  As4  1  0.850526  0.348196  0.199241  1
  As  As5  1  0.652478  0.501554  0.859614  1
  As  As6  1  0.347522  0.498446  0.140386  1
  As  As7  1  0.651804  0.800759  0.149474  1
  As  As8  1  0.348196  0.199241  0.850526  1
  As  As9  1  0.501554  0.859614  0.652478  1
  As  As10  1  0.498446  0.140386  0.347522  1
  As  As11  1  0.199241  0.850526  0.348196  1
  As  As12  1  0.800759  0.149474  0.651804  1
  Ru  Ru13  1  0.500000  0.000000  0.000000  1
  Ru  Ru14  1  0.000000  0.500000  0.000000  1
  Ru  Ru15  1  0.000000  0.000000  0.500000  1
  Pt  Pt16  1  0.500000  0.500000  0.500000  1
