# generated using pymatgen
data_Ta4CrGeB2
_symmetry_space_group_name_H-M   'P 1'
_cell_length_a   7.23547615
_cell_length_b   7.23547615
_cell_length_c   7.23547588
_cell_angle_alpha   130.08275960
_cell_angle_beta   130.08276076
_cell_angle_gamma   73.27450044
_symmetry_Int_Tables_number   1
_chemical_formula_structural   Ta4CrGeB2
_chemical_formula_sum   'Ta8 Cr2 Ge2 B4'
_cell_volume   216.48025043
_cell_formula_units_Z   2
loop_
 _symmetry_equiv_pos_site_id
 _symmetry_equiv_pos_as_xyz
  1  'x, y, z'
loop_
 _atom_site_type_symbol
 _atom_site_label
 _atom_site_symmetry_multiplicity
 _atom_site_fract_x
 _atom_site_fract_y
 _atom_site_fract_z
 _atom_site_occupancy
  Ta  Ta0  1  0.532720  0.697061  0.500000  1
  Ta  Ta1  1  0.197061  0.032720  0.500000  1
  Ta  Ta2  1  0.032720  0.532720  0.835659  1
  Ta  Ta3  1  0.697061  0.197061  0.164341  1
  Ta  Ta4  1  0.467280  0.302939  0.500000  1
  Ta  Ta5  1  0.802939  0.967280  0.500000  1
  Ta  Ta6  1  0.967280  0.467280  0.164341  1
  Ta  Ta7  1  0.302939  0.802939  0.835659  1
  Cr  Cr8  1  0.500000  0.500000  0.000000  1
  Cr  Cr9  1  0.000000  0.000000  0.000000  1
  Ge  Ge10  1  0.250000  0.250000  0.000000  1
  Ge  Ge11  1  0.750000  0.750000  0.000000  1
  B  B12  1  0.876286  0.623714  0.500000  1
  B  B13  1  0.123714  0.376286  0.500000  1
  B  B14  1  0.376286  0.876286  0.252572  1
  B  B15  1  0.623714  0.123714  0.747428  1
