# generated using pymatgen
data_Ti3Al2CuC
_symmetry_space_group_name_H-M   'P 1'
_cell_length_a   8.15963681
_cell_length_b   8.15963718
_cell_length_c   8.15963700
_cell_angle_alpha   60.00000480
_cell_angle_beta   60.00000329
_cell_angle_gamma   59.99999902
_symmetry_Int_Tables_number   1
_chemical_formula_structural   Ti3Al2CuC
_chemical_formula_sum   'Ti12 Al8 Cu4 C4'
_cell_volume   384.14708429
_cell_formula_units_Z   4
loop_
 _symmetry_equiv_pos_site_id
 _symmetry_equiv_pos_as_xyz
  1  'x, y, z'
loop_
 _atom_site_type_symbol
 _atom_site_label
 _atom_site_symmetry_multiplicity
 _atom_site_fract_x
 _atom_site_fract_y
 _atom_site_fract_z
 _atom_site_occupancy
  Ti  Ti0  1  0.934959  0.934959  0.565041  1
  Ti  Ti1  1  0.684959  0.315041  0.315041  1
  Ti  Ti2  1  0.315041  0.684959  0.684959  1
  Ti  Ti3  1  0.684959  0.684959  0.315041  1
  Ti  Ti4  1  0.684959  0.315041  0.684959  1
  Ti  Ti5  1  0.315041  0.684959  0.315041  1
  Ti  Ti6  1  0.565041  0.934959  0.565041  1
  Ti  Ti7  1  0.565041  0.934959  0.934959  1
  Ti  Ti8  1  0.934959  0.565041  0.565041  1
  Ti  Ti9  1  0.934959  0.565041  0.934959  1
  Ti  Ti10  1  0.315041  0.315041  0.684959  1
  Ti  Ti11  1  0.565041  0.565041  0.934959  1
  Al  Al12  1  0.916195  0.251415  0.916195  1
  Al  Al13  1  0.333805  0.333805  0.998585  1
  Al  Al14  1  0.998585  0.333805  0.333805  1
  Al  Al15  1  0.333805  0.333805  0.333805  1
  Al  Al16  1  0.251415  0.916195  0.916195  1
  Al  Al17  1  0.916195  0.916195  0.916195  1
  Al  Al18  1  0.916195  0.916195  0.251415  1
  Al  Al19  1  0.333805  0.998585  0.333805  1
  Cu  Cu20  1  0.125000  0.625000  0.125000  1
  Cu  Cu21  1  0.125000  0.125000  0.625000  1
  Cu  Cu22  1  0.625000  0.125000  0.125000  1
  Cu  Cu23  1  0.125000  0.125000  0.125000  1
  C  C24  1  0.625000  0.125000  0.625000  1
  C  C25  1  0.625000  0.625000  0.125000  1
  C  C26  1  0.125000  0.625000  0.625000  1
  C  C27  1  0.625000  0.625000  0.625000  1
