# generated using pymatgen
data_Ho5Cd2(HgPt)2
_symmetry_space_group_name_H-M   'P 1'
_cell_length_a   3.64805200
_cell_length_b   7.91517700
_cell_length_c   18.24925600
_cell_angle_alpha   90.00000000
_cell_angle_beta   90.00000000
_cell_angle_gamma   90.00000000
_symmetry_Int_Tables_number   1
_chemical_formula_structural   Ho5Cd2(HgPt)2
_chemical_formula_sum   'Ho10 Cd4 Hg4 Pt4'
_cell_volume   526.94685247
_cell_formula_units_Z   2
loop_
 _symmetry_equiv_pos_site_id
 _symmetry_equiv_pos_as_xyz
  1  'x, y, z'
loop_
 _atom_site_type_symbol
 _atom_site_label
 _atom_site_symmetry_multiplicity
 _atom_site_fract_x
 _atom_site_fract_y
 _atom_site_fract_z
 _atom_site_occupancy
  Ho  Ho0  1  0.000000  0.111809  0.414654  1
  Ho  Ho1  1  0.000000  0.888191  0.585346  1
  Ho  Ho2  1  0.000000  0.388191  0.914654  1
  Ho  Ho3  1  0.000000  0.611809  0.085346  1
  Ho  Ho4  1  0.000000  0.241346  0.217518  1
  Ho  Ho5  1  0.000000  0.758654  0.782482  1
  Ho  Ho6  1  0.000000  0.258654  0.717518  1
  Ho  Ho7  1  0.000000  0.741346  0.282482  1
  Ho  Ho8  1  0.000000  0.000000  0.000000  1
  Ho  Ho9  1  0.000000  0.500000  0.500000  1
  Cd  Cd10  1  0.500000  0.424754  0.352789  1
  Cd  Cd11  1  0.500000  0.575246  0.647211  1
  Cd  Cd12  1  0.500000  0.075246  0.852789  1
  Cd  Cd13  1  0.500000  0.924754  0.147211  1
  Hg  Hg14  1  0.500000  0.285622  0.063703  1
  Hg  Hg15  1  0.500000  0.714378  0.936297  1
  Hg  Hg16  1  0.500000  0.214378  0.563703  1
  Hg  Hg17  1  0.500000  0.785622  0.436297  1
  Pt  Pt18  1  0.500000  0.029689  0.302987  1
  Pt  Pt19  1  0.500000  0.970311  0.697013  1
  Pt  Pt20  1  0.500000  0.470311  0.802987  1
  Pt  Pt21  1  0.500000  0.529689  0.197013  1
