# generated using pymatgen
data_CsPr6Sm4(C2Br9)2
_symmetry_space_group_name_H-M   'P 1'
_cell_length_a   11.00380540
_cell_length_b   11.07741347
_cell_length_c   11.26996556
_cell_angle_alpha   112.87607932
_cell_angle_beta   87.94798215
_cell_angle_gamma   118.50285553
_symmetry_Int_Tables_number   1
_chemical_formula_structural   CsPr6Sm4(C2Br9)2
_chemical_formula_sum   'Cs1 Pr6 Sm4 C4 Br18'
_cell_volume   1093.10364032
_cell_formula_units_Z   1
loop_
 _symmetry_equiv_pos_site_id
 _symmetry_equiv_pos_as_xyz
  1  'x, y, z'
loop_
 _atom_site_type_symbol
 _atom_site_label
 _atom_site_symmetry_multiplicity
 _atom_site_fract_x
 _atom_site_fract_y
 _atom_site_fract_z
 _atom_site_occupancy
  Cs  Cs0  1  0.499943  0.998762  0.499580  1
  Pr  Pr1  1  0.908695  0.584774  0.693831  1
  Pr  Pr2  1  0.116239  0.941816  0.001598  1
  Pr  Pr3  1  0.038404  0.962594  0.663456  1
  Pr  Pr4  1  0.346020  0.286456  0.303164  1
  Pr  Pr5  1  0.716061  0.630115  0.986603  1
  Pr  Pr6  1  0.883565  0.059889  0.999287  1
  Sm  Sm7  1  0.656748  0.714722  0.699186  1
  Sm  Sm8  1  0.279614  0.365842  0.015377  1
  Sm  Sm9  1  0.093793  0.411300  0.303778  1
  Sm  Sm10  1  0.963026  0.038933  0.332064  1
  C  C11  1  0.156334  0.232093  0.129215  1
  C  C12  1  0.840906  0.768361  0.870016  1
  C  C13  1  0.915532  0.844875  0.793278  1
  C  C14  1  0.081512  0.155391  0.206068  1
  Br  Br15  1  0.449313  0.530327  0.829702  1
  Br  Br16  1  0.388172  0.036293  0.162898  1
  Br  Br17  1  0.770582  0.856486  0.500686  1
  Br  Br18  1  0.839018  0.318359  0.159866  1
  Br  Br19  1  0.545910  0.469041  0.167049  1
  Br  Br20  1  0.223587  0.141967  0.496696  1
  Br  Br21  1  0.314861  0.104754  0.835573  1
  Br  Br22  1  0.689377  0.903243  0.171586  1
  Br  Br23  1  0.979315  0.766766  0.176123  1
  Br  Br24  1  0.932163  0.297826  0.496702  1
  Br  Br25  1  0.025294  0.241450  0.830420  1
  Br  Br26  1  0.071886  0.697572  0.496508  1
  Br  Br27  1  0.261611  0.623330  0.189970  1
  Br  Br28  1  0.735711  0.367625  0.807857  1
  Br  Br29  1  0.636181  0.433284  0.500003  1
  Br  Br30  1  0.167525  0.686455  0.845306  1
  Br  Br31  1  0.611969  0.957844  0.833985  1
  Br  Br32  1  0.361131  0.571454  0.502569  1
