# generated using pymatgen
data_Pr8Nd2InSi5
_symmetry_space_group_name_H-M   'P 1'
_cell_length_a   7.83677220
_cell_length_b   7.83677219
_cell_length_c   9.24987178
_cell_angle_alpha   115.06304597
_cell_angle_beta   115.06304265
_cell_angle_gamma   90.00000086
_symmetry_Int_Tables_number   1
_chemical_formula_structural   Pr8Nd2InSi5
_chemical_formula_sum   'Pr8 Nd2 In1 Si5'
_cell_volume   454.85516327
_cell_formula_units_Z   1
loop_
 _symmetry_equiv_pos_site_id
 _symmetry_equiv_pos_as_xyz
  1  'x, y, z'
loop_
 _atom_site_type_symbol
 _atom_site_label
 _atom_site_symmetry_multiplicity
 _atom_site_fract_x
 _atom_site_fract_y
 _atom_site_fract_z
 _atom_site_occupancy
  Pr  Pr0  1  0.976970  0.829676  0.279697  1
  Pr  Pr1  1  0.302728  0.450021  0.279697  1
  Pr  Pr2  1  0.829676  0.302728  0.279697  1
  Pr  Pr3  1  0.450021  0.976970  0.279697  1
  Pr  Pr4  1  0.049979  0.197272  0.720303  1
  Pr  Pr5  1  0.670324  0.523030  0.720303  1
  Pr  Pr6  1  0.197272  0.670324  0.720303  1
  Pr  Pr7  1  0.523030  0.049979  0.720303  1
  Nd  Nd8  1  0.525659  0.525659  0.051320  1
  Nd  Nd9  1  0.974341  0.974341  0.948680  1
  In  In10  1  0.750000  0.750000  0.500000  1
  Si  Si11  1  0.250000  0.250000  0.500000  1
  Si  Si12  1  0.615019  0.884981  0.000000  1
  Si  Si13  1  0.384981  0.115019  0.000000  1
  Si  Si14  1  0.884981  0.384981  0.000000  1
  Si  Si15  1  0.115019  0.615019  0.000000  1
