# generated using pymatgen
data_Ca4TaMn2ReO12
_symmetry_space_group_name_H-M   'P 1'
_cell_length_a   5.74912025
_cell_length_b   5.53020627
_cell_length_c   9.63973337
_cell_angle_alpha   54.95606474
_cell_angle_beta   90.10471412
_cell_angle_gamma   90.01890719
_symmetry_Int_Tables_number   1
_chemical_formula_structural   Ca4TaMn2ReO12
_chemical_formula_sum   'Ca4 Ta1 Mn2 Re1 O12'
_cell_volume   250.92156923
_cell_formula_units_Z   1
loop_
 _symmetry_equiv_pos_site_id
 _symmetry_equiv_pos_as_xyz
  1  'x, y, z'
loop_
 _atom_site_type_symbol
 _atom_site_label
 _atom_site_symmetry_multiplicity
 _atom_site_fract_x
 _atom_site_fract_y
 _atom_site_fract_z
 _atom_site_occupancy
  Ca  Ca0  1  0.558606  0.240062  0.240641  1
  Ca  Ca1  1  0.055177  0.773944  0.234713  1
  Ca  Ca2  1  0.944823  0.226056  0.765287  1
  Ca  Ca3  1  0.441394  0.759938  0.759359  1
  Ta  Ta4  1  0.000000  0.500000  0.000000  1
  Mn  Mn5  1  0.500000  0.000000  0.000000  1
  Mn  Mn6  1  0.000000  0.000000  0.500000  1
  Re  Re7  1  0.500000  0.500000  0.500000  1
  O  O8  1  0.539983  0.380761  0.727647  1
  O  O9  1  0.041026  0.643682  0.755545  1
  O  O10  1  0.460017  0.619239  0.272353  1
  O  O11  1  0.958974  0.356318  0.244455  1
  O  O12  1  0.776366  0.733599  0.437616  1
  O  O13  1  0.287706  0.254002  0.057665  1
  O  O14  1  0.223634  0.266401  0.562384  1
  O  O15  1  0.712294  0.745998  0.942335  1
  O  O16  1  0.191988  0.840441  0.952779  1
  O  O17  1  0.680561  0.168092  0.552250  1
  O  O18  1  0.808012  0.159559  0.047221  1
  O  O19  1  0.319439  0.831908  0.447750  1
