# generated using pymatgen
data_Sr6CrFe3(WO9)2
_symmetry_space_group_name_H-M   'P 1'
_cell_length_a   9.76162942
_cell_length_b   9.76162974
_cell_length_c   5.61508763
_cell_angle_alpha   73.36514558
_cell_angle_beta   73.36514200
_cell_angle_gamma   48.63634981
_symmetry_Int_Tables_number   1
_chemical_formula_structural   Sr6CrFe3(WO9)2
_chemical_formula_sum   'Sr6 Cr1 Fe3 W2 O18'
_cell_volume   381.24783510
_cell_formula_units_Z   1
loop_
 _symmetry_equiv_pos_site_id
 _symmetry_equiv_pos_as_xyz
  1  'x, y, z'
loop_
 _atom_site_type_symbol
 _atom_site_label
 _atom_site_symmetry_multiplicity
 _atom_site_fract_x
 _atom_site_fract_y
 _atom_site_fract_z
 _atom_site_occupancy
  Sr  Sr0  1  0.918545  0.396989  0.844216  1
  Sr  Sr1  1  0.230044  0.769956  0.500000  1
  Sr  Sr2  1  0.603011  0.081455  0.155784  1
  Sr  Sr3  1  0.769956  0.230044  0.500000  1
  Sr  Sr4  1  0.081455  0.603011  0.155784  1
  Sr  Sr5  1  0.396989  0.918545  0.844216  1
  Cr  Cr6  1  0.000000  0.000000  0.000000  1
  Fe  Fe7  1  0.500000  0.500000  0.000000  1
  Fe  Fe8  1  0.835267  0.835267  0.665199  1
  Fe  Fe9  1  0.164733  0.164733  0.334801  1
  W  W10  1  0.332493  0.332493  0.665351  1
  W  W11  1  0.667507  0.667507  0.334649  1
  O  O12  1  0.426763  0.912246  0.330298  1
  O  O13  1  0.744878  0.255122  0.000000  1
  O  O14  1  0.087754  0.573237  0.669702  1
  O  O15  1  0.912246  0.426763  0.330298  1
  O  O16  1  0.255122  0.744878  0.000000  1
  O  O17  1  0.573237  0.087754  0.669702  1
  O  O18  1  0.076755  0.076755  0.198890  1
  O  O19  1  0.400386  0.400386  0.880213  1
  O  O20  1  0.733979  0.733979  0.552212  1
  O  O21  1  0.599614  0.599614  0.119787  1
  O  O22  1  0.923245  0.923245  0.801110  1
  O  O23  1  0.266021  0.266021  0.447788  1
  O  O24  1  0.573385  0.573385  0.628461  1
  O  O25  1  0.905811  0.905811  0.321518  1
  O  O26  1  0.239781  0.239781  0.963686  1
  O  O27  1  0.094189  0.094189  0.678482  1
  O  O28  1  0.426615  0.426615  0.371539  1
  O  O29  1  0.760219  0.760219  0.036314  1
