# generated using pymatgen
data_Er13Tm3InAg3Rh4
_symmetry_space_group_name_H-M   'P 1'
_cell_length_a   9.50230964
_cell_length_b   9.50523175
_cell_length_c   9.48452634
_cell_angle_alpha   59.81284731
_cell_angle_beta   59.83155101
_cell_angle_gamma   59.89904199
_symmetry_Int_Tables_number   1
_chemical_formula_structural   Er13Tm3InAg3Rh4
_chemical_formula_sum   'Er13 Tm3 In1 Ag3 Rh4'
_cell_volume   603.65590765
_cell_formula_units_Z   1
loop_
 _symmetry_equiv_pos_site_id
 _symmetry_equiv_pos_as_xyz
  1  'x, y, z'
loop_
 _atom_site_type_symbol
 _atom_site_label
 _atom_site_symmetry_multiplicity
 _atom_site_fract_x
 _atom_site_fract_y
 _atom_site_fract_z
 _atom_site_occupancy
  Er  Er0  1  0.063364  0.063015  0.438041  1
  Er  Er1  1  0.435593  0.061999  0.438520  1
  Er  Er2  1  0.061356  0.435453  0.068233  1
  Er  Er3  1  0.053109  0.647875  0.649383  1
  Er  Er4  1  0.435277  0.435722  0.067376  1
  Er  Er5  1  0.647843  0.052661  0.649774  1
  Er  Er6  1  0.188976  0.813304  0.187829  1
  Er  Er7  1  0.190050  0.189992  0.811354  1
  Er  Er8  1  0.812143  0.812258  0.188187  1
  Er  Er9  1  0.435058  0.061515  0.068417  1
  Er  Er10  1  0.812998  0.189266  0.188149  1
  Er  Er11  1  0.062239  0.435774  0.438212  1
  Er  Er12  1  0.809701  0.190425  0.811696  1
  Tm  Tm13  1  0.190511  0.809487  0.811922  1
  Tm  Tm14  1  0.648351  0.648666  0.052277  1
  Tm  Tm15  1  0.648541  0.648727  0.649580  1
  In  In16  1  0.420972  0.421051  0.738233  1
  Ag  Ag17  1  0.418098  0.418179  0.414544  1
  Ag  Ag18  1  0.749513  0.417556  0.414757  1
  Ag  Ag19  1  0.418041  0.749315  0.414814  1
  Rh  Rh20  1  0.855886  0.856030  0.429477  1
  Rh  Rh21  1  0.858087  0.857038  0.857104  1
  Rh  Rh22  1  0.428553  0.855640  0.855965  1
  Rh  Rh23  1  0.855741  0.429054  0.856157  1
