# generated using pymatgen
data_Rb2Re2OF10
_symmetry_space_group_name_H-M   'P 1'
_cell_length_a   5.29021200
_cell_length_b   7.57984627
_cell_length_c   13.63132535
_cell_angle_alpha   78.44869942
_cell_angle_beta   90.00000000
_cell_angle_gamma   90.00000000
_symmetry_Int_Tables_number   1
_chemical_formula_structural   Rb2Re2OF10
_chemical_formula_sum   'Rb4 Re4 O2 F20'
_cell_volume   535.53143727
_cell_formula_units_Z   2
loop_
 _symmetry_equiv_pos_site_id
 _symmetry_equiv_pos_as_xyz
  1  'x, y, z'
loop_
 _atom_site_type_symbol
 _atom_site_label
 _atom_site_symmetry_multiplicity
 _atom_site_fract_x
 _atom_site_fract_y
 _atom_site_fract_z
 _atom_site_occupancy
  Rb  Rb0  1  0.425111  0.227812  0.592477  1
  Rb  Rb1  1  0.574889  0.227812  0.092477  1
  Rb  Rb2  1  0.574889  0.772188  0.407523  1
  Rb  Rb3  1  0.425111  0.772188  0.907523  1
  Re  Re4  1  0.019186  0.289468  0.338209  1
  Re  Re5  1  0.980814  0.289468  0.838209  1
  Re  Re6  1  0.019186  0.710532  0.161791  1
  Re  Re7  1  0.980814  0.710532  0.661791  1
  O  O8  1  0.072829  0.500000  0.750000  1
  O  O9  1  0.927171  0.500000  0.250000  1
  F  F10  1  0.725081  0.850727  0.183668  1
  F  F11  1  0.679136  0.588031  0.627927  1
  F  F12  1  0.175779  0.793620  0.273028  1
  F  F13  1  0.836714  0.081193  0.923769  1
  F  F14  1  0.320864  0.411969  0.372073  1
  F  F15  1  0.163286  0.918807  0.076231  1
  F  F16  1  0.175779  0.206380  0.226972  1
  F  F17  1  0.274919  0.850727  0.683668  1
  F  F18  1  0.824221  0.206380  0.726972  1
  F  F19  1  0.679136  0.411969  0.872073  1
  F  F20  1  0.163286  0.081193  0.423769  1
  F  F21  1  0.143998  0.352606  0.954223  1
  F  F22  1  0.274919  0.149273  0.816332  1
  F  F23  1  0.856002  0.647394  0.045777  1
  F  F24  1  0.824221  0.793620  0.773028  1
  F  F25  1  0.725081  0.149273  0.316332  1
  F  F26  1  0.836714  0.918807  0.576231  1
  F  F27  1  0.856002  0.352606  0.454223  1
  F  F28  1  0.320864  0.588031  0.127927  1
  F  F29  1  0.143998  0.647394  0.545777  1
