# generated using pymatgen
data_Ho4ScTc4(P4Ir5)3
_symmetry_space_group_name_H-M   'P 1'
_cell_length_a   12.67377431
_cell_length_b   12.56825764
_cell_length_c   3.96662300
_cell_angle_alpha   90.00000000
_cell_angle_beta   90.00000000
_cell_angle_gamma   119.85754437
_symmetry_Int_Tables_number   1
_chemical_formula_structural   Ho4ScTc4(P4Ir5)3
_chemical_formula_sum   'Ho4 Sc1 Tc4 P12 Ir15'
_cell_volume   547.96678321
_cell_formula_units_Z   1
loop_
 _symmetry_equiv_pos_site_id
 _symmetry_equiv_pos_as_xyz
  1  'x, y, z'
loop_
 _atom_site_type_symbol
 _atom_site_label
 _atom_site_symmetry_multiplicity
 _atom_site_fract_x
 _atom_site_fract_y
 _atom_site_fract_z
 _atom_site_occupancy
  Ho  Ho0  1  0.331689  0.663590  0.000000  1
  Ho  Ho1  1  0.666780  0.333210  0.000000  1
  Ho  Ho2  1  0.819132  0.002246  0.500000  1
  Ho  Ho3  1  0.001191  0.818151  0.500000  1
  Sc  Sc4  1  0.185439  0.188021  0.500000  1
  Tc  Tc5  1  0.454330  0.999276  0.000000  1
  Tc  Tc6  1  0.995258  0.452389  0.000000  1
  Tc  Tc7  1  0.548363  0.543218  0.000000  1
  Tc  Tc8  1  0.177796  0.376135  0.000000  1
  P  P9  1  0.178383  0.003813  0.000000  1
  P  P10  1  0.006028  0.182996  0.000000  1
  P  P11  1  0.824499  0.826037  0.000000  1
  P  P12  1  0.171389  0.479144  0.500000  1
  P  P13  1  0.516365  0.683823  0.500000  1
  P  P14  1  0.313184  0.828577  0.500000  1
  P  P15  1  0.684246  0.515846  0.500000  1
  P  P16  1  0.830096  0.314618  0.500000  1
  P  P17  1  0.483604  0.167687  0.500000  1
  P  P18  1  0.637807  0.999122  0.000000  1
  P  P19  1  0.000733  0.638723  0.000000  1
  P  P20  1  0.356158  0.361890  0.000000  1
  Ir  Ir21  1  0.362947  0.489327  0.500000  1
  Ir  Ir22  1  0.507970  0.866053  0.500000  1
  Ir  Ir23  1  0.131008  0.638841  0.500000  1
  Ir  Ir24  1  0.866383  0.510186  0.500000  1
  Ir  Ir25  1  0.640588  0.130780  0.500000  1
  Ir  Ir26  1  0.492339  0.356064  0.500000  1
  Ir  Ir27  1  0.626887  0.805903  0.000000  1
  Ir  Ir28  1  0.194444  0.820769  0.000000  1
  Ir  Ir29  1  0.809102  0.630223  0.000000  1
  Ir  Ir30  1  0.816864  0.191924  0.000000  1
  Ir  Ir31  1  0.370856  0.180653  0.000000  1
  Ir  Ir32  1  0.288874  0.000471  0.500000  1
  Ir  Ir33  1  0.995069  0.285710  0.500000  1
  Ir  Ir34  1  0.712039  0.712160  0.500000  1
  Ir  Ir35  1  0.002158  0.002425  0.000000  1
