# generated using pymatgen
data_Na3Li2SnSb3
_symmetry_space_group_name_H-M   'P 1'
_cell_length_a   10.46215186
_cell_length_b   10.46215223
_cell_length_c   15.38862900
_cell_angle_alpha   90.00000000
_cell_angle_beta   90.00000000
_cell_angle_gamma   144.02586772
_symmetry_Int_Tables_number   1
_chemical_formula_structural   Na3Li2SnSb3
_chemical_formula_sum   'Na12 Li8 Sn4 Sb12'
_cell_volume   989.44274600
_cell_formula_units_Z   4
loop_
 _symmetry_equiv_pos_site_id
 _symmetry_equiv_pos_as_xyz
  1  'x, y, z'
loop_
 _atom_site_type_symbol
 _atom_site_label
 _atom_site_symmetry_multiplicity
 _atom_site_fract_x
 _atom_site_fract_y
 _atom_site_fract_z
 _atom_site_occupancy
  Na  Na0  1  0.595062  0.933680  0.823236  1
  Na  Na1  1  0.261744  0.261744  0.322454  1
  Na  Na2  1  0.238256  0.238256  0.822454  1
  Na  Na3  1  0.738256  0.738256  0.677546  1
  Na  Na4  1  0.433680  0.095062  0.676764  1
  Na  Na5  1  0.904938  0.566320  0.323236  1
  Na  Na6  1  0.066320  0.404938  0.176764  1
  Na  Na7  1  0.404938  0.066320  0.176764  1
  Na  Na8  1  0.566320  0.904938  0.323236  1
  Na  Na9  1  0.095062  0.433680  0.676764  1
  Na  Na10  1  0.933680  0.595062  0.823236  1
  Na  Na11  1  0.761744  0.761744  0.177546  1
  Li  Li12  1  0.083612  0.916388  0.000000  1
  Li  Li13  1  0.583612  0.416388  0.500000  1
  Li  Li14  1  0.916388  0.083612  0.000000  1
  Li  Li15  1  0.754580  0.245420  0.000000  1
  Li  Li16  1  0.745420  0.254580  0.500000  1
  Li  Li17  1  0.245420  0.754580  0.000000  1
  Li  Li18  1  0.254580  0.745420  0.500000  1
  Li  Li19  1  0.416388  0.583612  0.500000  1
  Sn  Sn20  1  0.092810  0.907190  0.500000  1
  Sn  Sn21  1  0.407190  0.592810  0.000000  1
  Sn  Sn22  1  0.907190  0.092810  0.500000  1
  Sn  Sn23  1  0.592810  0.407190  0.000000  1
  Sb  Sb24  1  0.082676  0.419731  0.383950  1
  Sb  Sb25  1  0.919731  0.582676  0.116050  1
  Sb  Sb26  1  0.417324  0.080269  0.883950  1
  Sb  Sb27  1  0.580269  0.917324  0.616050  1
  Sb  Sb28  1  0.917324  0.580269  0.616050  1
  Sb  Sb29  1  0.080269  0.417324  0.883950  1
  Sb  Sb30  1  0.582676  0.919731  0.116050  1
  Sb  Sb31  1  0.419731  0.082676  0.383950  1
  Sb  Sb32  1  0.239188  0.239188  0.607889  1
  Sb  Sb33  1  0.739188  0.739188  0.892111  1
  Sb  Sb34  1  0.260812  0.260812  0.107889  1
  Sb  Sb35  1  0.760812  0.760812  0.392111  1
