# generated using pymatgen
data_Er2Si4Tc3
_symmetry_space_group_name_H-M   'P 1'
_cell_length_a   6.77116200
_cell_length_b   6.74291148
_cell_length_c   6.76735096
_cell_angle_alpha   69.83667871
_cell_angle_beta   90.00000000
_cell_angle_gamma   90.00000000
_symmetry_Int_Tables_number   1
_chemical_formula_structural   Er2Si4Tc3
_chemical_formula_sum   'Er4 Si8 Tc6'
_cell_volume   290.04314207
_cell_formula_units_Z   2
loop_
 _symmetry_equiv_pos_site_id
 _symmetry_equiv_pos_as_xyz
  1  'x, y, z'
loop_
 _atom_site_type_symbol
 _atom_site_label
 _atom_site_symmetry_multiplicity
 _atom_site_fract_x
 _atom_site_fract_y
 _atom_site_fract_z
 _atom_site_occupancy
  Er  Er0  1  0.667873  0.441599  0.191784  1
  Er  Er1  1  0.167873  0.058401  0.808216  1
  Er  Er2  1  0.332127  0.558401  0.808216  1
  Er  Er3  1  0.832127  0.941599  0.191784  1
  Si  Si4  1  0.449656  0.123206  0.101755  1
  Si  Si5  1  0.949656  0.376794  0.898245  1
  Si  Si6  1  0.550344  0.876794  0.898245  1
  Si  Si7  1  0.050344  0.623206  0.101755  1
  Si  Si8  1  0.859213  0.131349  0.512015  1
  Si  Si9  1  0.359213  0.368651  0.487985  1
  Si  Si10  1  0.140787  0.868651  0.487985  1
  Si  Si11  1  0.640787  0.631349  0.512015  1
  Tc  Tc12  1  0.500000  0.000000  0.500000  1
  Tc  Tc13  1  0.000000  0.500000  0.500000  1
  Tc  Tc14  1  0.150839  0.243311  0.238403  1
  Tc  Tc15  1  0.650839  0.256689  0.761597  1
  Tc  Tc16  1  0.849161  0.756689  0.761597  1
  Tc  Tc17  1  0.349161  0.743311  0.238403  1
