# generated using pymatgen
data_Hf18Re5Mo(PW)2
_symmetry_space_group_name_H-M   'P 1'
_cell_length_a   8.62662633
_cell_length_b   8.62662591
_cell_length_c   8.56853700
_cell_angle_alpha   90.00000000
_cell_angle_beta   90.00000000
_cell_angle_gamma   120.08633356
_symmetry_Int_Tables_number   1
_chemical_formula_structural   Hf18Re5Mo(PW)2
_chemical_formula_sum   'Hf18 Re5 Mo1 P2 W2'
_cell_volume   551.74802332
_cell_formula_units_Z   1
loop_
 _symmetry_equiv_pos_site_id
 _symmetry_equiv_pos_as_xyz
  1  'x, y, z'
loop_
 _atom_site_type_symbol
 _atom_site_label
 _atom_site_symmetry_multiplicity
 _atom_site_fract_x
 _atom_site_fract_y
 _atom_site_fract_z
 _atom_site_occupancy
  Hf  Hf0  1  0.196614  0.803386  0.451694  1
  Hf  Hf1  1  0.197212  0.393659  0.452430  1
  Hf  Hf2  1  0.606341  0.802788  0.452430  1
  Hf  Hf3  1  0.803373  0.196627  0.550189  1
  Hf  Hf4  1  0.803387  0.607063  0.549299  1
  Hf  Hf5  1  0.392937  0.196613  0.549299  1
  Hf  Hf6  1  0.803373  0.196627  0.949811  1
  Hf  Hf7  1  0.803387  0.607063  0.950701  1
  Hf  Hf8  1  0.392937  0.196613  0.950701  1
  Hf  Hf9  1  0.196614  0.803386  0.048306  1
  Hf  Hf10  1  0.197212  0.393659  0.047570  1
  Hf  Hf11  1  0.606341  0.802788  0.047570  1
  Hf  Hf12  1  0.538826  0.461174  0.250000  1
  Hf  Hf13  1  0.538154  0.077513  0.250000  1
  Hf  Hf14  1  0.922487  0.461846  0.250000  1
  Hf  Hf15  1  0.460355  0.539645  0.750000  1
  Hf  Hf16  1  0.459965  0.920492  0.750000  1
  Hf  Hf17  1  0.079508  0.540035  0.750000  1
  Re  Re18  1  0.889049  0.778407  0.250000  1
  Re  Re19  1  0.221593  0.110951  0.250000  1
  Re  Re20  1  0.110331  0.889669  0.750000  1
  Re  Re21  1  0.110780  0.220988  0.750000  1
  Re  Re22  1  0.779012  0.889220  0.750000  1
  Mo  Mo23  1  0.889988  0.110012  0.250000  1
  P  P24  1  0.332758  0.667242  0.250000  1
  P  P25  1  0.666587  0.333413  0.750000  1
  W  W26  1  0.000441  0.999559  0.500157  1
  W  W27  1  0.000441  0.999559  0.999843  1
