# generated using pymatgen
data_Ba5(PtO5)2
_symmetry_space_group_name_H-M   'P 1'
_cell_length_a   6.10879782
_cell_length_b   6.10879816
_cell_length_c   18.17490500
_cell_angle_alpha   90.00000000
_cell_angle_beta   90.00000000
_cell_angle_gamma   120.55228542
_symmetry_Int_Tables_number   1
_chemical_formula_structural   Ba5(PtO5)2
_chemical_formula_sum   'Ba10 Pt4 O20'
_cell_volume   584.07736111
_cell_formula_units_Z   2
loop_
 _symmetry_equiv_pos_site_id
 _symmetry_equiv_pos_as_xyz
  1  'x, y, z'
loop_
 _atom_site_type_symbol
 _atom_site_label
 _atom_site_symmetry_multiplicity
 _atom_site_fract_x
 _atom_site_fract_y
 _atom_site_fract_z
 _atom_site_occupancy
  Ba  Ba0  1  0.175530  0.824470  0.010506  1
  Ba  Ba1  1  0.824470  0.175530  0.510506  1
  Ba  Ba2  1  0.832824  0.167176  0.744934  1
  Ba  Ba3  1  0.167176  0.832824  0.244934  1
  Ba  Ba4  1  0.503694  0.496306  0.363477  1
  Ba  Ba5  1  0.496306  0.503694  0.863477  1
  Ba  Ba6  1  0.504018  0.495982  0.628034  1
  Ba  Ba7  1  0.839838  0.160162  0.981871  1
  Ba  Ba8  1  0.495982  0.504018  0.128034  1
  Ba  Ba9  1  0.160162  0.839838  0.481871  1
  Pt  Pt10  1  0.173131  0.826869  0.669626  1
  Pt  Pt11  1  0.161265  0.838735  0.822994  1
  Pt  Pt12  1  0.826869  0.173131  0.169626  1
  Pt  Pt13  1  0.838735  0.161265  0.322994  1
  O  O14  1  0.426527  0.573473  0.995764  1
  O  O15  1  0.573473  0.426527  0.495764  1
  O  O16  1  0.472570  0.015155  0.883064  1
  O  O17  1  0.003138  0.996862  0.881624  1
  O  O18  1  0.687537  0.312463  0.249751  1
  O  O19  1  0.314519  0.126181  0.744617  1
  O  O20  1  0.015155  0.472570  0.383064  1
  O  O21  1  0.984845  0.527430  0.883064  1
  O  O22  1  0.034456  0.509774  0.611534  1
  O  O23  1  0.020381  0.979619  0.607191  1
  O  O24  1  0.509774  0.034456  0.111534  1
  O  O25  1  0.873819  0.685481  0.744617  1
  O  O26  1  0.685481  0.873819  0.244617  1
  O  O27  1  0.126181  0.314519  0.244617  1
  O  O28  1  0.996862  0.003138  0.381624  1
  O  O29  1  0.312463  0.687537  0.749751  1
  O  O30  1  0.490226  0.965544  0.611534  1
  O  O31  1  0.965544  0.490226  0.111534  1
  O  O32  1  0.527430  0.984845  0.383064  1
  O  O33  1  0.979619  0.020381  0.107191  1
