# generated using pymatgen
data_TaSeF9
_symmetry_space_group_name_H-M   'P 1'
_cell_length_a   8.91330408
_cell_length_b   8.91330350
_cell_length_c   8.91330400
_cell_angle_alpha   93.27322370
_cell_angle_beta   93.27322349
_cell_angle_gamma   93.27322026
_symmetry_Int_Tables_number   1
_chemical_formula_structural   TaSeF9
_chemical_formula_sum   'Ta4 Se4 F36'
_cell_volume   704.53123287
_cell_formula_units_Z   4
loop_
 _symmetry_equiv_pos_site_id
 _symmetry_equiv_pos_as_xyz
  1  'x, y, z'
loop_
 _atom_site_type_symbol
 _atom_site_label
 _atom_site_symmetry_multiplicity
 _atom_site_fract_x
 _atom_site_fract_y
 _atom_site_fract_z
 _atom_site_occupancy
  Ta  Ta0  1  0.219178  0.665403  0.000565  1
  Ta  Ta1  1  0.000565  0.219178  0.665403  1
  Ta  Ta2  1  0.665403  0.000565  0.219178  1
  Ta  Ta3  1  0.600653  0.600653  0.600653  1
  Se  Se4  1  0.064309  0.751801  0.545609  1
  Se  Se5  1  0.545609  0.064309  0.751801  1
  Se  Se6  1  0.751801  0.545609  0.064309  1
  Se  Se7  1  0.125936  0.125936  0.125936  1
  F  F8  1  0.567523  0.490045  0.096311  1
  F  F9  1  0.490045  0.096311  0.567523  1
  F  F10  1  0.096311  0.567523  0.490045  1
  F  F11  1  0.876621  0.052941  0.173658  1
  F  F12  1  0.052941  0.173658  0.876621  1
  F  F13  1  0.173658  0.876621  0.052941  1
  F  F14  1  0.708822  0.793168  0.151382  1
  F  F15  1  0.793168  0.151382  0.708822  1
  F  F16  1  0.645963  0.402099  0.547505  1
  F  F17  1  0.547505  0.645963  0.402099  1
  F  F18  1  0.402099  0.547505  0.645963  1
  F  F19  1  0.812511  0.669464  0.574256  1
  F  F20  1  0.574256  0.812511  0.669464  1
  F  F21  1  0.669464  0.574256  0.812511  1
  F  F22  1  0.260807  0.634898  0.204960  1
  F  F23  1  0.204960  0.260807  0.634898  1
  F  F24  1  0.634898  0.204960  0.260807  1
  F  F25  1  0.417119  0.731724  0.962922  1
  F  F26  1  0.962922  0.417119  0.731724  1
  F  F27  1  0.731724  0.962922  0.417119  1
  F  F28  1  0.248084  0.816494  0.521421  1
  F  F29  1  0.521421  0.248084  0.816494  1
  F  F30  1  0.816494  0.521421  0.248084  1
  F  F31  1  0.002827  0.794388  0.365285  1
  F  F32  1  0.365285  0.002827  0.794388  1
  F  F33  1  0.794388  0.365285  0.002827  1
  F  F34  1  0.244411  0.464057  0.938086  1
  F  F35  1  0.938086  0.244411  0.464057  1
  F  F36  1  0.464057  0.938086  0.244411  1
  F  F37  1  0.002743  0.618062  0.027569  1
  F  F38  1  0.027569  0.002743  0.618062  1
  F  F39  1  0.618062  0.027569  0.002743  1
  F  F40  1  0.308779  0.178782  0.084763  1
  F  F41  1  0.084763  0.308779  0.178782  1
  F  F42  1  0.178782  0.084763  0.308779  1
  F  F43  1  0.151382  0.708822  0.793168  1
