# generated using pymatgen
data_Er16Tm4Ir11Rh
_symmetry_space_group_name_H-M   'P 1'
_cell_length_a   10.79007300
_cell_length_b   10.79007300
_cell_length_c   6.33332200
_cell_angle_alpha   90.00000000
_cell_angle_beta   90.00000000
_cell_angle_gamma   90.00000000
_symmetry_Int_Tables_number   1
_chemical_formula_structural   Er16Tm4Ir11Rh
_chemical_formula_sum   'Er16 Tm4 Ir11 Rh1'
_cell_volume   737.36129103
_cell_formula_units_Z   1
loop_
 _symmetry_equiv_pos_site_id
 _symmetry_equiv_pos_as_xyz
  1  'x, y, z'
loop_
 _atom_site_type_symbol
 _atom_site_label
 _atom_site_symmetry_multiplicity
 _atom_site_fract_x
 _atom_site_fract_y
 _atom_site_fract_z
 _atom_site_occupancy
  Er  Er0  1  0.290904  0.087707  0.378176  1
  Er  Er1  1  0.290726  0.912157  0.876536  1
  Er  Er2  1  0.709274  0.087843  0.876536  1
  Er  Er3  1  0.709096  0.912293  0.378176  1
  Er  Er4  1  0.587843  0.790726  0.876536  1
  Er  Er5  1  0.587707  0.209096  0.378176  1
  Er  Er6  1  0.412293  0.790904  0.378176  1
  Er  Er7  1  0.412157  0.209274  0.876536  1
  Er  Er8  1  0.208777  0.412280  0.622802  1
  Er  Er9  1  0.208815  0.587808  0.122866  1
  Er  Er10  1  0.791185  0.412192  0.122866  1
  Er  Er11  1  0.791223  0.587720  0.622802  1
  Er  Er12  1  0.912192  0.708815  0.122866  1
  Er  Er13  1  0.912280  0.291223  0.622802  1
  Er  Er14  1  0.087720  0.708777  0.622802  1
  Er  Er15  1  0.087808  0.291185  0.122866  1
  Tm  Tm16  1  0.000000  0.000000  0.500095  1
  Tm  Tm17  1  0.000000  0.000000  0.000158  1
  Tm  Tm18  1  0.500000  0.500000  0.000158  1
  Tm  Tm19  1  0.500000  0.500000  0.500095  1
  Ir  Ir20  1  0.846456  0.152887  0.249777  1
  Ir  Ir21  1  0.846574  0.847036  0.749930  1
  Ir  Ir22  1  0.153426  0.152964  0.749930  1
  Ir  Ir23  1  0.153544  0.847113  0.249777  1
  Ir  Ir24  1  0.652964  0.346574  0.749930  1
  Ir  Ir25  1  0.652887  0.653544  0.249777  1
  Ir  Ir26  1  0.347113  0.346456  0.249777  1
  Ir  Ir27  1  0.347036  0.653426  0.749930  1
  Ir  Ir28  1  0.500000  0.000000  0.622365  1
  Ir  Ir29  1  0.000000  0.500000  0.877689  1
  Ir  Ir30  1  0.000000  0.500000  0.377664  1
  Rh  Rh31  1  0.500000  0.000000  0.121423  1
