# generated using pymatgen
data_Tb2Dy2PtSe7
_symmetry_space_group_name_H-M   'P 1'
_cell_length_a   3.94946608
_cell_length_b   8.10351100
_cell_length_c   8.45453400
_cell_angle_alpha   90.11017242
_cell_angle_beta   89.98835070
_cell_angle_gamma   90.00390410
_symmetry_Int_Tables_number   1
_chemical_formula_structural   Tb2Dy2PtSe7
_chemical_formula_sum   'Tb2 Dy2 Pt1 Se7'
_cell_volume   270.58298066
_cell_formula_units_Z   1
loop_
 _symmetry_equiv_pos_site_id
 _symmetry_equiv_pos_as_xyz
  1  'x, y, z'
loop_
 _atom_site_type_symbol
 _atom_site_label
 _atom_site_symmetry_multiplicity
 _atom_site_fract_x
 _atom_site_fract_y
 _atom_site_fract_z
 _atom_site_occupancy
  Tb  Tb0  1  0.250234  0.125230  0.704604  1
  Tb  Tb1  1  0.749991  0.868320  0.271779  1
  Dy  Dy2  1  0.250346  0.625748  0.748610  1
  Dy  Dy3  1  0.749853  0.382062  0.273304  1
  Pt  Pt4  1  0.749656  0.124550  0.000079  1
  Se  Se5  1  0.249664  0.326347  0.997594  1
  Se  Se6  1  0.750036  0.624535  0.005169  1
  Se  Se7  1  0.750259  0.870848  0.631636  1
  Se  Se8  1  0.250004  0.624482  0.376158  1
  Se  Se9  1  0.249693  0.922484  0.996944  1
  Se  Se10  1  0.750243  0.379824  0.631207  1
  Se  Se11  1  0.250021  0.125569  0.362915  1
