# generated using pymatgen
data_Dy10Y6CdNi4Ag3
_symmetry_space_group_name_H-M   'P 1'
_cell_length_a   9.46091864
_cell_length_b   9.47997566
_cell_length_c   9.48023005
_cell_angle_alpha   60.25685170
_cell_angle_beta   60.15015567
_cell_angle_gamma   60.15007711
_symmetry_Int_Tables_number   1
_chemical_formula_structural   Dy10Y6CdNi4Ag3
_chemical_formula_sum   'Dy10 Y6 Cd1 Ni4 Ag3'
_cell_volume   603.76214341
_cell_formula_units_Z   1
loop_
 _symmetry_equiv_pos_site_id
 _symmetry_equiv_pos_as_xyz
  1  'x, y, z'
loop_
 _atom_site_type_symbol
 _atom_site_label
 _atom_site_symmetry_multiplicity
 _atom_site_fract_x
 _atom_site_fract_y
 _atom_site_fract_z
 _atom_site_occupancy
  Dy  Dy0  1  0.597105  0.597188  0.597133  1
  Dy  Dy1  1  0.601038  0.600470  0.200444  1
  Dy  Dy2  1  0.601045  0.200444  0.600442  1
  Dy  Dy3  1  0.197272  0.602061  0.602019  1
  Dy  Dy4  1  0.061830  0.439110  0.439107  1
  Dy  Dy5  1  0.437895  0.061617  0.061665  1
  Dy  Dy6  1  0.438687  0.061147  0.439956  1
  Dy  Dy7  1  0.061009  0.437859  0.061513  1
  Dy  Dy8  1  0.438675  0.439952  0.061186  1
  Dy  Dy9  1  0.061023  0.061484  0.437868  1
  Y  Y10  1  0.183200  0.814640  0.814660  1
  Y  Y11  1  0.814088  0.186019  0.186034  1
  Y  Y12  1  0.813334  0.186228  0.814558  1
  Y  Y13  1  0.184731  0.813967  0.187819  1
  Y  Y14  1  0.813357  0.814552  0.186229  1
  Y  Y15  1  0.184746  0.187824  0.813967  1
  Cd  Cd16  1  0.514234  0.827891  0.827904  1
  Ni  Ni17  1  0.391868  0.395018  0.394991  1
  Ni  Ni18  1  0.391963  0.391981  0.822356  1
  Ni  Ni19  1  0.391990  0.822354  0.391977  1
  Ni  Ni20  1  0.822265  0.391534  0.391496  1
  Ag  Ag21  1  0.832944  0.831504  0.831508  1
  Ag  Ag22  1  0.832853  0.832860  0.502300  1
  Ag  Ag23  1  0.832848  0.502298  0.832871  1
