# generated using pymatgen
data_Ac6MnSn2Sb13
_symmetry_space_group_name_H-M   'P 1'
_cell_length_a   13.17278331
_cell_length_b   13.17278318
_cell_length_c   4.41512500
_cell_angle_alpha   80.26494441
_cell_angle_beta   80.26494893
_cell_angle_gamma   102.70078056
_symmetry_Int_Tables_number   1
_chemical_formula_structural   Ac6MnSn2Sb13
_chemical_formula_sum   'Ac6 Mn1 Sn2 Sb13'
_cell_volume   719.46379129
_cell_formula_units_Z   1
loop_
 _symmetry_equiv_pos_site_id
 _symmetry_equiv_pos_as_xyz
  1  'x, y, z'
loop_
 _atom_site_type_symbol
 _atom_site_label
 _atom_site_symmetry_multiplicity
 _atom_site_fract_x
 _atom_site_fract_y
 _atom_site_fract_z
 _atom_site_occupancy
  Ac  Ac0  1  0.001151  0.269747  0.942963  1
  Ac  Ac1  1  0.995444  0.724730  0.229186  1
  Ac  Ac2  1  0.724730  0.995444  0.229186  1
  Ac  Ac3  1  0.269747  0.001151  0.942963  1
  Ac  Ac4  1  0.676146  0.325046  0.085572  1
  Ac  Ac5  1  0.325046  0.676146  0.085572  1
  Mn  Mn6  1  0.278565  0.278565  0.797293  1
  Sn  Sn7  1  0.397869  0.397869  0.177966  1
  Sn  Sn8  1  0.593205  0.593205  0.007639  1
  Sb  Sb9  1  0.914153  0.512297  0.888965  1
  Sb  Sb10  1  0.075821  0.484407  0.292191  1
  Sb  Sb11  1  0.484407  0.075821  0.292191  1
  Sb  Sb12  1  0.512297  0.914153  0.888965  1
  Sb  Sb13  1  0.242385  0.468557  0.749131  1
  Sb  Sb14  1  0.746209  0.543064  0.419062  1
  Sb  Sb15  1  0.543064  0.746209  0.419062  1
  Sb  Sb16  1  0.468557  0.242385  0.749131  1
  Sb  Sb17  1  0.173556  0.173556  0.405515  1
  Sb  Sb18  1  0.865230  0.865230  0.728815  1
  Sb  Sb19  1  0.797159  0.198666  0.585944  1
  Sb  Sb20  1  0.198666  0.797159  0.585944  1
  Sb  Sb21  1  0.993795  0.993795  0.096942  1
