# generated using pymatgen
data_LaTbPrTaO7
_symmetry_space_group_name_H-M   'P 1'
_cell_length_a   6.65646631
_cell_length_b   6.64843324
_cell_length_c   7.70913400
_cell_angle_alpha   90.00000000
_cell_angle_beta   90.00000000
_cell_angle_gamma   110.26912810
_symmetry_Int_Tables_number   1
_chemical_formula_structural   LaTbPrTaO7
_chemical_formula_sum   'La2 Tb2 Pr2 Ta2 O14'
_cell_volume   320.04168387
_cell_formula_units_Z   2
loop_
 _symmetry_equiv_pos_site_id
 _symmetry_equiv_pos_as_xyz
  1  'x, y, z'
loop_
 _atom_site_type_symbol
 _atom_site_label
 _atom_site_symmetry_multiplicity
 _atom_site_fract_x
 _atom_site_fract_y
 _atom_site_fract_z
 _atom_site_occupancy
  La  La0  1  0.000000  0.000000  0.000000  1
  La  La1  1  0.000000  0.000000  0.500000  1
  Tb  Tb2  1  0.484149  0.942641  0.750000  1
  Tb  Tb3  1  0.515851  0.057359  0.250000  1
  Pr  Pr4  1  0.933848  0.477902  0.750000  1
  Pr  Pr5  1  0.066152  0.522098  0.250000  1
  Ta  Ta6  1  0.500000  0.500000  0.000000  1
  Ta  Ta7  1  0.500000  0.500000  0.500000  1
  O  O8  1  0.561648  0.575857  0.750000  1
  O  O9  1  0.438352  0.424143  0.250000  1
  O  O10  1  0.838797  0.100485  0.750000  1
  O  O11  1  0.161203  0.899515  0.250000  1
  O  O12  1  0.126719  0.847502  0.750000  1
  O  O13  1  0.873281  0.152498  0.250000  1
  O  O14  1  0.465756  0.192552  0.963469  1
  O  O15  1  0.534244  0.807448  0.463469  1
  O  O16  1  0.181349  0.420525  0.968766  1
  O  O17  1  0.818651  0.579475  0.468766  1
  O  O18  1  0.465756  0.192552  0.536531  1
  O  O19  1  0.534244  0.807448  0.036531  1
  O  O20  1  0.818651  0.579475  0.031234  1
  O  O21  1  0.181349  0.420525  0.531234  1
