# generated using pymatgen
data_Y4Ho2Al16Os7
_symmetry_space_group_name_H-M   'P 1'
_cell_length_a   8.94841843
_cell_length_b   8.94791550
_cell_length_c   8.94791470
_cell_angle_alpha   60.04130590
_cell_angle_beta   59.99827774
_cell_angle_gamma   59.99827604
_symmetry_Int_Tables_number   1
_chemical_formula_structural   Y4Ho2Al16Os7
_chemical_formula_sum   'Y4 Ho2 Al16 Os7'
_cell_volume   506.75619484
_cell_formula_units_Z   1
loop_
 _symmetry_equiv_pos_site_id
 _symmetry_equiv_pos_as_xyz
  1  'x, y, z'
loop_
 _atom_site_type_symbol
 _atom_site_label
 _atom_site_symmetry_multiplicity
 _atom_site_fract_x
 _atom_site_fract_y
 _atom_site_fract_z
 _atom_site_occupancy
  Y  Y0  1  0.211732  0.788361  0.788361  1
  Y  Y1  1  0.788468  0.211638  0.211638  1
  Y  Y2  1  0.788310  0.211825  0.788166  1
  Y  Y3  1  0.788310  0.788166  0.211825  1
  Ho  Ho4  1  0.212016  0.788008  0.212000  1
  Ho  Ho5  1  0.212016  0.212000  0.788008  1
  Al  Al6  1  0.832412  0.832153  0.832153  1
  Al  Al7  1  0.832463  0.832275  0.502990  1
  Al  Al8  1  0.502979  0.832317  0.832317  1
  Al  Al9  1  0.832463  0.502990  0.832275  1
  Al  Al10  1  0.167612  0.167683  0.167683  1
  Al  Al11  1  0.167728  0.167725  0.497010  1
  Al  Al12  1  0.167728  0.497010  0.167725  1
  Al  Al13  1  0.496715  0.167848  0.167848  1
  Al  Al14  1  0.620925  0.620960  0.620960  1
  Al  Al15  1  0.620750  0.620936  0.137235  1
  Al  Al16  1  0.137281  0.620808  0.620808  1
  Al  Al17  1  0.620750  0.137235  0.620936  1
  Al  Al18  1  0.378895  0.379193  0.379193  1
  Al  Al19  1  0.378921  0.379064  0.862765  1
  Al  Al20  1  0.378921  0.862765  0.379064  1
  Al  Al21  1  0.862843  0.379041  0.379041  1
  Os  Os22  1  0.500018  0.500001  0.500001  1
  Os  Os23  1  0.000381  0.500000  0.500000  1
  Os  Os24  1  0.499469  0.999999  0.999999  1
  Os  Os25  1  0.499752  0.000177  0.500266  1
  Os  Os26  1  0.499752  0.500266  0.000177  1
  Os  Os27  1  0.000196  0.499733  0.999822  1
  Os  Os28  1  0.000196  0.999822  0.499733  1
