# generated using pymatgen
data_Sr5CaSn8BiBr
_symmetry_space_group_name_H-M   'P 1'
_cell_length_a   8.95839427
_cell_length_b   8.95839446
_cell_length_c   8.95839500
_cell_angle_alpha   120.01459332
_cell_angle_beta   120.01459488
_cell_angle_gamma   89.97472633
_symmetry_Int_Tables_number   1
_chemical_formula_structural   Sr5CaSn8BiBr
_chemical_formula_sum   'Sr5 Ca1 Sn8 Bi1 Br1'
_cell_volume   508.25270436
_cell_formula_units_Z   1
loop_
 _symmetry_equiv_pos_site_id
 _symmetry_equiv_pos_as_xyz
  1  'x, y, z'
loop_
 _atom_site_type_symbol
 _atom_site_label
 _atom_site_symmetry_multiplicity
 _atom_site_fract_x
 _atom_site_fract_y
 _atom_site_fract_z
 _atom_site_occupancy
  Sr  Sr0  1  0.753287  0.753287  0.000000  1
  Sr  Sr1  1  0.162283  0.661457  0.823189  1
  Sr  Sr2  1  0.838268  0.339094  0.176811  1
  Sr  Sr3  1  0.661457  0.838268  0.499174  1
  Sr  Sr4  1  0.339094  0.162283  0.500826  1
  Ca  Ca5  1  0.247327  0.247327  0.000000  1
  Sn  Sn6  1  0.832579  0.331468  0.786730  1
  Sn  Sn7  1  0.170430  0.665670  0.213437  1
  Sn  Sn8  1  0.544738  0.045849  0.213270  1
  Sn  Sn9  1  0.331468  0.544738  0.498889  1
  Sn  Sn10  1  0.956993  0.170430  0.504759  1
  Sn  Sn11  1  0.452233  0.956993  0.786563  1
  Sn  Sn12  1  0.665670  0.452233  0.495241  1
  Sn  Sn13  1  0.045849  0.832579  0.501111  1
  Bi  Bi14  1  0.493449  0.493449  0.000000  1
  Br  Br15  1  0.004875  0.004875  0.000000  1
