# generated using pymatgen
data_Dy4Tm16CoBi8Os3
_symmetry_space_group_name_H-M   'P 1'
_cell_length_a   7.88126145
_cell_length_b   8.96121100
_cell_length_c   12.38297706
_cell_angle_alpha   90.00000000
_cell_angle_beta   90.18229387
_cell_angle_gamma   90.00000000
_symmetry_Int_Tables_number   1
_chemical_formula_structural   Dy4Tm16CoBi8Os3
_chemical_formula_sum   'Dy4 Tm16 Co1 Bi8 Os3'
_cell_volume   874.55133804
_cell_formula_units_Z   1
loop_
 _symmetry_equiv_pos_site_id
 _symmetry_equiv_pos_as_xyz
  1  'x, y, z'
loop_
 _atom_site_type_symbol
 _atom_site_label
 _atom_site_symmetry_multiplicity
 _atom_site_fract_x
 _atom_site_fract_y
 _atom_site_fract_z
 _atom_site_occupancy
  Dy  Dy0  1  0.377022  0.750000  0.693014  1
  Dy  Dy1  1  0.118881  0.750000  0.185957  1
  Dy  Dy2  1  0.941198  0.750000  0.504607  1
  Dy  Dy3  1  0.560392  0.750000  0.003428  1
  Tm  Tm4  1  0.844385  0.750000  0.798515  1
  Tm  Tm5  1  0.160289  0.250000  0.207917  1
  Tm  Tm6  1  0.339762  0.250000  0.709764  1
  Tm  Tm7  1  0.656844  0.750000  0.293537  1
  Tm  Tm8  1  0.620577  0.250000  0.308708  1
  Tm  Tm9  1  0.877378  0.250000  0.809361  1
  Tm  Tm10  1  0.059754  0.250000  0.496094  1
  Tm  Tm11  1  0.443628  0.250000  0.996708  1
  Tm  Tm12  1  0.671896  0.044080  0.564292  1
  Tm  Tm13  1  0.326807  0.957783  0.434643  1
  Tm  Tm14  1  0.172012  0.959954  0.935516  1
  Tm  Tm15  1  0.326807  0.542217  0.434643  1
  Tm  Tm16  1  0.827283  0.042025  0.063478  1
  Tm  Tm17  1  0.671896  0.455920  0.564292  1
  Tm  Tm18  1  0.827283  0.457975  0.063478  1
  Tm  Tm19  1  0.172012  0.540046  0.935516  1
  Co  Co20  1  0.931459  0.750000  0.006701  1
  Bi  Bi21  1  0.569281  0.491479  0.827823  1
  Bi  Bi22  1  0.433729  0.507181  0.171839  1
  Bi  Bi23  1  0.065943  0.506312  0.673090  1
  Bi  Bi24  1  0.433729  0.992819  0.171839  1
  Bi  Bi25  1  0.931330  0.491520  0.326589  1
  Bi  Bi26  1  0.569281  0.008521  0.827823  1
  Bi  Bi27  1  0.931330  0.008480  0.326589  1
  Bi  Bi28  1  0.065943  0.993688  0.673090  1
  Os  Os29  1  0.574116  0.750000  0.509417  1
  Os  Os30  1  0.423854  0.250000  0.490989  1
  Os  Os31  1  0.073896  0.250000  0.990740  1
