# generated using pymatgen
data_Y2Er2ReB12Rh
_symmetry_space_group_name_H-M   'P 1'
_cell_length_a   3.66837200
_cell_length_b   9.12819960
_cell_length_c   11.52743034
_cell_angle_alpha   90.40206086
_cell_angle_beta   90.00000000
_cell_angle_gamma   90.00000000
_symmetry_Int_Tables_number   1
_chemical_formula_structural   Y2Er2ReB12Rh
_chemical_formula_sum   'Y4 Er4 Re2 B24 Rh2'
_cell_volume   385.99378433
_cell_formula_units_Z   2
loop_
 _symmetry_equiv_pos_site_id
 _symmetry_equiv_pos_as_xyz
  1  'x, y, z'
loop_
 _atom_site_type_symbol
 _atom_site_label
 _atom_site_symmetry_multiplicity
 _atom_site_fract_x
 _atom_site_fract_y
 _atom_site_fract_z
 _atom_site_occupancy
  Y  Y0  1  0.000000  0.318310  0.411045  1
  Y  Y1  1  0.000000  0.681690  0.588955  1
  Y  Y2  1  0.000000  0.825722  0.082940  1
  Y  Y3  1  0.000000  0.174278  0.917060  1
  Er  Er4  1  0.000000  0.945360  0.371733  1
  Er  Er5  1  0.000000  0.054640  0.628267  1
  Er  Er6  1  0.000000  0.442326  0.126781  1
  Er  Er7  1  0.000000  0.557674  0.873219  1
  Re  Re8  1  0.000000  0.138978  0.180139  1
  Re  Re9  1  0.000000  0.861022  0.819861  1
  B  B10  1  0.500000  0.554670  0.433866  1
  B  B11  1  0.500000  0.445330  0.566134  1
  B  B12  1  0.500000  0.053265  0.067813  1
  B  B13  1  0.500000  0.946735  0.932187  1
  B  B14  1  0.500000  0.749408  0.420913  1
  B  B15  1  0.500000  0.250592  0.579087  1
  B  B16  1  0.500000  0.248967  0.081765  1
  B  B17  1  0.500000  0.751033  0.918235  1
  B  B18  1  0.500000  0.791211  0.265484  1
  B  B19  1  0.500000  0.208789  0.734516  1
  B  B20  1  0.500000  0.292848  0.234598  1
  B  B21  1  0.500000  0.707152  0.765402  1
  B  B22  1  0.500000  0.631886  0.183565  1
  B  B23  1  0.500000  0.368114  0.816435  1
  B  B24  1  0.500000  0.131434  0.314836  1
  B  B25  1  0.500000  0.868566  0.685164  1
  B  B26  1  0.500000  0.983108  0.213443  1
  B  B27  1  0.500000  0.016892  0.786557  1
  B  B28  1  0.500000  0.483671  0.287451  1
  B  B29  1  0.500000  0.516329  0.712549  1
  B  B30  1  0.500000  0.604792  0.029118  1
  B  B31  1  0.500000  0.395208  0.970882  1
  B  B32  1  0.500000  0.106321  0.471330  1
  B  B33  1  0.500000  0.893679  0.528670  1
  Rh  Rh34  1  0.000000  0.638156  0.320989  1
  Rh  Rh35  1  0.000000  0.361844  0.679011  1
