# generated using pymatgen
data_GdLu2Tl3(TeO6)3
_symmetry_space_group_name_H-M   'P 1'
_cell_length_a   9.18687356
_cell_length_b   9.17685494
_cell_length_c   5.15418580
_cell_angle_alpha   89.90087510
_cell_angle_beta   90.32896227
_cell_angle_gamma   119.78375981
_symmetry_Int_Tables_number   1
_chemical_formula_structural   GdLu2Tl3(TeO6)3
_chemical_formula_sum   'Gd1 Lu2 Tl3 Te3 O18'
_cell_volume   377.12644508
_cell_formula_units_Z   1
loop_
 _symmetry_equiv_pos_site_id
 _symmetry_equiv_pos_as_xyz
  1  'x, y, z'
loop_
 _atom_site_type_symbol
 _atom_site_label
 _atom_site_symmetry_multiplicity
 _atom_site_fract_x
 _atom_site_fract_y
 _atom_site_fract_z
 _atom_site_occupancy
  Gd  Gd0  1  0.997740  0.618087  0.998722  1
  Lu  Lu1  1  0.716435  0.715419  0.500303  1
  Lu  Lu2  1  0.624126  0.998948  0.002200  1
  Tl  Tl3  1  0.999595  0.286526  0.498959  1
  Tl  Tl4  1  0.378347  0.379848  0.001936  1
  Tl  Tl5  1  0.285616  0.998417  0.502596  1
  Te  Te6  1  0.339093  0.669284  0.503699  1
  Te  Te7  1  0.996800  0.999871  0.999793  1
  Te  Te8  1  0.663730  0.329792  0.497378  1
  O  O9  1  0.074026  0.876996  0.782562  1
  O  O10  1  0.227074  0.761203  0.288281  1
  O  O11  1  0.140036  0.545641  0.717341  1
  O  O12  1  0.415828  0.865313  0.729767  1
  O  O13  1  0.240101  0.469261  0.276677  1
  O  O14  1  0.117834  0.201461  0.787058  1
  O  O15  1  0.198216  0.119568  0.214032  1
  O  O16  1  0.542084  0.780067  0.291639  1
  O  O17  1  0.467683  0.592631  0.711220  1
  O  O18  1  0.792570  0.914476  0.792307  1
  O  O19  1  0.461774  0.238024  0.714274  1
  O  O20  1  0.596413  0.464038  0.279306  1
  O  O21  1  0.546137  0.131509  0.276925  1
  O  O22  1  0.773283  0.536359  0.703130  1
  O  O23  1  0.913714  0.798984  0.210446  1
  O  O24  1  0.754456  0.221762  0.724940  1
  O  O25  1  0.863567  0.406105  0.284453  1
  O  O26  1  0.873721  0.080413  0.210056  1
