# generated using pymatgen
data_Dy3Ho2Bi2Os
_symmetry_space_group_name_H-M   'P 1'
_cell_length_a   7.94859900
_cell_length_b   9.03186200
_cell_length_c   12.49975300
_cell_angle_alpha   90.00000000
_cell_angle_beta   90.00000000
_cell_angle_gamma   90.00000000
_symmetry_Int_Tables_number   1
_chemical_formula_structural   Dy3Ho2Bi2Os
_chemical_formula_sum   'Dy12 Ho8 Bi8 Os4'
_cell_volume   897.36538348
_cell_formula_units_Z   4
loop_
 _symmetry_equiv_pos_site_id
 _symmetry_equiv_pos_as_xyz
  1  'x, y, z'
loop_
 _atom_site_type_symbol
 _atom_site_label
 _atom_site_symmetry_multiplicity
 _atom_site_fract_x
 _atom_site_fract_y
 _atom_site_fract_z
 _atom_site_occupancy
  Dy  Dy0  1  0.839661  0.750000  0.792071  1
  Dy  Dy1  1  0.160339  0.250000  0.207929  1
  Dy  Dy2  1  0.339661  0.250000  0.707929  1
  Dy  Dy3  1  0.660339  0.750000  0.292071  1
  Dy  Dy4  1  0.375036  0.750000  0.690469  1
  Dy  Dy5  1  0.624964  0.250000  0.309531  1
  Dy  Dy6  1  0.875036  0.250000  0.809531  1
  Dy  Dy7  1  0.124964  0.750000  0.190469  1
  Dy  Dy8  1  0.943671  0.750000  0.504405  1
  Dy  Dy9  1  0.056329  0.250000  0.495595  1
  Dy  Dy10  1  0.443671  0.250000  0.995595  1
  Dy  Dy11  1  0.556329  0.750000  0.004405  1
  Ho  Ho12  1  0.673517  0.041449  0.564693  1
  Ho  Ho13  1  0.326483  0.958551  0.435307  1
  Ho  Ho14  1  0.173517  0.958551  0.935307  1
  Ho  Ho15  1  0.326483  0.541449  0.435307  1
  Ho  Ho16  1  0.826483  0.041449  0.064693  1
  Ho  Ho17  1  0.673517  0.458551  0.564693  1
  Ho  Ho18  1  0.826483  0.458551  0.064693  1
  Ho  Ho19  1  0.173517  0.541449  0.935307  1
  Bi  Bi20  1  0.566272  0.493340  0.827388  1
  Bi  Bi21  1  0.433728  0.506660  0.172612  1
  Bi  Bi22  1  0.066272  0.506660  0.672612  1
  Bi  Bi23  1  0.433728  0.993340  0.172612  1
  Bi  Bi24  1  0.933728  0.493340  0.327388  1
  Bi  Bi25  1  0.566272  0.006660  0.827388  1
  Bi  Bi26  1  0.933728  0.006660  0.327388  1
  Bi  Bi27  1  0.066272  0.993340  0.672612  1
  Os  Os28  1  0.575142  0.750000  0.509533  1
  Os  Os29  1  0.424858  0.250000  0.490467  1
  Os  Os30  1  0.075142  0.250000  0.990467  1
  Os  Os31  1  0.924858  0.750000  0.009533  1
