# generated using pymatgen
data_Dy5YAl18
_symmetry_space_group_name_H-M   'P 1'
_cell_length_a   14.42567544
_cell_length_b   14.42567559
_cell_length_c   14.42567693
_cell_angle_alpha   24.85741342
_cell_angle_beta   24.85741243
_cell_angle_gamma   24.85741605
_symmetry_Int_Tables_number   1
_chemical_formula_structural   Dy5YAl18
_chemical_formula_sum   'Dy5 Y1 Al18'
_cell_volume   466.59448564
_cell_formula_units_Z   1
loop_
 _symmetry_equiv_pos_site_id
 _symmetry_equiv_pos_as_xyz
  1  'x, y, z'
loop_
 _atom_site_type_symbol
 _atom_site_label
 _atom_site_symmetry_multiplicity
 _atom_site_fract_x
 _atom_site_fract_y
 _atom_site_fract_z
 _atom_site_occupancy
  Dy  Dy0  1  0.999948  0.999948  0.999948  1
  Dy  Dy1  1  0.500045  0.500045  0.500045  1
  Dy  Dy2  1  0.608670  0.608670  0.608670  1
  Dy  Dy3  1  0.108785  0.108785  0.108785  1
  Dy  Dy4  1  0.891242  0.891242  0.891242  1
  Y  Y5  1  0.391168  0.391168  0.391168  1
  Al  Al6  1  0.926273  0.369401  0.369401  1
  Al  Al7  1  0.426198  0.869375  0.869375  1
  Al  Al8  1  0.369401  0.369401  0.926273  1
  Al  Al9  1  0.869375  0.869375  0.426198  1
  Al  Al10  1  0.369401  0.926273  0.369401  1
  Al  Al11  1  0.869375  0.426198  0.869375  1
  Al  Al12  1  0.573744  0.130601  0.130601  1
  Al  Al13  1  0.073812  0.630624  0.630624  1
  Al  Al14  1  0.130601  0.130601  0.573744  1
  Al  Al15  1  0.630624  0.630624  0.073812  1
  Al  Al16  1  0.130601  0.573744  0.130601  1
  Al  Al17  1  0.630624  0.073812  0.630624  1
  Al  Al18  1  0.500513  0.500513  0.998848  1
  Al  Al19  1  0.000042  0.000042  0.500147  1
  Al  Al20  1  0.500513  0.998848  0.500513  1
  Al  Al21  1  0.000042  0.500147  0.000042  1
  Al  Al22  1  0.998848  0.500513  0.500513  1
  Al  Al23  1  0.500147  0.000042  0.000042  1
