# generated using pymatgen
data_Er2LuBi5O14
_symmetry_space_group_name_H-M   'P 1'
_cell_length_a   6.59502386
_cell_length_b   6.70890536
_cell_length_c   7.76073059
_cell_angle_alpha   106.79702308
_cell_angle_beta   89.46874002
_cell_angle_gamma   99.01725044
_symmetry_Int_Tables_number   1
_chemical_formula_structural   Er2LuBi5O14
_chemical_formula_sum   'Er2 Lu1 Bi5 O14'
_cell_volume   324.42788026
_cell_formula_units_Z   1
loop_
 _symmetry_equiv_pos_site_id
 _symmetry_equiv_pos_as_xyz
  1  'x, y, z'
loop_
 _atom_site_type_symbol
 _atom_site_label
 _atom_site_symmetry_multiplicity
 _atom_site_fract_x
 _atom_site_fract_y
 _atom_site_fract_z
 _atom_site_occupancy
  Er  Er0  1  0.538053  0.994256  0.751443  1
  Er  Er1  1  0.264362  0.538240  0.885637  1
  Lu  Lu2  1  0.463231  0.002884  0.252794  1
  Bi  Bi3  1  0.002995  0.007764  0.501988  1
  Bi  Bi4  1  0.004078  0.001028  0.999919  1
  Bi  Bi5  1  0.735414  0.475235  0.114970  1
  Bi  Bi6  1  0.721706  0.464397  0.614364  1
  Bi  Bi7  1  0.266990  0.527945  0.389538  1
  O  O8  1  0.448936  0.657659  0.165698  1
  O  O9  1  0.535961  0.342198  0.824238  1
  O  O10  1  0.306336  0.920011  0.952508  1
  O  O11  1  0.696135  0.052949  0.052268  1
  O  O12  1  0.302512  0.923067  0.512850  1
  O  O13  1  0.698417  0.080383  0.486560  1
  O  O14  1  0.530348  0.350276  0.347401  1
  O  O15  1  0.454760  0.643852  0.660413  1
  O  O16  1  0.937996  0.666542  0.955297  1
  O  O17  1  0.086003  0.326571  0.032092  1
  O  O18  1  0.094408  0.336914  0.626691  1
  O  O19  1  0.905839  0.680269  0.372425  1
  O  O20  1  0.873515  0.927246  0.731692  1
  O  O21  1  0.132004  0.080315  0.269214  1
