# generated using pymatgen
data_YbSm8Y11Sn16
_symmetry_space_group_name_H-M   'P 1'
_cell_length_a   8.05035100
_cell_length_b   8.24108019
_cell_length_c   15.56709200
_cell_angle_alpha   90.00000000
_cell_angle_beta   90.00000000
_cell_angle_gamma   89.98757595
_symmetry_Int_Tables_number   1
_chemical_formula_structural   YbSm8Y11Sn16
_chemical_formula_sum   'Yb1 Sm8 Y11 Sn16'
_cell_volume   1032.77671651
_cell_formula_units_Z   1
loop_
 _symmetry_equiv_pos_site_id
 _symmetry_equiv_pos_as_xyz
  1  'x, y, z'
loop_
 _atom_site_type_symbol
 _atom_site_label
 _atom_site_symmetry_multiplicity
 _atom_site_fract_x
 _atom_site_fract_y
 _atom_site_fract_z
 _atom_site_occupancy
  Yb  Yb0  1  0.309143  0.002509  0.250000  1
  Sm  Sm1  1  0.512707  0.321472  0.903364  1
  Sm  Sm2  1  0.012820  0.178433  0.596508  1
  Sm  Sm3  1  0.487044  0.680717  0.404141  1
  Sm  Sm4  1  0.988783  0.820892  0.095409  1
  Sm  Sm5  1  0.487044  0.680717  0.095859  1
  Sm  Sm6  1  0.988783  0.820892  0.404591  1
  Sm  Sm7  1  0.512707  0.321472  0.596636  1
  Sm  Sm8  1  0.012820  0.178433  0.903492  1
  Y  Y9  1  0.357609  0.834843  0.876420  1
  Y  Y10  1  0.857265  0.663781  0.623029  1
  Y  Y11  1  0.639933  0.165040  0.377114  1
  Y  Y12  1  0.142417  0.334052  0.122473  1
  Y  Y13  1  0.639933  0.165040  0.122886  1
  Y  Y14  1  0.142417  0.334052  0.377527  1
  Y  Y15  1  0.357609  0.834843  0.623580  1
  Y  Y16  1  0.857265  0.663781  0.876971  1
  Y  Y17  1  0.191056  0.501336  0.750000  1
  Y  Y18  1  0.691065  0.998162  0.750000  1
  Y  Y19  1  0.809596  0.498420  0.250000  1
  Sn  Sn20  1  0.303770  0.040233  0.039261  1
  Sn  Sn21  1  0.803236  0.461395  0.458066  1
  Sn  Sn22  1  0.695937  0.960549  0.541005  1
  Sn  Sn23  1  0.196547  0.538578  0.958663  1
  Sn  Sn24  1  0.695937  0.960549  0.958995  1
  Sn  Sn25  1  0.196547  0.538578  0.541337  1
  Sn  Sn26  1  0.303770  0.040233  0.460739  1
  Sn  Sn27  1  0.803236  0.461395  0.041934  1
  Sn  Sn28  1  0.556274  0.619612  0.750000  1
  Sn  Sn29  1  0.056143  0.880410  0.750000  1
  Sn  Sn30  1  0.442587  0.385602  0.250000  1
  Sn  Sn31  1  0.941578  0.117937  0.250000  1
  Sn  Sn32  1  0.321355  0.145101  0.750000  1
  Sn  Sn33  1  0.821614  0.354173  0.750000  1
  Sn  Sn34  1  0.684929  0.855355  0.250000  1
  Sn  Sn35  1  0.178523  0.641414  0.250000  1
