# generated using pymatgen
data_TbYAl9Os2Pd
_symmetry_space_group_name_H-M   'P 1'
_cell_length_a   7.60075648
_cell_length_b   7.60367705
_cell_length_c   9.55748300
_cell_angle_alpha   90.00000000
_cell_angle_beta   90.00000000
_cell_angle_gamma   119.78697569
_symmetry_Int_Tables_number   1
_chemical_formula_structural   TbYAl9Os2Pd
_chemical_formula_sum   'Tb2 Y2 Al18 Os4 Pd2'
_cell_volume   479.38329531
_cell_formula_units_Z   2
loop_
 _symmetry_equiv_pos_site_id
 _symmetry_equiv_pos_as_xyz
  1  'x, y, z'
loop_
 _atom_site_type_symbol
 _atom_site_label
 _atom_site_symmetry_multiplicity
 _atom_site_fract_x
 _atom_site_fract_y
 _atom_site_fract_z
 _atom_site_occupancy
  Tb  Tb0  1  0.997441  0.670469  0.250000  1
  Tb  Tb1  1  0.002559  0.329531  0.750000  1
  Y  Y2  1  0.670250  0.997694  0.250000  1
  Y  Y3  1  0.329750  0.002306  0.750000  1
  Al  Al4  1  0.132796  0.132775  0.250000  1
  Al  Al5  1  0.867204  0.867225  0.750000  1
  Al  Al6  1  0.002998  0.340230  0.072832  1
  Al  Al7  1  0.997002  0.659770  0.927168  1
  Al  Al8  1  0.997002  0.659770  0.572832  1
  Al  Al9  1  0.340711  0.002949  0.427273  1
  Al  Al10  1  0.002998  0.340230  0.427168  1
  Al  Al11  1  0.659289  0.997051  0.572727  1
  Al  Al12  1  0.659289  0.997051  0.927273  1
  Al  Al13  1  0.340711  0.002949  0.072727  1
  Al  Al14  1  0.339595  0.339538  0.548591  1
  Al  Al15  1  0.660405  0.660462  0.451409  1
  Al  Al16  1  0.660405  0.660462  0.048591  1
  Al  Al17  1  0.339595  0.339538  0.951409  1
  Al  Al18  1  0.336852  0.549276  0.250000  1
  Al  Al19  1  0.663148  0.450724  0.750000  1
  Al  Al20  1  0.549221  0.336806  0.250000  1
  Al  Al21  1  0.450779  0.663194  0.750000  1
  Os  Os22  1  0.672167  0.327617  0.000054  1
  Os  Os23  1  0.327833  0.672383  0.999946  1
  Os  Os24  1  0.327833  0.672383  0.500054  1
  Os  Os25  1  0.672167  0.327617  0.499946  1
  Pd  Pd26  1  0.000000  0.000000  0.000000  1
  Pd  Pd27  1  0.000000  0.000000  0.500000  1
