# generated using pymatgen
data_Li3Ti(B4Ru5)2
_symmetry_space_group_name_H-M   'P 1'
_cell_length_a   2.95764900
_cell_length_b   8.19761691
_cell_length_c   9.90351558
_cell_angle_alpha   89.02398526
_cell_angle_beta   90.00000000
_cell_angle_gamma   90.00000000
_symmetry_Int_Tables_number   1
_chemical_formula_structural   Li3Ti(B4Ru5)2
_chemical_formula_sum   'Li3 Ti1 B8 Ru10'
_cell_volume   240.08256695
_cell_formula_units_Z   1
loop_
 _symmetry_equiv_pos_site_id
 _symmetry_equiv_pos_as_xyz
  1  'x, y, z'
loop_
 _atom_site_type_symbol
 _atom_site_label
 _atom_site_symmetry_multiplicity
 _atom_site_fract_x
 _atom_site_fract_y
 _atom_site_fract_z
 _atom_site_occupancy
  Li  Li0  1  0.500000  0.856299  0.151662  1
  Li  Li1  1  0.500000  0.119385  0.767735  1
  Li  Li2  1  0.500000  0.622022  0.714871  1
  Ti  Ti3  1  0.500000  0.355724  0.329936  1
  B  B4  1  0.500000  0.950430  0.585941  1
  B  B5  1  0.500000  0.040454  0.405184  1
  B  B6  1  0.500000  0.860202  0.896469  1
  B  B7  1  0.500000  0.148805  0.095803  1
  B  B8  1  0.500000  0.654016  0.406868  1
  B  B9  1  0.500000  0.352736  0.619460  1
  B  B10  1  0.500000  0.461691  0.917625  1
  B  B11  1  0.500000  0.552389  0.097098  1
  Ru  Ru12  1  0.000000  0.664619  0.955757  1
  Ru  Ru13  1  0.000000  0.354122  0.060603  1
  Ru  Ru14  1  0.000000  0.848033  0.449466  1
  Ru  Ru15  1  0.000000  0.160497  0.543060  1
  Ru  Ru16  1  0.000000  0.038687  0.970214  1
  Ru  Ru17  1  0.000000  0.361772  0.781134  1
  Ru  Ru18  1  0.000000  0.608424  0.247990  1
  Ru  Ru19  1  0.000000  0.505205  0.514936  1
  Ru  Ru20  1  0.000000  0.877462  0.732676  1
  Ru  Ru21  1  0.000000  0.107026  0.255512  1
