# generated using pymatgen
data_PrTlZnPd3
_symmetry_space_group_name_H-M   'P 1'
_cell_length_a   5.59211958
_cell_length_b   5.59211942
_cell_length_c   5.28166300
_cell_angle_alpha   58.03574030
_cell_angle_beta   58.03574129
_cell_angle_gamma   59.99999624
_symmetry_Int_Tables_number   1
_chemical_formula_structural   PrTlZnPd3
_chemical_formula_sum   'Pr1 Tl1 Zn1 Pd3'
_cell_volume   113.20227067
_cell_formula_units_Z   1
loop_
 _symmetry_equiv_pos_site_id
 _symmetry_equiv_pos_as_xyz
  1  'x, y, z'
loop_
 _atom_site_type_symbol
 _atom_site_label
 _atom_site_symmetry_multiplicity
 _atom_site_fract_x
 _atom_site_fract_y
 _atom_site_fract_z
 _atom_site_occupancy
  Pr  Pr0  1  0.247054  0.247054  0.258837  1
  Tl  Tl1  1  0.994160  0.994160  0.017522  1
  Zn  Zn2  1  0.627737  0.627737  0.116792  1
  Pd  Pd3  1  0.627094  0.126862  0.618950  1
  Pd  Pd4  1  0.126862  0.627094  0.618950  1
  Pd  Pd5  1  0.627094  0.627094  0.618950  1
