# generated using pymatgen
data_Be8AlRe2Mo
_symmetry_space_group_name_H-M   'P 1'
_cell_length_a   4.41060600
_cell_length_b   4.41060750
_cell_length_c   7.18203500
_cell_angle_alpha   90.00000000
_cell_angle_beta   90.00000000
_cell_angle_gamma   120.00000373
_symmetry_Int_Tables_number   1
_chemical_formula_structural   Be8AlRe2Mo
_chemical_formula_sum   'Be8 Al1 Re2 Mo1'
_cell_volume   120.99705736
_cell_formula_units_Z   1
loop_
 _symmetry_equiv_pos_site_id
 _symmetry_equiv_pos_as_xyz
  1  'x, y, z'
loop_
 _atom_site_type_symbol
 _atom_site_label
 _atom_site_symmetry_multiplicity
 _atom_site_fract_x
 _atom_site_fract_y
 _atom_site_fract_z
 _atom_site_occupancy
  Be  Be0  1  0.000000  0.000000  0.000079  1
  Be  Be1  1  0.000000  0.000000  0.484244  1
  Be  Be2  1  0.828693  0.657386  0.244099  1
  Be  Be3  1  0.170071  0.829929  0.757166  1
  Be  Be4  1  0.659859  0.829929  0.757166  1
  Be  Be5  1  0.342614  0.171307  0.244099  1
  Be  Be6  1  0.828693  0.171307  0.244099  1
  Be  Be7  1  0.170071  0.340141  0.757166  1
  Al  Al8  1  0.333333  0.666667  0.066398  1
  Re  Re9  1  0.666667  0.333333  0.932259  1
  Re  Re10  1  0.333333  0.666667  0.449490  1
  Mo  Mo11  1  0.666667  0.333333  0.563734  1
