# generated using pymatgen
data_Sc4RuI4
_symmetry_space_group_name_H-M   'P 1'
_cell_length_a   11.67187404
_cell_length_b   11.67187577
_cell_length_c   5.77518409
_cell_angle_alpha   89.96068787
_cell_angle_beta   89.96068371
_cell_angle_gamma   89.97475490
_symmetry_Int_Tables_number   1
_chemical_formula_structural   Sc4RuI4
_chemical_formula_sum   'Sc8 Ru2 I8'
_cell_volume   786.76826496
_cell_formula_units_Z   2
loop_
 _symmetry_equiv_pos_site_id
 _symmetry_equiv_pos_as_xyz
  1  'x, y, z'
loop_
 _atom_site_type_symbol
 _atom_site_label
 _atom_site_symmetry_multiplicity
 _atom_site_fract_x
 _atom_site_fract_y
 _atom_site_fract_z
 _atom_site_occupancy
  Sc  Sc0  1  0.819558  0.073548  0.999340  1
  Sc  Sc1  1  0.073548  0.819558  0.499340  1
  Sc  Sc2  1  0.073201  0.180274  0.999603  1
  Sc  Sc3  1  0.180274  0.073201  0.499603  1
  Sc  Sc4  1  0.926799  0.819726  0.000397  1
  Sc  Sc5  1  0.926452  0.180442  0.500660  1
  Sc  Sc6  1  0.180442  0.926452  0.000660  1
  Sc  Sc7  1  0.819726  0.926799  0.500397  1
  Ru  Ru8  1  0.999894  0.000106  0.250000  1
  Ru  Ru9  1  0.000106  0.999894  0.750000  1
  I  I10  1  0.672030  0.138048  0.504966  1
  I  I11  1  0.862240  0.672304  0.499370  1
  I  I12  1  0.327696  0.137760  0.000630  1
  I  I13  1  0.137760  0.327696  0.500630  1
  I  I14  1  0.672304  0.862240  0.999370  1
  I  I15  1  0.327970  0.861952  0.495034  1
  I  I16  1  0.138048  0.672030  0.004966  1
  I  I17  1  0.861952  0.327970  0.995034  1
