# generated using pymatgen
data_Tb5Dy11TlIn5Co2
_symmetry_space_group_name_H-M   'P 1'
_cell_length_a   10.37559048
_cell_length_b   10.38262246
_cell_length_c   7.03071341
_cell_angle_alpha   90.01653403
_cell_angle_beta   89.98613954
_cell_angle_gamma   120.00498425
_symmetry_Int_Tables_number   1
_chemical_formula_structural   Tb5Dy11TlIn5Co2
_chemical_formula_sum   'Tb5 Dy11 Tl1 In5 Co2'
_cell_volume   655.88556954
_cell_formula_units_Z   1
loop_
 _symmetry_equiv_pos_site_id
 _symmetry_equiv_pos_as_xyz
  1  'x, y, z'
loop_
 _atom_site_type_symbol
 _atom_site_label
 _atom_site_symmetry_multiplicity
 _atom_site_fract_x
 _atom_site_fract_y
 _atom_site_fract_z
 _atom_site_occupancy
  Tb  Tb0  1  0.535159  0.070604  0.511638  1
  Tb  Tb1  1  0.929221  0.464672  0.511362  1
  Tb  Tb2  1  0.535287  0.464558  0.511630  1
  Tb  Tb3  1  0.464691  0.929206  0.011945  1
  Tb  Tb4  1  0.071565  0.535021  0.012681  1
  Dy  Dy5  1  0.463457  0.535182  0.013031  1
  Dy  Dy6  1  0.177726  0.355297  0.720207  1
  Dy  Dy7  1  0.644879  0.822275  0.720060  1
  Dy  Dy8  1  0.177460  0.822361  0.720235  1
  Dy  Dy9  1  0.822149  0.644607  0.218315  1
  Dy  Dy10  1  0.355253  0.177637  0.219899  1
  Dy  Dy11  1  0.822243  0.177472  0.220324  1
  Dy  Dy12  1  0.666372  0.333120  0.904049  1
  Dy  Dy13  1  0.333506  0.666505  0.403915  1
  Dy  Dy14  1  0.000577  0.000957  0.500407  1
  Dy  Dy15  1  0.000357  0.001042  0.002078  1
  Tl  Tl16  1  0.836848  0.673622  0.761833  1
  In  In17  1  0.326098  0.162961  0.761110  1
  In  In18  1  0.836890  0.163022  0.760710  1
  In  In19  1  0.163091  0.326095  0.260754  1
  In  In20  1  0.673794  0.836817  0.260838  1
  In  In21  1  0.162988  0.836946  0.261171  1
  Co  Co22  1  0.666783  0.333654  0.287872  1
  Co  Co23  1  0.333608  0.666365  0.788138  1
