# generated using pymatgen
data_Sc12Ga2NiI16
_symmetry_space_group_name_H-M   'P 1'
_cell_length_a   9.23087741
_cell_length_b   11.94330390
_cell_length_c   12.63036200
_cell_angle_alpha   117.04543793
_cell_angle_beta   101.29789959
_cell_angle_gamma   100.76976217
_symmetry_Int_Tables_number   1
_chemical_formula_structural   Sc12Ga2NiI16
_chemical_formula_sum   'Sc12 Ga2 Ni1 I16'
_cell_volume   1153.86332034
_cell_formula_units_Z   1
loop_
 _symmetry_equiv_pos_site_id
 _symmetry_equiv_pos_as_xyz
  1  'x, y, z'
loop_
 _atom_site_type_symbol
 _atom_site_label
 _atom_site_symmetry_multiplicity
 _atom_site_fract_x
 _atom_site_fract_y
 _atom_site_fract_z
 _atom_site_occupancy
  Sc  Sc0  1  0.083962  0.266539  0.356859  1
  Sc  Sc1  1  0.903930  0.729345  0.640597  1
  Sc  Sc2  1  0.773815  0.536005  0.330659  1
  Sc  Sc3  1  0.217037  0.463345  0.672498  1
  Sc  Sc4  1  0.273917  0.733843  0.642753  1
  Sc  Sc5  1  0.717200  0.270251  0.359648  1
  Sc  Sc6  1  0.141512  0.536775  0.327476  1
  Sc  Sc7  1  0.847449  0.463754  0.669511  1
  Sc  Sc8  1  0.411155  0.364020  0.281925  1
  Sc  Sc9  1  0.593610  0.635956  0.717775  1
  Sc  Sc10  1  0.462693  0.313906  0.520060  1
  Sc  Sc11  1  0.542562  0.686200  0.479606  1
  Ga  Ga12  1  0.995925  0.499874  0.500034  1
  Ga  Ga13  1  0.338869  0.500128  0.499710  1
  Ni  Ni14  1  0.661810  0.499907  0.500292  1
  I  I15  1  0.395803  0.736011  0.877579  1
  I  I16  1  0.604402  0.261375  0.117745  1
  I  I17  1  0.184359  0.962641  0.781620  1
  I  I18  1  0.810003  0.037448  0.218504  1
  I  I19  1  0.346388  0.096286  0.252642  1
  I  I20  1  0.672889  0.903638  0.747318  1
  I  I21  1  0.571172  0.436750  0.797836  1
  I  I22  1  0.446774  0.563379  0.202145  1
  I  I23  1  0.308183  0.823481  0.464080  1
  I  I24  1  0.692861  0.172661  0.536759  1
  I  I25  1  0.170165  0.176455  0.534882  1
  I  I26  1  0.833005  0.827295  0.464581  1
  I  I27  1  0.923840  0.575564  0.161321  1
  I  I28  1  0.070966  0.424503  0.838922  1
  I  I29  1  0.923701  0.737963  0.882509  1
  I  I30  1  0.080039  0.264707  0.122154  1
