# generated using pymatgen
data_Ce2Fe(Co3As2)3
_symmetry_space_group_name_H-M   'P 1'
_cell_length_a   3.85496200
_cell_length_b   10.77672000
_cell_length_c   12.15117100
_cell_angle_alpha   90.00000000
_cell_angle_beta   90.00000000
_cell_angle_gamma   90.00000000
_symmetry_Int_Tables_number   1
_chemical_formula_structural   Ce2Fe(Co3As2)3
_chemical_formula_sum   'Ce4 Fe2 Co18 As12'
_cell_volume   504.80637777
_cell_formula_units_Z   2
loop_
 _symmetry_equiv_pos_site_id
 _symmetry_equiv_pos_as_xyz
  1  'x, y, z'
loop_
 _atom_site_type_symbol
 _atom_site_label
 _atom_site_symmetry_multiplicity
 _atom_site_fract_x
 _atom_site_fract_y
 _atom_site_fract_z
 _atom_site_occupancy
  Ce  Ce0  1  0.250000  0.581743  0.699831  1
  Ce  Ce1  1  0.250000  0.918257  0.199831  1
  Ce  Ce2  1  0.750000  0.419300  0.299425  1
  Ce  Ce3  1  0.750000  0.080700  0.799425  1
  Fe  Fe4  1  0.250000  0.704277  0.989151  1
  Fe  Fe5  1  0.250000  0.795723  0.489151  1
  Co  Co6  1  0.750000  0.291302  0.009874  1
  Co  Co7  1  0.750000  0.208698  0.509874  1
  Co  Co8  1  0.250000  0.406406  0.485954  1
  Co  Co9  1  0.250000  0.093594  0.985954  1
  Co  Co10  1  0.750000  0.593120  0.516260  1
  Co  Co11  1  0.750000  0.906880  0.016260  1
  Co  Co12  1  0.250000  0.214867  0.175706  1
  Co  Co13  1  0.250000  0.285133  0.675706  1
  Co  Co14  1  0.750000  0.785192  0.824425  1
  Co  Co15  1  0.750000  0.714808  0.324425  1
  Co  Co16  1  0.250000  0.885158  0.696823  1
  Co  Co17  1  0.250000  0.614842  0.196823  1
  Co  Co18  1  0.750000  0.115795  0.303332  1
  Co  Co19  1  0.750000  0.384205  0.803332  1
  Co  Co20  1  0.250000  0.472559  0.931391  1
  Co  Co21  1  0.250000  0.027441  0.431391  1
  Co  Co22  1  0.750000  0.527403  0.067239  1
  Co  Co23  1  0.750000  0.972597  0.567239  1
  As  As24  1  0.250000  0.414483  0.113342  1
  As  As25  1  0.250000  0.085517  0.613342  1
  As  As26  1  0.750000  0.584729  0.884886  1
  As  As27  1  0.750000  0.915271  0.384886  1
  As  As28  1  0.250000  0.273364  0.869129  1
  As  As29  1  0.250000  0.226636  0.369129  1
  As  As30  1  0.750000  0.725455  0.131907  1
  As  As31  1  0.750000  0.774545  0.631907  1
  As  As32  1  0.250000  0.604932  0.393567  1
  As  As33  1  0.250000  0.895068  0.893567  1
  As  As34  1  0.750000  0.395446  0.607759  1
  As  As35  1  0.750000  0.104554  0.107759  1
