# generated using pymatgen
data_Tb4TmP12Ru19
_symmetry_space_group_name_H-M   'P 1'
_cell_length_a   12.53301107
_cell_length_b   12.53625164
_cell_length_c   3.97836500
_cell_angle_alpha   90.00000000
_cell_angle_beta   90.00000000
_cell_angle_gamma   120.00855171
_symmetry_Int_Tables_number   1
_chemical_formula_structural   Tb4TmP12Ru19
_chemical_formula_sum   'Tb4 Tm1 P12 Ru19'
_cell_volume   541.27871680
_cell_formula_units_Z   1
loop_
 _symmetry_equiv_pos_site_id
 _symmetry_equiv_pos_as_xyz
  1  'x, y, z'
loop_
 _atom_site_type_symbol
 _atom_site_label
 _atom_site_symmetry_multiplicity
 _atom_site_fract_x
 _atom_site_fract_y
 _atom_site_fract_z
 _atom_site_occupancy
  Tb  Tb0  1  0.816534  0.816496  0.500000  1
  Tb  Tb1  1  0.183466  0.999961  0.500000  1
  Tb  Tb2  1  0.666637  0.333052  0.000000  1
  Tb  Tb3  1  0.333363  0.666416  0.000000  1
  Tm  Tm4  1  0.000000  0.183023  0.500000  1
  P  P5  1  0.000000  0.815908  0.000000  1
  P  P6  1  0.184055  0.184672  0.000000  1
  P  P7  1  0.815945  0.000618  0.000000  1
  P  P8  1  0.693757  0.171209  0.500000  1
  P  P9  1  0.828739  0.522226  0.500000  1
  P  P10  1  0.476993  0.306139  0.500000  1
  P  P11  1  0.171261  0.693486  0.500000  1
  P  P12  1  0.523007  0.829146  0.500000  1
  P  P13  1  0.306243  0.477452  0.500000  1
  P  P14  1  0.000000  0.372673  0.000000  1
  P  P15  1  0.626879  0.626886  0.000000  1
  P  P16  1  0.373121  0.000006  0.000000  1
  Ru  Ru17  1  0.000000  0.554602  0.000000  1
  Ru  Ru18  1  0.444761  0.445266  0.000000  1
  Ru  Ru19  1  0.555239  0.000505  0.000000  1
  Ru  Ru20  1  0.000000  0.716697  0.500000  1
  Ru  Ru21  1  0.282271  0.282917  0.500000  1
  Ru  Ru22  1  0.717729  0.000646  0.500000  1
  Ru  Ru23  1  0.809423  0.185206  0.000000  1
  Ru  Ru24  1  0.815197  0.623005  0.000000  1
  Ru  Ru25  1  0.376794  0.192301  0.000000  1
  Ru  Ru26  1  0.184803  0.807808  0.000000  1
  Ru  Ru27  1  0.623206  0.815507  0.000000  1
  Ru  Ru28  1  0.190577  0.375783  0.000000  1
  Ru  Ru29  1  0.874297  0.365707  0.500000  1
  Ru  Ru30  1  0.633767  0.507920  0.500000  1
  Ru  Ru31  1  0.491724  0.125735  0.500000  1
  Ru  Ru32  1  0.366233  0.874153  0.500000  1
  Ru  Ru33  1  0.508276  0.634011  0.500000  1
  Ru  Ru34  1  0.125703  0.491410  0.500000  1
  Ru  Ru35  1  0.000000  0.001453  0.000000  1
