# generated using pymatgen
data_Cs3YIrBr9
_symmetry_space_group_name_H-M   'P 1'
_cell_length_a   7.94795900
_cell_length_b   7.94795740
_cell_length_c   19.95135100
_cell_angle_alpha   90.00000000
_cell_angle_beta   90.00000000
_cell_angle_gamma   119.99998584
_symmetry_Int_Tables_number   1
_chemical_formula_structural   Cs3YIrBr9
_chemical_formula_sum   'Cs6 Y2 Ir2 Br18'
_cell_volume   1091.47590211
_cell_formula_units_Z   2
loop_
 _symmetry_equiv_pos_site_id
 _symmetry_equiv_pos_as_xyz
  1  'x, y, z'
loop_
 _atom_site_type_symbol
 _atom_site_label
 _atom_site_symmetry_multiplicity
 _atom_site_fract_x
 _atom_site_fract_y
 _atom_site_fract_z
 _atom_site_occupancy
  Cs  Cs0  1  0.333333  0.666667  0.063796  1
  Cs  Cs1  1  0.666667  0.333333  0.936204  1
  Cs  Cs2  1  0.666667  0.333333  0.567070  1
  Cs  Cs3  1  0.333333  0.666667  0.432930  1
  Cs  Cs4  1  0.000000  0.000000  0.255966  1
  Cs  Cs5  1  0.000000  0.000000  0.744034  1
  Y  Y6  1  0.666667  0.333333  0.164678  1
  Y  Y7  1  0.333333  0.666667  0.835322  1
  Ir  Ir8  1  0.333333  0.666667  0.666600  1
  Ir  Ir9  1  0.666667  0.333333  0.333400  1
  Br  Br10  1  0.184210  0.368419  0.595035  1
  Br  Br11  1  0.815790  0.631581  0.404965  1
  Br  Br12  1  0.631581  0.815790  0.595035  1
  Br  Br13  1  0.833673  0.667348  0.091629  1
  Br  Br14  1  0.368419  0.184210  0.404965  1
  Br  Br15  1  0.166327  0.332652  0.908371  1
  Br  Br16  1  0.184210  0.815790  0.595035  1
  Br  Br17  1  0.332652  0.166327  0.091629  1
  Br  Br18  1  0.815790  0.184210  0.404965  1
  Br  Br19  1  0.667348  0.833673  0.908371  1
  Br  Br20  1  0.833673  0.166327  0.091629  1
  Br  Br21  1  0.166327  0.833673  0.908371  1
  Br  Br22  1  0.511439  0.022879  0.261791  1
  Br  Br23  1  0.488561  0.977121  0.738209  1
  Br  Br24  1  0.977121  0.488561  0.261791  1
  Br  Br25  1  0.022879  0.511439  0.738209  1
  Br  Br26  1  0.511439  0.488561  0.261791  1
  Br  Br27  1  0.488561  0.511439  0.738209  1
