# generated using pymatgen
data_Hf3Sc(Co3Si)2
_symmetry_space_group_name_H-M   'P 1'
_cell_length_a   5.00931700
_cell_length_b   5.00931744
_cell_length_c   7.54842200
_cell_angle_alpha   90.00000000
_cell_angle_beta   90.00000000
_cell_angle_gamma   120.00000368
_symmetry_Int_Tables_number   1
_chemical_formula_structural   Hf3Sc(Co3Si)2
_chemical_formula_sum   'Hf3 Sc1 Co6 Si2'
_cell_volume   164.03777009
_cell_formula_units_Z   1
loop_
 _symmetry_equiv_pos_site_id
 _symmetry_equiv_pos_as_xyz
  1  'x, y, z'
loop_
 _atom_site_type_symbol
 _atom_site_label
 _atom_site_symmetry_multiplicity
 _atom_site_fract_x
 _atom_site_fract_y
 _atom_site_fract_z
 _atom_site_occupancy
  Hf  Hf0  1  0.333333  0.666667  0.563990  1
  Hf  Hf1  1  0.666667  0.333333  0.439188  1
  Hf  Hf2  1  0.666667  0.333333  0.053877  1
  Sc  Sc3  1  0.333333  0.666667  0.943196  1
  Co  Co4  1  0.831527  0.168473  0.748020  1
  Co  Co5  1  0.660792  0.830396  0.252050  1
  Co  Co6  1  0.169604  0.830396  0.252050  1
  Co  Co7  1  0.831527  0.663054  0.748020  1
  Co  Co8  1  0.169604  0.339208  0.252050  1
  Co  Co9  1  0.336946  0.168473  0.748020  1
  Si  Si10  1  0.000000  0.000000  0.498983  1
  Si  Si11  1  0.000000  0.000000  0.000556  1
