# generated using pymatgen
data_TaP3SeO12
_symmetry_space_group_name_H-M   'P 1'
_cell_length_a   8.69137606
_cell_length_b   8.68433036
_cell_length_c   9.14225322
_cell_angle_alpha   89.78615041
_cell_angle_beta   61.73467686
_cell_angle_gamma   119.93451033
_symmetry_Int_Tables_number   1
_chemical_formula_structural   TaP3SeO12
_chemical_formula_sum   'Ta2 P6 Se2 O24'
_cell_volume   499.96532501
_cell_formula_units_Z   2
loop_
 _symmetry_equiv_pos_site_id
 _symmetry_equiv_pos_as_xyz
  1  'x, y, z'
loop_
 _atom_site_type_symbol
 _atom_site_label
 _atom_site_symmetry_multiplicity
 _atom_site_fract_x
 _atom_site_fract_y
 _atom_site_fract_z
 _atom_site_occupancy
  Ta  Ta0  1  0.787083  0.143703  0.070848  1
  Ta  Ta1  1  0.789004  0.643325  0.565893  1
  P  P2  1  0.276691  0.027362  0.252787  1
  P  P3  1  0.719355  0.749592  0.249260  1
  P  P4  1  0.279932  0.248222  0.753754  1
  P  P5  1  0.718550  0.968416  0.750053  1
  P  P6  1  0.002197  0.535832  0.749184  1
  P  P7  1  0.996284  0.466585  0.255042  1
  Se  Se8  1  0.189931  0.346105  0.458839  1
  Se  Se9  1  0.199941  0.854513  0.949416  1
  O  O10  1  0.491837  0.065290  0.208143  1
  O  O11  1  0.862474  0.362239  0.911473  1
  O  O12  1  0.892332  0.156635  0.592912  1
  O  O13  1  0.848141  0.539363  0.708024  1
  O  O14  1  0.142867  0.640391  0.091265  1
  O  O15  1  0.100655  0.840374  0.404896  1
  O  O16  1  0.139873  0.441841  0.287131  1
  O  O17  1  0.129796  0.718641  0.772988  1
  O  O18  1  0.164242  0.514861  0.589274  1
  O  O19  1  0.259522  0.188196  0.293363  1
  O  O20  1  0.270945  0.010261  0.084871  1
  O  O21  1  0.717236  0.924759  0.216359  1
  O  O22  1  0.523213  0.570470  0.284145  1
  O  O23  1  0.241956  0.234654  0.602756  1
  O  O24  1  0.836481  0.486538  0.414122  1
  O  O25  1  0.090809  0.228466  0.920389  1
  O  O26  1  0.911969  0.777114  0.075739  1
  O  O27  1  0.508328  0.909763  0.780352  1
  O  O28  1  0.754336  0.752945  0.400823  1
  O  O29  1  0.482777  0.445144  0.702933  1
  O  O30  1  0.316454  0.099062  0.778853  1
  O  O31  1  0.734850  0.998897  0.910155  1
  O  O32  1  0.762197  0.816225  0.698523  1
  O  O33  1  0.857740  0.294216  0.215436  1
