# generated using pymatgen
data_Tm10IrOs3
_symmetry_space_group_name_H-M   'P 1'
_cell_length_a   6.30611646
_cell_length_b   7.27490310
_cell_length_c   8.26379854
_cell_angle_alpha   96.79469416
_cell_angle_beta   112.31802824
_cell_angle_gamma   89.99183481
_symmetry_Int_Tables_number   1
_chemical_formula_structural   Tm10IrOs3
_chemical_formula_sum   'Tm10 Ir1 Os3'
_cell_volume   347.83654273
_cell_formula_units_Z   1
loop_
 _symmetry_equiv_pos_site_id
 _symmetry_equiv_pos_as_xyz
  1  'x, y, z'
loop_
 _atom_site_type_symbol
 _atom_site_label
 _atom_site_symmetry_multiplicity
 _atom_site_fract_x
 _atom_site_fract_y
 _atom_site_fract_z
 _atom_site_occupancy
  Tm  Tm0  1  0.969798  0.915844  0.179326  1
  Tm  Tm1  1  0.790066  0.582059  0.818557  1
  Tm  Tm2  1  0.026107  0.083224  0.815577  1
  Tm  Tm3  1  0.208647  0.419171  0.179726  1
  Tm  Tm4  1  0.650271  0.816918  0.439828  1
  Tm  Tm5  1  0.210518  0.681988  0.561637  1
  Tm  Tm6  1  0.350287  0.181695  0.562858  1
  Tm  Tm7  1  0.792654  0.319366  0.439613  1
  Tm  Tm8  1  0.422786  0.748808  0.999339  1
  Tm  Tm9  1  0.577654  0.250583  0.999384  1
  Ir  Ir10  1  0.394157  0.076556  0.220932  1
  Os  Os11  1  0.823884  0.575905  0.218174  1
  Os  Os12  1  0.607795  0.924446  0.782003  1
  Os  Os13  1  0.175378  0.423438  0.783046  1
