# generated using pymatgen
data_Tm4Lu6In8Co3Pt
_symmetry_space_group_name_H-M   'P 1'
_cell_length_a   3.53166500
_cell_length_b   7.93398096
_cell_length_c   17.86112661
_cell_angle_alpha   89.91896574
_cell_angle_beta   90.00000000
_cell_angle_gamma   90.00000000
_symmetry_Int_Tables_number   1
_chemical_formula_structural   Tm4Lu6In8Co3Pt
_chemical_formula_sum   'Tm4 Lu6 In8 Co3 Pt1'
_cell_volume   500.47117586
_cell_formula_units_Z   1
loop_
 _symmetry_equiv_pos_site_id
 _symmetry_equiv_pos_as_xyz
  1  'x, y, z'
loop_
 _atom_site_type_symbol
 _atom_site_label
 _atom_site_symmetry_multiplicity
 _atom_site_fract_x
 _atom_site_fract_y
 _atom_site_fract_z
 _atom_site_occupancy
  Tm  Tm0  1  0.000000  0.253958  0.722048  1
  Tm  Tm1  1  0.000000  0.757048  0.280408  1
  Tm  Tm2  1  0.000000  0.999798  0.998777  1
  Tm  Tm3  1  0.000000  0.500415  0.501370  1
  Lu  Lu4  1  0.000000  0.113741  0.410799  1
  Lu  Lu5  1  0.000000  0.885207  0.591888  1
  Lu  Lu6  1  0.000000  0.384940  0.907785  1
  Lu  Lu7  1  0.000000  0.617854  0.084922  1
  Lu  Lu8  1  0.000000  0.234180  0.223947  1
  Lu  Lu9  1  0.000000  0.754466  0.777441  1
  In  In10  1  0.500000  0.423604  0.352331  1
  In  In11  1  0.500000  0.571679  0.652486  1
  In  In12  1  0.500000  0.071437  0.847469  1
  In  In13  1  0.500000  0.930118  0.150424  1
  In  In14  1  0.500000  0.292923  0.064968  1
  In  In15  1  0.500000  0.703654  0.929240  1
  In  In16  1  0.500000  0.203181  0.568889  1
  In  In17  1  0.500000  0.796229  0.433510  1
  Co  Co18  1  0.500000  0.023164  0.305206  1
  Co  Co19  1  0.500000  0.979371  0.696155  1
  Co  Co20  1  0.500000  0.479795  0.803626  1
  Pt  Pt21  1  0.500000  0.523238  0.196311  1
