# generated using pymatgen
data_Nd2Ho8C4I15
_symmetry_space_group_name_H-M   'P 1'
_cell_length_a   9.59031774
_cell_length_b   10.36834939
_cell_length_c   11.53126336
_cell_angle_alpha   93.56051719
_cell_angle_beta   114.14404185
_cell_angle_gamma   109.51635339
_symmetry_Int_Tables_number   1
_chemical_formula_structural   Nd2Ho8C4I15
_chemical_formula_sum   'Nd2 Ho8 C4 I15'
_cell_volume   959.50717236
_cell_formula_units_Z   1
loop_
 _symmetry_equiv_pos_site_id
 _symmetry_equiv_pos_as_xyz
  1  'x, y, z'
loop_
 _atom_site_type_symbol
 _atom_site_label
 _atom_site_symmetry_multiplicity
 _atom_site_fract_x
 _atom_site_fract_y
 _atom_site_fract_z
 _atom_site_occupancy
  Nd  Nd0  1  0.291396  0.432588  0.954896  1
  Nd  Nd1  1  0.660527  0.256515  0.838224  1
  Ho  Ho2  1  0.592671  0.540905  0.336418  1
  Ho  Ho3  1  0.351710  0.738776  0.160029  1
  Ho  Ho4  1  0.766304  0.873638  0.252244  1
  Ho  Ho5  1  0.528373  0.188608  0.099968  1
  Ho  Ho6  1  0.239042  0.128502  0.752800  1
  Ho  Ho7  1  0.408081  0.459375  0.663621  1
  Ho  Ho8  1  0.474455  0.814205  0.900196  1
  Ho  Ho9  1  0.690589  0.564949  0.042146  1
  C  C10  1  0.486170  0.303687  0.943410  1
  C  C11  1  0.520363  0.703226  0.059782  1
  C  C12  1  0.457156  0.368410  0.836032  1
  C  C13  1  0.548640  0.635958  0.166471  1
  I  I14  1  0.216769  0.908182  0.940036  1
  I  I15  1  0.112610  0.192146  0.478652  1
  I  I16  1  0.162097  0.563557  0.698059  1
  I  I17  1  0.397774  0.965251  0.652074  1
  I  I18  1  0.708647  0.734974  0.821507  1
  I  I19  1  0.294582  0.260769  0.185184  1
  I  I20  1  0.838636  0.442167  0.294717  1
  I  I21  1  0.886745  0.806400  0.523916  1
  I  I22  1  0.360100  0.628906  0.408508  1
  I  I23  1  0.037575  0.829725  0.216760  1
  I  I24  1  0.789205  0.090568  0.068475  1
  I  I25  1  0.639034  0.376625  0.583535  1
  I  I26  1  0.948471  0.157168  0.775126  1
  I  I27  1  0.588606  0.024220  0.341317  1
  I  I28  1  0.003671  0.510003  0.005899  1
