# generated using pymatgen
data_EuDyHoRuO7
_symmetry_space_group_name_H-M   'P 1'
_cell_length_a   6.41900460
_cell_length_b   6.41775104
_cell_length_c   7.44753500
_cell_angle_alpha   90.00000000
_cell_angle_beta   90.00000000
_cell_angle_gamma   109.49013741
_symmetry_Int_Tables_number   1
_chemical_formula_structural   EuDyHoRuO7
_chemical_formula_sum   'Eu2 Dy2 Ho2 Ru2 O14'
_cell_volume   289.22519546
_cell_formula_units_Z   2
loop_
 _symmetry_equiv_pos_site_id
 _symmetry_equiv_pos_as_xyz
  1  'x, y, z'
loop_
 _atom_site_type_symbol
 _atom_site_label
 _atom_site_symmetry_multiplicity
 _atom_site_fract_x
 _atom_site_fract_y
 _atom_site_fract_z
 _atom_site_occupancy
  Eu  Eu0  1  0.000000  0.000000  0.500000  1
  Eu  Eu1  1  0.000000  0.000000  0.000000  1
  Dy  Dy2  1  0.931262  0.482550  0.750000  1
  Dy  Dy3  1  0.068738  0.517450  0.250000  1
  Ho  Ho4  1  0.482875  0.932434  0.750000  1
  Ho  Ho5  1  0.517125  0.067566  0.250000  1
  Ru  Ru6  1  0.500000  0.500000  0.500000  1
  Ru  Ru7  1  0.500000  0.500000  0.000000  1
  O  O8  1  0.589810  0.592100  0.750000  1
  O  O9  1  0.410190  0.407900  0.250000  1
  O  O10  1  0.839903  0.114253  0.750000  1
  O  O11  1  0.160097  0.885747  0.250000  1
  O  O12  1  0.116894  0.841604  0.750000  1
  O  O13  1  0.883106  0.158396  0.250000  1
  O  O14  1  0.446922  0.183857  0.961420  1
  O  O15  1  0.553078  0.816143  0.461420  1
  O  O16  1  0.182540  0.441578  0.961773  1
  O  O17  1  0.817460  0.558422  0.461773  1
  O  O18  1  0.446922  0.183857  0.538580  1
  O  O19  1  0.553078  0.816143  0.038580  1
  O  O20  1  0.817460  0.558422  0.038227  1
  O  O21  1  0.182540  0.441578  0.538227  1
