# generated using pymatgen
data_La4SmTcBi2
_symmetry_space_group_name_H-M   'P 1'
_cell_length_a   8.58511500
_cell_length_b   9.24319100
_cell_length_c   12.74315200
_cell_angle_alpha   90.00000000
_cell_angle_beta   90.00000000
_cell_angle_gamma   90.00000000
_symmetry_Int_Tables_number   1
_chemical_formula_structural   La4SmTcBi2
_chemical_formula_sum   'La16 Sm4 Tc4 Bi8'
_cell_volume   1011.21827048
_cell_formula_units_Z   4
loop_
 _symmetry_equiv_pos_site_id
 _symmetry_equiv_pos_as_xyz
  1  'x, y, z'
loop_
 _atom_site_type_symbol
 _atom_site_label
 _atom_site_symmetry_multiplicity
 _atom_site_fract_x
 _atom_site_fract_y
 _atom_site_fract_z
 _atom_site_occupancy
  La  La0  1  0.841097  0.750000  0.795729  1
  La  La1  1  0.158903  0.250000  0.204271  1
  La  La2  1  0.341097  0.250000  0.704271  1
  La  La3  1  0.658903  0.750000  0.295729  1
  La  La4  1  0.374768  0.750000  0.697893  1
  La  La5  1  0.625232  0.250000  0.302107  1
  La  La6  1  0.874768  0.250000  0.802107  1
  La  La7  1  0.125232  0.750000  0.197893  1
  La  La8  1  0.677871  0.030505  0.563742  1
  La  La9  1  0.322129  0.969495  0.436258  1
  La  La10  1  0.177871  0.969495  0.936258  1
  La  La11  1  0.322129  0.530505  0.436258  1
  La  La12  1  0.822129  0.030505  0.063742  1
  La  La13  1  0.677871  0.469495  0.563742  1
  La  La14  1  0.822129  0.469495  0.063742  1
  La  La15  1  0.177871  0.530505  0.936258  1
  Sm  Sm16  1  0.955117  0.750000  0.502351  1
  Sm  Sm17  1  0.044883  0.250000  0.497649  1
  Sm  Sm18  1  0.455117  0.250000  0.997649  1
  Sm  Sm19  1  0.544883  0.750000  0.002351  1
  Tc  Tc20  1  0.590514  0.750000  0.520804  1
  Tc  Tc21  1  0.409486  0.250000  0.479196  1
  Tc  Tc22  1  0.090514  0.250000  0.979196  1
  Tc  Tc23  1  0.909486  0.750000  0.020804  1
  Bi  Bi24  1  0.571205  0.492307  0.830618  1
  Bi  Bi25  1  0.428795  0.507693  0.169382  1
  Bi  Bi26  1  0.071205  0.507693  0.669382  1
  Bi  Bi27  1  0.428795  0.992307  0.169382  1
  Bi  Bi28  1  0.928795  0.492307  0.330618  1
  Bi  Bi29  1  0.571205  0.007693  0.830618  1
  Bi  Bi30  1  0.928795  0.007693  0.330618  1
  Bi  Bi31  1  0.071205  0.992307  0.669382  1
