# generated using pymatgen
data_YbPt2AuO7
_symmetry_space_group_name_H-M   'P 1'
_cell_length_a   7.22169390
_cell_length_b   7.22169459
_cell_length_c   7.09007000
_cell_angle_alpha   60.60111085
_cell_angle_beta   60.60110774
_cell_angle_gamma   61.14050091
_symmetry_Int_Tables_number   1
_chemical_formula_structural   YbPt2AuO7
_chemical_formula_sum   'Yb2 Pt4 Au2 O14'
_cell_volume   266.05557967
_cell_formula_units_Z   2
loop_
 _symmetry_equiv_pos_site_id
 _symmetry_equiv_pos_as_xyz
  1  'x, y, z'
loop_
 _atom_site_type_symbol
 _atom_site_label
 _atom_site_symmetry_multiplicity
 _atom_site_fract_x
 _atom_site_fract_y
 _atom_site_fract_z
 _atom_site_occupancy
  Yb  Yb0  1  0.625000  0.125000  0.625000  1
  Yb  Yb1  1  0.125000  0.625000  0.625000  1
  Pt  Pt2  1  0.625000  0.125000  0.125000  1
  Pt  Pt3  1  0.125000  0.125000  0.125000  1
  Pt  Pt4  1  0.125000  0.625000  0.125000  1
  Pt  Pt5  1  0.125000  0.125000  0.625000  1
  Au  Au6  1  0.625000  0.625000  0.125000  1
  Au  Au7  1  0.625000  0.625000  0.625000  1
  O  O8  1  0.040137  0.457681  0.460318  1
  O  O9  1  0.798289  0.798289  0.201711  1
  O  O10  1  0.792319  0.209863  0.208137  1
  O  O11  1  0.040137  0.457681  0.041863  1
  O  O12  1  0.457681  0.040137  0.460318  1
  O  O13  1  0.728092  0.728092  0.771908  1
  O  O14  1  0.033543  0.033543  0.466457  1
  O  O15  1  0.792319  0.209863  0.789682  1
  O  O16  1  0.521908  0.521908  0.478092  1
  O  O17  1  0.216457  0.216457  0.783543  1
  O  O18  1  0.209863  0.792319  0.208137  1
  O  O19  1  0.457681  0.040137  0.041863  1
  O  O20  1  0.451711  0.451711  0.048289  1
  O  O21  1  0.209863  0.792319  0.789682  1
