# generated using pymatgen
data_Sr6Sc(RhO6)2
_symmetry_space_group_name_H-M   'P 1'
_cell_length_a   8.88884647
_cell_length_b   8.88884677
_cell_length_c   6.99377978
_cell_angle_alpha   67.57282242
_cell_angle_beta   67.57282085
_cell_angle_gamma   36.84164569
_symmetry_Int_Tables_number   1
_chemical_formula_structural   Sr6Sc(RhO6)2
_chemical_formula_sum   'Sr6 Sc1 Rh2 O12'
_cell_volume   303.36780513
_cell_formula_units_Z   1
loop_
 _symmetry_equiv_pos_site_id
 _symmetry_equiv_pos_as_xyz
  1  'x, y, z'
loop_
 _atom_site_type_symbol
 _atom_site_label
 _atom_site_symmetry_multiplicity
 _atom_site_fract_x
 _atom_site_fract_y
 _atom_site_fract_z
 _atom_site_occupancy
  Sr  Sr0  1  0.212720  0.212720  0.706547  1
  Sr  Sr1  1  0.883738  0.883738  0.708760  1
  Sr  Sr2  1  0.548809  0.548809  0.708163  1
  Sr  Sr3  1  0.787280  0.787280  0.293453  1
  Sr  Sr4  1  0.451191  0.451191  0.291837  1
  Sr  Sr5  1  0.116262  0.116262  0.291240  1
  Sc  Sc6  1  0.000000  0.000000  0.000000  1
  Rh  Rh7  1  0.668509  0.668509  0.000325  1
  Rh  Rh8  1  0.331491  0.331491  0.999675  1
  O  O9  1  0.280052  0.280052  0.323777  1
  O  O10  1  0.944079  0.944079  0.331238  1
  O  O11  1  0.612393  0.612393  0.322695  1
  O  O12  1  0.719948  0.719948  0.676223  1
  O  O13  1  0.387607  0.387607  0.677305  1
  O  O14  1  0.055921  0.055921  0.668762  1
  O  O15  1  0.000000  0.500000  0.000000  1
  O  O16  1  0.655987  0.171599  0.000442  1
  O  O17  1  0.344013  0.828401  0.999558  1
  O  O18  1  0.500000  0.000000  0.000000  1
  O  O19  1  0.171599  0.655987  0.000442  1
  O  O20  1  0.828401  0.344013  0.999558  1
