# generated using pymatgen
data_Tb2Ho8Tl3In5Pd4
_symmetry_space_group_name_H-M   'P 1'
_cell_length_a   3.60915800
_cell_length_b   8.19825830
_cell_length_c   18.32252369
_cell_angle_alpha   89.96865222
_cell_angle_beta   90.00000000
_cell_angle_gamma   90.00000000
_symmetry_Int_Tables_number   1
_chemical_formula_structural   Tb2Ho8Tl3In5Pd4
_chemical_formula_sum   'Tb2 Ho8 Tl3 In5 Pd4'
_cell_volume   542.14158274
_cell_formula_units_Z   1
loop_
 _symmetry_equiv_pos_site_id
 _symmetry_equiv_pos_as_xyz
  1  'x, y, z'
loop_
 _atom_site_type_symbol
 _atom_site_label
 _atom_site_symmetry_multiplicity
 _atom_site_fract_x
 _atom_site_fract_y
 _atom_site_fract_z
 _atom_site_occupancy
  Tb  Tb0  1  0.000000  0.498774  0.500167  1
  Tb  Tb1  1  0.000000  0.000057  0.999960  1
  Ho  Ho2  1  0.000000  0.739980  0.281102  1
  Ho  Ho3  1  0.000000  0.260103  0.718799  1
  Ho  Ho4  1  0.000000  0.760193  0.780455  1
  Ho  Ho5  1  0.000000  0.239294  0.219278  1
  Ho  Ho6  1  0.000000  0.617367  0.084935  1
  Ho  Ho7  1  0.000000  0.382864  0.915068  1
  Ho  Ho8  1  0.000000  0.883407  0.584591  1
  Ho  Ho9  1  0.000000  0.117866  0.416223  1
  Tl  Tl10  1  0.500000  0.708458  0.932587  1
  Tl  Tl11  1  0.500000  0.291857  0.067352  1
  Tl  Tl12  1  0.500000  0.792215  0.432819  1
  In  In13  1  0.500000  0.207663  0.568013  1
  In  In14  1  0.500000  0.580791  0.650498  1
  In  In15  1  0.500000  0.416343  0.349036  1
  In  In16  1  0.500000  0.916631  0.151030  1
  In  In17  1  0.500000  0.083168  0.848930  1
  Pd  Pd18  1  0.500000  0.526314  0.197384  1
  Pd  Pd19  1  0.500000  0.474048  0.802659  1
  Pd  Pd20  1  0.500000  0.976352  0.696240  1
  Pd  Pd21  1  0.500000  0.026254  0.302873  1
