# generated using pymatgen
data_Y3HfAl17SiIr6
_symmetry_space_group_name_H-M   'P 1'
_cell_length_a   7.53957704
_cell_length_b   7.52940635
_cell_length_c   9.34366800
_cell_angle_alpha   90.00000000
_cell_angle_beta   90.00000000
_cell_angle_gamma   119.73488374
_symmetry_Int_Tables_number   1
_chemical_formula_structural   Y3HfAl17SiIr6
_chemical_formula_sum   'Y3 Hf1 Al17 Si1 Ir6'
_cell_volume   460.58498259
_cell_formula_units_Z   1
loop_
 _symmetry_equiv_pos_site_id
 _symmetry_equiv_pos_as_xyz
  1  'x, y, z'
loop_
 _atom_site_type_symbol
 _atom_site_label
 _atom_site_symmetry_multiplicity
 _atom_site_fract_x
 _atom_site_fract_y
 _atom_site_fract_z
 _atom_site_occupancy
  Y  Y0  1  0.006510  0.324351  0.750000  1
  Y  Y1  1  0.670884  0.995119  0.250000  1
  Y  Y2  1  0.325086  0.006846  0.750000  1
  Hf  Hf3  1  0.995130  0.671584  0.250000  1
  Al  Al4  1  0.124776  0.122064  0.250000  1
  Al  Al5  1  0.000694  0.337897  0.078909  1
  Al  Al6  1  0.999695  0.663506  0.928500  1
  Al  Al7  1  0.999695  0.663506  0.571500  1
  Al  Al8  1  0.331604  0.998006  0.421043  1
  Al  Al9  1  0.000694  0.337897  0.421091  1
  Al  Al10  1  0.663041  0.998641  0.575858  1
  Al  Al11  1  0.663041  0.998641  0.924142  1
  Al  Al12  1  0.331604  0.998006  0.078957  1
  Al  Al13  1  0.336141  0.336197  0.550643  1
  Al  Al14  1  0.669899  0.667325  0.439220  1
  Al  Al15  1  0.669899  0.667325  0.060780  1
  Al  Al16  1  0.336141  0.336197  0.949357  1
  Al  Al17  1  0.334424  0.548384  0.250000  1
  Al  Al18  1  0.664690  0.452367  0.750000  1
  Al  Al19  1  0.553794  0.343118  0.250000  1
  Al  Al20  1  0.450464  0.662347  0.750000  1
  Si  Si21  1  0.868117  0.867134  0.750000  1
  Ir  Ir22  1  0.673738  0.329809  0.000814  1
  Ir  Ir23  1  0.329587  0.673698  0.001226  1
  Ir  Ir24  1  0.329587  0.673698  0.498774  1
  Ir  Ir25  1  0.673738  0.329809  0.499186  1
  Ir  Ir26  1  0.998666  0.998267  0.994907  1
  Ir  Ir27  1  0.998666  0.998267  0.505093  1
