# generated using pymatgen
data_Ce8Fe3Si12Tc
_symmetry_space_group_name_H-M   'P 1'
_cell_length_a   8.16623900
_cell_length_b   8.16623925
_cell_length_c   8.05644300
_cell_angle_alpha   90.00000000
_cell_angle_beta   90.00000000
_cell_angle_gamma   119.99999495
_symmetry_Int_Tables_number   1
_chemical_formula_structural   Ce8Fe3Si12Tc
_chemical_formula_sum   'Ce8 Fe3 Si12 Tc1'
_cell_volume   465.28406384
_cell_formula_units_Z   1
loop_
 _symmetry_equiv_pos_site_id
 _symmetry_equiv_pos_as_xyz
  1  'x, y, z'
loop_
 _atom_site_type_symbol
 _atom_site_label
 _atom_site_symmetry_multiplicity
 _atom_site_fract_x
 _atom_site_fract_y
 _atom_site_fract_z
 _atom_site_occupancy
  Ce  Ce0  1  0.000000  0.000000  0.251332  1
  Ce  Ce1  1  0.000000  0.000000  0.749093  1
  Ce  Ce2  1  0.498770  0.501230  0.248759  1
  Ce  Ce3  1  0.498770  0.997539  0.248759  1
  Ce  Ce4  1  0.002461  0.501230  0.248759  1
  Ce  Ce5  1  0.499269  0.500731  0.751676  1
  Ce  Ce6  1  0.499269  0.998538  0.751676  1
  Ce  Ce7  1  0.001462  0.500731  0.751676  1
  Fe  Fe8  1  0.333333  0.666667  0.489920  1
  Fe  Fe9  1  0.666667  0.333333  0.521587  1
  Fe  Fe10  1  0.666667  0.333333  0.980952  1
  Si  Si11  1  0.169017  0.830983  0.501532  1
  Si  Si12  1  0.169017  0.338034  0.501532  1
  Si  Si13  1  0.661966  0.830983  0.501532  1
  Si  Si14  1  0.830299  0.169701  0.497166  1
  Si  Si15  1  0.830299  0.660595  0.497166  1
  Si  Si16  1  0.339405  0.169701  0.497166  1
  Si  Si17  1  0.830142  0.169858  0.002811  1
  Si  Si18  1  0.830142  0.660283  0.002811  1
  Si  Si19  1  0.339717  0.169858  0.002811  1
  Si  Si20  1  0.163540  0.836460  0.998613  1
  Si  Si21  1  0.163540  0.327082  0.998613  1
  Si  Si22  1  0.672918  0.836460  0.998613  1
  Tc  Tc23  1  0.333333  0.666667  0.005448  1
