# generated using pymatgen
data_Ho3Tm4Sn23Os6
_symmetry_space_group_name_H-M   'P 1'
_cell_length_a   9.84673623
_cell_length_b   9.82384260
_cell_length_c   10.09853288
_cell_angle_alpha   89.99999692
_cell_angle_beta   90.06049680
_cell_angle_gamma   119.92311504
_symmetry_Int_Tables_number   1
_chemical_formula_structural   Ho3Tm4Sn23Os6
_chemical_formula_sum   'Ho3 Tm4 Sn23 Os6'
_cell_volume   846.63893902
_cell_formula_units_Z   1
loop_
 _symmetry_equiv_pos_site_id
 _symmetry_equiv_pos_as_xyz
  1  'x, y, z'
loop_
 _atom_site_type_symbol
 _atom_site_label
 _atom_site_symmetry_multiplicity
 _atom_site_fract_x
 _atom_site_fract_y
 _atom_site_fract_z
 _atom_site_occupancy
  Ho  Ho0  1  0.000464  0.000232  0.000021  1
  Ho  Ho1  1  0.486255  0.972362  0.301804  1
  Ho  Ho2  1  0.486255  0.513894  0.301804  1
  Tm  Tm3  1  0.512794  0.487324  0.699224  1
  Tm  Tm4  1  0.512794  0.025469  0.699224  1
  Tm  Tm5  1  0.975161  0.487580  0.699594  1
  Tm  Tm6  1  0.025184  0.512592  0.300420  1
  Sn  Sn7  1  0.666125  0.333062  0.172385  1
  Sn  Sn8  1  0.666846  0.333423  0.865023  1
  Sn  Sn9  1  0.332205  0.666103  0.133121  1
  Sn  Sn10  1  0.349874  0.350071  0.999692  1
  Sn  Sn11  1  0.000146  0.650182  0.999940  1
  Sn  Sn12  1  0.650445  0.000352  0.000237  1
  Sn  Sn13  1  0.650445  0.650094  0.000237  1
  Sn  Sn14  1  0.333480  0.666741  0.827490  1
  Sn  Sn15  1  0.440837  0.220419  0.464839  1
  Sn  Sn16  1  0.221138  0.779354  0.535550  1
  Sn  Sn17  1  0.221138  0.441783  0.535550  1
  Sn  Sn18  1  0.559277  0.779638  0.535868  1
  Sn  Sn19  1  0.118291  0.881995  0.276794  1
  Sn  Sn20  1  0.778898  0.558347  0.464690  1
  Sn  Sn21  1  0.778898  0.220552  0.464690  1
  Sn  Sn22  1  0.349874  0.999803  0.999692  1
  Sn  Sn23  1  0.118291  0.236297  0.276794  1
  Sn  Sn24  1  0.765134  0.882567  0.277072  1
  Sn  Sn25  1  0.236041  0.118020  0.722534  1
  Sn  Sn26  1  0.881531  0.763596  0.723223  1
  Sn  Sn27  1  0.881531  0.117934  0.723223  1
  Sn  Sn28  1  0.000024  0.000012  0.499974  1
  Sn  Sn29  1  0.000146  0.349964  0.999940  1
  Os  Os30  1  0.170360  0.828896  0.797067  1
  Os  Os31  1  0.170360  0.341463  0.797067  1
  Os  Os32  1  0.657889  0.828944  0.797387  1
  Os  Os33  1  0.341366  0.170683  0.202403  1
  Os  Os34  1  0.830253  0.658629  0.202714  1
  Os  Os35  1  0.830253  0.171625  0.202714  1
