# generated using pymatgen
data_Dy8Cd2RuPt
_symmetry_space_group_name_H-M   'P 1'
_cell_length_a   9.64349500
_cell_length_b   9.64349501
_cell_length_c   9.67151500
_cell_angle_alpha   59.90383395
_cell_angle_beta   59.90383394
_cell_angle_gamma   59.85651565
_symmetry_Int_Tables_number   1
_chemical_formula_structural   Dy8Cd2RuPt
_chemical_formula_sum   'Dy16 Cd4 Ru2 Pt2'
_cell_volume   634.37176729
_cell_formula_units_Z   2
loop_
 _symmetry_equiv_pos_site_id
 _symmetry_equiv_pos_as_xyz
  1  'x, y, z'
loop_
 _atom_site_type_symbol
 _atom_site_label
 _atom_site_symmetry_multiplicity
 _atom_site_fract_x
 _atom_site_fract_y
 _atom_site_fract_z
 _atom_site_occupancy
  Dy  Dy0  1  0.349060  0.349060  0.352430  1
  Dy  Dy1  1  0.349060  0.349060  0.949451  1
  Dy  Dy2  1  0.346780  0.952708  0.350257  1
  Dy  Dy3  1  0.952708  0.346780  0.350257  1
  Dy  Dy4  1  0.815143  0.188331  0.189623  1
  Dy  Dy5  1  0.188331  0.815143  0.806904  1
  Dy  Dy6  1  0.188331  0.815143  0.189623  1
  Dy  Dy7  1  0.815143  0.188331  0.806904  1
  Dy  Dy8  1  0.187912  0.187912  0.812088  1
  Dy  Dy9  1  0.808919  0.808919  0.191081  1
  Dy  Dy10  1  0.937214  0.559848  0.566169  1
  Dy  Dy11  1  0.559848  0.937214  0.936769  1
  Dy  Dy12  1  0.559848  0.937214  0.566169  1
  Dy  Dy13  1  0.937214  0.559847  0.936769  1
  Dy  Dy14  1  0.564115  0.564115  0.935885  1
  Dy  Dy15  1  0.938278  0.938278  0.561721  1
  Cd  Cd16  1  0.580447  0.580447  0.581660  1
  Cd  Cd17  1  0.580447  0.580447  0.257445  1
  Cd  Cd18  1  0.581320  0.255121  0.581779  1
  Cd  Cd19  1  0.255121  0.581320  0.581779  1
  Ru  Ru20  1  0.143695  0.143695  0.138737  1
  Ru  Ru21  1  0.143695  0.143695  0.573874  1
  Pt  Pt22  1  0.143991  0.573382  0.141314  1
  Pt  Pt23  1  0.573382  0.143991  0.141314  1
