# generated using pymatgen
data_NaThTe3Au
_symmetry_space_group_name_H-M   'P 1'
_cell_length_a   7.85009396
_cell_length_b   7.85009382
_cell_length_c   11.47042100
_cell_angle_alpha   90.00000000
_cell_angle_beta   90.00000000
_cell_angle_gamma   147.20279221
_symmetry_Int_Tables_number   1
_chemical_formula_structural   NaThTe3Au
_chemical_formula_sum   'Na2 Th2 Te6 Au2'
_cell_volume   382.87907806
_cell_formula_units_Z   2
loop_
 _symmetry_equiv_pos_site_id
 _symmetry_equiv_pos_as_xyz
  1  'x, y, z'
loop_
 _atom_site_type_symbol
 _atom_site_label
 _atom_site_symmetry_multiplicity
 _atom_site_fract_x
 _atom_site_fract_y
 _atom_site_fract_z
 _atom_site_occupancy
  Na  Na0  1  0.229244  0.770757  0.250000  1
  Na  Na1  1  0.770757  0.229244  0.750000  1
  Th  Th2  1  0.000000  0.000000  0.000000  1
  Th  Th3  1  0.000000  0.000000  0.500000  1
  Te  Te4  1  0.642306  0.357695  0.059655  1
  Te  Te5  1  0.909004  0.090997  0.250000  1
  Te  Te6  1  0.642306  0.357695  0.440346  1
  Te  Te7  1  0.357695  0.642306  0.559654  1
  Te  Te8  1  0.090997  0.909004  0.750000  1
  Te  Te9  1  0.357695  0.642306  0.940345  1
  Au  Au10  1  0.527783  0.472218  0.250000  1
  Au  Au11  1  0.472218  0.527783  0.750000  1
