# generated using pymatgen
data_Lu2FeCo16
_symmetry_space_group_name_H-M   'P 1'
_cell_length_a   6.23347724
_cell_length_b   6.23347781
_cell_length_c   6.23347610
_cell_angle_alpha   97.02341861
_cell_angle_beta   97.02341517
_cell_angle_gamma   82.97657375
_symmetry_Int_Tables_number   1
_chemical_formula_structural   Lu2FeCo16
_chemical_formula_sum   'Lu2 Fe1 Co16'
_cell_volume   237.16780339
_cell_formula_units_Z   1
loop_
 _symmetry_equiv_pos_site_id
 _symmetry_equiv_pos_as_xyz
  1  'x, y, z'
loop_
 _atom_site_type_symbol
 _atom_site_label
 _atom_site_symmetry_multiplicity
 _atom_site_fract_x
 _atom_site_fract_y
 _atom_site_fract_z
 _atom_site_occupancy
  Lu  Lu0  1  0.654439  0.654439  0.345561  1
  Lu  Lu1  1  0.343918  0.343918  0.656081  1
  Fe  Fe2  1  0.902750  0.902750  0.097249  1
  Co  Co3  1  0.498594  0.001011  0.998989  1
  Co  Co4  1  0.708681  0.291693  0.999165  1
  Co  Co5  1  0.001011  0.498594  0.998989  1
  Co  Co6  1  0.291693  0.708681  0.999165  1
  Co  Co7  1  0.347776  0.347776  0.151907  1
  Co  Co8  1  0.291692  0.000835  0.291319  1
  Co  Co9  1  0.000835  0.291692  0.291319  1
  Co  Co10  1  0.651460  0.151534  0.348539  1
  Co  Co11  1  0.151534  0.651460  0.348539  1
  Co  Co12  1  0.001011  0.001011  0.501403  1
  Co  Co13  1  0.848094  0.347776  0.652224  1
  Co  Co14  1  0.347776  0.848094  0.652224  1
  Co  Co15  1  0.708681  0.000835  0.708308  1
  Co  Co16  1  0.000835  0.708681  0.708308  1
  Co  Co17  1  0.651460  0.651460  0.848464  1
  Co  Co18  1  0.097757  0.097757  0.902242  1
