# generated using pymatgen
data_Gd5Er(Tm7Pb8)2
_symmetry_space_group_name_H-M   'P 1'
_cell_length_a   8.15481935
_cell_length_b   8.21525298
_cell_length_c   15.50008400
_cell_angle_alpha   90.01548996
_cell_angle_beta   89.91322884
_cell_angle_gamma   89.92698150
_symmetry_Int_Tables_number   1
_chemical_formula_structural   Gd5Er(Tm7Pb8)2
_chemical_formula_sum   'Gd5 Er1 Tm14 Pb16'
_cell_volume   1038.40906609
_cell_formula_units_Z   1
loop_
 _symmetry_equiv_pos_site_id
 _symmetry_equiv_pos_as_xyz
  1  'x, y, z'
loop_
 _atom_site_type_symbol
 _atom_site_label
 _atom_site_symmetry_multiplicity
 _atom_site_fract_x
 _atom_site_fract_y
 _atom_site_fract_z
 _atom_site_occupancy
  Gd  Gd0  1  0.966854  0.821977  0.097864  1
  Gd  Gd1  1  0.468391  0.676825  0.096670  1
  Gd  Gd2  1  0.967086  0.822416  0.403024  1
  Gd  Gd3  1  0.532331  0.323437  0.597334  1
  Gd  Gd4  1  0.031695  0.177802  0.902413  1
  Er  Er5  1  0.293433  0.005121  0.251088  1
  Tm  Tm6  1  0.372313  0.843155  0.877620  1
  Tm  Tm7  1  0.873382  0.657127  0.621670  1
  Tm  Tm8  1  0.625899  0.157274  0.378803  1
  Tm  Tm9  1  0.126358  0.342693  0.121564  1
  Tm  Tm10  1  0.625474  0.157167  0.121898  1
  Tm  Tm11  1  0.123698  0.342558  0.379349  1
  Tm  Tm12  1  0.375867  0.843414  0.622238  1
  Tm  Tm13  1  0.873965  0.656330  0.877247  1
  Tm  Tm14  1  0.536547  0.323801  0.899998  1
  Tm  Tm15  1  0.038703  0.175374  0.600843  1
  Tm  Tm16  1  0.462422  0.675673  0.400880  1
  Tm  Tm17  1  0.206403  0.504535  0.749446  1
  Tm  Tm18  1  0.706373  0.995500  0.750225  1
  Tm  Tm19  1  0.792845  0.495028  0.249881  1
  Pb  Pb20  1  0.286737  0.037021  0.043328  1
  Pb  Pb21  1  0.781654  0.467052  0.455767  1
  Pb  Pb22  1  0.717962  0.967419  0.544630  1
  Pb  Pb23  1  0.216815  0.533999  0.955472  1
  Pb  Pb24  1  0.711295  0.962610  0.956539  1
  Pb  Pb25  1  0.213322  0.538892  0.542272  1
  Pb  Pb26  1  0.286085  0.037840  0.458692  1
  Pb  Pb27  1  0.785837  0.459776  0.041379  1
  Pb  Pb28  1  0.568090  0.626677  0.750080  1
  Pb  Pb29  1  0.068169  0.872832  0.749335  1
  Pb  Pb30  1  0.430953  0.373622  0.250633  1
  Pb  Pb31  1  0.931000  0.127023  0.250041  1
  Pb  Pb32  1  0.346751  0.155342  0.751301  1
  Pb  Pb33  1  0.846639  0.345294  0.748471  1
  Pb  Pb34  1  0.652916  0.845088  0.251636  1
  Pb  Pb35  1  0.155738  0.652307  0.250370  1
