# generated using pymatgen
data_Lu5Hf4Zr(In2Pt)4
_symmetry_space_group_name_H-M   'P 1'
_cell_length_a   3.54505000
_cell_length_b   7.79193769
_cell_length_c   17.59792055
_cell_angle_alpha   89.60933248
_cell_angle_beta   90.00000000
_cell_angle_gamma   90.00000000
_symmetry_Int_Tables_number   1
_chemical_formula_structural   Lu5Hf4Zr(In2Pt)4
_chemical_formula_sum   'Lu5 Hf4 Zr1 In8 Pt4'
_cell_volume   486.09269310
_cell_formula_units_Z   1
loop_
 _symmetry_equiv_pos_site_id
 _symmetry_equiv_pos_as_xyz
  1  'x, y, z'
loop_
 _atom_site_type_symbol
 _atom_site_label
 _atom_site_symmetry_multiplicity
 _atom_site_fract_x
 _atom_site_fract_y
 _atom_site_fract_z
 _atom_site_occupancy
  Lu  Lu0  1  0.000000  0.250599  0.218470  1
  Lu  Lu1  1  0.000000  0.749401  0.781530  1
  Lu  Lu2  1  0.000000  0.250978  0.720846  1
  Lu  Lu3  1  0.000000  0.749022  0.279154  1
  Lu  Lu4  1  0.000000  0.500000  0.500000  1
  Hf  Hf5  1  0.000000  0.121065  0.417035  1
  Hf  Hf6  1  0.000000  0.878935  0.582965  1
  Hf  Hf7  1  0.000000  0.370097  0.919825  1
  Hf  Hf8  1  0.000000  0.629903  0.080175  1
  Zr  Zr9  1  0.000000  0.000000  0.000000  1
  In  In10  1  0.500000  0.425715  0.350334  1
  In  In11  1  0.500000  0.574285  0.649666  1
  In  In12  1  0.500000  0.070591  0.854024  1
  In  In13  1  0.500000  0.929409  0.145976  1
  In  In14  1  0.500000  0.298541  0.061403  1
  In  In15  1  0.500000  0.701459  0.938597  1
  In  In16  1  0.500000  0.199771  0.561520  1
  In  In17  1  0.500000  0.800229  0.438480  1
  Pt  Pt18  1  0.500000  0.038720  0.307710  1
  Pt  Pt19  1  0.500000  0.961280  0.692290  1
  Pt  Pt20  1  0.500000  0.459120  0.810595  1
  Pt  Pt21  1  0.500000  0.540880  0.189405  1
