# generated using pymatgen
data_Er2Mn6Co6P7
_symmetry_space_group_name_H-M   'P 1'
_cell_length_a   9.05974600
_cell_length_b   9.05974547
_cell_length_c   3.62698000
_cell_angle_alpha   90.00000000
_cell_angle_beta   90.00000000
_cell_angle_gamma   120.00000923
_symmetry_Int_Tables_number   1
_chemical_formula_structural   Er2Mn6Co6P7
_chemical_formula_sum   'Er2 Mn6 Co6 P7'
_cell_volume   257.81475603
_cell_formula_units_Z   1
loop_
 _symmetry_equiv_pos_site_id
 _symmetry_equiv_pos_as_xyz
  1  'x, y, z'
loop_
 _atom_site_type_symbol
 _atom_site_label
 _atom_site_symmetry_multiplicity
 _atom_site_fract_x
 _atom_site_fract_y
 _atom_site_fract_z
 _atom_site_occupancy
  Er  Er0  1  0.666667  0.333333  0.000000  1
  Er  Er1  1  0.333333  0.666667  0.500000  1
  Mn  Mn2  1  0.879895  0.722801  0.000000  1
  Mn  Mn3  1  0.277199  0.157094  0.000000  1
  Mn  Mn4  1  0.842906  0.120105  0.000000  1
  Mn  Mn5  1  0.119463  0.895921  0.500000  1
  Mn  Mn6  1  0.104079  0.223543  0.500000  1
  Mn  Mn7  1  0.776457  0.880537  0.500000  1
  Co  Co8  1  0.369132  0.939462  0.000000  1
  Co  Co9  1  0.060538  0.429670  0.000000  1
  Co  Co10  1  0.570330  0.630868  0.000000  1
  Co  Co11  1  0.949266  0.560820  0.500000  1
  Co  Co12  1  0.439180  0.388446  0.500000  1
  Co  Co13  1  0.611554  0.050734  0.500000  1
  P  P14  1  0.111770  0.698760  0.000000  1
  P  P15  1  0.301240  0.413011  0.000000  1
  P  P16  1  0.586989  0.888230  0.000000  1
  P  P17  1  0.712191  0.593191  0.500000  1
  P  P18  1  0.406809  0.119001  0.500000  1
  P  P19  1  0.880999  0.287809  0.500000  1
  P  P20  1  0.000000  0.000000  0.000000  1
