# generated using pymatgen
data_YbY7(SiPt)8
_symmetry_space_group_name_H-M   'P 1'
_cell_length_a   4.31416000
_cell_length_b   7.41989696
_cell_length_c   14.12653208
_cell_angle_alpha   89.97702458
_cell_angle_beta   90.00000000
_cell_angle_gamma   90.00000000
_symmetry_Int_Tables_number   1
_chemical_formula_structural   YbY7(SiPt)8
_chemical_formula_sum   'Yb1 Y7 Si8 Pt8'
_cell_volume   452.19905154
_cell_formula_units_Z   1
loop_
 _symmetry_equiv_pos_site_id
 _symmetry_equiv_pos_as_xyz
  1  'x, y, z'
loop_
 _atom_site_type_symbol
 _atom_site_label
 _atom_site_symmetry_multiplicity
 _atom_site_fract_x
 _atom_site_fract_y
 _atom_site_fract_z
 _atom_site_occupancy
  Yb  Yb0  1  0.500000  0.795357  0.748506  1
  Y  Y1  1  0.000000  0.201767  0.751396  1
  Y  Y2  1  0.500000  0.794208  0.250322  1
  Y  Y3  1  0.000000  0.206162  0.249503  1
  Y  Y4  1  0.500000  0.705519  0.998278  1
  Y  Y5  1  0.000000  0.293593  0.500662  1
  Y  Y6  1  0.500000  0.699471  0.501359  1
  Y  Y7  1  0.000000  0.301350  0.999757  1
  Si  Si8  1  0.500000  0.408594  0.651832  1
  Si  Si9  1  0.000000  0.591596  0.851707  1
  Si  Si10  1  0.500000  0.409638  0.350551  1
  Si  Si11  1  0.000000  0.591085  0.148296  1
  Si  Si12  1  0.500000  0.092175  0.092221  1
  Si  Si13  1  0.000000  0.908215  0.407183  1
  Si  Si14  1  0.500000  0.090267  0.908057  1
  Si  Si15  1  0.000000  0.909625  0.591405  1
  Pt  Pt16  1  0.500000  0.078967  0.606273  1
  Pt  Pt17  1  0.000000  0.920780  0.893490  1
  Pt  Pt18  1  0.500000  0.077239  0.391721  1
  Pt  Pt19  1  0.000000  0.923914  0.108041  1
  Pt  Pt20  1  0.500000  0.421052  0.154139  1
  Pt  Pt21  1  0.000000  0.580121  0.347695  1
  Pt  Pt22  1  0.500000  0.419253  0.844841  1
  Pt  Pt23  1  0.000000  0.580054  0.652764  1
