# generated using pymatgen
data_PuCl7
_symmetry_space_group_name_H-M   'P 1'
_cell_length_a   5.34794084
_cell_length_b   8.43036069
_cell_length_c   8.05359360
_cell_angle_alpha   80.98354691
_cell_angle_beta   71.89467049
_cell_angle_gamma   69.00772271
_symmetry_Int_Tables_number   1
_chemical_formula_structural   PuCl7
_chemical_formula_sum   'Pu1 Cl7'
_cell_volume   321.79103114
_cell_formula_units_Z   1
loop_
 _symmetry_equiv_pos_site_id
 _symmetry_equiv_pos_as_xyz
  1  'x, y, z'
loop_
 _atom_site_type_symbol
 _atom_site_label
 _atom_site_symmetry_multiplicity
 _atom_site_fract_x
 _atom_site_fract_y
 _atom_site_fract_z
 _atom_site_occupancy
  Pu  Pu0  1  0.296094  0.237069  0.088602  1
  Cl  Cl1  1  0.795709  0.237547  0.087870  1
  Cl  Cl2  1  0.178569  0.191292  0.408528  1
  Cl  Cl3  1  0.186003  0.741926  0.477806  1
  Cl  Cl4  1  0.423690  0.278878  0.768436  1
  Cl  Cl5  1  0.909242  0.812176  0.708644  1
  Cl  Cl6  1  0.485703  0.924078  0.058993  1
  Cl  Cl7  1  0.112276  0.547251  0.117833  1
