# generated using pymatgen
data_Pr2TcRhF14
_symmetry_space_group_name_H-M   'P 1'
_cell_length_a   5.74198700
_cell_length_b   9.22659066
_cell_length_c   12.32381006
_cell_angle_alpha   62.13644412
_cell_angle_beta   90.00000000
_cell_angle_gamma   90.00000000
_symmetry_Int_Tables_number   1
_chemical_formula_structural   Pr2TcRhF14
_chemical_formula_sum   'Pr4 Tc2 Rh2 F28'
_cell_volume   577.20716375
_cell_formula_units_Z   2
loop_
 _symmetry_equiv_pos_site_id
 _symmetry_equiv_pos_as_xyz
  1  'x, y, z'
loop_
 _atom_site_type_symbol
 _atom_site_label
 _atom_site_symmetry_multiplicity
 _atom_site_fract_x
 _atom_site_fract_y
 _atom_site_fract_z
 _atom_site_occupancy
  Pr  Pr0  1  0.757730  0.813606  0.768095  1
  Pr  Pr1  1  0.257730  0.186394  0.731905  1
  Pr  Pr2  1  0.238988  0.193036  0.237493  1
  Pr  Pr3  1  0.738988  0.806964  0.262507  1
  Tc  Tc4  1  0.754658  0.275109  0.955576  1
  Tc  Tc5  1  0.254658  0.724891  0.544424  1
  Rh  Rh6  1  0.243283  0.727545  0.041676  1
  Rh  Rh7  1  0.743283  0.272455  0.458324  1
  F  F8  1  0.436489  0.710261  0.916140  1
  F  F9  1  0.936489  0.289739  0.583860  1
  F  F10  1  0.559388  0.292675  0.077687  1
  F  F11  1  0.059388  0.707325  0.422313  1
  F  F12  1  0.455833  0.282910  0.542273  1
  F  F13  1  0.955833  0.717090  0.957727  1
  F  F14  1  0.538021  0.716286  0.458926  1
  F  F15  1  0.038021  0.283714  0.041074  1
  F  F16  1  0.764254  0.512427  0.860417  1
  F  F17  1  0.264254  0.487573  0.639583  1
  F  F18  1  0.236165  0.489270  0.136589  1
  F  F19  1  0.736165  0.510730  0.363411  1
  F  F20  1  0.756711  0.038464  0.047050  1
  F  F21  1  0.256711  0.961536  0.452950  1
  F  F22  1  0.238520  0.965808  0.948262  1
  F  F23  1  0.738520  0.034192  0.551738  1
  F  F24  1  0.977201  0.728619  0.634419  1
  F  F25  1  0.477201  0.271381  0.865581  1
  F  F26  1  0.024981  0.267228  0.369679  1
  F  F27  1  0.524981  0.732772  0.130321  1
  F  F28  1  0.054526  0.744669  0.168786  1
  F  F29  1  0.554526  0.255331  0.331214  1
  F  F30  1  0.948990  0.259275  0.831142  1
  F  F31  1  0.448990  0.740725  0.668858  1
  F  F32  1  0.416681  0.972467  0.232491  1
  F  F33  1  0.916681  0.027533  0.267509  1
  F  F34  1  0.597583  0.036432  0.772541  1
  F  F35  1  0.097583  0.963568  0.727459  1
