# generated using pymatgen
data_RbYBr4
_symmetry_space_group_name_H-M   'P 1'
_cell_length_a   7.81886700
_cell_length_b   7.24890900
_cell_length_c   18.71435100
_cell_angle_alpha   90.00000000
_cell_angle_beta   90.00000000
_cell_angle_gamma   90.00000000
_symmetry_Int_Tables_number   1
_chemical_formula_structural   RbYBr4
_chemical_formula_sum   'Rb4 Y4 Br16'
_cell_volume   1060.69676499
_cell_formula_units_Z   4
loop_
 _symmetry_equiv_pos_site_id
 _symmetry_equiv_pos_as_xyz
  1  'x, y, z'
loop_
 _atom_site_type_symbol
 _atom_site_label
 _atom_site_symmetry_multiplicity
 _atom_site_fract_x
 _atom_site_fract_y
 _atom_site_fract_z
 _atom_site_occupancy
  Rb  Rb0  1  0.000000  0.250000  0.324894  1
  Rb  Rb1  1  0.500000  0.750000  0.175106  1
  Rb  Rb2  1  0.000000  0.750000  0.675106  1
  Rb  Rb3  1  0.500000  0.250000  0.824894  1
  Y  Y4  1  0.000000  0.250000  0.065780  1
  Y  Y5  1  0.500000  0.250000  0.565780  1
  Y  Y6  1  0.000000  0.750000  0.934220  1
  Y  Y7  1  0.500000  0.750000  0.434220  1
  Br  Br8  1  0.280617  0.623942  0.331802  1
  Br  Br9  1  0.796208  0.431078  0.956687  1
  Br  Br10  1  0.296208  0.568922  0.543313  1
  Br  Br11  1  0.703792  0.931078  0.543313  1
  Br  Br12  1  0.780617  0.376058  0.168198  1
  Br  Br13  1  0.219383  0.623942  0.831802  1
  Br  Br14  1  0.719383  0.876058  0.331802  1
  Br  Br15  1  0.219383  0.123942  0.168198  1
  Br  Br16  1  0.280617  0.123942  0.668198  1
  Br  Br17  1  0.719383  0.376058  0.668198  1
  Br  Br18  1  0.203792  0.568922  0.043313  1
  Br  Br19  1  0.780617  0.876058  0.831802  1
  Br  Br20  1  0.796208  0.931078  0.043313  1
  Br  Br21  1  0.296208  0.068922  0.456687  1
  Br  Br22  1  0.703792  0.431078  0.456687  1
  Br  Br23  1  0.203792  0.068922  0.956687  1
