# generated using pymatgen
data_CsTb9Nd(C2Br9)2
_symmetry_space_group_name_H-M   'P 1'
_cell_length_a   10.78706215
_cell_length_b   10.87202078
_cell_length_c   10.98557696
_cell_angle_alpha   113.35205697
_cell_angle_beta   87.44629281
_cell_angle_gamma   118.87203078
_symmetry_Int_Tables_number   1
_chemical_formula_structural   CsTb9Nd(C2Br9)2
_chemical_formula_sum   'Cs1 Tb9 Nd1 C4 Br18'
_cell_volume   1018.37644837
_cell_formula_units_Z   1
loop_
 _symmetry_equiv_pos_site_id
 _symmetry_equiv_pos_as_xyz
  1  'x, y, z'
loop_
 _atom_site_type_symbol
 _atom_site_label
 _atom_site_symmetry_multiplicity
 _atom_site_fract_x
 _atom_site_fract_y
 _atom_site_fract_z
 _atom_site_occupancy
  Cs  Cs0  1  0.500074  0.000431  0.500009  1
  Tb  Tb1  1  0.281601  0.363511  0.012534  1
  Tb  Tb2  1  0.092535  0.405574  0.300153  1
  Tb  Tb3  1  0.960600  0.037373  0.332761  1
  Tb  Tb4  1  0.906839  0.593734  0.699211  1
  Tb  Tb5  1  0.112609  0.942464  0.001666  1
  Tb  Tb6  1  0.040389  0.963209  0.667834  1
  Tb  Tb7  1  0.337192  0.282225  0.297059  1
  Tb  Tb8  1  0.719237  0.636823  0.988206  1
  Tb  Tb9  1  0.888322  0.057883  0.998807  1
  Nd  Nd10  1  0.656754  0.714967  0.698879  1
  C  C11  1  0.156645  0.227463  0.123983  1
  C  C12  1  0.846169  0.773740  0.877698  1
  C  C13  1  0.924232  0.852148  0.798091  1
  C  C14  1  0.078507  0.148965  0.203767  1
  Br  Br15  1  0.449789  0.528395  0.836934  1
  Br  Br16  1  0.382323  0.039525  0.159488  1
  Br  Br17  1  0.781205  0.860040  0.499861  1
  Br  Br18  1  0.839306  0.311009  0.154451  1
  Br  Br19  1  0.547247  0.468568  0.166536  1
  Br  Br20  1  0.221737  0.142963  0.497446  1
  Br  Br21  1  0.313696  0.099391  0.829880  1
  Br  Br22  1  0.686691  0.900771  0.170027  1
  Br  Br23  1  0.974703  0.762140  0.172545  1
  Br  Br24  1  0.933376  0.301696  0.500019  1
  Br  Br25  1  0.025416  0.237692  0.827725  1
  Br  Br26  1  0.066786  0.698313  0.499915  1
  Br  Br27  1  0.259902  0.621301  0.186742  1
  Br  Br28  1  0.739991  0.378813  0.813295  1
  Br  Br29  1  0.638955  0.426004  0.494740  1
  Br  Br30  1  0.161172  0.689538  0.846071  1
  Br  Br31  1  0.617728  0.969078  0.845642  1
  Br  Br32  1  0.358272  0.564251  0.498025  1
