# generated using pymatgen
data_Ac3In2Sn2Sb
_symmetry_space_group_name_H-M   'P 1'
_cell_length_a   8.99662577
_cell_length_b   8.99662532
_cell_length_c   8.99662600
_cell_angle_alpha   119.96737902
_cell_angle_beta   119.96736999
_cell_angle_gamma   90.05651633
_symmetry_Int_Tables_number   1
_chemical_formula_structural   Ac3In2Sn2Sb
_chemical_formula_sum   'Ac6 In4 Sn4 Sb2'
_cell_volume   515.15491748
_cell_formula_units_Z   2
loop_
 _symmetry_equiv_pos_site_id
 _symmetry_equiv_pos_as_xyz
  1  'x, y, z'
loop_
 _atom_site_type_symbol
 _atom_site_label
 _atom_site_symmetry_multiplicity
 _atom_site_fract_x
 _atom_site_fract_y
 _atom_site_fract_z
 _atom_site_occupancy
  Ac  Ac0  1  0.757087  0.757087  0.000000  1
  Ac  Ac1  1  0.257087  0.257087  0.000000  1
  Ac  Ac2  1  0.336474  0.836474  0.175602  1
  Ac  Ac3  1  0.660870  0.160870  0.824398  1
  Ac  Ac4  1  0.836474  0.660870  0.500000  1
  Ac  Ac5  1  0.160870  0.336474  0.500000  1
  In  In6  1  0.046487  0.546487  0.222262  1
  In  In7  1  0.324224  0.824224  0.777738  1
  In  In8  1  0.546487  0.324224  0.500000  1
  In  In9  1  0.824224  0.046487  0.500000  1
  Sn  Sn10  1  0.955191  0.455191  0.793101  1
  Sn  Sn11  1  0.662090  0.162090  0.206899  1
  Sn  Sn12  1  0.455191  0.662090  0.500000  1
  Sn  Sn13  1  0.162090  0.955191  0.500000  1
  Sb  Sb14  1  0.007576  0.007576  0.000000  1
  Sb  Sb15  1  0.507576  0.507576  0.000000  1
