# generated using pymatgen
data_NdTh7(CoSi3)4
_symmetry_space_group_name_H-M   'P 1'
_cell_length_a   8.08047300
_cell_length_b   8.08047198
_cell_length_c   8.43615900
_cell_angle_alpha   90.00000000
_cell_angle_beta   90.00000000
_cell_angle_gamma   120.00000009
_symmetry_Int_Tables_number   1
_chemical_formula_structural   NdTh7(CoSi3)4
_chemical_formula_sum   'Nd1 Th7 Co4 Si12'
_cell_volume   477.03352303
_cell_formula_units_Z   1
loop_
 _symmetry_equiv_pos_site_id
 _symmetry_equiv_pos_as_xyz
  1  'x, y, z'
loop_
 _atom_site_type_symbol
 _atom_site_label
 _atom_site_symmetry_multiplicity
 _atom_site_fract_x
 _atom_site_fract_y
 _atom_site_fract_z
 _atom_site_occupancy
  Nd  Nd0  1  0.000000  0.000000  0.250000  1
  Th  Th1  1  0.499715  0.500285  0.750000  1
  Th  Th2  1  0.500108  0.499892  0.250000  1
  Th  Th3  1  0.000569  0.500285  0.750000  1
  Th  Th4  1  0.999784  0.499892  0.250000  1
  Th  Th5  1  0.499715  0.999431  0.750000  1
  Th  Th6  1  0.500108  0.000216  0.250000  1
  Th  Th7  1  0.000000  0.000000  0.750000  1
  Co  Co8  1  0.666667  0.333333  0.998469  1
  Co  Co9  1  0.333333  0.666667  0.001951  1
  Co  Co10  1  0.333333  0.666667  0.498049  1
  Co  Co11  1  0.666667  0.333333  0.501531  1
  Si  Si12  1  0.829068  0.170932  0.999615  1
  Si  Si13  1  0.171117  0.828883  0.000310  1
  Si  Si14  1  0.341864  0.170932  0.999615  1
  Si  Si15  1  0.171117  0.828883  0.499690  1
  Si  Si16  1  0.657764  0.828883  0.000310  1
  Si  Si17  1  0.829068  0.170932  0.500385  1
  Si  Si18  1  0.829068  0.658136  0.999615  1
  Si  Si19  1  0.657764  0.828883  0.499690  1
  Si  Si20  1  0.171117  0.342236  0.000310  1
  Si  Si21  1  0.341864  0.170932  0.500385  1
  Si  Si22  1  0.171117  0.342236  0.499690  1
  Si  Si23  1  0.829068  0.658136  0.500385  1
