# generated using pymatgen
data_Hf4Ta6GaSi7
_symmetry_space_group_name_H-M   'P 1'
_cell_length_a   6.66999600
_cell_length_b   6.82109491
_cell_length_c   13.14706082
_cell_angle_alpha   89.82671868
_cell_angle_beta   90.00000000
_cell_angle_gamma   90.00000000
_symmetry_Int_Tables_number   1
_chemical_formula_structural   Hf4Ta6GaSi7
_chemical_formula_sum   'Hf8 Ta12 Ga2 Si14'
_cell_volume   598.14482782
_cell_formula_units_Z   2
loop_
 _symmetry_equiv_pos_site_id
 _symmetry_equiv_pos_as_xyz
  1  'x, y, z'
loop_
 _atom_site_type_symbol
 _atom_site_label
 _atom_site_symmetry_multiplicity
 _atom_site_fract_x
 _atom_site_fract_y
 _atom_site_fract_z
 _atom_site_occupancy
  Hf  Hf0  1  0.492564  0.670197  0.594204  1
  Hf  Hf1  1  0.992564  0.829803  0.905796  1
  Hf  Hf2  1  0.508734  0.325089  0.093428  1
  Hf  Hf3  1  0.008734  0.174911  0.406572  1
  Hf  Hf4  1  0.503717  0.331234  0.407347  1
  Hf  Hf5  1  0.003717  0.168766  0.092653  1
  Hf  Hf6  1  0.498320  0.675127  0.905638  1
  Hf  Hf7  1  0.998320  0.824873  0.594362  1
  Ta  Ta8  1  0.660366  0.175605  0.625924  1
  Ta  Ta9  1  0.160366  0.324395  0.874076  1
  Ta  Ta10  1  0.338275  0.833551  0.125059  1
  Ta  Ta11  1  0.838275  0.666449  0.374941  1
  Ta  Ta12  1  0.333656  0.829241  0.375708  1
  Ta  Ta13  1  0.833656  0.670759  0.124292  1
  Ta  Ta14  1  0.663040  0.171377  0.876344  1
  Ta  Ta15  1  0.163040  0.328623  0.623656  1
  Ta  Ta16  1  0.836332  0.495576  0.750234  1
  Ta  Ta17  1  0.336332  0.004424  0.749766  1
  Ta  Ta18  1  0.163207  0.505303  0.252290  1
  Ta  Ta19  1  0.663207  0.994697  0.247710  1
  Ga  Ga20  1  0.676903  0.964953  0.462017  1
  Ga  Ga21  1  0.176903  0.535047  0.037983  1
  Si  Si22  1  0.326974  0.036949  0.962476  1
  Si  Si23  1  0.826974  0.463051  0.537524  1
  Si  Si24  1  0.328240  0.035481  0.537966  1
  Si  Si25  1  0.828240  0.464519  0.962034  1
  Si  Si26  1  0.671793  0.963197  0.037261  1
  Si  Si27  1  0.171793  0.536803  0.462739  1
  Si  Si28  1  0.459572  0.388581  0.750572  1
  Si  Si29  1  0.959572  0.111419  0.749428  1
  Si  Si30  1  0.538493  0.612286  0.250385  1
  Si  Si31  1  0.038493  0.887714  0.249615  1
  Si  Si32  1  0.701662  0.860112  0.749098  1
  Si  Si33  1  0.201662  0.639888  0.750902  1
  Si  Si34  1  0.298153  0.141517  0.250310  1
  Si  Si35  1  0.798153  0.358483  0.249690  1
