# generated using pymatgen
data_Tb6Er10Cd4NiIr3
_symmetry_space_group_name_H-M   'P 1'
_cell_length_a   9.55865701
_cell_length_b   9.55865713
_cell_length_c   9.55865767
_cell_angle_alpha   60.23150039
_cell_angle_beta   60.23150478
_cell_angle_gamma   60.23150201
_symmetry_Int_Tables_number   1
_chemical_formula_structural   Tb6Er10Cd4NiIr3
_chemical_formula_sum   'Tb6 Er10 Cd4 Ni1 Ir3'
_cell_volume   620.79166341
_cell_formula_units_Z   1
loop_
 _symmetry_equiv_pos_site_id
 _symmetry_equiv_pos_as_xyz
  1  'x, y, z'
loop_
 _atom_site_type_symbol
 _atom_site_label
 _atom_site_symmetry_multiplicity
 _atom_site_fract_x
 _atom_site_fract_y
 _atom_site_fract_z
 _atom_site_occupancy
  Tb  Tb0  1  0.189268  0.811183  0.811183  1
  Tb  Tb1  1  0.813029  0.188079  0.188079  1
  Tb  Tb2  1  0.811183  0.189268  0.811183  1
  Tb  Tb3  1  0.188079  0.813029  0.188079  1
  Tb  Tb4  1  0.811183  0.811183  0.189268  1
  Tb  Tb5  1  0.188079  0.188079  0.813029  1
  Er  Er6  1  0.598516  0.598516  0.598516  1
  Er  Er7  1  0.598120  0.598120  0.203789  1
  Er  Er8  1  0.598120  0.203789  0.598120  1
  Er  Er9  1  0.203789  0.598120  0.598120  1
  Er  Er10  1  0.061911  0.439256  0.439256  1
  Er  Er11  1  0.437296  0.060950  0.060950  1
  Er  Er12  1  0.439256  0.061911  0.439256  1
  Er  Er13  1  0.060950  0.437296  0.060950  1
  Er  Er14  1  0.439256  0.439256  0.061911  1
  Er  Er15  1  0.060950  0.060950  0.437296  1
  Cd  Cd16  1  0.830069  0.830069  0.830069  1
  Cd  Cd17  1  0.831209  0.831209  0.507357  1
  Cd  Cd18  1  0.831209  0.507357  0.831209  1
  Cd  Cd19  1  0.507357  0.831209  0.831209  1
  Ni  Ni20  1  0.392018  0.392018  0.392018  1
  Ir  Ir21  1  0.392121  0.392121  0.824912  1
  Ir  Ir22  1  0.392121  0.824912  0.392121  1
  Ir  Ir23  1  0.824912  0.392121  0.392121  1
