# generated using pymatgen
data_Ho9Tm7Cd4(IrRu)2
_symmetry_space_group_name_H-M   'P 1'
_cell_length_a   9.54211140
_cell_length_b   9.54089910
_cell_length_c   9.58748965
_cell_angle_alpha   59.84311922
_cell_angle_beta   59.88355297
_cell_angle_gamma   59.77783137
_symmetry_Int_Tables_number   1
_chemical_formula_structural   Ho9Tm7Cd4(IrRu)2
_chemical_formula_sum   'Ho9 Tm7 Cd4 Ir2 Ru2'
_cell_volume   614.88215503
_cell_formula_units_Z   1
loop_
 _symmetry_equiv_pos_site_id
 _symmetry_equiv_pos_as_xyz
  1  'x, y, z'
loop_
 _atom_site_type_symbol
 _atom_site_label
 _atom_site_symmetry_multiplicity
 _atom_site_fract_x
 _atom_site_fract_y
 _atom_site_fract_z
 _atom_site_occupancy
  Ho  Ho0  1  0.061885  0.437952  0.060110  1
  Ho  Ho1  1  0.438054  0.437697  0.062375  1
  Ho  Ho2  1  0.059975  0.059633  0.440365  1
  Ho  Ho3  1  0.188638  0.809951  0.812617  1
  Ho  Ho4  1  0.809451  0.188337  0.189103  1
  Ho  Ho5  1  0.809554  0.188654  0.812733  1
  Ho  Ho6  1  0.188516  0.809652  0.188984  1
  Ho  Ho7  1  0.810742  0.811238  0.189196  1
  Ho  Ho8  1  0.189102  0.188835  0.810773  1
  Tm  Tm9  1  0.598014  0.598051  0.597590  1
  Tm  Tm10  1  0.597651  0.598034  0.206681  1
  Tm  Tm11  1  0.596302  0.209953  0.596920  1
  Tm  Tm12  1  0.210289  0.596365  0.596334  1
  Tm  Tm13  1  0.061962  0.437860  0.440156  1
  Tm  Tm14  1  0.438267  0.061572  0.060356  1
  Tm  Tm15  1  0.437870  0.062046  0.439749  1
  Cd  Cd16  1  0.830190  0.830411  0.830526  1
  Cd  Cd17  1  0.830310  0.830286  0.508771  1
  Cd  Cd18  1  0.830621  0.507741  0.830707  1
  Cd  Cd19  1  0.507698  0.830694  0.830809  1
  Ir  Ir20  1  0.394578  0.826725  0.389246  1
  Ir  Ir21  1  0.826139  0.394570  0.390137  1
  Ru  Ru22  1  0.391901  0.391896  0.388065  1
  Ru  Ru23  1  0.392292  0.391848  0.827697  1
