# generated using pymatgen
data_CaNb6Sn5Sb
_symmetry_space_group_name_H-M   'P 1'
_cell_length_a   5.83565000
_cell_length_b   5.83565124
_cell_length_c   9.62860100
_cell_angle_alpha   90.00000000
_cell_angle_beta   90.00000000
_cell_angle_gamma   120.00000432
_symmetry_Int_Tables_number   1
_chemical_formula_structural   CaNb6Sn5Sb
_chemical_formula_sum   'Ca1 Nb6 Sn5 Sb1'
_cell_volume   283.96993931
_cell_formula_units_Z   1
loop_
 _symmetry_equiv_pos_site_id
 _symmetry_equiv_pos_as_xyz
  1  'x, y, z'
loop_
 _atom_site_type_symbol
 _atom_site_label
 _atom_site_symmetry_multiplicity
 _atom_site_fract_x
 _atom_site_fract_y
 _atom_site_fract_z
 _atom_site_occupancy
  Ca  Ca0  1  0.000000  0.000000  0.998045  1
  Nb  Nb1  1  0.000000  0.500000  0.748738  1
  Nb  Nb2  1  0.500000  0.500000  0.748738  1
  Nb  Nb3  1  0.500000  0.000000  0.748738  1
  Nb  Nb4  1  0.000000  0.500000  0.252286  1
  Nb  Nb5  1  0.500000  0.500000  0.252286  1
  Nb  Nb6  1  0.500000  0.000000  0.252286  1
  Sn  Sn7  1  0.666667  0.333333  0.500233  1
  Sn  Sn8  1  0.333333  0.666667  0.500233  1
  Sn  Sn9  1  0.666667  0.333333  0.000576  1
  Sn  Sn10  1  0.333333  0.666667  0.000576  1
  Sn  Sn11  1  0.000000  0.000000  0.323071  1
  Sb  Sb12  1  0.000000  0.000000  0.674194  1
