# generated using pymatgen
data_Dy2Ho14In4NiIr3
_symmetry_space_group_name_H-M   'P 1'
_cell_length_a   9.59292175
_cell_length_b   9.61197368
_cell_length_c   9.62079732
_cell_angle_alpha   60.02544402
_cell_angle_beta   59.94319396
_cell_angle_gamma   59.92347764
_symmetry_Int_Tables_number   1
_chemical_formula_structural   Dy2Ho14In4NiIr3
_chemical_formula_sum   'Dy2 Ho14 In4 Ni1 Ir3'
_cell_volume   626.76458182
_cell_formula_units_Z   1
loop_
 _symmetry_equiv_pos_site_id
 _symmetry_equiv_pos_as_xyz
  1  'x, y, z'
loop_
 _atom_site_type_symbol
 _atom_site_label
 _atom_site_symmetry_multiplicity
 _atom_site_fract_x
 _atom_site_fract_y
 _atom_site_fract_z
 _atom_site_occupancy
  Dy  Dy0  1  0.439371  0.436040  0.062245  1
  Dy  Dy1  1  0.648416  0.652579  0.046555  1
  Ho  Ho2  1  0.190504  0.810459  0.188788  1
  Ho  Ho3  1  0.058477  0.440880  0.059637  1
  Ho  Ho4  1  0.190942  0.810383  0.810317  1
  Ho  Ho5  1  0.058481  0.440904  0.440731  1
  Ho  Ho6  1  0.810877  0.189488  0.190356  1
  Ho  Ho7  1  0.649349  0.653102  0.652212  1
  Ho  Ho8  1  0.810857  0.189889  0.809290  1
  Ho  Ho9  1  0.191010  0.188323  0.810403  1
  Ho  Ho10  1  0.050043  0.650339  0.649314  1
  Ho  Ho11  1  0.439460  0.062116  0.062159  1
  Ho  Ho12  1  0.058634  0.059866  0.440613  1
  Ho  Ho13  1  0.649329  0.045316  0.652291  1
  Ho  Ho14  1  0.810738  0.809357  0.190338  1
  Ho  Ho15  1  0.439518  0.062158  0.436012  1
  In  In16  1  0.418538  0.415858  0.416391  1
  In  In17  1  0.418571  0.416179  0.748891  1
  In  In18  1  0.418529  0.749432  0.416225  1
  In  In19  1  0.747198  0.417636  0.417561  1
  Ni  Ni20  1  0.423368  0.859036  0.858832  1
  Ir  Ir21  1  0.859289  0.858168  0.857827  1
  Ir  Ir22  1  0.859453  0.424636  0.857776  1
  Ir  Ir23  1  0.859045  0.857856  0.425237  1
