# generated using pymatgen
data_La2Al20OsRh3
_symmetry_space_group_name_H-M   'P 1'
_cell_length_a   6.90724307
_cell_length_b   6.90002682
_cell_length_c   9.22217897
_cell_angle_alpha   90.09617462
_cell_angle_beta   90.18211969
_cell_angle_gamma   97.43843533
_symmetry_Int_Tables_number   1
_chemical_formula_structural   La2Al20OsRh3
_chemical_formula_sum   'La2 Al20 Os1 Rh3'
_cell_volume   435.82852615
_cell_formula_units_Z   1
loop_
 _symmetry_equiv_pos_site_id
 _symmetry_equiv_pos_as_xyz
  1  'x, y, z'
loop_
 _atom_site_type_symbol
 _atom_site_label
 _atom_site_symmetry_multiplicity
 _atom_site_fract_x
 _atom_site_fract_y
 _atom_site_fract_z
 _atom_site_occupancy
  La  La0  1  0.873429  0.123186  0.749999  1
  La  La1  1  0.126571  0.876814  0.250001  1
  Al  Al2  1  0.620677  0.377512  0.547952  1
  Al  Al3  1  0.379323  0.622488  0.452048  1
  Al  Al4  1  0.379040  0.621356  0.049852  1
  Al  Al5  1  0.620960  0.378644  0.950148  1
  Al  Al6  1  0.222540  0.222576  0.499780  1
  Al  Al7  1  0.777460  0.777424  0.500220  1
  Al  Al8  1  0.775149  0.775290  0.999374  1
  Al  Al9  1  0.224851  0.224710  0.000626  1
  Al  Al10  1  0.839679  0.160425  0.104812  1
  Al  Al11  1  0.160321  0.839575  0.895188  1
  Al  Al12  1  0.159404  0.840442  0.603598  1
  Al  Al13  1  0.840596  0.159558  0.396402  1
  Al  Al14  1  0.857808  0.591776  0.749698  1
  Al  Al15  1  0.142192  0.408224  0.250302  1
  Al  Al16  1  0.407513  0.141770  0.749858  1
  Al  Al17  1  0.592487  0.858230  0.250142  1
  Al  Al18  1  0.225939  0.481910  0.749630  1
  Al  Al19  1  0.774061  0.518090  0.250370  1
  Al  Al20  1  0.517389  0.775625  0.746678  1
  Al  Al21  1  0.482611  0.224375  0.253322  1
  Os  Os22  1  0.500000  0.000000  0.500000  1
  Rh  Rh23  1  0.000000  0.500000  0.500000  1
  Rh  Rh24  1  0.000000  0.500000  0.000000  1
  Rh  Rh25  1  0.500000  0.000000  0.000000  1
