# generated using pymatgen
data_BaLi2SnSe4
_symmetry_space_group_name_H-M   'P 1'
_cell_length_a   6.85360800
_cell_length_b   6.85360745
_cell_length_c   17.01604000
_cell_angle_alpha   90.00000000
_cell_angle_beta   90.00000000
_cell_angle_gamma   120.00000266
_symmetry_Int_Tables_number   1
_chemical_formula_structural   BaLi2SnSe4
_chemical_formula_sum   'Ba3 Li6 Sn3 Se12'
_cell_volume   692.19364009
_cell_formula_units_Z   3
loop_
 _symmetry_equiv_pos_site_id
 _symmetry_equiv_pos_as_xyz
  1  'x, y, z'
loop_
 _atom_site_type_symbol
 _atom_site_label
 _atom_site_symmetry_multiplicity
 _atom_site_fract_x
 _atom_site_fract_y
 _atom_site_fract_z
 _atom_site_occupancy
  Ba  Ba0  1  0.440896  0.440896  0.500000  1
  Ba  Ba1  1  0.000000  0.559104  0.166667  1
  Ba  Ba2  1  0.559104  0.000000  0.833333  1
  Li  Li3  1  0.338896  0.409058  0.744739  1
  Li  Li4  1  0.929838  0.590942  0.921928  1
  Li  Li5  1  0.409058  0.338896  0.255261  1
  Li  Li6  1  0.070162  0.661104  0.411405  1
  Li  Li7  1  0.590942  0.929838  0.078072  1
  Li  Li8  1  0.661104  0.070162  0.588595  1
  Sn  Sn9  1  0.709196  0.000000  0.333333  1
  Sn  Sn10  1  0.000000  0.709196  0.666667  1
  Sn  Sn11  1  0.290804  0.290804  0.000000  1
  Se  Se12  1  0.755393  0.650664  0.329700  1
  Se  Se13  1  0.895271  0.244607  0.996367  1
  Se  Se14  1  0.349336  0.104729  0.663034  1
  Se  Se15  1  0.104729  0.349336  0.336966  1
  Se  Se16  1  0.244607  0.895271  0.003633  1
  Se  Se17  1  0.650664  0.755393  0.670300  1
  Se  Se18  1  0.951342  0.465336  0.546785  1
  Se  Se19  1  0.513995  0.048658  0.213452  1
  Se  Se20  1  0.048658  0.513995  0.786548  1
  Se  Se21  1  0.465336  0.951342  0.453215  1
  Se  Se22  1  0.486005  0.534664  0.119882  1
  Se  Se23  1  0.534664  0.486005  0.880118  1
