# generated using pymatgen
data_Dy2Ho3Bi2Rh
_symmetry_space_group_name_H-M   'P 1'
_cell_length_a   8.01119700
_cell_length_b   8.99166900
_cell_length_c   12.42819600
_cell_angle_alpha   90.00000000
_cell_angle_beta   90.00000000
_cell_angle_gamma   90.00000000
_symmetry_Int_Tables_number   1
_chemical_formula_structural   Dy2Ho3Bi2Rh
_chemical_formula_sum   'Dy8 Ho12 Bi8 Rh4'
_cell_volume   895.25306486
_cell_formula_units_Z   4
loop_
 _symmetry_equiv_pos_site_id
 _symmetry_equiv_pos_as_xyz
  1  'x, y, z'
loop_
 _atom_site_type_symbol
 _atom_site_label
 _atom_site_symmetry_multiplicity
 _atom_site_fract_x
 _atom_site_fract_y
 _atom_site_fract_z
 _atom_site_occupancy
  Dy  Dy0  1  0.342709  0.750000  0.705786  1
  Dy  Dy1  1  0.657291  0.250000  0.294214  1
  Dy  Dy2  1  0.842709  0.250000  0.794214  1
  Dy  Dy3  1  0.157291  0.750000  0.205786  1
  Dy  Dy4  1  0.878792  0.750000  0.806561  1
  Dy  Dy5  1  0.121208  0.250000  0.193439  1
  Dy  Dy6  1  0.378792  0.250000  0.693439  1
  Dy  Dy7  1  0.621208  0.750000  0.306561  1
  Ho  Ho8  1  0.678192  0.542196  0.565214  1
  Ho  Ho9  1  0.321808  0.457804  0.434786  1
  Ho  Ho10  1  0.178192  0.457804  0.934786  1
  Ho  Ho11  1  0.321808  0.042196  0.434786  1
  Ho  Ho12  1  0.821808  0.542196  0.065214  1
  Ho  Ho13  1  0.678192  0.957804  0.565214  1
  Ho  Ho14  1  0.821808  0.957804  0.065214  1
  Ho  Ho15  1  0.178192  0.042196  0.934786  1
  Ho  Ho16  1  0.048303  0.750000  0.498947  1
  Ho  Ho17  1  0.951697  0.250000  0.501053  1
  Ho  Ho18  1  0.548303  0.250000  0.001053  1
  Ho  Ho19  1  0.451697  0.750000  0.998947  1
  Bi  Bi20  1  0.571239  0.509150  0.827295  1
  Bi  Bi21  1  0.428761  0.490850  0.172705  1
  Bi  Bi22  1  0.071239  0.490850  0.672705  1
  Bi  Bi23  1  0.428761  0.009150  0.172705  1
  Bi  Bi24  1  0.928761  0.509150  0.327295  1
  Bi  Bi25  1  0.571239  0.990850  0.827295  1
  Bi  Bi26  1  0.928761  0.990850  0.327295  1
  Bi  Bi27  1  0.071239  0.009150  0.672705  1
  Rh  Rh28  1  0.070574  0.750000  0.990411  1
  Rh  Rh29  1  0.929426  0.250000  0.009589  1
  Rh  Rh30  1  0.570574  0.250000  0.509589  1
  Rh  Rh31  1  0.429426  0.750000  0.490411  1
