# generated using pymatgen
data_Ho8Sc12Si7Ge9
_symmetry_space_group_name_H-M   'P 1'
_cell_length_a   7.16371430
_cell_length_b   7.41373689
_cell_length_c   14.04910500
_cell_angle_alpha   90.00000000
_cell_angle_beta   90.00000000
_cell_angle_gamma   90.17090738
_symmetry_Int_Tables_number   1
_chemical_formula_structural   Ho8Sc12Si7Ge9
_chemical_formula_sum   'Ho8 Sc12 Si7 Ge9'
_cell_volume   746.14314357
_cell_formula_units_Z   1
loop_
 _symmetry_equiv_pos_site_id
 _symmetry_equiv_pos_as_xyz
  1  'x, y, z'
loop_
 _atom_site_type_symbol
 _atom_site_label
 _atom_site_symmetry_multiplicity
 _atom_site_fract_x
 _atom_site_fract_y
 _atom_site_fract_z
 _atom_site_occupancy
  Ho  Ho0  1  0.003915  0.177607  0.098476  1
  Ho  Ho1  1  0.996855  0.820588  0.901872  1
  Ho  Ho2  1  0.496720  0.676912  0.901949  1
  Ho  Ho3  1  0.996855  0.820588  0.598128  1
  Ho  Ho4  1  0.503328  0.322619  0.098640  1
  Ho  Ho5  1  0.003915  0.177607  0.401524  1
  Ho  Ho6  1  0.503328  0.322619  0.401360  1
  Ho  Ho7  1  0.496720  0.676912  0.598051  1
  Sc  Sc8  1  0.171821  0.503109  0.750000  1
  Sc  Sc9  1  0.828512  0.498772  0.250000  1
  Sc  Sc10  1  0.328774  0.001122  0.250000  1
  Sc  Sc11  1  0.668691  0.997933  0.750000  1
  Sc  Sc12  1  0.342823  0.172574  0.626496  1
  Sc  Sc13  1  0.658961  0.827518  0.373254  1
  Sc  Sc14  1  0.159212  0.672076  0.373637  1
  Sc  Sc15  1  0.658961  0.827518  0.126746  1
  Sc  Sc16  1  0.838060  0.330447  0.624812  1
  Sc  Sc17  1  0.342823  0.172574  0.873504  1
  Sc  Sc18  1  0.838060  0.330447  0.875188  1
  Sc  Sc19  1  0.159212  0.672076  0.126363  1
  Si  Si20  1  0.958003  0.884175  0.250000  1
  Si  Si21  1  0.456999  0.616111  0.250000  1
  Si  Si22  1  0.542665  0.383086  0.750000  1
  Si  Si23  1  0.297905  0.867082  0.750000  1
  Si  Si24  1  0.705823  0.129225  0.250000  1
  Si  Si25  1  0.205479  0.370956  0.250000  1
  Si  Si26  1  0.795048  0.629380  0.750000  1
  Ge  Ge27  1  0.038725  0.120106  0.750000  1
  Ge  Ge28  1  0.175931  0.459759  0.540668  1
  Ge  Ge29  1  0.824262  0.539744  0.458535  1
  Ge  Ge30  1  0.325207  0.960584  0.459583  1
  Ge  Ge31  1  0.824262  0.539744  0.041465  1
  Ge  Ge32  1  0.675505  0.039045  0.540218  1
  Ge  Ge33  1  0.175931  0.459759  0.959332  1
  Ge  Ge34  1  0.675505  0.039045  0.959782  1
  Ge  Ge35  1  0.325207  0.960584  0.040417  1
