# generated using pymatgen
data_LaTbB4(OsRh)2
_symmetry_space_group_name_H-M   'P 1'
_cell_length_a   6.93673273
_cell_length_b   6.08920909
_cell_length_c   5.58889167
_cell_angle_alpha   72.73928092
_cell_angle_beta   56.95975662
_cell_angle_gamma   50.30096092
_symmetry_Int_Tables_number   1
_chemical_formula_structural   LaTbB4(OsRh)2
_chemical_formula_sum   'La1 Tb1 B4 Os2 Rh2'
_cell_volume   151.77536705
_cell_formula_units_Z   1
loop_
 _symmetry_equiv_pos_site_id
 _symmetry_equiv_pos_as_xyz
  1  'x, y, z'
loop_
 _atom_site_type_symbol
 _atom_site_label
 _atom_site_symmetry_multiplicity
 _atom_site_fract_x
 _atom_site_fract_y
 _atom_site_fract_z
 _atom_site_occupancy
  La  La0  1  0.250000  0.250000  0.250000  1
  Tb  Tb1  1  0.000000  0.000000  0.000000  1
  B  B2  1  0.306776  0.693224  0.306776  1
  B  B3  1  0.693224  0.306776  0.693224  1
  B  B4  1  0.578026  0.921974  0.578026  1
  B  B5  1  0.921974  0.578026  0.921974  1
  Os  Os6  1  0.614471  0.614471  0.885529  1
  Os  Os7  1  0.885529  0.885529  0.614471  1
  Rh  Rh8  1  0.631659  0.631659  0.368341  1
  Rh  Rh9  1  0.368341  0.368341  0.631659  1
