# generated using pymatgen
data_CaY6Er(B6Ru)4
_symmetry_space_group_name_H-M   'P 1'
_cell_length_a   3.66426000
_cell_length_b   9.15909471
_cell_length_c   11.55105706
_cell_angle_alpha   89.91434994
_cell_angle_beta   90.00000000
_cell_angle_gamma   90.00000000
_symmetry_Int_Tables_number   1
_chemical_formula_structural   CaY6Er(B6Ru)4
_chemical_formula_sum   'Ca1 Y6 Er1 B24 Ru4'
_cell_volume   387.66810872
_cell_formula_units_Z   1
loop_
 _symmetry_equiv_pos_site_id
 _symmetry_equiv_pos_as_xyz
  1  'x, y, z'
loop_
 _atom_site_type_symbol
 _atom_site_label
 _atom_site_symmetry_multiplicity
 _atom_site_fract_x
 _atom_site_fract_y
 _atom_site_fract_z
 _atom_site_occupancy
  Ca  Ca0  1  0.000000  0.322997  0.413959  1
  Y  Y1  1  0.000000  0.675666  0.585164  1
  Y  Y2  1  0.000000  0.822568  0.086038  1
  Y  Y3  1  0.000000  0.177927  0.914530  1
  Y  Y4  1  0.000000  0.944125  0.371150  1
  Y  Y5  1  0.000000  0.057789  0.628341  1
  Y  Y6  1  0.000000  0.443297  0.129070  1
  Er  Er7  1  0.000000  0.556174  0.871773  1
  B  B8  1  0.500000  0.554543  0.432536  1
  B  B9  1  0.500000  0.445981  0.568033  1
  B  B10  1  0.500000  0.053373  0.066510  1
  B  B11  1  0.500000  0.945366  0.932379  1
  B  B12  1  0.500000  0.748128  0.418992  1
  B  B13  1  0.500000  0.252666  0.581642  1
  B  B14  1  0.500000  0.247462  0.080430  1
  B  B15  1  0.500000  0.751173  0.919255  1
  B  B16  1  0.500000  0.791377  0.265898  1
  B  B17  1  0.500000  0.210065  0.734465  1
  B  B18  1  0.500000  0.289728  0.233235  1
  B  B19  1  0.500000  0.708722  0.766604  1
  B  B20  1  0.500000  0.632271  0.185790  1
  B  B21  1  0.500000  0.369011  0.815365  1
  B  B22  1  0.500000  0.131301  0.313491  1
  B  B23  1  0.500000  0.868038  0.685595  1
  B  B24  1  0.500000  0.983713  0.211560  1
  B  B25  1  0.500000  0.015846  0.787612  1
  B  B26  1  0.500000  0.484587  0.287700  1
  B  B27  1  0.500000  0.516380  0.713309  1
  B  B28  1  0.500000  0.607866  0.029330  1
  B  B29  1  0.500000  0.392898  0.970131  1
  B  B30  1  0.500000  0.104718  0.471054  1
  B  B31  1  0.500000  0.893962  0.529374  1
  Ru  Ru32  1  0.000000  0.639990  0.320314  1
  Ru  Ru33  1  0.000000  0.362469  0.681141  1
  Ru  Ru34  1  0.000000  0.136648  0.177067  1
  Ru  Ru35  1  0.000000  0.861174  0.821163  1
