# generated using pymatgen
data_HoPa2(Al3Os)4
_symmetry_space_group_name_H-M   'P 1'
_cell_length_a   8.85245657
_cell_length_b   8.85245671
_cell_length_c   9.45917600
_cell_angle_alpha   90.00000000
_cell_angle_beta   90.00000000
_cell_angle_gamma   119.64046512
_symmetry_Int_Tables_number   1
_chemical_formula_structural   HoPa2(Al3Os)4
_chemical_formula_sum   'Ho2 Pa4 Al24 Os8'
_cell_volume   644.27843029
_cell_formula_units_Z   2
loop_
 _symmetry_equiv_pos_site_id
 _symmetry_equiv_pos_as_xyz
  1  'x, y, z'
loop_
 _atom_site_type_symbol
 _atom_site_label
 _atom_site_symmetry_multiplicity
 _atom_site_fract_x
 _atom_site_fract_y
 _atom_site_fract_z
 _atom_site_occupancy
  Ho  Ho0  1  0.197159  0.802841  0.250000  1
  Ho  Ho1  1  0.802841  0.197159  0.750000  1
  Pa  Pa2  1  0.198477  0.393616  0.250000  1
  Pa  Pa3  1  0.801523  0.606384  0.750000  1
  Pa  Pa4  1  0.606384  0.801523  0.250000  1
  Pa  Pa5  1  0.393616  0.198477  0.750000  1
  Al  Al6  1  0.331487  0.668513  0.019369  1
  Al  Al7  1  0.668513  0.331487  0.980631  1
  Al  Al8  1  0.668513  0.331487  0.519369  1
  Al  Al9  1  0.331487  0.668513  0.480631  1
  Al  Al10  1  0.161924  0.324769  0.577765  1
  Al  Al11  1  0.838076  0.675231  0.422235  1
  Al  Al12  1  0.675231  0.838076  0.577765  1
  Al  Al13  1  0.838076  0.675231  0.077765  1
  Al  Al14  1  0.324769  0.161924  0.422235  1
  Al  Al15  1  0.161924  0.324769  0.922235  1
  Al  Al16  1  0.162661  0.837339  0.579000  1
  Al  Al17  1  0.324769  0.161924  0.077765  1
  Al  Al18  1  0.837339  0.162661  0.421000  1
  Al  Al19  1  0.675231  0.838076  0.922235  1
  Al  Al20  1  0.837339  0.162661  0.079000  1
  Al  Al21  1  0.162661  0.837339  0.921000  1
  Al  Al22  1  0.560428  0.123137  0.250000  1
  Al  Al23  1  0.439572  0.876863  0.750000  1
  Al  Al24  1  0.876863  0.439572  0.250000  1
  Al  Al25  1  0.123137  0.560428  0.750000  1
  Al  Al26  1  0.563972  0.436028  0.250000  1
  Al  Al27  1  0.436028  0.563972  0.750000  1
  Al  Al28  1  0.999520  0.000480  0.250000  1
  Al  Al29  1  0.000480  0.999520  0.750000  1
  Os  Os30  1  0.500000  0.000000  0.000000  1
  Os  Os31  1  0.000000  0.500000  0.000000  1
  Os  Os32  1  0.500000  0.000000  0.500000  1
  Os  Os33  1  0.500000  0.500000  0.000000  1
  Os  Os34  1  0.000000  0.500000  0.500000  1
  Os  Os35  1  0.500000  0.500000  0.500000  1
  Os  Os36  1  0.000000  0.000000  0.000000  1
  Os  Os37  1  0.000000  0.000000  0.500000  1
