# generated using pymatgen
data_Hf5ZrBi2Pt
_symmetry_space_group_name_H-M   'P 1'
_cell_length_a   3.70205200
_cell_length_b   7.93486230
_cell_length_c   7.93010652
_cell_angle_alpha   120.01983174
_cell_angle_beta   90.00000000
_cell_angle_gamma   90.00000000
_symmetry_Int_Tables_number   1
_chemical_formula_structural   Hf5ZrBi2Pt
_chemical_formula_sum   'Hf5 Zr1 Bi2 Pt1'
_cell_volume   201.69946162
_cell_formula_units_Z   1
loop_
 _symmetry_equiv_pos_site_id
 _symmetry_equiv_pos_as_xyz
  1  'x, y, z'
loop_
 _atom_site_type_symbol
 _atom_site_label
 _atom_site_symmetry_multiplicity
 _atom_site_fract_x
 _atom_site_fract_y
 _atom_site_fract_z
 _atom_site_occupancy
  Hf  Hf0  1  0.500000  0.754024  0.752939  1
  Hf  Hf1  1  0.500000  0.001086  0.247061  1
  Hf  Hf2  1  0.500000  0.247454  0.000000  1
  Hf  Hf3  1  0.000000  0.393771  0.393298  1
  Hf  Hf4  1  0.000000  0.000473  0.606702  1
  Zr  Zr5  1  0.000000  0.601623  0.000000  1
  Bi  Bi6  1  0.500000  0.667446  0.334391  1
  Bi  Bi7  1  0.500000  0.333055  0.665609  1
  Pt  Pt8  1  0.000000  0.001069  0.000000  1
