# generated using pymatgen
data_Mg3ScAl2(B2Rh5)2
_symmetry_space_group_name_H-M   'P 1'
_cell_length_a   2.95931100
_cell_length_b   9.41078674
_cell_length_c   9.41078674
_cell_angle_alpha   90.40829506
_cell_angle_beta   90.00000000
_cell_angle_gamma   90.00000000
_symmetry_Int_Tables_number   1
_chemical_formula_structural   Mg3ScAl2(B2Rh5)2
_chemical_formula_sum   'Mg3 Sc1 Al2 B4 Rh10'
_cell_volume   262.07853039
_cell_formula_units_Z   1
loop_
 _symmetry_equiv_pos_site_id
 _symmetry_equiv_pos_as_xyz
  1  'x, y, z'
loop_
 _atom_site_type_symbol
 _atom_site_label
 _atom_site_symmetry_multiplicity
 _atom_site_fract_x
 _atom_site_fract_y
 _atom_site_fract_z
 _atom_site_occupancy
  Mg  Mg0  1  0.000000  0.323919  0.324718  1
  Mg  Mg1  1  0.000000  0.675283  0.676082  1
  Mg  Mg2  1  0.000000  0.177659  0.822343  1
  Sc  Sc3  1  0.000000  0.825006  0.174996  1
  Al  Al4  1  0.000000  0.499835  0.999777  1
  Al  Al5  1  0.000000  0.000223  0.500167  1
  B  B6  1  0.000000  0.127018  0.126710  1
  B  B7  1  0.000000  0.623581  0.376422  1
  B  B8  1  0.000000  0.373832  0.626171  1
  B  B9  1  0.000000  0.873290  0.872982  1
  Rh  Rh10  1  0.499999  0.001003  0.998997  1
  Rh  Rh11  1  0.499999  0.285263  0.071429  1
  Rh  Rh12  1  0.499999  0.571882  0.215181  1
  Rh  Rh13  1  0.499999  0.069678  0.284542  1
  Rh  Rh14  1  0.499999  0.784821  0.428119  1
  Rh  Rh15  1  0.499999  0.499760  0.500242  1
  Rh  Rh16  1  0.499999  0.214513  0.570586  1
  Rh  Rh17  1  0.499999  0.928572  0.714737  1
  Rh  Rh18  1  0.499999  0.429415  0.785489  1
  Rh  Rh19  1  0.499999  0.715458  0.930323  1
