# generated using pymatgen
data_TbPr5(WO7)2
_symmetry_space_group_name_H-M   'P 1'
_cell_length_a   6.71004271
_cell_length_b   6.66656115
_cell_length_c   7.75395473
_cell_angle_alpha   90.02237185
_cell_angle_beta   90.03487809
_cell_angle_gamma   109.29726287
_symmetry_Int_Tables_number   1
_chemical_formula_structural   TbPr5(WO7)2
_chemical_formula_sum   'Tb1 Pr5 W2 O14'
_cell_volume   327.36928023
_cell_formula_units_Z   1
loop_
 _symmetry_equiv_pos_site_id
 _symmetry_equiv_pos_as_xyz
  1  'x, y, z'
loop_
 _atom_site_type_symbol
 _atom_site_label
 _atom_site_symmetry_multiplicity
 _atom_site_fract_x
 _atom_site_fract_y
 _atom_site_fract_z
 _atom_site_occupancy
  Tb  Tb0  1  0.997685  0.468067  0.747955  1
  Pr  Pr1  1  0.479461  0.484074  0.999084  1
  Pr  Pr2  1  0.467978  0.997991  0.251446  1
  Pr  Pr3  1  0.534504  0.998244  0.751237  1
  Pr  Pr4  1  0.997166  0.537175  0.248190  1
  Pr  Pr5  1  0.497590  0.496904  0.502272  1
  W  W6  1  0.000844  0.000761  0.997690  1
  W  W7  1  0.000195  0.001573  0.501889  1
  O  O8  1  0.059825  0.313014  0.475474  1
  O  O9  1  0.065607  0.936165  0.250150  1
  O  O10  1  0.630540  0.368919  0.248984  1
  O  O11  1  0.316919  0.082700  0.528013  1
  O  O12  1  0.939383  0.690129  0.535356  1
  O  O13  1  0.934667  0.070638  0.750100  1
  O  O14  1  0.684351  0.919211  0.474641  1
  O  O15  1  0.362336  0.629023  0.251984  1
  O  O16  1  0.687893  0.920013  0.027613  1
  O  O17  1  0.646459  0.368657  0.752497  1
  O  O18  1  0.070124  0.316685  0.021898  1
  O  O19  1  0.952330  0.694559  0.961141  1
  O  O20  1  0.354908  0.623060  0.748383  1
  O  O21  1  0.319235  0.082439  0.974002  1
