# generated using pymatgen
data_Li2Yb2SmAlSi3
_symmetry_space_group_name_H-M   'P 1'
_cell_length_a   7.12655687
_cell_length_b   7.14309032
_cell_length_c   4.31309300
_cell_angle_alpha   90.00000000
_cell_angle_beta   90.00000000
_cell_angle_gamma   120.79052417
_symmetry_Int_Tables_number   1
_chemical_formula_structural   Li2Yb2SmAlSi3
_chemical_formula_sum   'Li2 Yb2 Sm1 Al1 Si3'
_cell_volume   188.61247590
_cell_formula_units_Z   1
loop_
 _symmetry_equiv_pos_site_id
 _symmetry_equiv_pos_as_xyz
  1  'x, y, z'
loop_
 _atom_site_type_symbol
 _atom_site_label
 _atom_site_symmetry_multiplicity
 _atom_site_fract_x
 _atom_site_fract_y
 _atom_site_fract_z
 _atom_site_occupancy
  Li  Li0  1  0.241139  0.999891  0.500000  1
  Li  Li1  1  0.995375  0.234095  0.500000  1
  Yb  Yb2  1  0.420969  0.421244  0.000000  1
  Yb  Yb3  1  0.574364  0.007721  0.000000  1
  Sm  Sm4  1  0.008524  0.578624  0.000000  1
  Al  Al5  1  0.754223  0.754108  0.500000  1
  Si  Si6  1  0.344283  0.670807  0.500000  1
  Si  Si7  1  0.679237  0.354058  0.500000  1
  Si  Si8  1  0.981887  0.979453  0.000000  1
