# generated using pymatgen
data_Ho5ErTm4(In2Pt)4
_symmetry_space_group_name_H-M   'P 1'
_cell_length_a   3.63023200
_cell_length_b   8.08585745
_cell_length_c   18.12063548
_cell_angle_alpha   90.03223540
_cell_angle_beta   90.00000000
_cell_angle_gamma   90.00000000
_symmetry_Int_Tables_number   1
_chemical_formula_structural   Ho5ErTm4(In2Pt)4
_chemical_formula_sum   'Ho5 Er1 Tm4 In8 Pt4'
_cell_volume   531.90468611
_cell_formula_units_Z   1
loop_
 _symmetry_equiv_pos_site_id
 _symmetry_equiv_pos_as_xyz
  1  'x, y, z'
loop_
 _atom_site_type_symbol
 _atom_site_label
 _atom_site_symmetry_multiplicity
 _atom_site_fract_x
 _atom_site_fract_y
 _atom_site_fract_z
 _atom_site_occupancy
  Ho  Ho0  1  0.000000  0.242606  0.220815  1
  Ho  Ho1  1  0.000000  0.757560  0.779253  1
  Ho  Ho2  1  0.000000  0.257559  0.720669  1
  Ho  Ho3  1  0.000000  0.000032  0.000098  1
  Ho  Ho4  1  0.000000  0.499852  0.499982  1
  Er  Er5  1  0.000000  0.742761  0.279153  1
  Tm  Tm6  1  0.000000  0.115623  0.414356  1
  Tm  Tm7  1  0.000000  0.883965  0.585363  1
  Tm  Tm8  1  0.000000  0.384072  0.914509  1
  Tm  Tm9  1  0.000000  0.616049  0.085749  1
  In  In10  1  0.500000  0.422074  0.351589  1
  In  In11  1  0.500000  0.578268  0.648350  1
  In  In12  1  0.500000  0.078292  0.851534  1
  In  In13  1  0.500000  0.921709  0.148624  1
  In  In14  1  0.500000  0.292876  0.066552  1
  In  In15  1  0.500000  0.707364  0.933623  1
  In  In16  1  0.500000  0.207322  0.566278  1
  In  In17  1  0.500000  0.792209  0.433280  1
  Pt  Pt18  1  0.500000  0.023704  0.304622  1
  Pt  Pt19  1  0.500000  0.975132  0.695154  1
  Pt  Pt20  1  0.500000  0.475208  0.804788  1
  Pt  Pt21  1  0.500000  0.525767  0.195659  1
