# generated using pymatgen
data_Zr16Co4HgPd3N4
_symmetry_space_group_name_H-M   'P 1'
_cell_length_a   8.78668562
_cell_length_b   8.74738534
_cell_length_c   8.74738500
_cell_angle_alpha   59.99999750
_cell_angle_beta   60.14784353
_cell_angle_gamma   60.14785335
_symmetry_Int_Tables_number   1
_chemical_formula_structural   Zr16Co4HgPd3N4
_chemical_formula_sum   'Zr16 Co4 Hg1 Pd3 N4'
_cell_volume   476.46774485
_cell_formula_units_Z   1
loop_
 _symmetry_equiv_pos_site_id
 _symmetry_equiv_pos_as_xyz
  1  'x, y, z'
loop_
 _atom_site_type_symbol
 _atom_site_label
 _atom_site_symmetry_multiplicity
 _atom_site_fract_x
 _atom_site_fract_y
 _atom_site_fract_z
 _atom_site_occupancy
  Zr  Zr0  1  0.077252  0.640916  0.640916  1
  Zr  Zr1  1  0.641668  0.064786  0.646773  1
  Zr  Zr2  1  0.641668  0.646773  0.064786  1
  Zr  Zr3  1  0.641668  0.646773  0.646773  1
  Zr  Zr4  1  0.816754  0.817409  0.182919  1
  Zr  Zr5  1  0.181787  0.184167  0.817023  1
  Zr  Zr6  1  0.816754  0.182919  0.817409  1
  Zr  Zr7  1  0.181787  0.817023  0.184167  1
  Zr  Zr8  1  0.181787  0.817023  0.817023  1
  Zr  Zr9  1  0.816754  0.182919  0.182919  1
  Zr  Zr10  1  0.433903  0.433838  0.066130  1
  Zr  Zr11  1  0.071416  0.064207  0.432188  1
  Zr  Zr12  1  0.433903  0.066130  0.433838  1
  Zr  Zr13  1  0.071416  0.432188  0.064207  1
  Zr  Zr14  1  0.071416  0.432188  0.432188  1
  Zr  Zr15  1  0.433903  0.066130  0.066130  1
  Co  Co16  1  0.436856  0.854382  0.854382  1
  Co  Co17  1  0.855384  0.442154  0.851232  1
  Co  Co18  1  0.855384  0.851232  0.442154  1
  Co  Co19  1  0.855384  0.851232  0.851232  1
  Hg  Hg20  1  0.741061  0.419646  0.419646  1
  Pd  Pd21  1  0.412995  0.754812  0.416096  1
  Pd  Pd22  1  0.412995  0.416096  0.754812  1
  Pd  Pd23  1  0.412995  0.416096  0.416096  1
  N  N24  1  0.624638  0.125121  0.125121  1
  N  N25  1  0.126159  0.622812  0.125514  1
  N  N26  1  0.126159  0.125514  0.622812  1
  N  N27  1  0.126159  0.125514  0.125514  1
