# generated using pymatgen
data_Lu3Al12CuRu3
_symmetry_space_group_name_H-M   'P 1'
_cell_length_a   8.77874078
_cell_length_b   8.77874065
_cell_length_c   9.51687100
_cell_angle_alpha   90.12762877
_cell_angle_beta   89.87237123
_cell_angle_gamma   120.13984705
_symmetry_Int_Tables_number   1
_chemical_formula_structural   Lu3Al12CuRu3
_chemical_formula_sum   'Lu6 Al24 Cu2 Ru6'
_cell_volume   634.26988718
_cell_formula_units_Z   2
loop_
 _symmetry_equiv_pos_site_id
 _symmetry_equiv_pos_as_xyz
  1  'x, y, z'
loop_
 _atom_site_type_symbol
 _atom_site_label
 _atom_site_symmetry_multiplicity
 _atom_site_fract_x
 _atom_site_fract_y
 _atom_site_fract_z
 _atom_site_occupancy
  Lu  Lu0  1  0.197618  0.390451  0.251853  1
  Lu  Lu1  1  0.802382  0.609549  0.748147  1
  Lu  Lu2  1  0.609549  0.802382  0.251853  1
  Lu  Lu3  1  0.390451  0.197618  0.748147  1
  Lu  Lu4  1  0.194034  0.805966  0.249784  1
  Lu  Lu5  1  0.805966  0.194034  0.750216  1
  Al  Al6  1  0.334811  0.665189  0.027618  1
  Al  Al7  1  0.665189  0.334811  0.972382  1
  Al  Al8  1  0.666569  0.333431  0.522898  1
  Al  Al9  1  0.333431  0.666569  0.477102  1
  Al  Al10  1  0.162208  0.326454  0.577441  1
  Al  Al11  1  0.837792  0.673546  0.422559  1
  Al  Al12  1  0.673546  0.837792  0.577441  1
  Al  Al13  1  0.832355  0.674604  0.080319  1
  Al  Al14  1  0.326454  0.162208  0.422559  1
  Al  Al15  1  0.167645  0.325396  0.919681  1
  Al  Al16  1  0.162331  0.837669  0.576809  1
  Al  Al17  1  0.325396  0.167645  0.080319  1
  Al  Al18  1  0.837669  0.162331  0.423191  1
  Al  Al19  1  0.674604  0.832355  0.919681  1
  Al  Al20  1  0.838497  0.161503  0.081745  1
  Al  Al21  1  0.161503  0.838497  0.918255  1
  Al  Al22  1  0.561351  0.122645  0.250112  1
  Al  Al23  1  0.438649  0.877355  0.749888  1
  Al  Al24  1  0.877355  0.438649  0.250112  1
  Al  Al25  1  0.122645  0.561351  0.749888  1
  Al  Al26  1  0.560978  0.439022  0.248344  1
  Al  Al27  1  0.439022  0.560978  0.751656  1
  Al  Al28  1  0.000902  0.999098  0.250273  1
  Al  Al29  1  0.999098  0.000902  0.749727  1
  Cu  Cu30  1  0.500000  0.000000  0.000000  1
  Cu  Cu31  1  0.000000  0.500000  0.000000  1
  Ru  Ru32  1  0.500000  0.000000  0.500000  1
  Ru  Ru33  1  0.500000  0.500000  0.000000  1
  Ru  Ru34  1  0.000000  0.500000  0.500000  1
  Ru  Ru35  1  0.500000  0.500000  0.500000  1
  Ru  Ru36  1  0.000000  0.000000  0.000000  1
  Ru  Ru37  1  0.000000  0.000000  0.500000  1
