# generated using pymatgen
data_Nb4Cr6SiOs
_symmetry_space_group_name_H-M   'P 1'
_cell_length_a   4.88038700
_cell_length_b   4.88038491
_cell_length_c   8.25381300
_cell_angle_alpha   90.00000000
_cell_angle_beta   90.00000000
_cell_angle_gamma   120.00000737
_symmetry_Int_Tables_number   1
_chemical_formula_structural   Nb4Cr6SiOs
_chemical_formula_sum   'Nb4 Cr6 Si1 Os1'
_cell_volume   170.25252517
_cell_formula_units_Z   1
loop_
 _symmetry_equiv_pos_site_id
 _symmetry_equiv_pos_as_xyz
  1  'x, y, z'
loop_
 _atom_site_type_symbol
 _atom_site_label
 _atom_site_symmetry_multiplicity
 _atom_site_fract_x
 _atom_site_fract_y
 _atom_site_fract_z
 _atom_site_occupancy
  Nb  Nb0  1  0.333333  0.666667  0.932822  1
  Nb  Nb1  1  0.666667  0.333333  0.067178  1
  Nb  Nb2  1  0.666667  0.333333  0.442517  1
  Nb  Nb3  1  0.333333  0.666667  0.557483  1
  Cr  Cr4  1  0.172856  0.827144  0.246036  1
  Cr  Cr5  1  0.172856  0.345710  0.246036  1
  Cr  Cr6  1  0.654290  0.827144  0.246036  1
  Cr  Cr7  1  0.827144  0.172856  0.753964  1
  Cr  Cr8  1  0.827144  0.654290  0.753964  1
  Cr  Cr9  1  0.345710  0.172856  0.753964  1
  Si  Si10  1  0.000000  0.000000  0.000000  1
  Os  Os11  1  0.000000  0.000000  0.500000  1
