# generated using pymatgen
data_NaNp5Se8
_symmetry_space_group_name_H-M   'P 1'
_cell_length_a   7.56350122
_cell_length_b   7.56350178
_cell_length_c   7.56350088
_cell_angle_alpha   109.14911364
_cell_angle_beta   109.63252263
_cell_angle_gamma   109.63251295
_symmetry_Int_Tables_number   1
_chemical_formula_structural   NaNp5Se8
_chemical_formula_sum   'Na1 Np5 Se8'
_cell_volume   333.07070408
_cell_formula_units_Z   1
loop_
 _symmetry_equiv_pos_site_id
 _symmetry_equiv_pos_as_xyz
  1  'x, y, z'
loop_
 _atom_site_type_symbol
 _atom_site_label
 _atom_site_symmetry_multiplicity
 _atom_site_fract_x
 _atom_site_fract_y
 _atom_site_fract_z
 _atom_site_occupancy
  Na  Na0  1  0.250000  0.125000  0.875000  1
  Np  Np1  1  0.124047  0.879633  0.251284  1
  Np  Np2  1  0.750000  0.375000  0.625000  1
  Np  Np3  1  0.871651  0.244414  0.120367  1
  Np  Np4  1  0.628349  0.748716  0.372763  1
  Np  Np5  1  0.375953  0.627237  0.755586  1
  Se  Se6  1  0.505937  0.994775  0.644410  1
  Se  Se7  1  0.994063  0.638473  0.488839  1
  Se  Se8  1  0.656373  0.502393  0.999856  1
  Se  Se9  1  0.997463  0.153980  0.497607  1
  Se  Se10  1  0.843627  0.843482  0.846020  1
  Se  Se11  1  0.350365  0.355590  0.361527  1
  Se  Se12  1  0.149635  0.511161  0.005225  1
  Se  Se13  1  0.502537  0.000144  0.156518  1
