# generated using pymatgen
data_SmDy6Th(ReB6)4
_symmetry_space_group_name_H-M   'P 1'
_cell_length_a   3.71900900
_cell_length_b   9.21765801
_cell_length_c   11.62418101
_cell_angle_alpha   90.02457043
_cell_angle_beta   90.00000000
_cell_angle_gamma   90.00000000
_symmetry_Int_Tables_number   1
_chemical_formula_structural   SmDy6Th(ReB6)4
_chemical_formula_sum   'Sm1 Dy6 Th1 Re4 B24'
_cell_volume   398.48331777
_cell_formula_units_Z   1
loop_
 _symmetry_equiv_pos_site_id
 _symmetry_equiv_pos_as_xyz
  1  'x, y, z'
loop_
 _atom_site_type_symbol
 _atom_site_label
 _atom_site_symmetry_multiplicity
 _atom_site_fract_x
 _atom_site_fract_y
 _atom_site_fract_z
 _atom_site_occupancy
  Sm  Sm0  1  0.000000  0.678039  0.587134  1
  Dy  Dy1  1  0.000000  0.823419  0.085046  1
  Dy  Dy2  1  0.000000  0.176011  0.914147  1
  Dy  Dy3  1  0.000000  0.941733  0.368892  1
  Dy  Dy4  1  0.000000  0.056767  0.631630  1
  Dy  Dy5  1  0.000000  0.442986  0.128327  1
  Dy  Dy6  1  0.000000  0.557729  0.870673  1
  Th  Th7  1  0.000000  0.322240  0.414006  1
  Re  Re8  1  0.000000  0.638397  0.319868  1
  Re  Re9  1  0.000000  0.361520  0.680429  1
  Re  Re10  1  0.000000  0.137894  0.178318  1
  Re  Re11  1  0.000000  0.862495  0.821600  1
  B  B12  1  0.500000  0.555199  0.431136  1
  B  B13  1  0.500000  0.446036  0.569825  1
  B  B14  1  0.500000  0.052888  0.066466  1
  B  B15  1  0.500000  0.946833  0.932998  1
  B  B16  1  0.500000  0.749591  0.416634  1
  B  B17  1  0.500000  0.251231  0.585293  1
  B  B18  1  0.500000  0.248115  0.080461  1
  B  B19  1  0.500000  0.751531  0.918503  1
  B  B20  1  0.500000  0.791422  0.264682  1
  B  B21  1  0.500000  0.208762  0.736237  1
  B  B22  1  0.500000  0.289705  0.232046  1
  B  B23  1  0.500000  0.709352  0.766784  1
  B  B24  1  0.500000  0.631586  0.184490  1
  B  B25  1  0.500000  0.369697  0.815338  1
  B  B26  1  0.500000  0.128940  0.311918  1
  B  B27  1  0.500000  0.870112  0.687176  1
  B  B28  1  0.500000  0.981985  0.210702  1
  B  B29  1  0.500000  0.017447  0.788950  1
  B  B30  1  0.500000  0.485154  0.286046  1
  B  B31  1  0.500000  0.517055  0.714082  1
  B  B32  1  0.500000  0.601423  0.027847  1
  B  B33  1  0.500000  0.399201  0.971491  1
  B  B34  1  0.500000  0.096969  0.472848  1
  B  B35  1  0.500000  0.900537  0.527976  1
