# generated using pymatgen
data_Dy4Al21Pt10
_symmetry_space_group_name_H-M   'P 1'
_cell_length_a   10.95474641
_cell_length_b   10.95474756
_cell_length_c   15.98492500
_cell_angle_alpha   55.94483756
_cell_angle_beta   55.94483349
_cell_angle_gamma   22.03586270
_symmetry_Int_Tables_number   1
_chemical_formula_structural   Dy4Al21Pt10
_chemical_formula_sum   'Dy4 Al21 Pt10'
_cell_volume   591.10006183
_cell_formula_units_Z   1
loop_
 _symmetry_equiv_pos_site_id
 _symmetry_equiv_pos_as_xyz
  1  'x, y, z'
loop_
 _atom_site_type_symbol
 _atom_site_label
 _atom_site_symmetry_multiplicity
 _atom_site_fract_x
 _atom_site_fract_y
 _atom_site_fract_z
 _atom_site_occupancy
  Dy  Dy0  1  0.877715  0.877715  0.334376  1
  Dy  Dy1  1  0.122285  0.122285  0.665624  1
  Dy  Dy2  1  0.228875  0.228875  0.176718  1
  Dy  Dy3  1  0.771125  0.771125  0.823282  1
  Al  Al4  1  0.459397  0.459397  0.368990  1
  Al  Al5  1  0.540603  0.540603  0.631010  1
  Al  Al6  1  0.800628  0.800628  0.001104  1
  Al  Al7  1  0.199372  0.199372  0.998896  1
  Al  Al8  1  0.701095  0.701095  0.497032  1
  Al  Al9  1  0.298905  0.298905  0.502968  1
  Al  Al10  1  0.884277  0.884277  0.550026  1
  Al  Al11  1  0.115723  0.115723  0.449974  1
  Al  Al12  1  0.614862  0.614862  0.297356  1
  Al  Al13  1  0.385138  0.385138  0.702644  1
  Al  Al14  1  0.750795  0.750795  0.293482  1
  Al  Al15  1  0.249205  0.249205  0.706518  1
  Al  Al16  1  0.602084  0.602084  0.003440  1
  Al  Al17  1  0.397916  0.397916  0.996560  1
  Al  Al18  1  0.992711  0.992711  0.091837  1
  Al  Al19  1  0.007289  0.007289  0.908163  1
  Al  Al20  1  0.935854  0.935854  0.796299  1
  Al  Al21  1  0.064146  0.064146  0.203701  1
  Al  Al22  1  0.500000  0.500000  0.500000  1
  Al  Al23  1  0.371239  0.371239  0.194907  1
  Al  Al24  1  0.628761  0.628761  0.805093  1
  Pt  Pt25  1  0.493842  0.493842  0.186525  1
  Pt  Pt26  1  0.506158  0.506158  0.813475  1
  Pt  Pt27  1  0.867324  0.867324  0.102780  1
  Pt  Pt28  1  0.132676  0.132676  0.897220  1
  Pt  Pt29  1  0.749525  0.749525  0.614625  1
  Pt  Pt30  1  0.250475  0.250475  0.385375  1
  Pt  Pt31  1  0.656243  0.656243  0.111506  1
  Pt  Pt32  1  0.343757  0.343757  0.888494  1
  Pt  Pt33  1  0.973737  0.973737  0.611910  1
  Pt  Pt34  1  0.026263  0.026263  0.388090  1
