# generated using pymatgen
data_SrLaCuN2
_symmetry_space_group_name_H-M   'P 1'
_cell_length_a   3.81985784
_cell_length_b   3.81999556
_cell_length_c   6.78624198
_cell_angle_alpha   106.34686270
_cell_angle_beta   106.34624024
_cell_angle_gamma   90.00000122
_symmetry_Int_Tables_number   1
_chemical_formula_structural   SrLaCuN2
_chemical_formula_sum   'Sr1 La1 Cu1 N2'
_cell_volume   90.84186067
_cell_formula_units_Z   1
loop_
 _symmetry_equiv_pos_site_id
 _symmetry_equiv_pos_as_xyz
  1  'x, y, z'
loop_
 _atom_site_type_symbol
 _atom_site_label
 _atom_site_symmetry_multiplicity
 _atom_site_fract_x
 _atom_site_fract_y
 _atom_site_fract_z
 _atom_site_occupancy
  Sr  Sr0  1  0.855691  0.855691  0.211383  1
  La  La1  1  0.160427  0.160427  0.820853  1
  Cu  Cu2  1  0.495533  0.495533  0.491067  1
  N  N3  1  0.645011  0.645011  0.790022  1
  N  N4  1  0.343338  0.343338  0.186676  1
