# generated using pymatgen
data_Lu8V8Re3Si16Mo
_symmetry_space_group_name_H-M   'P 1'
_cell_length_a   6.58483245
_cell_length_b   6.77499580
_cell_length_c   12.74674500
_cell_angle_alpha   90.00000000
_cell_angle_beta   90.00000000
_cell_angle_gamma   90.02046017
_symmetry_Int_Tables_number   1
_chemical_formula_structural   Lu8V8Re3Si16Mo
_chemical_formula_sum   'Lu8 V8 Re3 Si16 Mo1'
_cell_volume   568.66045675
_cell_formula_units_Z   1
loop_
 _symmetry_equiv_pos_site_id
 _symmetry_equiv_pos_as_xyz
  1  'x, y, z'
loop_
 _atom_site_type_symbol
 _atom_site_label
 _atom_site_symmetry_multiplicity
 _atom_site_fract_x
 _atom_site_fract_y
 _atom_site_fract_z
 _atom_site_occupancy
  Lu  Lu0  1  0.497760  0.331205  0.093347  1
  Lu  Lu1  1  0.996710  0.169048  0.406587  1
  Lu  Lu2  1  0.503130  0.668739  0.593951  1
  Lu  Lu3  1  0.003796  0.832540  0.906276  1
  Lu  Lu4  1  0.503130  0.668739  0.906049  1
  Lu  Lu5  1  0.003796  0.832540  0.593724  1
  Lu  Lu6  1  0.497760  0.331205  0.406653  1
  Lu  Lu7  1  0.996710  0.169048  0.093413  1
  V  V8  1  0.832513  0.333561  0.625293  1
  V  V9  1  0.331481  0.165934  0.875360  1
  V  V10  1  0.166185  0.666416  0.124849  1
  V  V11  1  0.667659  0.832552  0.375441  1
  V  V12  1  0.166185  0.666416  0.375151  1
  V  V13  1  0.667659  0.832552  0.124559  1
  V  V14  1  0.832513  0.333561  0.874707  1
  V  V15  1  0.331481  0.165934  0.624640  1
  Re  Re16  1  0.666372  0.002348  0.750000  1
  Re  Re17  1  0.167317  0.498450  0.750000  1
  Re  Re18  1  0.333805  0.993553  0.250000  1
  Si  Si19  1  0.662942  0.044830  0.544054  1
  Si  Si20  1  0.163024  0.455310  0.955564  1
  Si  Si21  1  0.336205  0.954170  0.043383  1
  Si  Si22  1  0.836704  0.545166  0.458248  1
  Si  Si23  1  0.336205  0.954170  0.456617  1
  Si  Si24  1  0.836704  0.545166  0.041752  1
  Si  Si25  1  0.662942  0.044830  0.955946  1
  Si  Si26  1  0.163024  0.455310  0.544436  1
  Si  Si27  1  0.536102  0.364689  0.750000  1
  Si  Si28  1  0.036085  0.135095  0.750000  1
  Si  Si29  1  0.461655  0.633643  0.250000  1
  Si  Si30  1  0.964561  0.868958  0.250000  1
  Si  Si31  1  0.804176  0.626460  0.750000  1
  Si  Si32  1  0.303975  0.873833  0.750000  1
  Si  Si33  1  0.198879  0.372494  0.250000  1
  Si  Si34  1  0.696095  0.124847  0.250000  1
  Mo  Mo35  1  0.834761  0.506685  0.250000  1
