# generated using pymatgen
data_Tb2Pr3In3Cl
_symmetry_space_group_name_H-M   'P 1'
_cell_length_a   9.48378000
_cell_length_b   9.48377965
_cell_length_c   6.69465800
_cell_angle_alpha   90.00000000
_cell_angle_beta   90.00000000
_cell_angle_gamma   120.00000122
_symmetry_Int_Tables_number   1
_chemical_formula_structural   Tb2Pr3In3Cl
_chemical_formula_sum   'Tb4 Pr6 In6 Cl2'
_cell_volume   521.46113772
_cell_formula_units_Z   2
loop_
 _symmetry_equiv_pos_site_id
 _symmetry_equiv_pos_as_xyz
  1  'x, y, z'
loop_
 _atom_site_type_symbol
 _atom_site_label
 _atom_site_symmetry_multiplicity
 _atom_site_fract_x
 _atom_site_fract_y
 _atom_site_fract_z
 _atom_site_occupancy
  Tb  Tb0  1  0.333333  0.666667  0.500000  1
  Tb  Tb1  1  0.666667  0.333333  0.500000  1
  Tb  Tb2  1  0.333333  0.666667  0.000000  1
  Tb  Tb3  1  0.666667  0.333333  0.000000  1
  Pr  Pr4  1  0.739092  0.739092  0.250000  1
  Pr  Pr5  1  0.000000  0.739092  0.750000  1
  Pr  Pr6  1  0.739092  0.000000  0.750000  1
  Pr  Pr7  1  0.260908  0.260908  0.750000  1
  Pr  Pr8  1  0.000000  0.260908  0.250000  1
  Pr  Pr9  1  0.260908  0.000000  0.250000  1
  In  In10  1  0.396556  0.000000  0.750000  1
  In  In11  1  0.000000  0.603444  0.250000  1
  In  In12  1  0.603444  0.000000  0.250000  1
  In  In13  1  0.000000  0.396556  0.750000  1
  In  In14  1  0.396556  0.396556  0.250000  1
  In  In15  1  0.603444  0.603444  0.750000  1
  Cl  Cl16  1  0.000000  0.000000  0.500000  1
  Cl  Cl17  1  0.000000  0.000000  0.000000  1
