# generated using pymatgen
data_Dy5Ho3(ReB6)4
_symmetry_space_group_name_H-M   'P 1'
_cell_length_a   3.68032700
_cell_length_b   9.16973600
_cell_length_c   11.55622100
_cell_angle_alpha   90.00194651
_cell_angle_beta   90.00000000
_cell_angle_gamma   90.00000000
_symmetry_Int_Tables_number   1
_chemical_formula_structural   Dy5Ho3(ReB6)4
_chemical_formula_sum   'Dy5 Ho3 Re4 B24'
_cell_volume   389.99503554
_cell_formula_units_Z   1
loop_
 _symmetry_equiv_pos_site_id
 _symmetry_equiv_pos_as_xyz
  1  'x, y, z'
loop_
 _atom_site_type_symbol
 _atom_site_label
 _atom_site_symmetry_multiplicity
 _atom_site_fract_x
 _atom_site_fract_y
 _atom_site_fract_z
 _atom_site_occupancy
  Dy  Dy0  1  0.000000  0.323236  0.413902  1
  Dy  Dy1  1  0.000000  0.676655  0.586127  1
  Dy  Dy2  1  0.000000  0.823260  0.086007  1
  Dy  Dy3  1  0.000000  0.176855  0.913871  1
  Dy  Dy4  1  0.000000  0.942722  0.370142  1
  Ho  Ho5  1  0.000000  0.057321  0.630159  1
  Ho  Ho6  1  0.000000  0.442718  0.129837  1
  Ho  Ho7  1  0.000000  0.557259  0.869996  1
  Re  Re8  1  0.000000  0.637758  0.320765  1
  Re  Re9  1  0.000000  0.361742  0.679568  1
  Re  Re10  1  0.000000  0.138440  0.179042  1
  Re  Re11  1  0.000000  0.861945  0.820866  1
  B  B12  1  0.500000  0.552787  0.432815  1
  B  B13  1  0.500000  0.446847  0.567257  1
  B  B14  1  0.500000  0.053191  0.067004  1
  B  B15  1  0.500000  0.946968  0.932822  1
  B  B16  1  0.500000  0.748394  0.418339  1
  B  B17  1  0.500000  0.251106  0.581722  1
  B  B18  1  0.500000  0.249056  0.081504  1
  B  B19  1  0.500000  0.751085  0.918385  1
  B  B20  1  0.500000  0.791292  0.265317  1
  B  B21  1  0.500000  0.208400  0.734633  1
  B  B22  1  0.500000  0.291762  0.234392  1
  B  B23  1  0.500000  0.708389  0.765493  1
  B  B24  1  0.500000  0.630123  0.185419  1
  B  B25  1  0.500000  0.369803  0.814470  1
  B  B26  1  0.500000  0.130635  0.314207  1
  B  B27  1  0.500000  0.869720  0.685670  1
  B  B28  1  0.500000  0.982034  0.211736  1
  B  B29  1  0.500000  0.018197  0.788040  1
  B  B30  1  0.500000  0.481666  0.287876  1
  B  B31  1  0.500000  0.518197  0.712029  1
  B  B32  1  0.500000  0.599453  0.027826  1
  B  B33  1  0.500000  0.400643  0.972071  1
  B  B34  1  0.500000  0.100060  0.472370  1
  B  B35  1  0.500000  0.900279  0.528321  1
