# generated using pymatgen
data_Tb5Y5(In2Pt)4
_symmetry_space_group_name_H-M   'P 1'
_cell_length_a   3.64386700
_cell_length_b   8.18683881
_cell_length_c   18.31499011
_cell_angle_alpha   89.96821252
_cell_angle_beta   90.00000000
_cell_angle_gamma   90.00000000
_symmetry_Int_Tables_number   1
_chemical_formula_structural   Tb5Y5(In2Pt)4
_chemical_formula_sum   'Tb5 Y5 In8 Pt4'
_cell_volume   546.36815469
_cell_formula_units_Z   1
loop_
 _symmetry_equiv_pos_site_id
 _symmetry_equiv_pos_as_xyz
  1  'x, y, z'
loop_
 _atom_site_type_symbol
 _atom_site_label
 _atom_site_symmetry_multiplicity
 _atom_site_fract_x
 _atom_site_fract_y
 _atom_site_fract_z
 _atom_site_occupancy
  Tb  Tb0  1  0.000000  0.616947  0.084948  1
  Tb  Tb1  1  0.000000  0.243218  0.220605  1
  Tb  Tb2  1  0.000000  0.756581  0.779327  1
  Tb  Tb3  1  0.000000  0.256689  0.720740  1
  Tb  Tb4  1  0.000000  0.743732  0.279390  1
  Y  Y5  1  0.000000  0.117069  0.415266  1
  Y  Y6  1  0.000000  0.882927  0.584642  1
  Y  Y7  1  0.000000  0.383008  0.915518  1
  Y  Y8  1  0.000000  0.999346  0.000169  1
  Y  Y9  1  0.000000  0.500105  0.499976  1
  In  In10  1  0.500000  0.424409  0.351417  1
  In  In11  1  0.500000  0.575636  0.648561  1
  In  In12  1  0.500000  0.075630  0.851556  1
  In  In13  1  0.500000  0.924813  0.148608  1
  In  In14  1  0.500000  0.291840  0.066891  1
  In  In15  1  0.500000  0.707730  0.932748  1
  In  In16  1  0.500000  0.207753  0.567201  1
  In  In17  1  0.500000  0.792299  0.432755  1
  Pt  Pt18  1  0.500000  0.024555  0.303049  1
  Pt  Pt19  1  0.500000  0.975740  0.696887  1
  Pt  Pt20  1  0.500000  0.475523  0.803119  1
  Pt  Pt21  1  0.500000  0.524447  0.196630  1
