# generated using pymatgen
data_Er4TiAl5Pt8
_symmetry_space_group_name_H-M   'P 1'
_cell_length_a   8.11245860
_cell_length_b   8.11245812
_cell_length_c   7.64489982
_cell_angle_alpha   89.73193898
_cell_angle_beta   90.26805930
_cell_angle_gamma   140.06498332
_symmetry_Int_Tables_number   1
_chemical_formula_structural   Er4TiAl5Pt8
_chemical_formula_sum   'Er4 Ti1 Al5 Pt8'
_cell_volume   322.96181986
_cell_formula_units_Z   1
loop_
 _symmetry_equiv_pos_site_id
 _symmetry_equiv_pos_as_xyz
  1  'x, y, z'
loop_
 _atom_site_type_symbol
 _atom_site_label
 _atom_site_symmetry_multiplicity
 _atom_site_fract_x
 _atom_site_fract_y
 _atom_site_fract_z
 _atom_site_occupancy
  Er  Er0  1  0.106935  0.893065  0.410392  1
  Er  Er1  1  0.893065  0.106935  0.589608  1
  Er  Er2  1  0.393414  0.606586  0.905178  1
  Er  Er3  1  0.606586  0.393414  0.094822  1
  Ti  Ti4  1  0.000000  0.000000  0.000000  1
  Al  Al5  1  0.500000  0.500000  0.500000  1
  Al  Al6  1  0.023614  0.479484  0.249585  1
  Al  Al7  1  0.479484  0.023614  0.750415  1
  Al  Al8  1  0.976386  0.520516  0.750415  1
  Al  Al9  1  0.520516  0.976386  0.249585  1
  Pt  Pt10  1  0.191797  0.311189  0.251297  1
  Pt  Pt11  1  0.311189  0.191797  0.748703  1
  Pt  Pt12  1  0.808203  0.688811  0.748703  1
  Pt  Pt13  1  0.688811  0.808203  0.251297  1
  Pt  Pt14  1  0.181343  0.818657  0.027992  1
  Pt  Pt15  1  0.818657  0.181343  0.972008  1
  Pt  Pt16  1  0.315527  0.684473  0.530214  1
  Pt  Pt17  1  0.684473  0.315527  0.469786  1
