# generated using pymatgen
data_BaTcNiP2
_symmetry_space_group_name_H-M   'P 1'
_cell_length_a   6.94585529
_cell_length_b   6.94585528
_cell_length_c   6.94585557
_cell_angle_alpha   147.23721456
_cell_angle_beta   147.23721614
_cell_angle_gamma   47.01267155
_symmetry_Int_Tables_number   1
_chemical_formula_structural   BaTcNiP2
_chemical_formula_sum   'Ba1 Tc1 Ni1 P2'
_cell_volume   97.76972178
_cell_formula_units_Z   1
loop_
 _symmetry_equiv_pos_site_id
 _symmetry_equiv_pos_as_xyz
  1  'x, y, z'
loop_
 _atom_site_type_symbol
 _atom_site_label
 _atom_site_symmetry_multiplicity
 _atom_site_fract_x
 _atom_site_fract_y
 _atom_site_fract_z
 _atom_site_occupancy
  Ba  Ba0  1  0.000000  0.000000  0.000000  1
  Tc  Tc1  1  0.750000  0.250000  0.500000  1
  Ni  Ni2  1  0.250000  0.750000  0.500000  1
  P  P3  1  0.652827  0.652827  0.000000  1
  P  P4  1  0.347173  0.347173  0.000000  1
