# generated using pymatgen
data_K8Ce3TeBr24
_symmetry_space_group_name_H-M   'P 1'
_cell_length_a   13.61991646
_cell_length_b   13.61991526
_cell_length_c   13.61991600
_cell_angle_alpha   131.95579827
_cell_angle_beta   131.95579940
_cell_angle_gamma   70.29884713
_symmetry_Int_Tables_number   1
_chemical_formula_structural   K8Ce3TeBr24
_chemical_formula_sum   'K8 Ce3 Te1 Br24'
_cell_volume   1369.40289573
_cell_formula_units_Z   1
loop_
 _symmetry_equiv_pos_site_id
 _symmetry_equiv_pos_as_xyz
  1  'x, y, z'
loop_
 _atom_site_type_symbol
 _atom_site_label
 _atom_site_symmetry_multiplicity
 _atom_site_fract_x
 _atom_site_fract_y
 _atom_site_fract_z
 _atom_site_occupancy
  K  K0  1  0.371510  0.368294  0.490833  1
  K  K1  1  0.119323  0.628490  0.996783  1
  K  K2  1  0.877461  0.880677  0.509167  1
  K  K3  1  0.122955  0.123272  0.493786  1
  K  K4  1  0.370832  0.877045  0.000316  1
  K  K5  1  0.629485  0.629168  0.506214  1
  K  K6  1  0.631706  0.122539  0.003217  1
  K  K7  1  0.876728  0.370515  0.999684  1
  Ce  Ce8  1  0.250000  0.750000  0.500000  1
  Ce  Ce9  1  0.500000  0.500000  0.000000  1
  Ce  Ce10  1  0.750000  0.250000  0.500000  1
  Te  Te11  1  0.000000  0.000000  0.000000  1
  Br  Br12  1  0.006306  0.815077  0.320938  1
  Br  Br13  1  0.053498  0.242072  0.294577  1
  Br  Br14  1  0.314632  0.993694  0.808771  1
  Br  Br15  1  0.993555  0.185139  0.678713  1
  Br  Br16  1  0.125054  0.625054  0.500000  1
  Br  Br17  1  0.253866  0.554072  0.806890  1
  Br  Br18  1  0.494139  0.685368  0.679062  1
  Br  Br19  1  0.506426  0.314841  0.321287  1
  Br  Br20  1  0.445928  0.252819  0.699794  1
  Br  Br21  1  0.624873  0.624873  0.000000  1
  Br  Br22  1  0.553025  0.746134  0.300206  1
  Br  Br23  1  0.122935  0.122935  0.000000  1
  Br  Br24  1  0.877065  0.877065  0.000000  1
  Br  Br25  1  0.947495  0.758921  0.705423  1
  Br  Br26  1  0.757928  0.052505  0.811425  1
  Br  Br27  1  0.241079  0.946502  0.188575  1
  Br  Br28  1  0.747181  0.446975  0.193110  1
  Br  Br29  1  0.184923  0.505861  0.191229  1
  Br  Br30  1  0.374946  0.874946  0.500000  1
  Br  Br31  1  0.875059  0.375059  0.500000  1
  Br  Br32  1  0.375127  0.375127  0.000000  1
  Br  Br33  1  0.624941  0.124941  0.500000  1
  Br  Br34  1  0.814861  0.493574  0.808416  1
  Br  Br35  1  0.685159  0.006445  0.191584  1
