# generated using pymatgen
data_BeV10B3S2
_symmetry_space_group_name_H-M   'P 1'
_cell_length_a   5.75496877
_cell_length_b   5.75496952
_cell_length_c   6.68986259
_cell_angle_alpha   115.57772532
_cell_angle_beta   115.57774442
_cell_angle_gamma   89.78564352
_symmetry_Int_Tables_number   1
_chemical_formula_structural   BeV10B3S2
_chemical_formula_sum   'Be1 V10 B3 S2'
_cell_volume   175.66568651
_cell_formula_units_Z   1
loop_
 _symmetry_equiv_pos_site_id
 _symmetry_equiv_pos_as_xyz
  1  'x, y, z'
loop_
 _atom_site_type_symbol
 _atom_site_label
 _atom_site_symmetry_multiplicity
 _atom_site_fract_x
 _atom_site_fract_y
 _atom_site_fract_z
 _atom_site_occupancy
  Be  Be0  1  0.617760  0.117760  0.000000  1
  V  V1  1  0.498679  0.504153  0.000000  1
  V  V2  1  0.004153  0.998679  0.000000  1
  V  V3  1  0.028480  0.528480  0.719276  1
  V  V4  1  0.691971  0.191971  0.714267  1
  V  V5  1  0.184640  0.027949  0.715592  1
  V  V6  1  0.527949  0.684640  0.715592  1
  V  V7  1  0.977705  0.477705  0.285733  1
  V  V8  1  0.309204  0.809204  0.280724  1
  V  V9  1  0.812358  0.969049  0.284408  1
  V  V10  1  0.469049  0.312358  0.284408  1
  B  B11  1  0.381276  0.881276  0.000000  1
  B  B12  1  0.884131  0.615023  0.000000  1
  B  B13  1  0.115023  0.384131  0.000000  1
  S  S14  1  0.248811  0.248811  0.500000  1
  S  S15  1  0.748811  0.748811  0.500000  1
