# generated using pymatgen
data_Cs2Y(SbSe2)5
_symmetry_space_group_name_H-M   'P 1'
_cell_length_a   4.12071200
_cell_length_b   12.38483100
_cell_length_c   22.95449000
_cell_angle_alpha   90.00000000
_cell_angle_beta   90.00000000
_cell_angle_gamma   90.00000000
_symmetry_Int_Tables_number   1
_chemical_formula_structural   Cs2Y(SbSe2)5
_chemical_formula_sum   'Cs4 Y2 Sb10 Se20'
_cell_volume   1171.46682757
_cell_formula_units_Z   2
loop_
 _symmetry_equiv_pos_site_id
 _symmetry_equiv_pos_as_xyz
  1  'x, y, z'
loop_
 _atom_site_type_symbol
 _atom_site_label
 _atom_site_symmetry_multiplicity
 _atom_site_fract_x
 _atom_site_fract_y
 _atom_site_fract_z
 _atom_site_occupancy
  Cs  Cs0  1  0.250000  0.990685  0.288167  1
  Cs  Cs1  1  0.750000  0.490533  0.212397  1
  Cs  Cs2  1  0.750000  0.009467  0.712397  1
  Cs  Cs3  1  0.250000  0.509315  0.788167  1
  Y  Y4  1  0.750000  0.362940  0.022880  1
  Y  Y5  1  0.750000  0.137060  0.522880  1
  Sb  Sb6  1  0.750000  0.809522  0.119619  1
  Sb  Sb7  1  0.250000  0.405986  0.570796  1
  Sb  Sb8  1  0.250000  0.189819  0.879957  1
  Sb  Sb9  1  0.750000  0.595946  0.429977  1
  Sb  Sb10  1  0.250000  0.094014  0.070796  1
  Sb  Sb11  1  0.250000  0.633045  0.977178  1
  Sb  Sb12  1  0.250000  0.310181  0.379957  1
  Sb  Sb13  1  0.250000  0.866955  0.477178  1
  Sb  Sb14  1  0.750000  0.904054  0.929977  1
  Sb  Sb15  1  0.750000  0.690478  0.619619  1
  Se  Se16  1  0.250000  0.746478  0.693085  1
  Se  Se17  1  0.750000  0.142616  0.982556  1
  Se  Se18  1  0.250000  0.303231  0.106520  1
  Se  Se19  1  0.750000  0.583487  0.059830  1
  Se  Se20  1  0.250000  0.082144  0.440035  1
  Se  Se21  1  0.750000  0.916513  0.559830  1
  Se  Se22  1  0.250000  0.417856  0.940035  1
  Se  Se23  1  0.250000  0.860572  0.018448  1
  Se  Se24  1  0.750000  0.357384  0.482556  1
  Se  Se25  1  0.750000  0.245382  0.806813  1
  Se  Se26  1  0.250000  0.523396  0.348815  1
  Se  Se27  1  0.250000  0.976604  0.848815  1
  Se  Se28  1  0.750000  0.800432  0.391848  1
  Se  Se29  1  0.750000  0.474862  0.651078  1
  Se  Se30  1  0.250000  0.196769  0.606520  1
  Se  Se31  1  0.250000  0.753522  0.193085  1
  Se  Se32  1  0.750000  0.025138  0.151078  1
  Se  Se33  1  0.750000  0.254618  0.306813  1
  Se  Se34  1  0.750000  0.699568  0.891848  1
  Se  Se35  1  0.250000  0.639428  0.518448  1
