# generated using pymatgen
data_Li4HfPa3Rh8
_symmetry_space_group_name_H-M   'P 1'
_cell_length_a   5.92768100
_cell_length_b   5.92681600
_cell_length_c   7.46633600
_cell_angle_alpha   90.00000000
_cell_angle_beta   89.99984535
_cell_angle_gamma   90.00000000
_symmetry_Int_Tables_number   1
_chemical_formula_structural   Li4HfPa3Rh8
_chemical_formula_sum   'Li4 Hf1 Pa3 Rh8'
_cell_volume   262.30936656
_cell_formula_units_Z   1
loop_
 _symmetry_equiv_pos_site_id
 _symmetry_equiv_pos_as_xyz
  1  'x, y, z'
loop_
 _atom_site_type_symbol
 _atom_site_label
 _atom_site_symmetry_multiplicity
 _atom_site_fract_x
 _atom_site_fract_y
 _atom_site_fract_z
 _atom_site_occupancy
  Li  Li0  1  0.750115  0.250000  0.999986  1
  Li  Li1  1  0.249885  0.749998  0.999989  1
  Li  Li2  1  0.250095  0.749998  0.500008  1
  Li  Li3  1  0.749889  0.250001  0.500021  1
  Hf  Hf4  1  0.750132  0.749999  0.500003  1
  Pa  Pa5  1  0.250142  0.249996  0.000001  1
  Pa  Pa6  1  0.749885  0.749999  0.999994  1
  Pa  Pa7  1  0.249845  0.250001  0.500001  1
  Rh  Rh8  1  0.000269  0.000270  0.250964  1
  Rh  Rh9  1  0.000272  0.499725  0.250962  1
  Rh  Rh10  1  0.499735  0.000264  0.251039  1
  Rh  Rh11  1  0.499736  0.499732  0.251041  1
  Rh  Rh12  1  0.499723  0.000273  0.748956  1
  Rh  Rh13  1  0.499732  0.499738  0.748950  1
  Rh  Rh14  1  0.000270  0.000271  0.749046  1
  Rh  Rh15  1  0.000272  0.499726  0.749039  1
