# generated using pymatgen
data_Sr4Al5Si3Au20
_symmetry_space_group_name_H-M   'P 1'
_cell_length_a   7.27596800
_cell_length_b   9.06651556
_cell_length_c   9.85657771
_cell_angle_alpha   90.29797384
_cell_angle_beta   90.00000000
_cell_angle_gamma   90.00000000
_symmetry_Int_Tables_number   1
_chemical_formula_structural   Sr4Al5Si3Au20
_chemical_formula_sum   'Sr4 Al5 Si3 Au20'
_cell_volume   650.20674312
_cell_formula_units_Z   1
loop_
 _symmetry_equiv_pos_site_id
 _symmetry_equiv_pos_as_xyz
  1  'x, y, z'
loop_
 _atom_site_type_symbol
 _atom_site_label
 _atom_site_symmetry_multiplicity
 _atom_site_fract_x
 _atom_site_fract_y
 _atom_site_fract_z
 _atom_site_occupancy
  Sr  Sr0  1  0.250000  0.245991  0.121367  1
  Sr  Sr1  1  0.250000  0.749005  0.378260  1
  Sr  Sr2  1  0.750000  0.753794  0.878873  1
  Sr  Sr3  1  0.750000  0.254065  0.619301  1
  Al  Al4  1  0.250000  0.053077  0.619060  1
  Al  Al5  1  0.250000  0.556645  0.877532  1
  Al  Al6  1  0.750000  0.949031  0.380103  1
  Al  Al7  1  0.750000  0.446065  0.120623  1
  Al  Al8  1  0.250000  0.349223  0.479286  1
  Si  Si9  1  0.250000  0.833927  0.032928  1
  Si  Si10  1  0.750000  0.662823  0.534873  1
  Si  Si11  1  0.750000  0.169297  0.963937  1
  Au  Au12  1  0.051194  0.109967  0.398439  1
  Au  Au13  1  0.448960  0.603233  0.103547  1
  Au  Au14  1  0.550250  0.894541  0.601209  1
  Au  Au15  1  0.946845  0.400229  0.895261  1
  Au  Au16  1  0.949750  0.894541  0.601209  1
  Au  Au17  1  0.553155  0.400229  0.895261  1
  Au  Au18  1  0.448806  0.109967  0.398439  1
  Au  Au19  1  0.051040  0.603233  0.103547  1
  Au  Au20  1  0.023777  0.066828  0.858985  1
  Au  Au21  1  0.466062  0.561696  0.633326  1
  Au  Au22  1  0.525188  0.927952  0.145478  1
  Au  Au23  1  0.966216  0.428194  0.354203  1
  Au  Au24  1  0.974812  0.927952  0.145478  1
  Au  Au25  1  0.533784  0.428194  0.354203  1
  Au  Au26  1  0.476223  0.066828  0.858985  1
  Au  Au27  1  0.033938  0.561696  0.633326  1
  Au  Au28  1  0.250000  0.304982  0.731752  1
  Au  Au29  1  0.250000  0.815134  0.783267  1
  Au  Au30  1  0.750000  0.688489  0.285944  1
  Au  Au31  1  0.750000  0.183169  0.211995  1
