# generated using pymatgen
data_TmZnCdCu2Pt
_symmetry_space_group_name_H-M   'P 1'
_cell_length_a   5.23835528
_cell_length_b   5.23835574
_cell_length_c   5.21362794
_cell_angle_alpha   58.89404943
_cell_angle_beta   58.89404260
_cell_angle_gamma   59.11417859
_symmetry_Int_Tables_number   1
_chemical_formula_structural   TmZnCdCu2Pt
_chemical_formula_sum   'Tm1 Zn1 Cd1 Cu2 Pt1'
_cell_volume   98.77726524
_cell_formula_units_Z   1
loop_
 _symmetry_equiv_pos_site_id
 _symmetry_equiv_pos_as_xyz
  1  'x, y, z'
loop_
 _atom_site_type_symbol
 _atom_site_label
 _atom_site_symmetry_multiplicity
 _atom_site_fract_x
 _atom_site_fract_y
 _atom_site_fract_z
 _atom_site_occupancy
  Tm  Tm0  1  0.999069  0.999069  0.995620  1
  Zn  Zn1  1  0.625053  0.625053  0.127906  1
  Cd  Cd2  1  0.248577  0.248577  0.248034  1
  Cu  Cu3  1  0.624856  0.127089  0.626178  1
  Cu  Cu4  1  0.127089  0.624856  0.626178  1
  Pt  Pt5  1  0.625355  0.625355  0.626084  1
