# generated using pymatgen
data_TbPa(B2Os)2
_symmetry_space_group_name_H-M   'P 1'
_cell_length_a   5.35636200
_cell_length_b   5.83332000
_cell_length_c   6.49859900
_cell_angle_alpha   90.00000000
_cell_angle_beta   90.00000000
_cell_angle_gamma   90.00000000
_symmetry_Int_Tables_number   1
_chemical_formula_structural   TbPa(B2Os)2
_chemical_formula_sum   'Tb2 Pa2 B8 Os4'
_cell_volume   203.05115351
_cell_formula_units_Z   2
loop_
 _symmetry_equiv_pos_site_id
 _symmetry_equiv_pos_as_xyz
  1  'x, y, z'
loop_
 _atom_site_type_symbol
 _atom_site_label
 _atom_site_symmetry_multiplicity
 _atom_site_fract_x
 _atom_site_fract_y
 _atom_site_fract_z
 _atom_site_occupancy
  Tb  Tb0  1  0.750000  0.994140  0.663042  1
  Tb  Tb1  1  0.750000  0.494140  0.836958  1
  Pa  Pa2  1  0.250000  0.000300  0.332691  1
  Pa  Pa3  1  0.250000  0.500300  0.167309  1
  B  B4  1  0.086264  0.366910  0.538945  1
  B  B5  1  0.413736  0.866910  0.961055  1
  B  B6  1  0.586489  0.633431  0.465435  1
  B  B7  1  0.913511  0.133431  0.034565  1
  B  B8  1  0.913511  0.633431  0.465435  1
  B  B9  1  0.586489  0.133431  0.034565  1
  B  B10  1  0.413736  0.366910  0.538945  1
  B  B11  1  0.086264  0.866910  0.961055  1
  Os  Os12  1  0.250000  0.188534  0.819758  1
  Os  Os13  1  0.250000  0.688534  0.680242  1
  Os  Os14  1  0.750000  0.816343  0.190430  1
  Os  Os15  1  0.750000  0.316343  0.309570  1
