# generated using pymatgen
data_Th10Bi6IrPd
_symmetry_space_group_name_H-M   'P 1'
_cell_length_a   9.66442500
_cell_length_b   9.66442513
_cell_length_c   6.56805300
_cell_angle_alpha   90.00000000
_cell_angle_beta   90.00000000
_cell_angle_gamma   119.99999614
_symmetry_Int_Tables_number   1
_chemical_formula_structural   Th10Bi6IrPd
_chemical_formula_sum   'Th10 Bi6 Ir1 Pd1'
_cell_volume   531.27495502
_cell_formula_units_Z   1
loop_
 _symmetry_equiv_pos_site_id
 _symmetry_equiv_pos_as_xyz
  1  'x, y, z'
loop_
 _atom_site_type_symbol
 _atom_site_label
 _atom_site_symmetry_multiplicity
 _atom_site_fract_x
 _atom_site_fract_y
 _atom_site_fract_z
 _atom_site_occupancy
  Th  Th0  1  0.666667  0.333333  0.000000  1
  Th  Th1  1  0.333333  0.666667  0.000000  1
  Th  Th2  1  0.333333  0.666667  0.500000  1
  Th  Th3  1  0.666667  0.333333  0.500000  1
  Th  Th4  1  0.747837  0.747837  0.759506  1
  Th  Th5  1  0.252163  0.000000  0.759506  1
  Th  Th6  1  0.000000  0.252163  0.759506  1
  Th  Th7  1  0.252163  0.252163  0.240494  1
  Th  Th8  1  0.747837  0.000000  0.240494  1
  Th  Th9  1  0.000000  0.747837  0.240494  1
  Bi  Bi10  1  0.390303  0.390303  0.748567  1
  Bi  Bi11  1  0.609697  0.000000  0.748567  1
  Bi  Bi12  1  0.000000  0.609697  0.748567  1
  Bi  Bi13  1  0.609697  0.609697  0.251433  1
  Bi  Bi14  1  0.390303  0.000000  0.251433  1
  Bi  Bi15  1  0.000000  0.390303  0.251433  1
  Ir  Ir16  1  0.000000  0.000000  0.000000  1
  Pd  Pd17  1  0.000000  0.000000  0.500000  1
