# generated using pymatgen
data_TbHo7(GaBr6)2
_symmetry_space_group_name_H-M   'P 1'
_cell_length_a   4.04220100
_cell_length_b   13.34134475
_cell_length_c   14.10392603
_cell_angle_alpha   90.09670246
_cell_angle_beta   90.00000000
_cell_angle_gamma   90.00000000
_symmetry_Int_Tables_number   1
_chemical_formula_structural   TbHo7(GaBr6)2
_chemical_formula_sum   'Tb1 Ho7 Ga2 Br12'
_cell_volume   760.60103975
_cell_formula_units_Z   1
loop_
 _symmetry_equiv_pos_site_id
 _symmetry_equiv_pos_as_xyz
  1  'x, y, z'
loop_
 _atom_site_type_symbol
 _atom_site_label
 _atom_site_symmetry_multiplicity
 _atom_site_fract_x
 _atom_site_fract_y
 _atom_site_fract_z
 _atom_site_occupancy
  Tb  Tb0  1  0.000000  0.378658  0.080389  1
  Ho  Ho1  1  0.500000  0.118314  0.340086  1
  Ho  Ho2  1  0.500000  0.881759  0.659847  1
  Ho  Ho3  1  0.500000  0.618316  0.159804  1
  Ho  Ho4  1  0.500000  0.381772  0.840121  1
  Ho  Ho5  1  0.000000  0.120938  0.580095  1
  Ho  Ho6  1  0.000000  0.879085  0.419855  1
  Ho  Ho7  1  0.000000  0.621202  0.919720  1
  Ga  Ga8  1  0.500000  0.000008  0.499952  1
  Ga  Ga9  1  0.500000  0.500503  0.999673  1
  Br  Br10  1  0.500000  0.244068  0.165639  1
  Br  Br11  1  0.500000  0.754777  0.835206  1
  Br  Br12  1  0.500000  0.745391  0.335328  1
  Br  Br13  1  0.500000  0.254627  0.664689  1
  Br  Br14  1  0.000000  0.254227  0.410830  1
  Br  Br15  1  0.000000  0.745764  0.589181  1
  Br  Br16  1  0.000000  0.754406  0.089244  1
  Br  Br17  1  0.000000  0.245446  0.909932  1
  Br  Br18  1  0.000000  0.002163  0.243598  1
  Br  Br19  1  0.000000  0.997762  0.756420  1
  Br  Br20  1  0.000000  0.503009  0.256961  1
  Br  Br21  1  0.000000  0.497806  0.743428  1
