# generated using pymatgen
data_Ta3Mn3FeMoP4
_symmetry_space_group_name_H-M   'P 1'
_cell_length_a   3.62972000
_cell_length_b   6.07913005
_cell_length_c   6.96313431
_cell_angle_alpha   90.23390100
_cell_angle_beta   90.00000000
_cell_angle_gamma   90.00000000
_symmetry_Int_Tables_number   1
_chemical_formula_structural   Ta3Mn3FeMoP4
_chemical_formula_sum   'Ta3 Mn3 Fe1 Mo1 P4'
_cell_volume   153.64403781
_cell_formula_units_Z   1
loop_
 _symmetry_equiv_pos_site_id
 _symmetry_equiv_pos_as_xyz
  1  'x, y, z'
loop_
 _atom_site_type_symbol
 _atom_site_label
 _atom_site_symmetry_multiplicity
 _atom_site_fract_x
 _atom_site_fract_y
 _atom_site_fract_z
 _atom_site_occupancy
  Ta  Ta0  1  0.250000  0.524353  0.322809  1
  Ta  Ta1  1  0.250000  0.023012  0.175044  1
  Ta  Ta2  1  0.750000  0.475200  0.678892  1
  Mn  Mn3  1  0.750000  0.353637  0.060576  1
  Mn  Mn4  1  0.750000  0.851788  0.442030  1
  Mn  Mn5  1  0.250000  0.149072  0.559256  1
  Fe  Fe6  1  0.250000  0.644703  0.936152  1
  Mo  Mo7  1  0.750000  0.978944  0.827226  1
  P  P8  1  0.250000  0.781043  0.627560  1
  P  P9  1  0.750000  0.221296  0.376906  1
  P  P10  1  0.250000  0.275684  0.877506  1
  P  P11  1  0.750000  0.721264  0.116043  1
