# generated using pymatgen
data_SrHg3Ir2(PtO7)2
_symmetry_space_group_name_H-M   'P 1'
_cell_length_a   7.33252937
_cell_length_b   7.39630918
_cell_length_c   7.31200300
_cell_angle_alpha   60.37633218
_cell_angle_beta   60.09254536
_cell_angle_gamma   60.50487604
_symmetry_Int_Tables_number   1
_chemical_formula_structural   SrHg3Ir2(PtO7)2
_chemical_formula_sum   'Sr1 Hg3 Ir2 Pt2 O14'
_cell_volume   282.45961329
_cell_formula_units_Z   1
loop_
 _symmetry_equiv_pos_site_id
 _symmetry_equiv_pos_as_xyz
  1  'x, y, z'
loop_
 _atom_site_type_symbol
 _atom_site_label
 _atom_site_symmetry_multiplicity
 _atom_site_fract_x
 _atom_site_fract_y
 _atom_site_fract_z
 _atom_site_occupancy
  Sr  Sr0  1  0.125000  0.625000  0.125000  1
  Hg  Hg1  1  0.125000  0.125000  0.125000  1
  Hg  Hg2  1  0.625000  0.125000  0.125000  1
  Hg  Hg3  1  0.125000  0.125000  0.625000  1
  Ir  Ir4  1  0.625000  0.125000  0.625000  1
  Ir  Ir5  1  0.125000  0.625000  0.625000  1
  Pt  Pt6  1  0.625000  0.625000  0.125000  1
  Pt  Pt7  1  0.625000  0.625000  0.625000  1
  O  O8  1  0.701090  0.298804  0.306355  1
  O  O9  1  0.701090  0.298804  0.693750  1
  O  O10  1  0.988597  0.038836  0.986283  1
  O  O11  1  0.297153  0.703694  0.305756  1
  O  O12  1  0.706228  0.705901  0.293935  1
  O  O13  1  0.952847  0.546306  0.556606  1
  O  O14  1  0.297153  0.703694  0.693394  1
  O  O15  1  0.261403  0.211164  0.263717  1
  O  O16  1  0.952847  0.546306  0.944244  1
  O  O17  1  0.548910  0.951196  0.556250  1
  O  O18  1  0.543772  0.544099  0.956065  1
  O  O19  1  0.941377  0.942071  0.558277  1
  O  O20  1  0.548910  0.951196  0.943645  1
  O  O21  1  0.308623  0.307929  0.691723  1
