# generated using pymatgen
data_Ce2Sm3Ru2
_symmetry_space_group_name_H-M   'P 1'
_cell_length_a   9.01975557
_cell_length_b   9.01975487
_cell_length_c   7.14355678
_cell_angle_alpha   85.10710380
_cell_angle_beta   85.10709712
_cell_angle_gamma   41.99513652
_symmetry_Int_Tables_number   1
_chemical_formula_structural   Ce2Sm3Ru2
_chemical_formula_sum   'Ce4 Sm6 Ru4'
_cell_volume   387.21653037
_cell_formula_units_Z   2
loop_
 _symmetry_equiv_pos_site_id
 _symmetry_equiv_pos_as_xyz
  1  'x, y, z'
loop_
 _atom_site_type_symbol
 _atom_site_label
 _atom_site_symmetry_multiplicity
 _atom_site_fract_x
 _atom_site_fract_y
 _atom_site_fract_z
 _atom_site_occupancy
  Ce  Ce0  1  0.005398  0.809509  0.903824  1
  Ce  Ce1  1  0.190491  0.994602  0.596176  1
  Ce  Ce2  1  0.994602  0.190491  0.096176  1
  Ce  Ce3  1  0.809509  0.005398  0.403824  1
  Sm  Sm4  1  0.353342  0.216494  0.822072  1
  Sm  Sm5  1  0.783506  0.646658  0.677928  1
  Sm  Sm6  1  0.646658  0.783506  0.177928  1
  Sm  Sm7  1  0.216494  0.353342  0.322072  1
  Sm  Sm8  1  0.576032  0.423968  0.750000  1
  Sm  Sm9  1  0.423968  0.576032  0.250000  1
  Ru  Ru10  1  0.141498  0.639790  0.597019  1
  Ru  Ru11  1  0.360210  0.858502  0.902981  1
  Ru  Ru12  1  0.858502  0.360210  0.402981  1
  Ru  Ru13  1  0.639790  0.141498  0.097019  1
