# generated using pymatgen
data_Mg2TaNi9P7Ru2
_symmetry_space_group_name_H-M   'P 1'
_cell_length_a   3.62087500
_cell_length_b   9.16857109
_cell_length_c   9.15579196
_cell_angle_alpha   119.87915893
_cell_angle_beta   90.00000000
_cell_angle_gamma   90.00000000
_symmetry_Int_Tables_number   1
_chemical_formula_structural   Mg2TaNi9P7Ru2
_chemical_formula_sum   'Mg2 Ta1 Ni9 P7 Ru2'
_cell_volume   263.55379830
_cell_formula_units_Z   1
loop_
 _symmetry_equiv_pos_site_id
 _symmetry_equiv_pos_as_xyz
  1  'x, y, z'
loop_
 _atom_site_type_symbol
 _atom_site_label
 _atom_site_symmetry_multiplicity
 _atom_site_fract_x
 _atom_site_fract_y
 _atom_site_fract_z
 _atom_site_occupancy
  Mg  Mg0  1  0.000000  0.665044  0.331520  1
  Mg  Mg1  1  0.500000  0.333054  0.666557  1
  Ta  Ta2  1  0.500000  0.098967  0.880290  1
  Ni  Ni3  1  0.000000  0.560853  0.929657  1
  Ni  Ni4  1  0.000000  0.371912  0.444956  1
  Ni  Ni5  1  0.000000  0.068001  0.627179  1
  Ni  Ni6  1  0.500000  0.942209  0.384344  1
  Ni  Ni7  1  0.500000  0.451224  0.067127  1
  Ni  Ni8  1  0.500000  0.612708  0.554385  1
  Ni  Ni9  1  0.000000  0.871861  0.162164  1
  Ni  Ni10  1  0.000000  0.290240  0.131654  1
  Ni  Ni11  1  0.000000  0.835686  0.706276  1
  P  P12  1  0.500000  0.709966  0.119111  1
  P  P13  1  0.500000  0.409720  0.292540  1
  P  P14  1  0.500000  0.874218  0.580303  1
  P  P15  1  0.000000  0.994426  0.002745  1
  P  P16  1  0.000000  0.589801  0.705371  1
  P  P17  1  0.000000  0.116014  0.410605  1
  P  P18  1  0.000000  0.301606  0.884264  1
  Ru  Ru19  1  0.500000  0.780283  0.901325  1
  Ru  Ru20  1  0.500000  0.122207  0.217629  1
