# generated using pymatgen
data_Ho9Th3Co4
_symmetry_space_group_name_H-M   'P 1'
_cell_length_a   6.24500472
_cell_length_b   6.84718931
_cell_length_c   9.45056000
_cell_angle_alpha   90.00000000
_cell_angle_beta   90.00000000
_cell_angle_gamma   88.94302108
_symmetry_Int_Tables_number   1
_chemical_formula_structural   Ho9Th3Co4
_chemical_formula_sum   'Ho9 Th3 Co4'
_cell_volume   404.04407849
_cell_formula_units_Z   1
loop_
 _symmetry_equiv_pos_site_id
 _symmetry_equiv_pos_as_xyz
  1  'x, y, z'
loop_
 _atom_site_type_symbol
 _atom_site_label
 _atom_site_symmetry_multiplicity
 _atom_site_fract_x
 _atom_site_fract_y
 _atom_site_fract_z
 _atom_site_occupancy
  Ho  Ho0  1  0.671505  0.173482  0.067671  1
  Ho  Ho1  1  0.829985  0.671876  0.431955  1
  Ho  Ho2  1  0.325331  0.827919  0.931343  1
  Ho  Ho3  1  0.175269  0.327317  0.570811  1
  Ho  Ho4  1  0.671505  0.173482  0.432329  1
  Ho  Ho5  1  0.175269  0.327317  0.929189  1
  Ho  Ho6  1  0.325331  0.827919  0.568657  1
  Ho  Ho7  1  0.643208  0.456575  0.750000  1
  Ho  Ho8  1  0.829985  0.671876  0.068045  1
  Th  Th9  1  0.347914  0.552472  0.250000  1
  Th  Th10  1  0.154462  0.050584  0.250000  1
  Th  Th11  1  0.843792  0.950896  0.750000  1
  Co  Co12  1  0.964529  0.372599  0.250000  1
  Co  Co13  1  0.466090  0.111096  0.750000  1
  Co  Co14  1  0.536183  0.872741  0.250000  1
  Co  Co15  1  0.039641  0.631849  0.750000  1
