# generated using pymatgen
data_Pr(TaBr3)6
_symmetry_space_group_name_H-M   'P 1'
_cell_length_a   10.81657159
_cell_length_b   10.81436139
_cell_length_c   10.81265700
_cell_angle_alpha   55.89443780
_cell_angle_beta   55.90593498
_cell_angle_gamma   55.90586272
_symmetry_Int_Tables_number   1
_chemical_formula_structural   Pr(TaBr3)6
_chemical_formula_sum   'Pr1 Ta6 Br18'
_cell_volume   809.40664383
_cell_formula_units_Z   1
loop_
 _symmetry_equiv_pos_site_id
 _symmetry_equiv_pos_as_xyz
  1  'x, y, z'
loop_
 _atom_site_type_symbol
 _atom_site_label
 _atom_site_symmetry_multiplicity
 _atom_site_fract_x
 _atom_site_fract_y
 _atom_site_fract_z
 _atom_site_occupancy
  Pr  Pr0  1  0.000711  0.998995  0.000303  1
  Ta  Ta1  1  0.415305  0.311024  0.640619  1
  Ta  Ta2  1  0.359448  0.584741  0.688913  1
  Ta  Ta3  1  0.689026  0.359303  0.584715  1
  Ta  Ta4  1  0.311171  0.640663  0.415084  1
  Ta  Ta5  1  0.640998  0.415225  0.310548  1
  Ta  Ta6  1  0.584986  0.689272  0.358956  1
  Br  Br7  1  0.569099  0.165323  0.440744  1
  Br  Br8  1  0.226555  0.370669  0.903910  1
  Br  Br9  1  0.904206  0.226203  0.370716  1
  Br  Br10  1  0.370284  0.904352  0.226412  1
  Br  Br11  1  0.773648  0.629778  0.095411  1
  Br  Br12  1  0.096066  0.773378  0.629369  1
  Br  Br13  1  0.692904  0.955528  0.167112  1
  Br  Br14  1  0.953167  0.166265  0.694649  1
  Br  Br15  1  0.167220  0.693210  0.953396  1
  Br  Br16  1  0.305748  0.047250  0.833358  1
  Br  Br17  1  0.045622  0.832354  0.307317  1
  Br  Br18  1  0.833671  0.306318  0.044891  1
  Br  Br19  1  0.559380  0.430670  0.834646  1
  Br  Br20  1  0.165481  0.440672  0.569206  1
  Br  Br21  1  0.440450  0.569098  0.165350  1
  Br  Br22  1  0.430903  0.834504  0.559459  1
  Br  Br23  1  0.834710  0.559198  0.431111  1
  Br  Br24  1  0.629242  0.096009  0.773805  1
