# generated using pymatgen
data_Sr2B4OsRh3
_symmetry_space_group_name_H-M   'P 1'
_cell_length_a   7.10192156
_cell_length_b   6.14237813
_cell_length_c   5.64228498
_cell_angle_alpha   73.98164627
_cell_angle_beta   56.23341348
_cell_angle_gamma   50.40546214
_symmetry_Int_Tables_number   1
_chemical_formula_structural   Sr2B4OsRh3
_chemical_formula_sum   'Sr2 B4 Os1 Rh3'
_cell_volume   156.48591060
_cell_formula_units_Z   1
loop_
 _symmetry_equiv_pos_site_id
 _symmetry_equiv_pos_as_xyz
  1  'x, y, z'
loop_
 _atom_site_type_symbol
 _atom_site_label
 _atom_site_symmetry_multiplicity
 _atom_site_fract_x
 _atom_site_fract_y
 _atom_site_fract_z
 _atom_site_occupancy
  Sr  Sr0  1  0.998253  0.998253  0.001747  1
  Sr  Sr1  1  0.254742  0.254742  0.245258  1
  B  B2  1  0.322935  0.689309  0.338739  1
  B  B3  1  0.563038  0.926925  0.579877  1
  B  B4  1  0.689309  0.322935  0.649016  1
  B  B5  1  0.926925  0.563038  0.930161  1
  Os  Os6  1  0.632624  0.632624  0.367376  1
  Rh  Rh7  1  0.879441  0.879441  0.620559  1
  Rh  Rh8  1  0.616063  0.616063  0.883937  1
  Rh  Rh9  1  0.366670  0.366670  0.633330  1
