# generated using pymatgen
data_Tb2Sc2Al17GaIr6
_symmetry_space_group_name_H-M   'P 1'
_cell_length_a   7.51202668
_cell_length_b   7.51202632
_cell_length_c   9.42086500
_cell_angle_alpha   90.00000000
_cell_angle_beta   90.00000000
_cell_angle_gamma   119.45501863
_symmetry_Int_Tables_number   1
_chemical_formula_structural   Tb2Sc2Al17GaIr6
_chemical_formula_sum   'Tb2 Sc2 Al17 Ga1 Ir6'
_cell_volume   462.90780571
_cell_formula_units_Z   1
loop_
 _symmetry_equiv_pos_site_id
 _symmetry_equiv_pos_as_xyz
  1  'x, y, z'
loop_
 _atom_site_type_symbol
 _atom_site_label
 _atom_site_symmetry_multiplicity
 _atom_site_fract_x
 _atom_site_fract_y
 _atom_site_fract_z
 _atom_site_occupancy
  Tb  Tb0  1  0.993446  0.674818  0.250000  1
  Tb  Tb1  1  0.674818  0.993446  0.250000  1
  Sc  Sc2  1  0.004863  0.326818  0.750000  1
  Sc  Sc3  1  0.326818  0.004863  0.750000  1
  Al  Al4  1  0.875009  0.875009  0.750000  1
  Al  Al5  1  0.002275  0.335739  0.068337  1
  Al  Al6  1  0.002020  0.664146  0.919252  1
  Al  Al7  1  0.002020  0.664146  0.580748  1
  Al  Al8  1  0.335739  0.002275  0.431663  1
  Al  Al9  1  0.002275  0.335739  0.431663  1
  Al  Al10  1  0.664146  0.002020  0.580748  1
  Al  Al11  1  0.664146  0.002020  0.919252  1
  Al  Al12  1  0.335739  0.002275  0.068337  1
  Al  Al13  1  0.330103  0.330103  0.562432  1
  Al  Al14  1  0.665200  0.665200  0.453546  1
  Al  Al15  1  0.665200  0.665200  0.046454  1
  Al  Al16  1  0.330103  0.330103  0.937568  1
  Al  Al17  1  0.338604  0.548463  0.250000  1
  Al  Al18  1  0.659950  0.445027  0.750000  1
  Al  Al19  1  0.548463  0.338604  0.250000  1
  Al  Al20  1  0.445027  0.659950  0.750000  1
  Ga  Ga21  1  0.136804  0.136804  0.250000  1
  Ir  Ir22  1  0.671309  0.327470  0.998861  1
  Ir  Ir23  1  0.327470  0.671309  0.998861  1
  Ir  Ir24  1  0.327470  0.671309  0.501139  1
  Ir  Ir25  1  0.671309  0.327470  0.501139  1
  Ir  Ir26  1  0.999839  0.999839  0.996271  1
  Ir  Ir27  1  0.999839  0.999839  0.503729  1
