# generated using pymatgen
data_Sc2Re3W
_symmetry_space_group_name_H-M   'P 1'
_cell_length_a   5.33470800
_cell_length_b   5.33470830
_cell_length_c   8.64882100
_cell_angle_alpha   90.00000000
_cell_angle_beta   90.00000000
_cell_angle_gamma   119.99999812
_symmetry_Int_Tables_number   1
_chemical_formula_structural   Sc2Re3W
_chemical_formula_sum   'Sc4 Re6 W2'
_cell_volume   213.16155478
_cell_formula_units_Z   2
loop_
 _symmetry_equiv_pos_site_id
 _symmetry_equiv_pos_as_xyz
  1  'x, y, z'
loop_
 _atom_site_type_symbol
 _atom_site_label
 _atom_site_symmetry_multiplicity
 _atom_site_fract_x
 _atom_site_fract_y
 _atom_site_fract_z
 _atom_site_occupancy
  Sc  Sc0  1  0.333333  0.666667  0.437397  1
  Sc  Sc1  1  0.666667  0.333333  0.937397  1
  Sc  Sc2  1  0.666667  0.333333  0.562603  1
  Sc  Sc3  1  0.333333  0.666667  0.062603  1
  Re  Re4  1  0.656461  0.828231  0.750000  1
  Re  Re5  1  0.343539  0.171769  0.250000  1
  Re  Re6  1  0.828231  0.171769  0.250000  1
  Re  Re7  1  0.171769  0.343539  0.750000  1
  Re  Re8  1  0.171769  0.828231  0.750000  1
  Re  Re9  1  0.828231  0.656461  0.250000  1
  W  W10  1  0.000000  0.000000  0.500000  1
  W  W11  1  0.000000  0.000000  0.000000  1
