# generated using pymatgen
data_Lu4NpMnTc6
_symmetry_space_group_name_H-M   'P 1'
_cell_length_a   5.28184364
_cell_length_b   5.17976828
_cell_length_c   8.88102000
_cell_angle_alpha   90.00000000
_cell_angle_beta   90.00000000
_cell_angle_gamma   116.57313677
_symmetry_Int_Tables_number   1
_chemical_formula_structural   Lu4NpMnTc6
_chemical_formula_sum   'Lu4 Np1 Mn1 Tc6'
_cell_volume   217.30667383
_cell_formula_units_Z   1
loop_
 _symmetry_equiv_pos_site_id
 _symmetry_equiv_pos_as_xyz
  1  'x, y, z'
loop_
 _atom_site_type_symbol
 _atom_site_label
 _atom_site_symmetry_multiplicity
 _atom_site_fract_x
 _atom_site_fract_y
 _atom_site_fract_z
 _atom_site_occupancy
  Lu  Lu0  1  0.332294  0.673945  0.445223  1
  Lu  Lu1  1  0.663548  0.340393  0.571083  1
  Lu  Lu2  1  0.663548  0.340393  0.928917  1
  Lu  Lu3  1  0.332294  0.673945  0.054777  1
  Np  Np4  1  0.851646  0.178107  0.250000  1
  Mn  Mn5  1  0.846989  0.602280  0.250000  1
  Tc  Tc6  1  0.985954  0.004953  0.483949  1
  Tc  Tc7  1  0.985954  0.004953  0.016051  1
  Tc  Tc8  1  0.367486  0.162628  0.250000  1
  Tc  Tc9  1  0.161637  0.840225  0.750000  1
  Tc  Tc10  1  0.160192  0.344064  0.750000  1
  Tc  Tc11  1  0.648459  0.834117  0.750000  1
