# generated using pymatgen
data_Pm4Cu(AgO4)3
_symmetry_space_group_name_H-M   'P 1'
_cell_length_a   5.52944415
_cell_length_b   6.71100538
_cell_length_c   7.27767621
_cell_angle_alpha   89.52658141
_cell_angle_beta   89.30456954
_cell_angle_gamma   89.69046945
_symmetry_Int_Tables_number   1
_chemical_formula_structural   Pm4Cu(AgO4)3
_chemical_formula_sum   'Pm4 Cu1 Ag3 O12'
_cell_volume   270.02804409
_cell_formula_units_Z   1
loop_
 _symmetry_equiv_pos_site_id
 _symmetry_equiv_pos_as_xyz
  1  'x, y, z'
loop_
 _atom_site_type_symbol
 _atom_site_label
 _atom_site_symmetry_multiplicity
 _atom_site_fract_x
 _atom_site_fract_y
 _atom_site_fract_z
 _atom_site_occupancy
  Pm  Pm0  1  0.976176  0.100957  0.246402  1
  Pm  Pm1  1  0.524420  0.607270  0.247581  1
  Pm  Pm2  1  0.475580  0.392730  0.752420  1
  Pm  Pm3  1  0.023824  0.899043  0.753599  1
  Cu  Cu4  1  0.500000  0.000000  0.000000  1
  Ag  Ag5  1  0.000000  0.500000  0.000000  1
  Ag  Ag6  1  0.500000  0.000000  0.500000  1
  Ag  Ag7  1  0.000000  0.500000  0.500000  1
  O  O8  1  0.693712  0.344328  0.055606  1
  O  O9  1  0.785223  0.862789  0.050686  1
  O  O10  1  0.148977  0.430799  0.247291  1
  O  O11  1  0.368191  0.943110  0.236912  1
  O  O12  1  0.693353  0.346690  0.449841  1
  O  O13  1  0.810362  0.846255  0.445559  1
  O  O14  1  0.189638  0.153743  0.554440  1
  O  O15  1  0.306647  0.653309  0.550158  1
  O  O16  1  0.631809  0.056888  0.763089  1
  O  O17  1  0.851023  0.569199  0.752710  1
  O  O18  1  0.214777  0.137209  0.949314  1
  O  O19  1  0.306288  0.655671  0.944394  1
