# generated using pymatgen
data_Hf3Zr6TaAl12Co7
_symmetry_space_group_name_H-M   'P 1'
_cell_length_a   8.68037391
_cell_length_b   8.68037273
_cell_length_c   8.68037501
_cell_angle_alpha   59.97163197
_cell_angle_beta   59.97163386
_cell_angle_gamma   59.97163140
_symmetry_Int_Tables_number   1
_chemical_formula_structural   Hf3Zr6TaAl12Co7
_chemical_formula_sum   'Hf3 Zr6 Ta1 Al12 Co7'
_cell_volume   462.19030843
_cell_formula_units_Z   1
loop_
 _symmetry_equiv_pos_site_id
 _symmetry_equiv_pos_as_xyz
  1  'x, y, z'
loop_
 _atom_site_type_symbol
 _atom_site_label
 _atom_site_symmetry_multiplicity
 _atom_site_fract_x
 _atom_site_fract_y
 _atom_site_fract_z
 _atom_site_occupancy
  Hf  Hf0  1  0.645577  0.118010  0.118010  1
  Hf  Hf1  1  0.118010  0.645577  0.118010  1
  Hf  Hf2  1  0.118010  0.118010  0.645577  1
  Zr  Zr3  1  0.692759  0.308684  0.308684  1
  Zr  Zr4  1  0.688531  0.312131  0.688531  1
  Zr  Zr5  1  0.688531  0.688531  0.312131  1
  Zr  Zr6  1  0.312131  0.688531  0.688531  1
  Zr  Zr7  1  0.308684  0.692759  0.308684  1
  Zr  Zr8  1  0.308684  0.308684  0.692759  1
  Ta  Ta9  1  0.119150  0.119150  0.119150  1
  Al  Al10  1  0.363997  0.879538  0.879538  1
  Al  Al11  1  0.879538  0.363997  0.879538  1
  Al  Al12  1  0.879538  0.879538  0.363997  1
  Al  Al13  1  0.878086  0.878086  0.878086  1
  Al  Al14  1  0.990079  0.335838  0.335838  1
  Al  Al15  1  0.335838  0.990079  0.335838  1
  Al  Al16  1  0.335838  0.335838  0.990079  1
  Al  Al17  1  0.337007  0.337007  0.337007  1
  Al  Al18  1  0.004072  0.665280  0.665280  1
  Al  Al19  1  0.665280  0.004072  0.665280  1
  Al  Al20  1  0.665280  0.665280  0.004072  1
  Al  Al21  1  0.665256  0.665256  0.665256  1
  Co  Co22  1  0.003418  0.003418  0.003418  1
  Co  Co23  1  0.491301  0.003273  0.003273  1
  Co  Co24  1  0.498135  0.002589  0.498135  1
  Co  Co25  1  0.498135  0.498135  0.002589  1
  Co  Co26  1  0.002589  0.498135  0.498135  1
  Co  Co27  1  0.003273  0.491301  0.003273  1
  Co  Co28  1  0.003273  0.003273  0.491301  1
