# generated using pymatgen
data_PrZn10Pd
_symmetry_space_group_name_H-M   'P 1'
_cell_length_a   8.29082737
_cell_length_b   8.30012526
_cell_length_c   8.32419344
_cell_angle_alpha   99.80508846
_cell_angle_beta   99.76139259
_cell_angle_gamma   131.18616007
_symmetry_Int_Tables_number   1
_chemical_formula_structural   PrZn10Pd
_chemical_formula_sum   'Pr2 Zn20 Pd2'
_cell_volume   392.95981783
_cell_formula_units_Z   2
loop_
 _symmetry_equiv_pos_site_id
 _symmetry_equiv_pos_as_xyz
  1  'x, y, z'
loop_
 _atom_site_type_symbol
 _atom_site_label
 _atom_site_symmetry_multiplicity
 _atom_site_fract_x
 _atom_site_fract_y
 _atom_site_fract_z
 _atom_site_occupancy
  Pr  Pr0  1  0.504051  0.504154  0.008227  1
  Pr  Pr1  1  0.745949  0.245846  0.491773  1
  Zn  Zn2  1  0.848573  0.432885  0.171718  1
  Zn  Zn3  1  0.324708  0.154398  0.586078  1
  Zn  Zn4  1  0.261518  0.431749  0.586201  1
  Zn  Zn5  1  0.323075  0.738866  0.171619  1
  Zn  Zn6  1  0.988482  0.318251  0.913799  1
  Zn  Zn7  1  0.258519  0.674172  0.827532  1
  Zn  Zn8  1  0.255216  0.755297  0.510141  1
  Zn  Zn9  1  0.991481  0.075828  0.672468  1
  Zn  Zn10  1  0.994784  0.994703  0.989859  1
  Zn  Zn11  1  0.682473  0.007565  0.082140  1
  Zn  Zn12  1  0.401427  0.317115  0.328282  1
  Zn  Zn13  1  0.926925  0.011134  0.328381  1
  Zn  Zn14  1  0.850363  0.675289  0.418035  1
  Zn  Zn15  1  0.567527  0.742435  0.417860  1
  Zn  Zn16  1  0.681007  0.596670  0.672547  1
  Zn  Zn17  1  0.399637  0.074711  0.081965  1
  Zn  Zn18  1  0.925292  0.595602  0.913922  1
  Zn  Zn19  1  0.568993  0.153330  0.827453  1
  Zn  Zn20  1  0.125000  0.875000  0.250000  1
  Zn  Zn21  1  0.125000  0.375000  0.250000  1
  Pd  Pd22  1  0.125000  0.875000  0.750000  1
  Pd  Pd23  1  0.625000  0.875000  0.750000  1
