# generated using pymatgen
data_AlGa3Si2(Pb2O7)2
_symmetry_space_group_name_H-M   'P 1'
_cell_length_a   5.50636926
_cell_length_b   8.07831157
_cell_length_c   8.05195873
_cell_angle_alpha   89.95912279
_cell_angle_beta   89.97262589
_cell_angle_gamma   89.52315317
_symmetry_Int_Tables_number   1
_chemical_formula_structural   AlGa3Si2(Pb2O7)2
_chemical_formula_sum   'Al1 Ga3 Si2 Pb4 O14'
_cell_volume   358.15603384
_cell_formula_units_Z   1
loop_
 _symmetry_equiv_pos_site_id
 _symmetry_equiv_pos_as_xyz
  1  'x, y, z'
loop_
 _atom_site_type_symbol
 _atom_site_label
 _atom_site_symmetry_multiplicity
 _atom_site_fract_x
 _atom_site_fract_y
 _atom_site_fract_z
 _atom_site_occupancy
  Al  Al0  1  0.002571  0.500067  0.501666  1
  Ga  Ga1  1  0.997604  0.000217  0.001195  1
  Ga  Ga2  1  0.973297  0.636976  0.144501  1
  Ga  Ga3  1  0.027476  0.859018  0.639810  1
  Si  Si4  1  0.964958  0.354378  0.857835  1
  Si  Si5  1  0.034406  0.149576  0.360623  1
  Pb  Pb6  1  0.518747  0.818839  0.333382  1
  Pb  Pb7  1  0.482304  0.677442  0.831632  1
  Pb  Pb8  1  0.522908  0.150787  0.654840  1
  Pb  Pb9  1  0.475388  0.347251  0.154636  1
  O  O10  1  0.154749  0.018087  0.495806  1
  O  O11  1  0.844876  0.482996  0.995830  1
  O  O12  1  0.160882  0.331726  0.403973  1
  O  O13  1  0.828603  0.173851  0.896808  1
  O  O14  1  0.187510  0.663147  0.577180  1
  O  O15  1  0.805288  0.831212  0.083117  1
  O  O16  1  0.810516  0.585942  0.344468  1
  O  O17  1  0.198193  0.911048  0.837025  1
  O  O18  1  0.851280  0.411399  0.675470  1
  O  O19  1  0.158581  0.098676  0.178847  1
  O  O20  1  0.305355  0.633251  0.148348  1
  O  O21  1  0.695593  0.866678  0.650248  1
  O  O22  1  0.258649  0.345929  0.867403  1
  O  O23  1  0.740268  0.151506  0.365357  1
