# generated using pymatgen
data_BaAg(BS2)3
_symmetry_space_group_name_H-M   'P 1'
_cell_length_a   8.93216734
_cell_length_b   8.93216702
_cell_length_c   8.55204483
_cell_angle_alpha   65.86134961
_cell_angle_beta   65.86134827
_cell_angle_gamma   60.50871444
_symmetry_Int_Tables_number   1
_chemical_formula_structural   BaAg(BS2)3
_chemical_formula_sum   'Ba2 Ag2 B6 S12'
_cell_volume   523.13167918
_cell_formula_units_Z   2
loop_
 _symmetry_equiv_pos_site_id
 _symmetry_equiv_pos_as_xyz
  1  'x, y, z'
loop_
 _atom_site_type_symbol
 _atom_site_label
 _atom_site_symmetry_multiplicity
 _atom_site_fract_x
 _atom_site_fract_y
 _atom_site_fract_z
 _atom_site_occupancy
  Ba  Ba0  1  0.381551  0.136434  0.975581  1
  Ba  Ba1  1  0.136434  0.381551  0.475581  1
  Ag  Ag2  1  0.707565  0.495191  0.931721  1
  Ag  Ag3  1  0.495191  0.707565  0.431721  1
  B  B4  1  0.758396  0.843782  0.546450  1
  B  B5  1  0.843782  0.758396  0.046450  1
  B  B6  1  0.013799  0.021685  0.449188  1
  B  B7  1  0.021685  0.013799  0.949188  1
  B  B8  1  0.614979  0.240782  0.524702  1
  B  B9  1  0.240782  0.614979  0.024702  1
  S  S10  1  0.430113  0.421355  0.081339  1
  S  S11  1  0.836802  0.243869  0.441593  1
  S  S12  1  0.814725  0.987253  0.004909  1
  S  S13  1  0.052269  0.562536  0.064005  1
  S  S14  1  0.726343  0.648895  0.582584  1
  S  S15  1  0.421355  0.430113  0.581339  1
  S  S16  1  0.562536  0.052269  0.564005  1
  S  S17  1  0.987253  0.814725  0.504909  1
  S  S18  1  0.232640  0.014237  0.401430  1
  S  S19  1  0.014237  0.232640  0.901430  1
  S  S20  1  0.648895  0.726343  0.082584  1
  S  S21  1  0.243869  0.836802  0.941593  1
