# generated using pymatgen
data_K2LiH8W
_symmetry_space_group_name_H-M   'P 1'
_cell_length_a   6.18040490
_cell_length_b   6.18040480
_cell_length_c   4.71132700
_cell_angle_alpha   104.09887794
_cell_angle_beta   104.09888726
_cell_angle_gamma   57.64743859
_symmetry_Int_Tables_number   1
_chemical_formula_structural   K2LiH8W
_chemical_formula_sum   'K2 Li1 H8 W1'
_cell_volume   146.03082629
_cell_formula_units_Z   1
loop_
 _symmetry_equiv_pos_site_id
 _symmetry_equiv_pos_as_xyz
  1  'x, y, z'
loop_
 _atom_site_type_symbol
 _atom_site_label
 _atom_site_symmetry_multiplicity
 _atom_site_fract_x
 _atom_site_fract_y
 _atom_site_fract_z
 _atom_site_occupancy
  K  K0  1  0.178012  0.178012  0.274816  1
  K  K1  1  0.811856  0.811856  0.864242  1
  Li  Li2  1  0.471725  0.471725  0.710761  1
  H  H3  1  0.739920  0.297447  0.990896  1
  H  H4  1  0.297447  0.739920  0.990896  1
  H  H5  1  0.668188  0.668188  0.247379  1
  H  H6  1  0.589321  0.207389  0.346824  1
  H  H7  1  0.207389  0.589321  0.346824  1
  H  H8  1  0.769391  0.407881  0.523240  1
  H  H9  1  0.407881  0.769391  0.523240  1
  H  H10  1  0.355113  0.355113  0.943502  1
  W  W11  1  0.503753  0.503753  0.237384  1
