# generated using pymatgen
data_La6NdTm3Sn5PbCl2
_symmetry_space_group_name_H-M   'P 1'
_cell_length_a   9.48069800
_cell_length_b   9.48069723
_cell_length_c   6.76393500
_cell_angle_alpha   90.00000000
_cell_angle_beta   90.00000000
_cell_angle_gamma   119.99999571
_symmetry_Int_Tables_number   1
_chemical_formula_structural   La6NdTm3Sn5PbCl2
_chemical_formula_sum   'La6 Nd1 Tm3 Sn5 Pb1 Cl2'
_cell_volume   526.51490005
_cell_formula_units_Z   1
loop_
 _symmetry_equiv_pos_site_id
 _symmetry_equiv_pos_as_xyz
  1  'x, y, z'
loop_
 _atom_site_type_symbol
 _atom_site_label
 _atom_site_symmetry_multiplicity
 _atom_site_fract_x
 _atom_site_fract_y
 _atom_site_fract_z
 _atom_site_occupancy
  La  La0  1  0.737218  0.000774  0.749233  1
  La  La1  1  0.737419  0.737669  0.250704  1
  La  La2  1  0.000433  0.263049  0.250736  1
  La  La3  1  0.001487  0.737626  0.749302  1
  La  La4  1  0.261897  0.262097  0.749246  1
  La  La5  1  0.262681  0.999819  0.250696  1
  Nd  Nd6  1  0.332624  0.666884  0.000688  1
  Tm  Tm7  1  0.666910  0.332445  0.000780  1
  Tm  Tm8  1  0.332399  0.666930  0.499124  1
  Tm  Tm9  1  0.666913  0.332350  0.499158  1
  Sn  Sn10  1  0.994934  0.605448  0.253897  1
  Sn  Sn11  1  0.610382  0.004742  0.253932  1
  Sn  Sn12  1  0.394666  0.004974  0.746016  1
  Sn  Sn13  1  0.995150  0.389737  0.745993  1
  Sn  Sn14  1  0.394636  0.389707  0.253947  1
  Pb  Pb15  1  0.610422  0.605855  0.746522  1
  Cl  Cl16  1  0.999917  0.999933  0.500062  1
  Cl  Cl17  1  0.999914  0.999960  0.999964  1
