# generated using pymatgen
data_Tm2Ga9IrPtRh
_symmetry_space_group_name_H-M   'P 1'
_cell_length_a   7.60336108
_cell_length_b   7.60334022
_cell_length_c   9.45954100
_cell_angle_alpha   89.99941809
_cell_angle_beta   89.99880495
_cell_angle_gamma   119.96853509
_symmetry_Int_Tables_number   1
_chemical_formula_structural   Tm2Ga9IrPtRh
_chemical_formula_sum   'Tm4 Ga18 Ir2 Pt2 Rh2'
_cell_volume   473.74904288
_cell_formula_units_Z   2
loop_
 _symmetry_equiv_pos_site_id
 _symmetry_equiv_pos_as_xyz
  1  'x, y, z'
loop_
 _atom_site_type_symbol
 _atom_site_label
 _atom_site_symmetry_multiplicity
 _atom_site_fract_x
 _atom_site_fract_y
 _atom_site_fract_z
 _atom_site_occupancy
  Tm  Tm0  1  0.996550  0.670384  0.249937  1
  Tm  Tm1  1  0.003450  0.329616  0.750063  1
  Tm  Tm2  1  0.670382  0.996548  0.249936  1
  Tm  Tm3  1  0.329618  0.003452  0.750064  1
  Ga  Ga4  1  0.132080  0.132080  0.250057  1
  Ga  Ga5  1  0.867920  0.867920  0.749943  1
  Ga  Ga6  1  0.997822  0.337721  0.081867  1
  Ga  Ga7  1  0.002178  0.662279  0.918133  1
  Ga  Ga8  1  0.002369  0.661830  0.581629  1
  Ga  Ga9  1  0.338169  0.997631  0.418371  1
  Ga  Ga10  1  0.997631  0.338170  0.418371  1
  Ga  Ga11  1  0.661831  0.002369  0.581629  1
  Ga  Ga12  1  0.662279  0.002178  0.918132  1
  Ga  Ga13  1  0.337721  0.997822  0.081868  1
  Ga  Ga14  1  0.336119  0.336120  0.569228  1
  Ga  Ga15  1  0.663881  0.663880  0.430772  1
  Ga  Ga16  1  0.664549  0.664550  0.069259  1
  Ga  Ga17  1  0.335451  0.335450  0.930741  1
  Ga  Ga18  1  0.336614  0.548032  0.250726  1
  Ga  Ga19  1  0.663386  0.451968  0.749274  1
  Ga  Ga20  1  0.548032  0.336614  0.250726  1
  Ga  Ga21  1  0.451968  0.663386  0.749274  1
  Ir  Ir22  1  0.671454  0.328551  0.999998  1
  Ir  Ir23  1  0.328546  0.671449  0.000002  1
  Pt  Pt24  1  0.000000  0.000000  0.000000  1
  Pt  Pt25  1  0.000000  0.000000  0.500000  1
  Rh  Rh26  1  0.328979  0.671022  0.499999  1
  Rh  Rh27  1  0.671021  0.328978  0.500001  1
