# generated using pymatgen
data_LiPr2PtO6
_symmetry_space_group_name_H-M   'P 1'
_cell_length_a   5.45291261
_cell_length_b   5.74853800
_cell_length_c   7.76267400
_cell_angle_alpha   90.00000000
_cell_angle_beta   90.46633281
_cell_angle_gamma   90.00000000
_symmetry_Int_Tables_number   1
_chemical_formula_structural   LiPr2PtO6
_chemical_formula_sum   'Li2 Pr4 Pt2 O12'
_cell_volume   243.32285711
_cell_formula_units_Z   2
loop_
 _symmetry_equiv_pos_site_id
 _symmetry_equiv_pos_as_xyz
  1  'x, y, z'
loop_
 _atom_site_type_symbol
 _atom_site_label
 _atom_site_symmetry_multiplicity
 _atom_site_fract_x
 _atom_site_fract_y
 _atom_site_fract_z
 _atom_site_occupancy
  Li  Li0  1  0.000000  0.000000  0.000000  1
  Li  Li1  1  0.500001  0.500000  0.500000  1
  Pr  Pr2  1  0.016940  0.566879  0.248629  1
  Pr  Pr3  1  0.483059  0.066879  0.251371  1
  Pr  Pr4  1  0.516941  0.933119  0.748630  1
  Pr  Pr5  1  0.983060  0.433119  0.751370  1
  Pt  Pt6  1  0.500001  0.500000  0.000000  1
  Pt  Pt7  1  0.000000  0.000000  0.500001  1
  O  O8  1  0.201737  0.303127  0.047282  1
  O  O9  1  0.309985  0.791519  0.046857  1
  O  O10  1  0.589104  0.476711  0.249077  1
  O  O11  1  0.910895  0.976711  0.250924  1
  O  O12  1  0.190016  0.291519  0.453143  1
  O  O13  1  0.298262  0.803127  0.452719  1
  O  O14  1  0.701738  0.196873  0.547282  1
  O  O15  1  0.809984  0.708482  0.546858  1
  O  O16  1  0.089105  0.023289  0.749076  1
  O  O17  1  0.410896  0.523289  0.750924  1
  O  O18  1  0.690015  0.208482  0.953142  1
  O  O19  1  0.798263  0.696873  0.952718  1
