# generated using pymatgen
data_Ho2(NpGa5)3
_symmetry_space_group_name_H-M   'P 1'
_cell_length_a   12.52383794
_cell_length_b   12.52383794
_cell_length_c   12.52383703
_cell_angle_alpha   28.36020729
_cell_angle_beta   28.36020741
_cell_angle_gamma   28.36020602
_symmetry_Int_Tables_number   1
_chemical_formula_structural   Ho2(NpGa5)3
_chemical_formula_sum   'Ho2 Np3 Ga15'
_cell_volume   391.67137364
_cell_formula_units_Z   1
loop_
 _symmetry_equiv_pos_site_id
 _symmetry_equiv_pos_as_xyz
  1  'x, y, z'
loop_
 _atom_site_type_symbol
 _atom_site_label
 _atom_site_symmetry_multiplicity
 _atom_site_fract_x
 _atom_site_fract_y
 _atom_site_fract_z
 _atom_site_occupancy
  Ho  Ho0  1  0.599656  0.599656  0.599656  1
  Ho  Ho1  1  0.998869  0.998869  0.998869  1
  Np  Np2  1  0.129720  0.129720  0.129720  1
  Np  Np3  1  0.870360  0.870360  0.870360  1
  Np  Np4  1  0.401542  0.401542  0.401542  1
  Ga  Ga5  1  0.426895  0.884614  0.884614  1
  Ga  Ga6  1  0.884614  0.884614  0.426895  1
  Ga  Ga7  1  0.884614  0.426895  0.884614  1
  Ga  Ga8  1  0.116646  0.566926  0.116646  1
  Ga  Ga9  1  0.116646  0.116646  0.566926  1
  Ga  Ga10  1  0.566926  0.116646  0.116646  1
  Ga  Ga11  1  0.131403  0.636517  0.636517  1
  Ga  Ga12  1  0.636517  0.636517  0.131403  1
  Ga  Ga13  1  0.636517  0.131403  0.636517  1
  Ga  Ga14  1  0.362789  0.873863  0.362789  1
  Ga  Ga15  1  0.362789  0.362789  0.873863  1
  Ga  Ga16  1  0.873863  0.362789  0.362789  1
  Ga  Ga17  1  0.497698  0.497698  0.004236  1
  Ga  Ga18  1  0.497698  0.004236  0.497698  1
  Ga  Ga19  1  0.004236  0.497698  0.497698  1
