# generated using pymatgen
data_Li3HoNi9MoAs7
_symmetry_space_group_name_H-M   'P 1'
_cell_length_a   9.43512005
_cell_length_b   9.50104685
_cell_length_c   3.80226000
_cell_angle_alpha   90.00000000
_cell_angle_beta   90.00000000
_cell_angle_gamma   120.28661169
_symmetry_Int_Tables_number   1
_chemical_formula_structural   Li3HoNi9MoAs7
_chemical_formula_sum   'Li3 Ho1 Ni9 Mo1 As7'
_cell_volume   294.32678881
_cell_formula_units_Z   1
loop_
 _symmetry_equiv_pos_site_id
 _symmetry_equiv_pos_as_xyz
  1  'x, y, z'
loop_
 _atom_site_type_symbol
 _atom_site_label
 _atom_site_symmetry_multiplicity
 _atom_site_fract_x
 _atom_site_fract_y
 _atom_site_fract_z
 _atom_site_occupancy
  Li  Li0  1  0.443633  0.219107  0.500000  1
  Li  Li1  1  0.777918  0.224907  0.500000  1
  Li  Li2  1  0.998259  0.003778  0.500000  1
  Ho  Ho3  1  0.333367  0.669193  0.000000  1
  Ni  Ni4  1  0.278484  0.378056  0.500000  1
  Ni  Ni5  1  0.621917  0.900545  0.500000  1
  Ni  Ni6  1  0.100894  0.719388  0.500000  1
  Ni  Ni7  1  0.501629  0.452468  0.000000  1
  Ni  Ni8  1  0.549226  0.047721  0.000000  1
  Ni  Ni9  1  0.954793  0.499411  0.000000  1
  Ni  Ni10  1  0.723157  0.761751  0.000000  1
  Ni  Ni11  1  0.240254  0.962294  0.000000  1
  Ni  Ni12  1  0.042916  0.280945  0.000000  1
  Mo  Mo13  1  0.765362  0.547415  0.500000  1
  As  As14  1  0.967301  0.758321  0.000000  1
  As  As15  1  0.241688  0.208399  0.000000  1
  As  As16  1  0.792398  0.033412  0.000000  1
  As  As17  1  0.667165  0.332531  0.000000  1
  As  As18  1  0.546291  0.622676  0.500000  1
  As  As19  1  0.378627  0.924137  0.500000  1
  As  As20  1  0.074720  0.453547  0.500000  1
