# generated using pymatgen
data_PrY3Zr4F28
_symmetry_space_group_name_H-M   'P 1'
_cell_length_a   5.80368315
_cell_length_b   9.19224512
_cell_length_c   12.35602989
_cell_angle_alpha   62.32273320
_cell_angle_beta   89.95465157
_cell_angle_gamma   90.00608666
_symmetry_Int_Tables_number   1
_chemical_formula_structural   PrY3Zr4F28
_chemical_formula_sum   'Pr1 Y3 Zr4 F28'
_cell_volume   583.75532765
_cell_formula_units_Z   1
loop_
 _symmetry_equiv_pos_site_id
 _symmetry_equiv_pos_as_xyz
  1  'x, y, z'
loop_
 _atom_site_type_symbol
 _atom_site_label
 _atom_site_symmetry_multiplicity
 _atom_site_fract_x
 _atom_site_fract_y
 _atom_site_fract_z
 _atom_site_occupancy
  Pr  Pr0  1  0.756824  0.816222  0.766636  1
  Y  Y1  1  0.743501  0.817050  0.266043  1
  Y  Y2  1  0.243286  0.184676  0.234004  1
  Y  Y3  1  0.256965  0.189363  0.733289  1
  Zr  Zr4  1  0.743806  0.277731  0.452870  1
  Zr  Zr5  1  0.244943  0.725403  0.049246  1
  Zr  Zr6  1  0.255261  0.725570  0.540701  1
  Zr  Zr7  1  0.755354  0.270059  0.957001  1
  F  F8  1  0.460115  0.708998  0.925510  1
  F  F9  1  0.964961  0.288528  0.577066  1
  F  F10  1  0.533076  0.286561  0.078613  1
  F  F11  1  0.031640  0.711556  0.419300  1
  F  F12  1  0.456450  0.281763  0.548902  1
  F  F13  1  0.958230  0.715207  0.956945  1
  F  F14  1  0.546497  0.719437  0.448320  1
  F  F15  1  0.043305  0.278865  0.051132  1
  F  F16  1  0.768096  0.518428  0.860383  1
  F  F17  1  0.267242  0.475365  0.639958  1
  F  F18  1  0.234355  0.474527  0.142990  1
  F  F19  1  0.732987  0.526872  0.357196  1
  F  F20  1  0.759693  0.021573  0.059407  1
  F  F21  1  0.259484  0.974831  0.440649  1
  F  F22  1  0.239701  0.973508  0.943250  1
  F  F23  1  0.739804  0.028701  0.553364  1
  F  F24  1  0.987566  0.731228  0.644770  1
  F  F25  1  0.486310  0.265710  0.851784  1
  F  F26  1  0.012378  0.265629  0.349709  1
  F  F27  1  0.514976  0.734710  0.151536  1
  F  F28  1  0.032170  0.746911  0.174094  1
  F  F29  1  0.531721  0.253839  0.327891  1
  F  F30  1  0.966855  0.251846  0.829406  1
  F  F31  1  0.458191  0.743360  0.669354  1
  F  F32  1  0.430570  0.974689  0.235433  1
  F  F33  1  0.931428  0.026082  0.264578  1
  F  F34  1  0.567578  0.036804  0.765415  1
  F  F35  1  0.084679  0.978399  0.733258  1
