# generated using pymatgen
data_K2Ca(SeO4)2
_symmetry_space_group_name_H-M   'P 1'
_cell_length_a   7.26503561
_cell_length_b   7.26503541
_cell_length_c   9.95716981
_cell_angle_alpha   110.89607669
_cell_angle_beta   69.10392534
_cell_angle_gamma   102.83969752
_symmetry_Int_Tables_number   1
_chemical_formula_structural   K2Ca(SeO4)2
_chemical_formula_sum   'K4 Ca2 Se4 O16'
_cell_volume   455.96291026
_cell_formula_units_Z   2
loop_
 _symmetry_equiv_pos_site_id
 _symmetry_equiv_pos_as_xyz
  1  'x, y, z'
loop_
 _atom_site_type_symbol
 _atom_site_label
 _atom_site_symmetry_multiplicity
 _atom_site_fract_x
 _atom_site_fract_y
 _atom_site_fract_z
 _atom_site_occupancy
  K  K0  1  0.696480  0.419654  0.061647  1
  K  K1  1  0.419655  0.696480  0.438352  1
  K  K2  1  0.580346  0.303519  0.561647  1
  K  K3  1  0.303519  0.580346  0.938353  1
  Ca  Ca4  1  0.092979  0.092980  0.250000  1
  Ca  Ca5  1  0.907020  0.907020  0.750000  1
  Se  Se6  1  0.614261  0.984694  0.171282  1
  Se  Se7  1  0.984695  0.614261  0.328718  1
  Se  Se8  1  0.015306  0.385739  0.671282  1
  Se  Se9  1  0.385738  0.015306  0.828718  1
  O  O10  1  0.771369  0.036174  0.015686  1
  O  O11  1  0.520616  0.747417  0.136356  1
  O  O12  1  0.034951  0.737457  0.203439  1
  O  O13  1  0.431982  0.133292  0.247519  1
  O  O14  1  0.133292  0.431982  0.252481  1
  O  O15  1  0.737457  0.034951  0.296562  1
  O  O16  1  0.747417  0.520615  0.363643  1
  O  O17  1  0.036173  0.771370  0.484315  1
  O  O18  1  0.963827  0.228631  0.515685  1
  O  O19  1  0.252584  0.479385  0.636357  1
  O  O20  1  0.262543  0.965049  0.703438  1
  O  O21  1  0.866708  0.568017  0.747519  1
  O  O22  1  0.568017  0.866708  0.752481  1
  O  O23  1  0.965049  0.262543  0.796562  1
  O  O24  1  0.479385  0.252585  0.863644  1
  O  O25  1  0.228632  0.963827  0.984314  1
