# generated using pymatgen
data_Tm3Mg2InSn2Ir
_symmetry_space_group_name_H-M   'P 1'
_cell_length_a   7.44930800
_cell_length_b   7.40396997
_cell_length_c   4.44661800
_cell_angle_alpha   90.00000000
_cell_angle_beta   90.00000000
_cell_angle_gamma   120.20277948
_symmetry_Int_Tables_number   1
_chemical_formula_structural   Tm3Mg2InSn2Ir
_chemical_formula_sum   'Tm3 Mg2 In1 Sn2 Ir1'
_cell_volume   211.95808642
_cell_formula_units_Z   1
loop_
 _symmetry_equiv_pos_site_id
 _symmetry_equiv_pos_as_xyz
  1  'x, y, z'
loop_
 _atom_site_type_symbol
 _atom_site_label
 _atom_site_symmetry_multiplicity
 _atom_site_fract_x
 _atom_site_fract_y
 _atom_site_fract_z
 _atom_site_occupancy
  Tm  Tm0  1  0.609119  0.000000  0.000000  1
  Tm  Tm1  1  0.999248  0.607348  0.000000  1
  Tm  Tm2  1  0.391900  0.392652  0.000000  1
  Mg  Mg3  1  0.995860  0.227455  0.500000  1
  Mg  Mg4  1  0.768406  0.772545  0.500000  1
  In  In5  1  0.231330  0.000000  0.500000  1
  Sn  Sn6  1  0.334040  0.661775  0.500000  1
  Sn  Sn7  1  0.672266  0.338225  0.500000  1
  Ir  Ir8  1  0.997832  0.000000  0.000000  1
