# generated using pymatgen
data_Yb6DyCo4Sn13
_symmetry_space_group_name_H-M   'P 1'
_cell_length_a   11.16137300
_cell_length_b   11.16137300
_cell_length_c   4.60308700
_cell_angle_alpha   90.00000000
_cell_angle_beta   90.00000000
_cell_angle_gamma   90.00000000
_symmetry_Int_Tables_number   1
_chemical_formula_structural   Yb6DyCo4Sn13
_chemical_formula_sum   'Yb6 Dy1 Co4 Sn13'
_cell_volume   573.43530420
_cell_formula_units_Z   1
loop_
 _symmetry_equiv_pos_site_id
 _symmetry_equiv_pos_as_xyz
  1  'x, y, z'
loop_
 _atom_site_type_symbol
 _atom_site_label
 _atom_site_symmetry_multiplicity
 _atom_site_fract_x
 _atom_site_fract_y
 _atom_site_fract_z
 _atom_site_occupancy
  Yb  Yb0  1  0.339289  0.670420  0.500000  1
  Yb  Yb1  1  0.660711  0.329580  0.500000  1
  Yb  Yb2  1  0.329580  0.339289  0.500000  1
  Yb  Yb3  1  0.670420  0.660711  0.500000  1
  Yb  Yb4  1  0.500000  0.000000  0.500000  1
  Yb  Yb5  1  0.000000  0.500000  0.500000  1
  Dy  Dy6  1  0.000000  0.000000  0.000000  1
  Co  Co7  1  0.118478  0.726521  0.000000  1
  Co  Co8  1  0.881522  0.273479  0.000000  1
  Co  Co9  1  0.273479  0.118478  0.000000  1
  Co  Co10  1  0.726521  0.881522  0.000000  1
  Sn  Sn11  1  0.284025  0.888438  0.000000  1
  Sn  Sn12  1  0.715975  0.111562  0.000000  1
  Sn  Sn13  1  0.111562  0.284025  0.000000  1
  Sn  Sn14  1  0.888438  0.715975  0.000000  1
  Sn  Sn15  1  0.077906  0.804328  0.500000  1
  Sn  Sn16  1  0.922094  0.195672  0.500000  1
  Sn  Sn17  1  0.195672  0.077906  0.500000  1
  Sn  Sn18  1  0.804328  0.922094  0.500000  1
  Sn  Sn19  1  0.522297  0.786287  0.000000  1
  Sn  Sn20  1  0.477703  0.213713  0.000000  1
  Sn  Sn21  1  0.213713  0.522297  0.000000  1
  Sn  Sn22  1  0.786287  0.477703  0.000000  1
  Sn  Sn23  1  0.500000  0.500000  0.000000  1
