# generated using pymatgen
data_NdTmLu(Co3P2)3
_symmetry_space_group_name_H-M   'P 1'
_cell_length_a   3.69914400
_cell_length_b   10.52568300
_cell_length_c   12.18601100
_cell_angle_alpha   90.00000000
_cell_angle_beta   90.00000000
_cell_angle_gamma   90.00000000
_symmetry_Int_Tables_number   1
_chemical_formula_structural   NdTmLu(Co3P2)3
_chemical_formula_sum   'Nd2 Tm2 Lu2 Co18 P12'
_cell_volume   474.47473286
_cell_formula_units_Z   2
loop_
 _symmetry_equiv_pos_site_id
 _symmetry_equiv_pos_as_xyz
  1  'x, y, z'
loop_
 _atom_site_type_symbol
 _atom_site_label
 _atom_site_symmetry_multiplicity
 _atom_site_fract_x
 _atom_site_fract_y
 _atom_site_fract_z
 _atom_site_occupancy
  Nd  Nd0  1  0.000000  0.500000  0.522602  1
  Nd  Nd1  1  0.500000  0.000000  0.477318  1
  Tm  Tm2  1  0.000000  0.682231  0.795353  1
  Tm  Tm3  1  0.000000  0.317769  0.795353  1
  Lu  Lu4  1  0.500000  0.817808  0.204710  1
  Lu  Lu5  1  0.500000  0.182192  0.204710  1
  Co  Co6  1  0.500000  0.500000  0.156678  1
  Co  Co7  1  0.000000  0.000000  0.843370  1
  Co  Co8  1  0.500000  0.500000  0.707203  1
  Co  Co9  1  0.000000  0.000000  0.292447  1
  Co  Co10  1  0.000000  0.500000  0.986713  1
  Co  Co11  1  0.500000  0.000000  0.013772  1
  Co  Co12  1  0.500000  0.332951  0.995028  1
  Co  Co13  1  0.500000  0.667049  0.995028  1
  Co  Co14  1  0.000000  0.166813  0.005492  1
  Co  Co15  1  0.000000  0.833187  0.005492  1
  Co  Co16  1  0.500000  0.296520  0.428478  1
  Co  Co17  1  0.500000  0.703480  0.428478  1
  Co  Co18  1  0.000000  0.203373  0.571201  1
  Co  Co19  1  0.000000  0.796627  0.571201  1
  Co  Co20  1  0.500000  0.878969  0.712950  1
  Co  Co21  1  0.500000  0.121031  0.712950  1
  Co  Co22  1  0.000000  0.621372  0.286825  1
  Co  Co23  1  0.000000  0.378628  0.286825  1
  P  P24  1  0.500000  0.500000  0.883636  1
  P  P25  1  0.000000  0.000000  0.116847  1
  P  P26  1  0.500000  0.500000  0.339724  1
  P  P27  1  0.000000  0.000000  0.660253  1
  P  P28  1  0.500000  0.307864  0.618505  1
  P  P29  1  0.500000  0.692136  0.618505  1
  P  P30  1  0.000000  0.191926  0.380875  1
  P  P31  1  0.000000  0.808074  0.380875  1
  P  P32  1  0.500000  0.846278  0.893672  1
  P  P33  1  0.500000  0.153722  0.893672  1
  P  P34  1  0.000000  0.654269  0.106629  1
  P  P35  1  0.000000  0.345731  0.106629  1
