# generated using pymatgen
data_Hf4Fe5(As3Ru)2
_symmetry_space_group_name_H-M   'P 1'
_cell_length_a   6.85420868
_cell_length_b   6.85420878
_cell_length_c   6.85420883
_cell_angle_alpha   109.67886068
_cell_angle_beta   109.05676126
_cell_angle_gamma   109.67884207
_symmetry_Int_Tables_number   1
_chemical_formula_structural   Hf4Fe5(As3Ru)2
_chemical_formula_sum   'Hf4 Fe5 As6 Ru2'
_cell_volume   247.87516490
_cell_formula_units_Z   1
loop_
 _symmetry_equiv_pos_site_id
 _symmetry_equiv_pos_as_xyz
  1  'x, y, z'
loop_
 _atom_site_type_symbol
 _atom_site_label
 _atom_site_symmetry_multiplicity
 _atom_site_fract_x
 _atom_site_fract_y
 _atom_site_fract_z
 _atom_site_occupancy
  Hf  Hf0  1  0.998059  0.996119  0.498059  1
  Hf  Hf1  1  0.501941  0.003881  0.001941  1
  Hf  Hf2  1  0.998059  0.500000  0.001941  1
  Hf  Hf3  1  0.501941  0.500000  0.498059  1
  Fe  Fe4  1  0.750000  0.500000  0.250000  1
  Fe  Fe5  1  0.502223  0.750408  0.252631  1
  Fe  Fe6  1  0.502223  0.249592  0.751815  1
  Fe  Fe7  1  0.747369  0.249592  0.497777  1
  Fe  Fe8  1  0.248185  0.750408  0.497777  1
  As  As9  1  0.323614  0.000000  0.323614  1
  As  As10  1  0.994491  0.320070  0.314561  1
  As  As11  1  0.994491  0.679930  0.674422  1
  As  As12  1  0.325578  0.320070  0.005509  1
  As  As13  1  0.685439  0.679930  0.005509  1
  As  As14  1  0.676386  0.000000  0.676386  1
  Ru  Ru15  1  0.250000  0.500000  0.750000  1
  Ru  Ru16  1  0.000000  0.000000  0.000000  1
