# generated using pymatgen
data_TbNiAs2Ru
_symmetry_space_group_name_H-M   'P 1'
_cell_length_a   4.21766100
_cell_length_b   4.21766100
_cell_length_c   9.48698900
_cell_angle_alpha   90.00000000
_cell_angle_beta   90.00000000
_cell_angle_gamma   90.00000000
_symmetry_Int_Tables_number   1
_chemical_formula_structural   TbNiAs2Ru
_chemical_formula_sum   'Tb2 Ni2 As4 Ru2'
_cell_volume   168.76086264
_cell_formula_units_Z   2
loop_
 _symmetry_equiv_pos_site_id
 _symmetry_equiv_pos_as_xyz
  1  'x, y, z'
loop_
 _atom_site_type_symbol
 _atom_site_label
 _atom_site_symmetry_multiplicity
 _atom_site_fract_x
 _atom_site_fract_y
 _atom_site_fract_z
 _atom_site_occupancy
  Tb  Tb0  1  0.000000  0.500000  0.255807  1
  Tb  Tb1  1  0.500000  0.000000  0.744193  1
  Ni  Ni2  1  0.000000  0.500000  0.618794  1
  Ni  Ni3  1  0.500000  0.000000  0.381206  1
  As  As4  1  0.000000  0.000000  0.500000  1
  As  As5  1  0.500000  0.500000  0.500000  1
  As  As6  1  0.000000  0.500000  0.863450  1
  As  As7  1  0.500000  0.000000  0.136550  1
  Ru  Ru8  1  0.000000  0.000000  0.000000  1
  Ru  Ru9  1  0.500000  0.500000  0.000000  1
