# generated using pymatgen
data_Er10NiBi4Ir
_symmetry_space_group_name_H-M   'P 1'
_cell_length_a   7.98087950
_cell_length_b   8.95643700
_cell_length_c   12.40192955
_cell_angle_alpha   90.00000000
_cell_angle_beta   89.52572540
_cell_angle_gamma   90.00000000
_symmetry_Int_Tables_number   1
_chemical_formula_structural   Er10NiBi4Ir
_chemical_formula_sum   'Er20 Ni2 Bi8 Ir2'
_cell_volume   886.46258566
_cell_formula_units_Z   2
loop_
 _symmetry_equiv_pos_site_id
 _symmetry_equiv_pos_as_xyz
  1  'x, y, z'
loop_
 _atom_site_type_symbol
 _atom_site_label
 _atom_site_symmetry_multiplicity
 _atom_site_fract_x
 _atom_site_fract_y
 _atom_site_fract_z
 _atom_site_occupancy
  Er  Er0  1  0.658749  0.750000  0.706066  1
  Er  Er1  1  0.341251  0.250000  0.293934  1
  Er  Er2  1  0.161713  0.250000  0.794095  1
  Er  Er3  1  0.838287  0.750000  0.205905  1
  Er  Er4  1  0.121938  0.750000  0.812961  1
  Er  Er5  1  0.878062  0.250000  0.187039  1
  Er  Er6  1  0.623970  0.250000  0.693436  1
  Er  Er7  1  0.376030  0.750000  0.306564  1
  Er  Er8  1  0.551004  0.750000  0.999803  1
  Er  Er9  1  0.448996  0.250000  0.000197  1
  Er  Er10  1  0.056587  0.250000  0.501973  1
  Er  Er11  1  0.943413  0.750000  0.498027  1
  Er  Er12  1  0.825577  0.458512  0.934699  1
  Er  Er13  1  0.174423  0.541488  0.065301  1
  Er  Er14  1  0.325935  0.543001  0.567178  1
  Er  Er15  1  0.174423  0.958512  0.065301  1
  Er  Er16  1  0.674065  0.456999  0.432822  1
  Er  Er17  1  0.825577  0.041488  0.934699  1
  Er  Er18  1  0.674065  0.043001  0.432822  1
  Er  Er19  1  0.325935  0.956999  0.567178  1
  Ni  Ni20  1  0.929821  0.750000  0.992997  1
  Ni  Ni21  1  0.070179  0.250000  0.007003  1
  Bi  Bi22  1  0.935029  0.008031  0.674315  1
  Bi  Bi23  1  0.064971  0.991969  0.325685  1
  Bi  Bi24  1  0.431842  0.990216  0.829233  1
  Bi  Bi25  1  0.064971  0.508031  0.325685  1
  Bi  Bi26  1  0.568158  0.009784  0.170767  1
  Bi  Bi27  1  0.935029  0.491969  0.674315  1
  Bi  Bi28  1  0.568158  0.490216  0.170767  1
  Bi  Bi29  1  0.431842  0.509784  0.829233  1
  Ir  Ir30  1  0.427960  0.250000  0.509899  1
  Ir  Ir31  1  0.572040  0.750000  0.490101  1
