# generated using pymatgen
data_LiTi2Nb7B20
_symmetry_space_group_name_H-M   'P 1'
_cell_length_a   6.18136748
_cell_length_b   7.00951562
_cell_length_c   7.31721605
_cell_angle_alpha   93.39382177
_cell_angle_beta   102.19393082
_cell_angle_gamma   116.15494159
_symmetry_Int_Tables_number   1
_chemical_formula_structural   LiTi2Nb7B20
_chemical_formula_sum   'Li1 Ti2 Nb7 B20'
_cell_volume   273.93575163
_cell_formula_units_Z   1
loop_
 _symmetry_equiv_pos_site_id
 _symmetry_equiv_pos_as_xyz
  1  'x, y, z'
loop_
 _atom_site_type_symbol
 _atom_site_label
 _atom_site_symmetry_multiplicity
 _atom_site_fract_x
 _atom_site_fract_y
 _atom_site_fract_z
 _atom_site_occupancy
  Li  Li0  1  0.999655  0.000435  0.001134  1
  Ti  Ti1  1  0.499315  0.800330  0.399137  1
  Ti  Ti2  1  0.000517  0.397754  0.199957  1
  Nb  Nb3  1  0.500511  0.000423  0.999464  1
  Nb  Nb4  1  0.500806  0.199925  0.599981  1
  Nb  Nb5  1  0.998623  0.796680  0.400074  1
  Nb  Nb6  1  0.501774  0.600089  0.800798  1
  Nb  Nb7  1  0.497687  0.398922  0.199620  1
  Nb  Nb8  1  0.001061  0.203484  0.600968  1
  Nb  Nb9  1  0.999954  0.602836  0.798952  1
  B  B10  1  0.329997  0.230392  0.870239  1
  B  B11  1  0.332284  0.631810  0.072296  1
  B  B12  1  0.163927  0.362931  0.939071  1
  B  B13  1  0.330963  0.031277  0.265432  1
  B  B14  1  0.166448  0.766030  0.135056  1
  B  B15  1  0.836361  0.230591  0.872508  1
  B  B16  1  0.163908  0.166467  0.327071  1
  B  B17  1  0.836526  0.636170  0.066371  1
  B  B18  1  0.332033  0.435509  0.460691  1
  B  B19  1  0.669669  0.367312  0.936380  1
  B  B20  1  0.834041  0.033709  0.263812  1
  B  B21  1  0.668776  0.769280  0.133177  1
  B  B22  1  0.335351  0.834428  0.663638  1
  B  B23  1  0.168528  0.568599  0.527283  1
  B  B24  1  0.666176  0.163735  0.332336  1
  B  B25  1  0.833610  0.432244  0.463234  1
  B  B26  1  0.165063  0.967556  0.737080  1
  B  B27  1  0.832302  0.834978  0.668043  1
  B  B28  1  0.664861  0.569153  0.531854  1
  B  B29  1  0.669275  0.966952  0.734342  1
