# generated using pymatgen
data_Dy11Lu5MgCo4Ag3
_symmetry_space_group_name_H-M   'P 1'
_cell_length_a   9.36687259
_cell_length_b   9.37973995
_cell_length_c   9.37607500
_cell_angle_alpha   60.01292796
_cell_angle_beta   59.96749928
_cell_angle_gamma   59.85327256
_symmetry_Int_Tables_number   1
_chemical_formula_structural   Dy11Lu5MgCo4Ag3
_chemical_formula_sum   'Dy11 Lu5 Mg1 Co4 Ag3'
_cell_volume   581.75929731
_cell_formula_units_Z   1
loop_
 _symmetry_equiv_pos_site_id
 _symmetry_equiv_pos_as_xyz
  1  'x, y, z'
loop_
 _atom_site_type_symbol
 _atom_site_label
 _atom_site_symmetry_multiplicity
 _atom_site_fract_x
 _atom_site_fract_y
 _atom_site_fract_z
 _atom_site_occupancy
  Dy  Dy0  1  0.812055  0.813703  0.187121  1
  Dy  Dy1  1  0.936525  0.562111  0.562891  1
  Dy  Dy2  1  0.560948  0.938129  0.937366  1
  Dy  Dy3  1  0.560948  0.938129  0.563557  1
  Dy  Dy4  1  0.936525  0.562111  0.938473  1
  Dy  Dy5  1  0.561263  0.562740  0.937999  1
  Dy  Dy6  1  0.935920  0.939150  0.562465  1
  Dy  Dy7  1  0.347131  0.346509  0.346961  1
  Dy  Dy8  1  0.347131  0.346509  0.959397  1
  Dy  Dy9  1  0.346224  0.959945  0.346915  1
  Dy  Dy10  1  0.948026  0.349597  0.351188  1
  Lu  Lu11  1  0.812278  0.187763  0.186767  1
  Lu  Lu12  1  0.184914  0.815833  0.814493  1
  Lu  Lu13  1  0.184914  0.815833  0.184761  1
  Lu  Lu14  1  0.812278  0.187763  0.813191  1
  Lu  Lu15  1  0.184159  0.184949  0.815447  1
  Mg  Mg16  1  0.288497  0.570530  0.570486  1
  Co  Co17  1  0.138170  0.141519  0.141772  1
  Co  Co18  1  0.138170  0.141519  0.578538  1
  Co  Co19  1  0.138475  0.578166  0.141679  1
  Co  Co20  1  0.576601  0.141497  0.140950  1
  Ag  Ag21  1  0.582815  0.582796  0.583781  1
  Ag  Ag22  1  0.582815  0.582796  0.250607  1
  Ag  Ag23  1  0.583213  0.250402  0.583192  1
