# generated using pymatgen
data_Er5Si12Ir18Ru
_symmetry_space_group_name_H-M   'P 1'
_cell_length_a   12.81129696
_cell_length_b   12.81129767
_cell_length_c   3.98781300
_cell_angle_alpha   90.00000000
_cell_angle_beta   90.00000000
_cell_angle_gamma   120.21697618
_symmetry_Int_Tables_number   1
_chemical_formula_structural   Er5Si12Ir18Ru
_chemical_formula_sum   'Er5 Si12 Ir18 Ru1'
_cell_volume   565.58507302
_cell_formula_units_Z   1
loop_
 _symmetry_equiv_pos_site_id
 _symmetry_equiv_pos_as_xyz
  1  'x, y, z'
loop_
 _atom_site_type_symbol
 _atom_site_label
 _atom_site_symmetry_multiplicity
 _atom_site_fract_x
 _atom_site_fract_y
 _atom_site_fract_z
 _atom_site_occupancy
  Er  Er0  1  0.665652  0.332874  0.000000  1
  Er  Er1  1  0.332874  0.665652  0.000000  1
  Er  Er2  1  0.815411  0.815411  0.500000  1
  Er  Er3  1  0.186178  0.002041  0.500000  1
  Er  Er4  1  0.002041  0.186178  0.500000  1
  Si  Si5  1  0.688170  0.168698  0.500000  1
  Si  Si6  1  0.830845  0.519155  0.500000  1
  Si  Si7  1  0.477990  0.311197  0.500000  1
  Si  Si8  1  0.168698  0.688170  0.500000  1
  Si  Si9  1  0.519155  0.830845  0.500000  1
  Si  Si10  1  0.311197  0.477990  0.500000  1
  Si  Si11  1  0.631401  0.631401  0.000000  1
  Si  Si12  1  0.368285  0.000295  0.000000  1
  Si  Si13  1  0.000295  0.368285  0.000000  1
  Si  Si14  1  0.183309  0.183309  0.000000  1
  Si  Si15  1  0.819422  0.000601  0.000000  1
  Si  Si16  1  0.000601  0.819422  0.000000  1
  Ir  Ir17  1  0.806529  0.183021  0.000000  1
  Ir  Ir18  1  0.817084  0.623808  0.000000  1
  Ir  Ir19  1  0.376629  0.193116  0.000000  1
  Ir  Ir20  1  0.183021  0.806529  0.000000  1
  Ir  Ir21  1  0.623808  0.817084  0.000000  1
  Ir  Ir22  1  0.193116  0.376629  0.000000  1
  Ir  Ir23  1  0.445705  0.445705  0.000000  1
  Ir  Ir24  1  0.552882  0.999514  0.000000  1
  Ir  Ir25  1  0.999514  0.552882  0.000000  1
  Ir  Ir26  1  0.718124  0.000156  0.500000  1
  Ir  Ir27  1  0.000156  0.718124  0.500000  1
  Ir  Ir28  1  0.872878  0.361575  0.500000  1
  Ir  Ir29  1  0.638270  0.511472  0.500000  1
  Ir  Ir30  1  0.488772  0.126883  0.500000  1
  Ir  Ir31  1  0.361575  0.872878  0.500000  1
  Ir  Ir32  1  0.511472  0.638270  0.500000  1
  Ir  Ir33  1  0.126883  0.488772  0.500000  1
  Ir  Ir34  1  0.000205  0.000205  0.000000  1
  Ru  Ru35  1  0.281854  0.281854  0.500000  1
