# generated using pymatgen
data_K3Ba3AlSb4
_symmetry_space_group_name_H-M   'P 1'
_cell_length_a   11.08352300
_cell_length_b   11.08352370
_cell_length_c   8.43805900
_cell_angle_alpha   90.00000000
_cell_angle_beta   90.00000000
_cell_angle_gamma   120.00000090
_symmetry_Int_Tables_number   1
_chemical_formula_structural   K3Ba3AlSb4
_chemical_formula_sum   'K6 Ba6 Al2 Sb8'
_cell_volume   897.69512463
_cell_formula_units_Z   2
loop_
 _symmetry_equiv_pos_site_id
 _symmetry_equiv_pos_as_xyz
  1  'x, y, z'
loop_
 _atom_site_type_symbol
 _atom_site_label
 _atom_site_symmetry_multiplicity
 _atom_site_fract_x
 _atom_site_fract_y
 _atom_site_fract_z
 _atom_site_occupancy
  K  K0  1  0.859766  0.140234  0.547876  1
  K  K1  1  0.280467  0.140234  0.547876  1
  K  K2  1  0.859766  0.719533  0.547876  1
  K  K3  1  0.140234  0.859766  0.047876  1
  K  K4  1  0.719533  0.859766  0.047876  1
  K  K5  1  0.140234  0.280467  0.047876  1
  Ba  Ba6  1  0.478910  0.521090  0.732629  1
  Ba  Ba7  1  0.042180  0.521090  0.732629  1
  Ba  Ba8  1  0.478910  0.957820  0.732629  1
  Ba  Ba9  1  0.521090  0.478910  0.232629  1
  Ba  Ba10  1  0.957820  0.478910  0.232629  1
  Ba  Ba11  1  0.521090  0.042180  0.232629  1
  Al  Al12  1  0.666667  0.333333  0.856277  1
  Al  Al13  1  0.333333  0.666667  0.356277  1
  Sb  Sb14  1  0.803012  0.196988  0.955566  1
  Sb  Sb15  1  0.393977  0.196988  0.955566  1
  Sb  Sb16  1  0.803012  0.606023  0.955566  1
  Sb  Sb17  1  0.196988  0.803012  0.455566  1
  Sb  Sb18  1  0.606023  0.803012  0.455566  1
  Sb  Sb19  1  0.196988  0.393977  0.455566  1
  Sb  Sb20  1  0.666667  0.333333  0.520873  1
  Sb  Sb21  1  0.333333  0.666667  0.020873  1
