# generated using pymatgen
data_Er3In3Rh2Pb
_symmetry_space_group_name_H-M   'P 1'
_cell_length_a   7.87680900
_cell_length_b   7.87681075
_cell_length_c   3.83457500
_cell_angle_alpha   90.00000000
_cell_angle_beta   90.00000000
_cell_angle_gamma   119.99998847
_symmetry_Int_Tables_number   1
_chemical_formula_structural   Er3In3Rh2Pb
_chemical_formula_sum   'Er3 In3 Rh2 Pb1'
_cell_volume   206.03862562
_cell_formula_units_Z   1
loop_
 _symmetry_equiv_pos_site_id
 _symmetry_equiv_pos_as_xyz
  1  'x, y, z'
loop_
 _atom_site_type_symbol
 _atom_site_label
 _atom_site_symmetry_multiplicity
 _atom_site_fract_x
 _atom_site_fract_y
 _atom_site_fract_z
 _atom_site_occupancy
  Er  Er0  1  0.033641  0.614339  0.500000  1
  Er  Er1  1  0.385661  0.419302  0.500000  1
  Er  Er2  1  0.580698  0.966359  0.500000  1
  In  In3  1  0.244351  0.986535  0.000000  1
  In  In4  1  0.742184  0.755649  0.000000  1
  In  In5  1  0.013465  0.257816  0.000000  1
  Rh  Rh6  1  0.333333  0.666667  0.000000  1
  Rh  Rh7  1  0.000000  0.000000  0.500000  1
  Pb  Pb8  1  0.666667  0.333333  0.000000  1
