# generated using pymatgen
data_CaYb4Bi3
_symmetry_space_group_name_H-M   'P 1'
_cell_length_a   9.27204043
_cell_length_b   9.27034187
_cell_length_c   7.04100300
_cell_angle_alpha   90.00000000
_cell_angle_beta   90.00000000
_cell_angle_gamma   119.99394106
_symmetry_Int_Tables_number   1
_chemical_formula_structural   CaYb4Bi3
_chemical_formula_sum   'Ca2 Yb8 Bi6'
_cell_volume   524.15862956
_cell_formula_units_Z   2
loop_
 _symmetry_equiv_pos_site_id
 _symmetry_equiv_pos_as_xyz
  1  'x, y, z'
loop_
 _atom_site_type_symbol
 _atom_site_label
 _atom_site_symmetry_multiplicity
 _atom_site_fract_x
 _atom_site_fract_y
 _atom_site_fract_z
 _atom_site_occupancy
  Ca  Ca0  1  0.747717  0.747433  0.250000  1
  Ca  Ca1  1  0.252283  0.999717  0.250000  1
  Yb  Yb2  1  0.666687  0.333195  0.500297  1
  Yb  Yb3  1  0.333313  0.666508  0.500297  1
  Yb  Yb4  1  0.333313  0.666508  0.999703  1
  Yb  Yb5  1  0.666687  0.333195  0.999703  1
  Yb  Yb6  1  0.000000  0.254585  0.250000  1
  Yb  Yb7  1  0.253133  0.253410  0.750000  1
  Yb  Yb8  1  0.746867  0.000277  0.750000  1
  Yb  Yb9  1  0.000000  0.745857  0.750000  1
  Bi  Bi10  1  0.388056  0.388483  0.250000  1
  Bi  Bi11  1  0.611944  0.000427  0.250000  1
  Bi  Bi12  1  0.000000  0.610580  0.250000  1
  Bi  Bi13  1  0.611455  0.611415  0.750000  1
  Bi  Bi14  1  0.388545  0.999961  0.750000  1
  Bi  Bi15  1  0.000000  0.388452  0.750000  1
