# generated using pymatgen
data_InSb3(SeO3)8
_symmetry_space_group_name_H-M   'P 1'
_cell_length_a   8.43087924
_cell_length_b   8.63354606
_cell_length_c   8.45654041
_cell_angle_alpha   89.75727950
_cell_angle_beta   90.17498979
_cell_angle_gamma   90.03306139
_symmetry_Int_Tables_number   1
_chemical_formula_structural   InSb3(SeO3)8
_chemical_formula_sum   'In1 Sb3 Se8 O24'
_cell_volume   615.52942095
_cell_formula_units_Z   1
loop_
 _symmetry_equiv_pos_site_id
 _symmetry_equiv_pos_as_xyz
  1  'x, y, z'
loop_
 _atom_site_type_symbol
 _atom_site_label
 _atom_site_symmetry_multiplicity
 _atom_site_fract_x
 _atom_site_fract_y
 _atom_site_fract_z
 _atom_site_occupancy
  In  In0  1  0.000000  0.500000  0.000000  1
  Sb  Sb1  1  0.500000  0.500000  0.500000  1
  Sb  Sb2  1  0.000000  0.000000  0.500000  1
  Sb  Sb3  1  0.500000  0.000000  0.000000  1
  Se  Se4  1  0.332975  0.677139  0.151740  1
  Se  Se5  1  0.850280  0.324152  0.329313  1
  Se  Se6  1  0.681978  0.847821  0.679674  1
  Se  Se7  1  0.179440  0.165671  0.821707  1
  Se  Se8  1  0.667025  0.322861  0.848260  1
  Se  Se9  1  0.149720  0.675848  0.670687  1
  Se  Se10  1  0.318022  0.152179  0.320326  1
  Se  Se11  1  0.820560  0.834329  0.178293  1
  O  O12  1  0.248896  0.555238  0.017093  1
  O  O13  1  0.757647  0.441704  0.461287  1
  O  O14  1  0.764458  0.988007  0.548221  1
  O  O15  1  0.264805  0.026808  0.953024  1
  O  O16  1  0.545836  0.980725  0.765335  1
  O  O17  1  0.467770  0.559425  0.242849  1
  O  O18  1  0.987866  0.445922  0.248633  1
  O  O19  1  0.046548  0.030696  0.734096  1
  O  O20  1  0.986665  0.228603  0.466908  1
  O  O21  1  0.559945  0.755164  0.553548  1
  O  O22  1  0.471777  0.771036  0.017379  1
  O  O23  1  0.054746  0.252171  0.947664  1
  O  O24  1  0.751104  0.444762  0.982907  1
  O  O25  1  0.242353  0.558296  0.538713  1
  O  O26  1  0.235542  0.011993  0.451779  1
  O  O27  1  0.735195  0.973192  0.046976  1
  O  O28  1  0.454164  0.019275  0.234665  1
  O  O29  1  0.532230  0.440575  0.757151  1
  O  O30  1  0.012134  0.554078  0.751367  1
  O  O31  1  0.953452  0.969304  0.265904  1
  O  O32  1  0.013335  0.771397  0.533092  1
  O  O33  1  0.440055  0.244836  0.446452  1
  O  O34  1  0.528223  0.228964  0.982621  1
  O  O35  1  0.945254  0.747829  0.052336  1
