# generated using pymatgen
data_Ba5Ge2BiH
_symmetry_space_group_name_H-M   'P 1'
_cell_length_a   10.30656755
_cell_length_b   10.30656770
_cell_length_c   10.30656753
_cell_angle_alpha   128.62128308
_cell_angle_beta   128.62128823
_cell_angle_gamma   75.62070921
_symmetry_Int_Tables_number   1
_chemical_formula_structural   Ba5Ge2BiH
_chemical_formula_sum   'Ba10 Ge4 Bi2 H2'
_cell_volume   650.15235361
_cell_formula_units_Z   2
loop_
 _symmetry_equiv_pos_site_id
 _symmetry_equiv_pos_as_xyz
  1  'x, y, z'
loop_
 _atom_site_type_symbol
 _atom_site_label
 _atom_site_symmetry_multiplicity
 _atom_site_fract_x
 _atom_site_fract_y
 _atom_site_fract_z
 _atom_site_occupancy
  Ba  Ba0  1  0.500000  0.500000  0.000000  1
  Ba  Ba1  1  0.000000  0.000000  0.000000  1
  Ba  Ba2  1  0.522126  0.022126  0.829598  1
  Ba  Ba3  1  0.192528  0.692528  0.170402  1
  Ba  Ba4  1  0.022126  0.192528  0.500000  1
  Ba  Ba5  1  0.692528  0.522126  0.500000  1
  Ba  Ba6  1  0.477874  0.977874  0.170402  1
  Ba  Ba7  1  0.807472  0.307472  0.829598  1
  Ba  Ba8  1  0.977874  0.807472  0.500000  1
  Ba  Ba9  1  0.307472  0.477874  0.500000  1
  Ge  Ge10  1  0.888953  0.388953  0.277907  1
  Ge  Ge11  1  0.111047  0.611047  0.722093  1
  Ge  Ge12  1  0.388953  0.111047  0.500000  1
  Ge  Ge13  1  0.611047  0.888953  0.500000  1
  Bi  Bi14  1  0.250000  0.250000  0.000000  1
  Bi  Bi15  1  0.750000  0.750000  0.000000  1
  H  H16  1  0.250000  0.750000  0.500000  1
  H  H17  1  0.750000  0.250000  0.500000  1
