# generated using pymatgen
data_Ho4Tc3Ge8Mo3
_symmetry_space_group_name_H-M   'P 1'
_cell_length_a   6.99452041
_cell_length_b   6.86359866
_cell_length_c   7.00149661
_cell_angle_alpha   70.32560128
_cell_angle_beta   89.88254879
_cell_angle_gamma   90.13075072
_symmetry_Int_Tables_number   1
_chemical_formula_structural   Ho4Tc3Ge8Mo3
_chemical_formula_sum   'Ho4 Tc3 Ge8 Mo3'
_cell_volume   316.50006185
_cell_formula_units_Z   1
loop_
 _symmetry_equiv_pos_site_id
 _symmetry_equiv_pos_as_xyz
  1  'x, y, z'
loop_
 _atom_site_type_symbol
 _atom_site_label
 _atom_site_symmetry_multiplicity
 _atom_site_fract_x
 _atom_site_fract_y
 _atom_site_fract_z
 _atom_site_occupancy
  Ho  Ho0  1  0.330139  0.555926  0.807475  1
  Ho  Ho1  1  0.828593  0.944836  0.190867  1
  Ho  Ho2  1  0.670699  0.444251  0.193716  1
  Ho  Ho3  1  0.169968  0.054623  0.808663  1
  Tc  Tc4  1  0.497727  0.001753  0.500485  1
  Tc  Tc5  1  0.999454  0.497165  0.499673  1
  Tc  Tc6  1  0.844661  0.750504  0.764561  1
  Ge  Ge7  1  0.549469  0.864333  0.901051  1
  Ge  Ge8  1  0.046638  0.634071  0.097579  1
  Ge  Ge9  1  0.453628  0.138114  0.094588  1
  Ge  Ge10  1  0.953549  0.367425  0.900810  1
  Ge  Ge11  1  0.137492  0.863345  0.494260  1
  Ge  Ge12  1  0.642934  0.636562  0.509405  1
  Ge  Ge13  1  0.859361  0.130550  0.507041  1
  Ge  Ge14  1  0.358620  0.366391  0.492736  1
  Mo  Mo15  1  0.342752  0.749510  0.240756  1
  Mo  Mo16  1  0.156492  0.247131  0.241594  1
  Mo  Mo17  1  0.657825  0.253511  0.754740  1
