# generated using pymatgen
data_ZrPa2(AlNi)3
_symmetry_space_group_name_H-M   'P 1'
_cell_length_a   6.59527700
_cell_length_b   6.73203192
_cell_length_c   4.01109300
_cell_angle_alpha   90.00000000
_cell_angle_beta   90.00000000
_cell_angle_gamma   119.33422825
_symmetry_Int_Tables_number   1
_chemical_formula_structural   ZrPa2(AlNi)3
_chemical_formula_sum   'Zr1 Pa2 Al3 Ni3'
_cell_volume   155.25558329
_cell_formula_units_Z   1
loop_
 _symmetry_equiv_pos_site_id
 _symmetry_equiv_pos_as_xyz
  1  'x, y, z'
loop_
 _atom_site_type_symbol
 _atom_site_label
 _atom_site_symmetry_multiplicity
 _atom_site_fract_x
 _atom_site_fract_y
 _atom_site_fract_z
 _atom_site_occupancy
  Zr  Zr0  1  0.414660  0.999986  0.500000  1
  Pa  Pa1  1  0.000320  0.422370  0.500000  1
  Pa  Pa2  1  0.577893  0.577678  0.500000  1
  Al  Al3  1  0.010803  0.771520  0.000000  1
  Al  Al4  1  0.239263  0.228465  0.000000  1
  Al  Al5  1  0.749890  0.000000  0.000000  1
  Ni  Ni6  1  0.995572  0.000007  0.500000  1
  Ni  Ni7  1  0.333185  0.654756  0.000000  1
  Ni  Ni8  1  0.678414  0.345217  0.000000  1
