# generated using pymatgen
data_Yb4NiOs5Ru2
_symmetry_space_group_name_H-M   'P 1'
_cell_length_a   5.28320165
_cell_length_b   5.28320324
_cell_length_c   8.75607000
_cell_angle_alpha   90.00000000
_cell_angle_beta   90.00000000
_cell_angle_gamma   121.72440185
_symmetry_Int_Tables_number   1
_chemical_formula_structural   Yb4NiOs5Ru2
_chemical_formula_sum   'Yb4 Ni1 Os5 Ru2'
_cell_volume   207.88473122
_cell_formula_units_Z   1
loop_
 _symmetry_equiv_pos_site_id
 _symmetry_equiv_pos_as_xyz
  1  'x, y, z'
loop_
 _atom_site_type_symbol
 _atom_site_label
 _atom_site_symmetry_multiplicity
 _atom_site_fract_x
 _atom_site_fract_y
 _atom_site_fract_z
 _atom_site_occupancy
  Yb  Yb0  1  0.333149  0.666851  0.432561  1
  Yb  Yb1  1  0.668943  0.331057  0.561586  1
  Yb  Yb2  1  0.668943  0.331057  0.938414  1
  Yb  Yb3  1  0.333149  0.666851  0.067439  1
  Ni  Ni4  1  0.822989  0.177011  0.250000  1
  Os  Os5  1  0.816618  0.660428  0.250000  1
  Os  Os6  1  0.339572  0.183382  0.250000  1
  Os  Os7  1  0.166032  0.833968  0.750000  1
  Os  Os8  1  0.171417  0.344287  0.750000  1
  Os  Os9  1  0.655713  0.828583  0.750000  1
  Ru  Ru10  1  0.011737  0.988263  0.493032  1
  Ru  Ru11  1  0.011737  0.988263  0.006968  1
