# generated using pymatgen
data_Ta6Al4BAu2C
_symmetry_space_group_name_H-M   'P 1'
_cell_length_a   8.46112868
_cell_length_b   8.46112796
_cell_length_c   8.42364000
_cell_angle_alpha   60.14645551
_cell_angle_beta   60.14645829
_cell_angle_gamma   60.31903315
_symmetry_Int_Tables_number   1
_chemical_formula_structural   Ta6Al4BAu2C
_chemical_formula_sum   'Ta12 Al8 B2 Au4 C2'
_cell_volume   428.39071887
_cell_formula_units_Z   2
loop_
 _symmetry_equiv_pos_site_id
 _symmetry_equiv_pos_as_xyz
  1  'x, y, z'
loop_
 _atom_site_type_symbol
 _atom_site_label
 _atom_site_symmetry_multiplicity
 _atom_site_fract_x
 _atom_site_fract_y
 _atom_site_fract_z
 _atom_site_occupancy
  Ta  Ta0  1  0.568443  0.927039  0.569331  1
  Ta  Ta1  1  0.322961  0.681557  0.680669  1
  Ta  Ta2  1  0.681557  0.322961  0.314813  1
  Ta  Ta3  1  0.322961  0.681557  0.314813  1
  Ta  Ta4  1  0.680124  0.680124  0.319876  1
  Ta  Ta5  1  0.317983  0.317983  0.682017  1
  Ta  Ta6  1  0.569876  0.569876  0.930124  1
  Ta  Ta7  1  0.927039  0.568443  0.569331  1
  Ta  Ta8  1  0.568443  0.927039  0.935187  1
  Ta  Ta9  1  0.932017  0.932017  0.567983  1
  Ta  Ta10  1  0.681557  0.322961  0.680669  1
  Ta  Ta11  1  0.927039  0.568443  0.935187  1
  Al  Al12  1  0.913375  0.913375  0.913161  1
  Al  Al13  1  0.990742  0.336072  0.336593  1
  Al  Al14  1  0.336072  0.990742  0.336593  1
  Al  Al15  1  0.336625  0.336625  0.989910  1
  Al  Al16  1  0.913928  0.259258  0.913407  1
  Al  Al17  1  0.913375  0.913375  0.260090  1
  Al  Al18  1  0.259258  0.913928  0.913407  1
  Al  Al19  1  0.336625  0.336625  0.336839  1
  B  B20  1  0.125000  0.625000  0.625000  1
  B  B21  1  0.625000  0.125000  0.625000  1
  Au  Au22  1  0.125000  0.125000  0.125000  1
  Au  Au23  1  0.625000  0.125000  0.125000  1
  Au  Au24  1  0.125000  0.625000  0.125000  1
  Au  Au25  1  0.125000  0.125000  0.625000  1
  C  C26  1  0.625000  0.625000  0.625000  1
  C  C27  1  0.625000  0.625000  0.125000  1
