# generated using pymatgen
data_SbIrSe4
_symmetry_space_group_name_H-M   'P 1'
_cell_length_a   7.37322687
_cell_length_b   7.37322786
_cell_length_c   6.58051839
_cell_angle_alpha   63.59101194
_cell_angle_beta   63.59101790
_cell_angle_gamma   30.09432059
_symmetry_Int_Tables_number   1
_chemical_formula_structural   SbIrSe4
_chemical_formula_sum   'Sb1 Ir1 Se4'
_cell_volume   159.22480623
_cell_formula_units_Z   1
loop_
 _symmetry_equiv_pos_site_id
 _symmetry_equiv_pos_as_xyz
  1  'x, y, z'
loop_
 _atom_site_type_symbol
 _atom_site_label
 _atom_site_symmetry_multiplicity
 _atom_site_fract_x
 _atom_site_fract_y
 _atom_site_fract_z
 _atom_site_occupancy
  Sb  Sb0  1  0.000000  0.000000  0.000000  1
  Ir  Ir1  1  0.500000  0.500000  0.500000  1
  Se  Se2  1  0.893789  0.893789  0.459108  1
  Se  Se3  1  0.618478  0.618478  0.075919  1
  Se  Se4  1  0.106211  0.106211  0.540892  1
  Se  Se5  1  0.381522  0.381522  0.924081  1
