# generated using pymatgen
data_Lu4B16Os3Ru
_symmetry_space_group_name_H-M   'P 1'
_cell_length_a   3.53269800
_cell_length_b   5.91134603
_cell_length_c   11.43175006
_cell_angle_alpha   89.98837059
_cell_angle_beta   90.00000000
_cell_angle_gamma   90.00000000
_symmetry_Int_Tables_number   1
_chemical_formula_structural   Lu4B16Os3Ru
_chemical_formula_sum   'Lu4 B16 Os3 Ru1'
_cell_volume   238.72923498
_cell_formula_units_Z   1
loop_
 _symmetry_equiv_pos_site_id
 _symmetry_equiv_pos_as_xyz
  1  'x, y, z'
loop_
 _atom_site_type_symbol
 _atom_site_label
 _atom_site_symmetry_multiplicity
 _atom_site_fract_x
 _atom_site_fract_y
 _atom_site_fract_z
 _atom_site_occupancy
  Lu  Lu0  1  0.000000  0.629224  0.350379  1
  Lu  Lu1  1  0.000000  0.370771  0.649536  1
  Lu  Lu2  1  0.000000  0.129300  0.150043  1
  Lu  Lu3  1  0.000000  0.870642  0.849960  1
  B  B4  1  0.500000  0.791702  0.186612  1
  B  B5  1  0.500000  0.208240  0.813438  1
  B  B6  1  0.500000  0.291646  0.313650  1
  B  B7  1  0.500000  0.708450  0.686245  1
  B  B8  1  0.500000  0.864998  0.029596  1
  B  B9  1  0.500000  0.134988  0.970313  1
  B  B10  1  0.500000  0.365187  0.470249  1
  B  B11  1  0.500000  0.634836  0.529981  1
  B  B12  1  0.500000  0.886912  0.452554  1
  B  B13  1  0.500000  0.113105  0.547421  1
  B  B14  1  0.500000  0.386751  0.047556  1
  B  B15  1  0.500000  0.613276  0.952382  1
  B  B16  1  0.500000  0.976953  0.307199  1
  B  B17  1  0.500000  0.022747  0.692839  1
  B  B18  1  0.500000  0.476741  0.192758  1
  B  B19  1  0.500000  0.523630  0.807149  1
  Os  Os20  1  0.000000  0.643054  0.093974  1
  Os  Os21  1  0.000000  0.356952  0.906084  1
  Os  Os22  1  0.000000  0.142132  0.406142  1
  Ru  Ru23  1  0.000000  0.857763  0.593940  1
