# generated using pymatgen
data_Sr2MoH9
_symmetry_space_group_name_H-M   'P 1'
_cell_length_a   9.07945800
_cell_length_b   9.07945689
_cell_length_c   5.16004600
_cell_angle_alpha   90.00000000
_cell_angle_beta   90.00000000
_cell_angle_gamma   120.00000404
_symmetry_Int_Tables_number   1
_chemical_formula_structural   Sr2MoH9
_chemical_formula_sum   'Sr6 Mo3 H27'
_cell_volume   368.38673383
_cell_formula_units_Z   3
loop_
 _symmetry_equiv_pos_site_id
 _symmetry_equiv_pos_as_xyz
  1  'x, y, z'
loop_
 _atom_site_type_symbol
 _atom_site_label
 _atom_site_symmetry_multiplicity
 _atom_site_fract_x
 _atom_site_fract_y
 _atom_site_fract_z
 _atom_site_occupancy
  Sr  Sr0  1  0.000000  0.267608  0.500000  1
  Sr  Sr1  1  0.732392  0.732392  0.500000  1
  Sr  Sr2  1  0.267608  0.000000  0.500000  1
  Sr  Sr3  1  0.000000  0.609632  0.000000  1
  Sr  Sr4  1  0.390368  0.390368  0.000000  1
  Sr  Sr5  1  0.609632  0.000000  0.000000  1
  Mo  Mo6  1  0.666667  0.333333  0.500000  1
  Mo  Mo7  1  0.333333  0.666667  0.500000  1
  Mo  Mo8  1  0.000000  0.000000  0.000000  1
  H  H9  1  0.802335  0.330674  0.752450  1
  H  H10  1  0.669326  0.471660  0.752450  1
  H  H11  1  0.528340  0.197665  0.752450  1
  H  H12  1  0.197665  0.528340  0.247550  1
  H  H13  1  0.528340  0.197665  0.247550  1
  H  H14  1  0.802335  0.330674  0.247550  1
  H  H15  1  0.669326  0.471660  0.247550  1
  H  H16  1  0.330674  0.802335  0.752450  1
  H  H17  1  0.471660  0.669326  0.752450  1
  H  H18  1  0.199231  0.000000  0.000000  1
  H  H19  1  0.800769  0.800769  0.000000  1
  H  H20  1  0.000000  0.199231  0.000000  1
  H  H21  1  0.856381  0.000000  0.246488  1
  H  H22  1  0.143619  0.143619  0.753512  1
  H  H23  1  0.000000  0.856381  0.753512  1
  H  H24  1  0.000000  0.856381  0.246488  1
  H  H25  1  0.143619  0.143619  0.246488  1
  H  H26  1  0.856381  0.000000  0.753512  1
  H  H27  1  0.139099  0.669877  0.500000  1
  H  H28  1  0.530778  0.860901  0.500000  1
  H  H29  1  0.330123  0.469222  0.500000  1
  H  H30  1  0.469222  0.330123  0.500000  1
  H  H31  1  0.860901  0.530778  0.500000  1
  H  H32  1  0.669877  0.139099  0.500000  1
  H  H33  1  0.197665  0.528340  0.752450  1
  H  H34  1  0.330674  0.802335  0.247550  1
  H  H35  1  0.471660  0.669326  0.247550  1
