# generated using pymatgen
data_TbTm(TaSe2)8
_symmetry_space_group_name_H-M   'P 1'
_cell_length_a   7.00320300
_cell_length_b   7.00320177
_cell_length_c   14.08439800
_cell_angle_alpha   90.00000000
_cell_angle_beta   90.00000000
_cell_angle_gamma   120.00001052
_symmetry_Int_Tables_number   1
_chemical_formula_structural   TbTm(TaSe2)8
_chemical_formula_sum   'Tb1 Tm1 Ta8 Se16'
_cell_volume   598.22179156
_cell_formula_units_Z   1
loop_
 _symmetry_equiv_pos_site_id
 _symmetry_equiv_pos_as_xyz
  1  'x, y, z'
loop_
 _atom_site_type_symbol
 _atom_site_label
 _atom_site_symmetry_multiplicity
 _atom_site_fract_x
 _atom_site_fract_y
 _atom_site_fract_z
 _atom_site_occupancy
  Tb  Tb0  1  0.000000  0.000000  0.000000  1
  Tm  Tm1  1  0.000000  0.000000  0.500000  1
  Ta  Ta2  1  0.509988  0.490012  0.745848  1
  Ta  Ta3  1  0.019976  0.509988  0.254152  1
  Ta  Ta4  1  0.490012  0.980024  0.254152  1
  Ta  Ta5  1  0.509988  0.019976  0.745848  1
  Ta  Ta6  1  0.980024  0.490012  0.745848  1
  Ta  Ta7  1  0.490012  0.509988  0.254152  1
  Ta  Ta8  1  0.000000  0.000000  0.745717  1
  Ta  Ta9  1  0.000000  0.000000  0.254283  1
  Se  Se10  1  0.828736  0.171264  0.370594  1
  Se  Se11  1  0.828736  0.657471  0.370594  1
  Se  Se12  1  0.342529  0.171264  0.370594  1
  Se  Se13  1  0.659167  0.829583  0.862207  1
  Se  Se14  1  0.171264  0.342529  0.629406  1
  Se  Se15  1  0.170417  0.829583  0.862207  1
  Se  Se16  1  0.170417  0.340833  0.862207  1
  Se  Se17  1  0.829583  0.170417  0.137793  1
  Se  Se18  1  0.340833  0.170417  0.137793  1
  Se  Se19  1  0.657471  0.828736  0.629406  1
  Se  Se20  1  0.333333  0.666667  0.129254  1
  Se  Se21  1  0.666667  0.333333  0.621029  1
  Se  Se22  1  0.666667  0.333333  0.870746  1
  Se  Se23  1  0.333333  0.666667  0.378971  1
  Se  Se24  1  0.829583  0.659167  0.137793  1
  Se  Se25  1  0.171264  0.828736  0.629406  1
