# generated using pymatgen
data_Tb5Ga7Ni12
_symmetry_space_group_name_H-M   'P 1'
_cell_length_a   5.15984701
_cell_length_b   5.15984642
_cell_length_c   15.91278600
_cell_angle_alpha   80.66950443
_cell_angle_beta   80.66950551
_cell_angle_gamma   59.99998774
_symmetry_Int_Tables_number   1
_chemical_formula_structural   Tb5Ga7Ni12
_chemical_formula_sum   'Tb5 Ga7 Ni12'
_cell_volume   360.41537528
_cell_formula_units_Z   1
loop_
 _symmetry_equiv_pos_site_id
 _symmetry_equiv_pos_as_xyz
  1  'x, y, z'
loop_
 _atom_site_type_symbol
 _atom_site_label
 _atom_site_symmetry_multiplicity
 _atom_site_fract_x
 _atom_site_fract_y
 _atom_site_fract_z
 _atom_site_occupancy
  Tb  Tb0  1  0.000000  0.000000  0.000000  1
  Tb  Tb1  1  0.925266  0.925266  0.224206  1
  Tb  Tb2  1  0.074734  0.074734  0.775794  1
  Tb  Tb3  1  0.849955  0.849955  0.450137  1
  Tb  Tb4  1  0.150045  0.150045  0.549863  1
  Ga  Ga5  1  0.500000  0.500000  0.500000  1
  Ga  Ga6  1  0.750333  0.750334  0.749000  1
  Ga  Ga7  1  0.249666  0.249666  0.251001  1
  Ga  Ga8  1  0.666537  0.666537  0.000392  1
  Ga  Ga9  1  0.333463  0.333463  0.999608  1
  Ga  Ga10  1  0.582744  0.582744  0.251771  1
  Ga  Ga11  1  0.417256  0.417256  0.748229  1
  Ni  Ni12  1  0.372775  0.372775  0.374470  1
  Ni  Ni13  1  0.879981  0.372775  0.374470  1
  Ni  Ni14  1  0.372775  0.879981  0.374470  1
  Ni  Ni15  1  0.627225  0.627225  0.625530  1
  Ni  Ni16  1  0.120019  0.627225  0.625530  1
  Ni  Ni17  1  0.627225  0.120019  0.625530  1
  Ni  Ni18  1  0.458452  0.458452  0.124426  1
  Ni  Ni19  1  0.958671  0.458452  0.124426  1
  Ni  Ni20  1  0.458452  0.958671  0.124426  1
  Ni  Ni21  1  0.541548  0.541548  0.875574  1
  Ni  Ni22  1  0.041329  0.541548  0.875574  1
  Ni  Ni23  1  0.541548  0.041329  0.875574  1
