# generated using pymatgen
data_DyErSbRhO7
_symmetry_space_group_name_H-M   'P 1'
_cell_length_a   7.28838898
_cell_length_b   7.24887968
_cell_length_c   7.28838971
_cell_angle_alpha   60.17916492
_cell_angle_beta   60.82921901
_cell_angle_gamma   60.17916314
_symmetry_Int_Tables_number   1
_chemical_formula_structural   DyErSbRhO7
_chemical_formula_sum   'Dy2 Er2 Sb2 Rh2 O14'
_cell_volume   274.69618572
_cell_formula_units_Z   2
loop_
 _symmetry_equiv_pos_site_id
 _symmetry_equiv_pos_as_xyz
  1  'x, y, z'
loop_
 _atom_site_type_symbol
 _atom_site_label
 _atom_site_symmetry_multiplicity
 _atom_site_fract_x
 _atom_site_fract_y
 _atom_site_fract_z
 _atom_site_occupancy
  Dy  Dy0  1  0.125000  0.125000  0.625000  1
  Dy  Dy1  1  0.625000  0.125000  0.125000  1
  Er  Er2  1  0.125000  0.625000  0.125000  1
  Er  Er3  1  0.125000  0.125000  0.125000  1
  Sb  Sb4  1  0.125000  0.625000  0.625000  1
  Sb  Sb5  1  0.625000  0.625000  0.125000  1
  Rh  Rh6  1  0.625000  0.625000  0.625000  1
  Rh  Rh7  1  0.625000  0.125000  0.625000  1
  O  O8  1  0.283036  0.706793  0.719720  1
  O  O9  1  0.530280  0.959548  0.966964  1
  O  O10  1  0.724770  0.275230  0.724770  1
  O  O11  1  0.283036  0.290452  0.719720  1
  O  O12  1  0.719720  0.706793  0.283036  1
  O  O13  1  0.005221  0.994779  0.005221  1
  O  O14  1  0.294500  0.705500  0.294500  1
  O  O15  1  0.955500  0.544500  0.955500  1
  O  O16  1  0.966964  0.959548  0.530280  1
  O  O17  1  0.530280  0.543207  0.966964  1
  O  O18  1  0.244779  0.255221  0.244779  1
  O  O19  1  0.525230  0.974770  0.525230  1
  O  O20  1  0.719720  0.290452  0.283036  1
  O  O21  1  0.966964  0.543207  0.530280  1
