# generated using pymatgen
data_CePrTm6(CdIr)2
_symmetry_space_group_name_H-M   'P 1'
_cell_length_a   9.61258566
_cell_length_b   9.61252481
_cell_length_c   9.60543305
_cell_angle_alpha   60.01434173
_cell_angle_beta   60.01487324
_cell_angle_gamma   59.77756809
_symmetry_Int_Tables_number   1
_chemical_formula_structural   CePrTm6(CdIr)2
_chemical_formula_sum   'Ce2 Pr2 Tm12 Cd4 Ir4'
_cell_volume   626.67128854
_cell_formula_units_Z   2
loop_
 _symmetry_equiv_pos_site_id
 _symmetry_equiv_pos_as_xyz
  1  'x, y, z'
loop_
 _atom_site_type_symbol
 _atom_site_label
 _atom_site_symmetry_multiplicity
 _atom_site_fract_x
 _atom_site_fract_y
 _atom_site_fract_z
 _atom_site_occupancy
  Ce  Ce0  1  0.347641  0.347640  0.346411  1
  Ce  Ce1  1  0.347604  0.347604  0.958314  1
  Pr  Pr2  1  0.568198  0.568197  0.931804  1
  Pr  Pr3  1  0.935682  0.935683  0.564327  1
  Tm  Tm4  1  0.350158  0.948968  0.350455  1
  Tm  Tm5  1  0.948969  0.350158  0.350454  1
  Tm  Tm6  1  0.814110  0.187102  0.187225  1
  Tm  Tm7  1  0.187092  0.814147  0.811556  1
  Tm  Tm8  1  0.187102  0.814110  0.187225  1
  Tm  Tm9  1  0.814148  0.187093  0.811555  1
  Tm  Tm10  1  0.187472  0.187472  0.812511  1
  Tm  Tm11  1  0.812112  0.812112  0.187895  1
  Tm  Tm12  1  0.942041  0.558360  0.559202  1
  Tm  Tm13  1  0.558362  0.942026  0.940417  1
  Tm  Tm14  1  0.558360  0.942041  0.559202  1
  Tm  Tm15  1  0.942025  0.558362  0.940417  1
  Cd  Cd16  1  0.581838  0.581837  0.576337  1
  Cd  Cd17  1  0.581796  0.581796  0.259955  1
  Cd  Cd18  1  0.576399  0.256364  0.583567  1
  Cd  Cd19  1  0.256364  0.576400  0.583568  1
  Ir  Ir20  1  0.144315  0.144315  0.137961  1
  Ir  Ir21  1  0.144410  0.144410  0.573320  1
  Ir  Ir22  1  0.139500  0.574300  0.143160  1
  Ir  Ir23  1  0.574300  0.139501  0.143160  1
