# generated using pymatgen
data_Pr4Ga10IrPd5
_symmetry_space_group_name_H-M   'P 1'
_cell_length_a   8.74939849
_cell_length_b   8.75502233
_cell_length_c   8.75502308
_cell_angle_alpha   140.64912232
_cell_angle_beta   107.89003632
_cell_angle_gamma   85.39288039
_symmetry_Int_Tables_number   1
_chemical_formula_structural   Pr4Ga10IrPd5
_chemical_formula_sum   'Pr4 Ga10 Ir1 Pd5'
_cell_volume   390.69563384
_cell_formula_units_Z   1
loop_
 _symmetry_equiv_pos_site_id
 _symmetry_equiv_pos_as_xyz
  1  'x, y, z'
loop_
 _atom_site_type_symbol
 _atom_site_label
 _atom_site_symmetry_multiplicity
 _atom_site_fract_x
 _atom_site_fract_y
 _atom_site_fract_z
 _atom_site_occupancy
  Pr  Pr0  1  0.861845  0.636480  0.225366  1
  Pr  Pr1  1  0.136967  0.364094  0.772873  1
  Pr  Pr2  1  0.410812  0.136117  0.274695  1
  Pr  Pr3  1  0.589478  0.861815  0.727663  1
  Ga  Ga4  1  0.498877  0.748019  0.245070  1
  Ga  Ga5  1  0.498877  0.253807  0.750858  1
  Ga  Ga6  1  0.208909  0.959912  0.750031  1
  Ga  Ga7  1  0.787951  0.540029  0.749273  1
  Ga  Ga8  1  0.787951  0.038678  0.247922  1
  Ga  Ga9  1  0.208909  0.458878  0.248997  1
  Ga  Ga10  1  0.069822  0.904098  0.165724  1
  Ga  Ga11  1  0.930499  0.095777  0.834722  1
  Ga  Ga12  1  0.739741  0.405409  0.334331  1
  Ga  Ga13  1  0.266173  0.597007  0.669166  1
  Ir  Ir14  1  0.549555  0.645001  0.904555  1
  Pd  Pd15  1  0.000850  0.749823  0.750556  1
  Pd  Pd16  1  0.000850  0.250294  0.251026  1
  Pd  Pd17  1  0.259570  0.855092  0.404478  1
  Pd  Pd18  1  0.741184  0.144479  0.596706  1
  Pd  Pd19  1  0.451181  0.355191  0.095989  1
