# generated using pymatgen
data_Ho8Th4Os3Ru
_symmetry_space_group_name_H-M   'P 1'
_cell_length_a   6.36032093
_cell_length_b   7.29049309
_cell_length_c   9.46388400
_cell_angle_alpha   90.00000000
_cell_angle_beta   90.00000000
_cell_angle_gamma   90.04582321
_symmetry_Int_Tables_number   1
_chemical_formula_structural   Ho8Th4Os3Ru
_chemical_formula_sum   'Ho8 Th4 Os3 Ru1'
_cell_volume   438.83898535
_cell_formula_units_Z   1
loop_
 _symmetry_equiv_pos_site_id
 _symmetry_equiv_pos_as_xyz
  1  'x, y, z'
loop_
 _atom_site_type_symbol
 _atom_site_label
 _atom_site_symmetry_multiplicity
 _atom_site_fract_x
 _atom_site_fract_y
 _atom_site_fract_z
 _atom_site_occupancy
  Ho  Ho0  1  0.334156  0.674874  0.067997  1
  Ho  Ho1  1  0.164982  0.174975  0.434206  1
  Ho  Ho2  1  0.666518  0.324477  0.566063  1
  Ho  Ho3  1  0.836869  0.826326  0.934863  1
  Ho  Ho4  1  0.666518  0.324477  0.933937  1
  Ho  Ho5  1  0.836869  0.826326  0.565137  1
  Ho  Ho6  1  0.334156  0.674874  0.432003  1
  Ho  Ho7  1  0.164982  0.174975  0.065794  1
  Th  Th8  1  0.849992  0.543979  0.250000  1
  Th  Th9  1  0.650832  0.043371  0.250000  1
  Th  Th10  1  0.151508  0.455469  0.750000  1
  Th  Th11  1  0.349819  0.951603  0.750000  1
  Os  Os12  1  0.039807  0.871921  0.250000  1
  Os  Os13  1  0.460157  0.371201  0.250000  1
  Os  Os14  1  0.961478  0.128537  0.750000  1
  Ru  Ru15  1  0.531353  0.632613  0.750000  1
