# generated using pymatgen
data_Tb14Er2MgNi4Hg3
_symmetry_space_group_name_H-M   'P 1'
_cell_length_a   9.53652369
_cell_length_b   9.55443753
_cell_length_c   9.53674801
_cell_angle_alpha   60.05720671
_cell_angle_beta   59.99617574
_cell_angle_gamma   60.10984822
_symmetry_Int_Tables_number   1
_chemical_formula_structural   Tb14Er2MgNi4Hg3
_chemical_formula_sum   'Tb14 Er2 Mg1 Ni4 Hg3'
_cell_volume   615.19799387
_cell_formula_units_Z   1
loop_
 _symmetry_equiv_pos_site_id
 _symmetry_equiv_pos_as_xyz
  1  'x, y, z'
loop_
 _atom_site_type_symbol
 _atom_site_label
 _atom_site_symmetry_multiplicity
 _atom_site_fract_x
 _atom_site_fract_y
 _atom_site_fract_z
 _atom_site_occupancy
  Tb  Tb0  1  0.186686  0.813631  0.814385  1
  Tb  Tb1  1  0.811622  0.187492  0.186528  1
  Tb  Tb2  1  0.811629  0.187491  0.814362  1
  Tb  Tb3  1  0.186693  0.813618  0.185310  1
  Tb  Tb4  1  0.812103  0.814050  0.186927  1
  Tb  Tb5  1  0.186604  0.186803  0.813298  1
  Tb  Tb6  1  0.597977  0.597012  0.598024  1
  Tb  Tb7  1  0.598011  0.597043  0.206962  1
  Tb  Tb8  1  0.600953  0.203000  0.598056  1
  Tb  Tb9  1  0.194775  0.603158  0.601069  1
  Tb  Tb10  1  0.060042  0.440164  0.439966  1
  Tb  Tb11  1  0.435018  0.064036  0.062554  1
  Tb  Tb12  1  0.435026  0.063996  0.438393  1
  Tb  Tb13  1  0.060078  0.440156  0.059796  1
  Er  Er14  1  0.437092  0.439743  0.061543  1
  Er  Er15  1  0.058524  0.060043  0.440717  1
  Mg  Mg16  1  0.535245  0.820407  0.822168  1
  Ni  Ni17  1  0.390500  0.393850  0.393804  1
  Ni  Ni18  1  0.390525  0.393847  0.821806  1
  Ni  Ni19  1  0.388294  0.823660  0.394027  1
  Ni  Ni20  1  0.823225  0.390779  0.393000  1
  Hg  Hg21  1  0.833149  0.836140  0.835747  1
  Hg  Hg22  1  0.833147  0.836138  0.494972  1
  Hg  Hg23  1  0.833082  0.493742  0.836584  1
