# generated using pymatgen
data_Sr8Ca5Th7Pt16
_symmetry_space_group_name_H-M   'P 1'
_cell_length_a   7.89184918
_cell_length_b   7.97333111
_cell_length_c   15.05220000
_cell_angle_alpha   90.03459306
_cell_angle_beta   89.96869436
_cell_angle_gamma   90.10605449
_symmetry_Int_Tables_number   1
_chemical_formula_structural   Sr8Ca5Th7Pt16
_chemical_formula_sum   'Sr8 Ca5 Th7 Pt16'
_cell_volume   947.14761205
_cell_formula_units_Z   1
loop_
 _symmetry_equiv_pos_site_id
 _symmetry_equiv_pos_as_xyz
  1  'x, y, z'
loop_
 _atom_site_type_symbol
 _atom_site_label
 _atom_site_symmetry_multiplicity
 _atom_site_fract_x
 _atom_site_fract_y
 _atom_site_fract_z
 _atom_site_occupancy
  Sr  Sr0  1  0.499854  0.328898  0.900894  1
  Sr  Sr1  1  0.993292  0.175824  0.599780  1
  Sr  Sr2  1  0.505366  0.676242  0.401980  1
  Sr  Sr3  1  0.003194  0.821603  0.093733  1
  Sr  Sr4  1  0.505960  0.675611  0.096784  1
  Sr  Sr5  1  0.005052  0.823837  0.402162  1
  Sr  Sr6  1  0.494395  0.323951  0.600200  1
  Sr  Sr7  1  0.993084  0.178669  0.900768  1
  Ca  Ca8  1  0.840081  0.666204  0.879394  1
  Ca  Ca9  1  0.174494  0.485895  0.752881  1
  Ca  Ca10  1  0.683590  0.012438  0.751653  1
  Ca  Ca11  1  0.818727  0.518426  0.249393  1
  Ca  Ca12  1  0.318014  0.981229  0.249283  1
  Th  Th13  1  0.339219  0.837623  0.878954  1
  Th  Th14  1  0.838891  0.660772  0.622581  1
  Th  Th15  1  0.661340  0.162758  0.379013  1
  Th  Th16  1  0.159777  0.336546  0.120642  1
  Th  Th17  1  0.661344  0.162973  0.120732  1
  Th  Th18  1  0.160556  0.337610  0.378400  1
  Th  Th19  1  0.338110  0.835931  0.622150  1
  Pt  Pt20  1  0.328129  0.049883  0.043017  1
  Pt  Pt21  1  0.831500  0.449882  0.456708  1
  Pt  Pt22  1  0.668216  0.948796  0.543187  1
  Pt  Pt23  1  0.178147  0.546160  0.959417  1
  Pt  Pt24  1  0.662062  0.962348  0.957565  1
  Pt  Pt25  1  0.168592  0.548005  0.543054  1
  Pt  Pt26  1  0.331903  0.050307  0.456843  1
  Pt  Pt27  1  0.837171  0.446375  0.046746  1
  Pt  Pt28  1  0.538540  0.644656  0.748723  1
  Pt  Pt29  1  0.048372  0.855785  0.745157  1
  Pt  Pt30  1  0.457316  0.354178  0.250310  1
  Pt  Pt31  1  0.958469  0.141602  0.250909  1
  Pt  Pt32  1  0.311889  0.111552  0.752040  1
  Pt  Pt33  1  0.801489  0.387827  0.746383  1
  Pt  Pt34  1  0.691908  0.890558  0.249197  1
  Pt  Pt35  1  0.191952  0.609044  0.249365  1
