# generated using pymatgen
data_ZrSc15(ZnNi)4
_symmetry_space_group_name_H-M   'P 1'
_cell_length_a   8.74620788
_cell_length_b   8.74546980
_cell_length_c   8.74744509
_cell_angle_alpha   60.09051023
_cell_angle_beta   60.06163216
_cell_angle_gamma   60.10664154
_symmetry_Int_Tables_number   1
_chemical_formula_structural   ZrSc15(ZnNi)4
_chemical_formula_sum   'Zr1 Sc15 Zn4 Ni4'
_cell_volume   474.04231835
_cell_formula_units_Z   1
loop_
 _symmetry_equiv_pos_site_id
 _symmetry_equiv_pos_as_xyz
  1  'x, y, z'
loop_
 _atom_site_type_symbol
 _atom_site_label
 _atom_site_symmetry_multiplicity
 _atom_site_fract_x
 _atom_site_fract_y
 _atom_site_fract_z
 _atom_site_occupancy
  Zr  Zr0  1  0.355953  0.355812  0.355806  1
  Sc  Sc1  1  0.356732  0.356867  0.930452  1
  Sc  Sc2  1  0.356822  0.930263  0.356763  1
  Sc  Sc3  1  0.930240  0.356812  0.357038  1
  Sc  Sc4  1  0.810569  0.189237  0.189285  1
  Sc  Sc5  1  0.189375  0.810462  0.810455  1
  Sc  Sc6  1  0.189145  0.810670  0.189137  1
  Sc  Sc7  1  0.810681  0.189264  0.810413  1
  Sc  Sc8  1  0.189339  0.189253  0.810496  1
  Sc  Sc9  1  0.810440  0.810399  0.189400  1
  Sc  Sc10  1  0.937117  0.563864  0.563762  1
  Sc  Sc11  1  0.564242  0.936063  0.935853  1
  Sc  Sc12  1  0.563831  0.936989  0.563856  1
  Sc  Sc13  1  0.935834  0.564375  0.935901  1
  Sc  Sc14  1  0.563807  0.563857  0.937012  1
  Sc  Sc15  1  0.936047  0.936050  0.564109  1
  Zn  Zn16  1  0.580879  0.581085  0.581021  1
  Zn  Zn17  1  0.580643  0.580723  0.257287  1
  Zn  Zn18  1  0.580471  0.257416  0.580689  1
  Zn  Zn19  1  0.257415  0.580559  0.580747  1
  Ni  Ni20  1  0.145845  0.145873  0.146129  1
  Ni  Ni21  1  0.146206  0.145837  0.562322  1
  Ni  Ni22  1  0.145929  0.562323  0.146222  1
  Ni  Ni23  1  0.562436  0.145948  0.145845  1
