# generated using pymatgen
data_TaMn8NbRu2
_symmetry_space_group_name_H-M   'P 1'
_cell_length_a   4.70261900
_cell_length_b   4.70261794
_cell_length_c   7.80131900
_cell_angle_alpha   90.00000000
_cell_angle_beta   90.00000000
_cell_angle_gamma   120.00001453
_symmetry_Int_Tables_number   1
_chemical_formula_structural   TaMn8NbRu2
_chemical_formula_sum   'Ta1 Mn8 Nb1 Ru2'
_cell_volume   149.40945961
_cell_formula_units_Z   1
loop_
 _symmetry_equiv_pos_site_id
 _symmetry_equiv_pos_as_xyz
  1  'x, y, z'
loop_
 _atom_site_type_symbol
 _atom_site_label
 _atom_site_symmetry_multiplicity
 _atom_site_fract_x
 _atom_site_fract_y
 _atom_site_fract_z
 _atom_site_occupancy
  Ta  Ta0  1  0.333333  0.666667  0.440731  1
  Mn  Mn1  1  0.173093  0.346186  0.750010  1
  Mn  Mn2  1  0.826218  0.173782  0.250179  1
  Mn  Mn3  1  0.347563  0.173782  0.250179  1
  Mn  Mn4  1  0.653814  0.826907  0.750010  1
  Mn  Mn5  1  0.000000  0.000000  0.999117  1
  Mn  Mn6  1  0.000000  0.000000  0.500342  1
  Mn  Mn7  1  0.826218  0.652437  0.250179  1
  Mn  Mn8  1  0.173093  0.826907  0.750010  1
  Nb  Nb9  1  0.333333  0.666667  0.060286  1
  Ru  Ru10  1  0.666667  0.333333  0.922848  1
  Ru  Ru11  1  0.666667  0.333333  0.576108  1
