# generated using pymatgen
data_La6OsCl10
_symmetry_space_group_name_H-M   'P 1'
_cell_length_a   7.62987523
_cell_length_b   9.20417887
_cell_length_c   9.54682389
_cell_angle_alpha   109.13215812
_cell_angle_beta   97.22561801
_cell_angle_gamma   106.54890298
_symmetry_Int_Tables_number   1
_chemical_formula_structural   La6OsCl10
_chemical_formula_sum   'La6 Os1 Cl10'
_cell_volume   589.13059187
_cell_formula_units_Z   1
loop_
 _symmetry_equiv_pos_site_id
 _symmetry_equiv_pos_as_xyz
  1  'x, y, z'
loop_
 _atom_site_type_symbol
 _atom_site_label
 _atom_site_symmetry_multiplicity
 _atom_site_fract_x
 _atom_site_fract_y
 _atom_site_fract_z
 _atom_site_occupancy
  La  La0  1  0.534005  0.205254  0.409191  1
  La  La1  1  0.465995  0.794746  0.590809  1
  La  La2  1  0.117970  0.345195  0.300111  1
  La  La3  1  0.882030  0.654805  0.699889  1
  La  La4  1  0.641627  0.558988  0.245802  1
  La  La5  1  0.358373  0.441012  0.754198  1
  Os  Os6  1  0.500000  0.500000  0.500000  1
  Cl  Cl7  1  0.152879  0.041397  0.228467  1
  Cl  Cl8  1  0.847121  0.958603  0.771533  1
  Cl  Cl9  1  0.259339  0.419404  0.053409  1
  Cl  Cl10  1  0.740661  0.580596  0.946591  1
  Cl  Cl11  1  0.702097  0.250420  0.158186  1
  Cl  Cl12  1  0.297903  0.749580  0.841814  1
  Cl  Cl13  1  0.047653  0.667494  0.423765  1
  Cl  Cl14  1  0.952347  0.332506  0.576235  1
  Cl  Cl15  1  0.414893  0.132265  0.667271  1
  Cl  Cl16  1  0.585107  0.867735  0.332729  1
