# generated using pymatgen
data_Y2InAuO7
_symmetry_space_group_name_H-M   'P 1'
_cell_length_a   7.44186175
_cell_length_b   7.45410546
_cell_length_c   7.44165643
_cell_angle_alpha   59.94032651
_cell_angle_beta   59.97165589
_cell_angle_gamma   59.93939030
_symmetry_Int_Tables_number   1
_chemical_formula_structural   Y2InAuO7
_chemical_formula_sum   'Y4 In2 Au2 O14'
_cell_volume   291.57038568
_cell_formula_units_Z   2
loop_
 _symmetry_equiv_pos_site_id
 _symmetry_equiv_pos_as_xyz
  1  'x, y, z'
loop_
 _atom_site_type_symbol
 _atom_site_label
 _atom_site_symmetry_multiplicity
 _atom_site_fract_x
 _atom_site_fract_y
 _atom_site_fract_z
 _atom_site_occupancy
  Y  Y0  1  0.500007  0.000001  0.499998  1
  Y  Y1  1  0.999997  0.500009  0.499995  1
  Y  Y2  1  0.499995  0.500003  0.999996  1
  Y  Y3  1  0.499997  0.500002  0.500006  1
  In  In4  1  0.000007  0.499986  0.000001  1
  In  In5  1  0.999996  0.999990  0.000002  1
  Au  Au6  1  0.499994  0.000064  0.999963  1
  Au  Au7  1  0.999966  0.000005  0.499991  1
  O  O8  1  0.619624  0.630374  0.619623  1
  O  O9  1  0.380375  0.369633  0.380377  1
  O  O10  1  0.355767  0.914039  0.895911  1
  O  O11  1  0.104085  0.665714  0.644213  1
  O  O12  1  0.896501  0.353506  0.896498  1
  O  O13  1  0.895921  0.914050  0.355785  1
  O  O14  1  0.355805  0.334244  0.895927  1
  O  O15  1  0.333503  0.916505  0.333514  1
  O  O16  1  0.895917  0.334280  0.355794  1
  O  O17  1  0.644220  0.665704  0.104087  1
  O  O18  1  0.104093  0.085967  0.644223  1
  O  O19  1  0.644222  0.085963  0.104092  1
  O  O20  1  0.666508  0.083485  0.666506  1
  O  O21  1  0.103503  0.646480  0.103500  1
