# generated using pymatgen
data_V2Ga8GePb3O20
_symmetry_space_group_name_H-M   'P 1'
_cell_length_a   9.93321054
_cell_length_b   9.93321058
_cell_length_c   5.24342314
_cell_angle_alpha   74.85782915
_cell_angle_beta   74.85783363
_cell_angle_gamma   73.37515818
_symmetry_Int_Tables_number   1
_chemical_formula_structural   V2Ga8GePb3O20
_chemical_formula_sum   'V2 Ga8 Ge1 Pb3 O20'
_cell_volume   468.69695453
_cell_formula_units_Z   1
loop_
 _symmetry_equiv_pos_site_id
 _symmetry_equiv_pos_as_xyz
  1  'x, y, z'
loop_
 _atom_site_type_symbol
 _atom_site_label
 _atom_site_symmetry_multiplicity
 _atom_site_fract_x
 _atom_site_fract_y
 _atom_site_fract_z
 _atom_site_occupancy
  V  V0  1  0.633128  0.366872  0.500000  1
  V  V1  1  0.366872  0.633128  0.500000  1
  Ga  Ga2  1  0.280213  0.008324  0.372455  1
  Ga  Ga3  1  0.991676  0.719787  0.627545  1
  Ga  Ga4  1  0.719787  0.991676  0.627545  1
  Ga  Ga5  1  0.008324  0.280213  0.372455  1
  Ga  Ga6  1  0.578280  0.149329  0.107141  1
  Ga  Ga7  1  0.850671  0.421720  0.892859  1
  Ga  Ga8  1  0.421720  0.850671  0.892859  1
  Ga  Ga9  1  0.149329  0.578280  0.107141  1
  Ge  Ge10  1  0.500000  0.500000  0.000000  1
  Pb  Pb11  1  0.000000  0.000000  0.000000  1
  Pb  Pb12  1  0.723542  0.723542  0.211164  1
  Pb  Pb13  1  0.276458  0.276458  0.788836  1
  O  O14  1  0.565157  0.565157  0.253423  1
  O  O15  1  0.434843  0.434843  0.746577  1
  O  O16  1  0.097711  0.097711  0.303292  1
  O  O17  1  0.902289  0.902289  0.696708  1
  O  O18  1  0.396153  0.124149  0.132794  1
  O  O19  1  0.875851  0.603847  0.867206  1
  O  O20  1  0.603847  0.875851  0.867206  1
  O  O21  1  0.124149  0.396153  0.132794  1
  O  O22  1  0.340534  0.831141  0.264790  1
  O  O23  1  0.168859  0.659466  0.735210  1
  O  O24  1  0.659466  0.168859  0.735210  1
  O  O25  1  0.831141  0.340534  0.264790  1
  O  O26  1  0.991713  0.281688  0.732317  1
  O  O27  1  0.718312  0.008287  0.267683  1
  O  O28  1  0.008287  0.718312  0.267683  1
  O  O29  1  0.281688  0.991713  0.732317  1
  O  O30  1  0.684686  0.454773  0.764462  1
  O  O31  1  0.545227  0.315314  0.235538  1
  O  O32  1  0.315314  0.545227  0.235538  1
  O  O33  1  0.454773  0.684686  0.764462  1
