# generated using pymatgen
data_Ta12Al8Co3CuC4
_symmetry_space_group_name_H-M   'P 1'
_cell_length_a   8.22286286
_cell_length_b   8.22286336
_cell_length_c   8.23536500
_cell_angle_alpha   120.05030960
_cell_angle_beta   90.00000000
_cell_angle_gamma   119.89938777
_symmetry_Int_Tables_number   1
_chemical_formula_structural   Ta12Al8Co3CuC4
_chemical_formula_sum   'Ta12 Al8 Co3 Cu1 C4'
_cell_volume   394.04252394
_cell_formula_units_Z   1
loop_
 _symmetry_equiv_pos_site_id
 _symmetry_equiv_pos_as_xyz
  1  'x, y, z'
loop_
 _atom_site_type_symbol
 _atom_site_label
 _atom_site_symmetry_multiplicity
 _atom_site_fract_x
 _atom_site_fract_y
 _atom_site_fract_z
 _atom_site_occupancy
  Ta  Ta0  1  0.437327  0.750763  0.062673  1
  Ta  Ta1  1  0.810138  0.746819  0.056957  1
  Ta  Ta2  1  0.811912  0.125346  0.062673  1
  Ta  Ta3  1  0.562673  0.249239  0.311912  1
  Ta  Ta4  1  0.556957  0.620276  0.310138  1
  Ta  Ta5  1  0.189863  0.253183  0.310139  1
  Ta  Ta6  1  0.437327  0.750763  0.688089  1
  Ta  Ta7  1  0.810138  0.746819  0.689863  1
  Ta  Ta8  1  0.443043  0.379723  0.689863  1
  Ta  Ta9  1  0.562673  0.249239  0.937328  1
  Ta  Ta10  1  0.189863  0.253183  0.943045  1
  Ta  Ta11  1  0.188089  0.874656  0.937329  1
  Al  Al12  1  0.206061  0.587878  0.293939  1
  Al  Al13  1  0.877359  0.579946  0.289974  1
  Al  Al14  1  0.210026  0.912614  0.289974  1
  Al  Al15  1  0.789974  0.087386  0.377360  1
  Al  Al16  1  0.210026  0.912614  0.622640  1
  Al  Al17  1  0.122640  0.420053  0.710026  1
  Al  Al18  1  0.789974  0.087386  0.710026  1
  Al  Al19  1  0.793939  0.412121  0.706062  1
  Co  Co20  1  0.000000  0.500000  0.000000  1
  Co  Co21  1  0.500000  0.000000  0.500000  1
  Co  Co22  1  0.000000  0.500000  0.500000  1
  Cu  Cu23  1  0.000000  0.000000  0.500000  1
  C  C24  1  0.000000  0.000000  0.000000  1
  C  C25  1  0.500000  0.000000  0.000000  1
  C  C26  1  0.500000  0.500000  0.000000  1
  C  C27  1  0.500000  0.500000  0.500000  1
