# generated using pymatgen
data_KEu(MoO4)2
_symmetry_space_group_name_H-M   'P 1'
_cell_length_a   6.10507422
_cell_length_b   6.12221867
_cell_length_c   7.61990931
_cell_angle_alpha   90.07093797
_cell_angle_beta   90.01238411
_cell_angle_gamma   119.87888809
_symmetry_Int_Tables_number   1
_chemical_formula_structural   KEu(MoO4)2
_chemical_formula_sum   'K1 Eu1 Mo2 O8'
_cell_volume   246.94964664
_cell_formula_units_Z   1
loop_
 _symmetry_equiv_pos_site_id
 _symmetry_equiv_pos_as_xyz
  1  'x, y, z'
loop_
 _atom_site_type_symbol
 _atom_site_label
 _atom_site_symmetry_multiplicity
 _atom_site_fract_x
 _atom_site_fract_y
 _atom_site_fract_z
 _atom_site_occupancy
  K  K0  1  0.000000  0.000000  0.499999  1
  Eu  Eu1  1  0.000000  0.000000  0.000000  1
  Mo  Mo2  1  0.666493  0.333545  0.268132  1
  Mo  Mo3  1  0.333506  0.666454  0.731868  1
  O  O4  1  0.341499  0.171039  0.192544  1
  O  O5  1  0.829095  0.170964  0.192253  1
  O  O6  1  0.828337  0.657239  0.192171  1
  O  O7  1  0.333341  0.666592  0.502218  1
  O  O8  1  0.666658  0.333407  0.497783  1
  O  O9  1  0.171661  0.342760  0.807829  1
  O  O10  1  0.170905  0.829035  0.807747  1
  O  O11  1  0.658500  0.828960  0.807456  1
