# generated using pymatgen
data_Tb5TaCoO12
_symmetry_space_group_name_H-M   'P 1'
_cell_length_a   6.84071598
_cell_length_b   6.84071732
_cell_length_c   7.36040425
_cell_angle_alpha   74.30387234
_cell_angle_beta   74.30386630
_cell_angle_gamma   50.73749107
_symmetry_Int_Tables_number   1
_chemical_formula_structural   Tb5TaCoO12
_chemical_formula_sum   'Tb5 Ta1 Co1 O12'
_cell_volume   254.44505926
_cell_formula_units_Z   1
loop_
 _symmetry_equiv_pos_site_id
 _symmetry_equiv_pos_as_xyz
  1  'x, y, z'
loop_
 _atom_site_type_symbol
 _atom_site_label
 _atom_site_symmetry_multiplicity
 _atom_site_fract_x
 _atom_site_fract_y
 _atom_site_fract_z
 _atom_site_occupancy
  Tb  Tb0  1  0.683256  0.700426  0.667916  1
  Tb  Tb1  1  0.683715  0.709127  0.141433  1
  Tb  Tb2  1  0.003383  0.996617  0.000000  1
  Tb  Tb3  1  0.290873  0.316285  0.858567  1
  Tb  Tb4  1  0.299574  0.316744  0.332084  1
  Ta  Ta5  1  0.785634  0.214366  0.500000  1
  Co  Co6  1  0.261191  0.738809  0.500000  1
  O  O7  1  0.398336  0.911634  0.924484  1
  O  O8  1  0.570128  0.100332  0.580987  1
  O  O9  1  0.899668  0.429872  0.419013  1
  O  O10  1  0.088366  0.601664  0.075516  1
  O  O11  1  0.017353  0.983402  0.313497  1
  O  O12  1  0.498800  0.501013  0.677907  1
  O  O13  1  0.894187  0.408699  0.924112  1
  O  O14  1  0.101054  0.582404  0.580134  1
  O  O15  1  0.417596  0.898946  0.419866  1
  O  O16  1  0.591301  0.105813  0.075888  1
  O  O17  1  0.498987  0.501200  0.322093  1
  O  O18  1  0.016598  0.982647  0.686503  1
