# generated using pymatgen
data_Tm9LuCd3Ru
_symmetry_space_group_name_H-M   'P 1'
_cell_length_a   9.44500600
_cell_length_b   9.44500588
_cell_length_c   9.72365800
_cell_angle_alpha   90.00000000
_cell_angle_beta   90.00000000
_cell_angle_gamma   120.00000041
_symmetry_Int_Tables_number   1
_chemical_formula_structural   Tm9LuCd3Ru
_chemical_formula_sum   'Tm18 Lu2 Cd6 Ru2'
_cell_volume   751.21590828
_cell_formula_units_Z   2
loop_
 _symmetry_equiv_pos_site_id
 _symmetry_equiv_pos_as_xyz
  1  'x, y, z'
loop_
 _atom_site_type_symbol
 _atom_site_label
 _atom_site_symmetry_multiplicity
 _atom_site_fract_x
 _atom_site_fract_y
 _atom_site_fract_z
 _atom_site_occupancy
  Tm  Tm0  1  0.209843  0.790157  0.440876  1
  Tm  Tm1  1  0.209843  0.419686  0.440876  1
  Tm  Tm2  1  0.580314  0.790157  0.440876  1
  Tm  Tm3  1  0.790157  0.209843  0.559124  1
  Tm  Tm4  1  0.790157  0.580314  0.559124  1
  Tm  Tm5  1  0.419686  0.209843  0.559124  1
  Tm  Tm6  1  0.790157  0.209843  0.940876  1
  Tm  Tm7  1  0.790157  0.580314  0.940876  1
  Tm  Tm8  1  0.419686  0.209843  0.940876  1
  Tm  Tm9  1  0.209843  0.790157  0.059124  1
  Tm  Tm10  1  0.209843  0.419686  0.059124  1
  Tm  Tm11  1  0.580314  0.790157  0.059124  1
  Tm  Tm12  1  0.540945  0.459055  0.250000  1
  Tm  Tm13  1  0.540945  0.081890  0.250000  1
  Tm  Tm14  1  0.918110  0.459055  0.250000  1
  Tm  Tm15  1  0.459055  0.540945  0.750000  1
  Tm  Tm16  1  0.459055  0.918110  0.750000  1
  Tm  Tm17  1  0.081890  0.540945  0.750000  1
  Lu  Lu18  1  0.000000  0.000000  0.500000  1
  Lu  Lu19  1  0.000000  0.000000  0.000000  1
  Cd  Cd20  1  0.885929  0.114071  0.250000  1
  Cd  Cd21  1  0.885929  0.771859  0.250000  1
  Cd  Cd22  1  0.228141  0.114071  0.250000  1
  Cd  Cd23  1  0.114071  0.885929  0.750000  1
  Cd  Cd24  1  0.114071  0.228141  0.750000  1
  Cd  Cd25  1  0.771859  0.885929  0.750000  1
  Ru  Ru26  1  0.333333  0.666667  0.250000  1
  Ru  Ru27  1  0.666667  0.333333  0.750000  1
