# generated using pymatgen
data_Tb15Er(ZnCo)4
_symmetry_space_group_name_H-M   'P 1'
_cell_length_a   9.39267774
_cell_length_b   9.39267775
_cell_length_c   9.39571700
_cell_angle_alpha   59.98929911
_cell_angle_beta   59.98929909
_cell_angle_gamma   59.99696818
_symmetry_Int_Tables_number   1
_chemical_formula_structural   Tb15Er(ZnCo)4
_chemical_formula_sum   'Tb15 Er1 Zn4 Co4'
_cell_volume   586.02151616
_cell_formula_units_Z   1
loop_
 _symmetry_equiv_pos_site_id
 _symmetry_equiv_pos_as_xyz
  1  'x, y, z'
loop_
 _atom_site_type_symbol
 _atom_site_label
 _atom_site_symmetry_multiplicity
 _atom_site_fract_x
 _atom_site_fract_y
 _atom_site_fract_z
 _atom_site_occupancy
  Tb  Tb0  1  0.599424  0.599424  0.600201  1
  Tb  Tb1  1  0.188972  0.811251  0.812532  1
  Tb  Tb2  1  0.059142  0.059142  0.440858  1
  Tb  Tb3  1  0.440432  0.059656  0.059482  1
  Tb  Tb4  1  0.811251  0.188972  0.812532  1
  Tb  Tb5  1  0.440432  0.059656  0.440428  1
  Tb  Tb6  1  0.600528  0.199751  0.599861  1
  Tb  Tb7  1  0.812067  0.812067  0.187933  1
  Tb  Tb8  1  0.199751  0.600528  0.599861  1
  Tb  Tb9  1  0.811251  0.188972  0.187245  1
  Tb  Tb10  1  0.059656  0.440432  0.440428  1
  Tb  Tb11  1  0.188972  0.811251  0.187245  1
  Tb  Tb12  1  0.599424  0.599424  0.200951  1
  Tb  Tb13  1  0.188475  0.188475  0.811525  1
  Tb  Tb14  1  0.059656  0.440432  0.059482  1
  Er  Er15  1  0.441227  0.441227  0.058773  1
  Zn  Zn16  1  0.827158  0.827158  0.518099  1
  Zn  Zn17  1  0.827158  0.827158  0.827583  1
  Zn  Zn18  1  0.516434  0.826869  0.828348  1
  Zn  Zn19  1  0.826869  0.516434  0.828348  1
  Co  Co20  1  0.391763  0.391763  0.390108  1
  Co  Co21  1  0.826117  0.392074  0.390905  1
  Co  Co22  1  0.392074  0.826117  0.390905  1
  Co  Co23  1  0.391763  0.391763  0.826366  1
