# generated using pymatgen
data_Ce(Ga2Au)2
_symmetry_space_group_name_H-M   'P 1'
_cell_length_a   4.57691700
_cell_length_b   6.80911000
_cell_length_c   17.51725900
_cell_angle_alpha   90.00000000
_cell_angle_beta   90.00000000
_cell_angle_gamma   90.00000000
_symmetry_Int_Tables_number   1
_chemical_formula_structural   Ce(Ga2Au)2
_chemical_formula_sum   'Ce4 Ga16 Au8'
_cell_volume   545.92067009
_cell_formula_units_Z   4
loop_
 _symmetry_equiv_pos_site_id
 _symmetry_equiv_pos_as_xyz
  1  'x, y, z'
loop_
 _atom_site_type_symbol
 _atom_site_label
 _atom_site_symmetry_multiplicity
 _atom_site_fract_x
 _atom_site_fract_y
 _atom_site_fract_z
 _atom_site_occupancy
  Ce  Ce0  1  0.750000  0.983293  0.860314  1
  Ce  Ce1  1  0.250000  0.016707  0.139686  1
  Ce  Ce2  1  0.250000  0.483293  0.639686  1
  Ce  Ce3  1  0.750000  0.516707  0.360314  1
  Ga  Ga4  1  0.250000  0.271736  0.814110  1
  Ga  Ga5  1  0.750000  0.728264  0.185890  1
  Ga  Ga6  1  0.750000  0.771736  0.685890  1
  Ga  Ga7  1  0.250000  0.228264  0.314110  1
  Ga  Ga8  1  0.250000  0.675118  0.817248  1
  Ga  Ga9  1  0.750000  0.324882  0.182752  1
  Ga  Ga10  1  0.750000  0.175118  0.682752  1
  Ga  Ga11  1  0.250000  0.824882  0.317248  1
  Ga  Ga12  1  0.250000  0.160954  0.961317  1
  Ga  Ga13  1  0.750000  0.839046  0.038683  1
  Ga  Ga14  1  0.750000  0.660954  0.538683  1
  Ga  Ga15  1  0.250000  0.339046  0.461317  1
  Ga  Ga16  1  0.250000  0.474438  0.067186  1
  Ga  Ga17  1  0.750000  0.525562  0.932814  1
  Ga  Ga18  1  0.750000  0.974438  0.432814  1
  Ga  Ga19  1  0.250000  0.025562  0.567186  1
  Au  Au20  1  0.250000  0.761028  0.966691  1
  Au  Au21  1  0.750000  0.238972  0.033309  1
  Au  Au22  1  0.750000  0.261028  0.533309  1
  Au  Au23  1  0.250000  0.738972  0.466691  1
  Au  Au24  1  0.250000  0.969317  0.716066  1
  Au  Au25  1  0.750000  0.030683  0.283934  1
  Au  Au26  1  0.750000  0.469317  0.783934  1
  Au  Au27  1  0.250000  0.530683  0.216066  1
