# generated using pymatgen
data_Lu10In8CuRh3
_symmetry_space_group_name_H-M   'P 1'
_cell_length_a   3.53057200
_cell_length_b   7.98825184
_cell_length_c   17.95870534
_cell_angle_alpha   89.86660096
_cell_angle_beta   90.00000000
_cell_angle_gamma   90.00000000
_symmetry_Int_Tables_number   1
_chemical_formula_structural   Lu10In8CuRh3
_chemical_formula_sum   'Lu10 In8 Cu1 Rh3'
_cell_volume   506.48975901
_cell_formula_units_Z   1
loop_
 _symmetry_equiv_pos_site_id
 _symmetry_equiv_pos_as_xyz
  1  'x, y, z'
loop_
 _atom_site_type_symbol
 _atom_site_label
 _atom_site_symmetry_multiplicity
 _atom_site_fract_x
 _atom_site_fract_y
 _atom_site_fract_z
 _atom_site_occupancy
  Lu  Lu0  1  0.000000  0.499887  0.500378  1
  Lu  Lu1  1  0.000000  0.000478  0.999834  1
  Lu  Lu2  1  0.000000  0.732096  0.278016  1
  Lu  Lu3  1  0.000000  0.257701  0.721806  1
  Lu  Lu4  1  0.000000  0.757660  0.778403  1
  Lu  Lu5  1  0.000000  0.251566  0.220207  1
  Lu  Lu6  1  0.000000  0.615842  0.085640  1
  Lu  Lu7  1  0.000000  0.384071  0.912506  1
  Lu  Lu8  1  0.000000  0.883783  0.587408  1
  Lu  Lu9  1  0.000000  0.117703  0.415207  1
  In  In10  1  0.500000  0.708300  0.933022  1
  In  In11  1  0.500000  0.292474  0.066879  1
  In  In12  1  0.500000  0.792598  0.432855  1
  In  In13  1  0.500000  0.207902  0.567744  1
  In  In14  1  0.500000  0.575346  0.649308  1
  In  In15  1  0.500000  0.423193  0.351067  1
  In  In16  1  0.500000  0.921801  0.149927  1
  In  In17  1  0.500000  0.074253  0.850705  1
  Cu  Cu18  1  0.500000  0.021322  0.303507  1
  Rh  Rh19  1  0.500000  0.523538  0.195595  1
  Rh  Rh20  1  0.500000  0.479762  0.804555  1
  Rh  Rh21  1  0.500000  0.978724  0.695429  1
