# generated using pymatgen
data_TbEr3MoRu7
_symmetry_space_group_name_H-M   'P 1'
_cell_length_a   5.46213200
_cell_length_b   5.17983025
_cell_length_c   9.01730261
_cell_angle_alpha   89.96323722
_cell_angle_beta   90.00000000
_cell_angle_gamma   121.81984252
_symmetry_Int_Tables_number   1
_chemical_formula_structural   TbEr3MoRu7
_chemical_formula_sum   'Tb1 Er3 Mo1 Ru7'
_cell_volume   216.78291137
_cell_formula_units_Z   1
loop_
 _symmetry_equiv_pos_site_id
 _symmetry_equiv_pos_as_xyz
  1  'x, y, z'
loop_
 _atom_site_type_symbol
 _atom_site_label
 _atom_site_symmetry_multiplicity
 _atom_site_fract_x
 _atom_site_fract_y
 _atom_site_fract_z
 _atom_site_occupancy
  Tb  Tb0  1  0.335858  0.671717  0.432546  1
  Er  Er1  1  0.673087  0.346174  0.563960  1
  Er  Er2  1  0.673247  0.346495  0.936807  1
  Er  Er3  1  0.335487  0.670975  0.067449  1
  Mo  Mo4  1  0.160756  0.321511  0.750786  1
  Ru  Ru5  1  0.170597  0.820715  0.750836  1
  Ru  Ru6  1  0.329395  0.161615  0.248836  1
  Ru  Ru7  1  0.819743  0.639487  0.249058  1
  Ru  Ru8  1  0.650118  0.820715  0.750836  1
  Ru  Ru9  1  0.010025  0.020050  0.001941  1
  Ru  Ru10  1  0.832221  0.161615  0.248836  1
  Ru  Ru11  1  0.009466  0.018930  0.498110  1
