# generated using pymatgen
data_Cs2TiTc11Te14
_symmetry_space_group_name_H-M   'P 1'
_cell_length_a   10.28358253
_cell_length_b   10.27379571
_cell_length_c   10.29322958
_cell_angle_alpha   61.77239179
_cell_angle_beta   61.48898121
_cell_angle_gamma   61.91618305
_symmetry_Int_Tables_number   1
_chemical_formula_structural   Cs2TiTc11Te14
_chemical_formula_sum   'Cs2 Ti1 Tc11 Te14'
_cell_volume   798.69616985
_cell_formula_units_Z   1
loop_
 _symmetry_equiv_pos_site_id
 _symmetry_equiv_pos_as_xyz
  1  'x, y, z'
loop_
 _atom_site_type_symbol
 _atom_site_label
 _atom_site_symmetry_multiplicity
 _atom_site_fract_x
 _atom_site_fract_y
 _atom_site_fract_z
 _atom_site_occupancy
  Cs  Cs0  1  0.617089  0.616434  0.615700  1
  Cs  Cs1  1  0.382805  0.383286  0.383906  1
  Ti  Ti2  1  0.713952  0.878351  0.992692  1
  Tc  Tc3  1  0.998167  0.708816  0.878096  1
  Tc  Tc4  1  0.873909  0.001730  0.709910  1
  Tc  Tc5  1  0.295877  0.123677  0.995400  1
  Tc  Tc6  1  0.999472  0.292155  0.126546  1
  Tc  Tc7  1  0.124629  0.997208  0.293648  1
  Tc  Tc8  1  0.941608  0.808547  0.109922  1
  Tc  Tc9  1  0.102745  0.939755  0.812667  1
  Tc  Tc10  1  0.809636  0.108697  0.940977  1
  Tc  Tc11  1  0.058621  0.187911  0.897765  1
  Tc  Tc12  1  0.895078  0.058116  0.187313  1
  Tc  Tc13  1  0.185255  0.894678  0.061382  1
  Te  Te14  1  0.415164  0.817177  0.166133  1
  Te  Te15  1  0.166799  0.418377  0.817245  1
  Te  Te16  1  0.815128  0.164432  0.420111  1
  Te  Te17  1  0.579679  0.196532  0.824490  1
  Te  Te18  1  0.838391  0.574935  0.184234  1
  Te  Te19  1  0.178641  0.835506  0.580152  1
  Te  Te20  1  0.647072  0.985440  0.242369  1
  Te  Te21  1  0.238218  0.645347  0.985048  1
  Te  Te22  1  0.984028  0.238821  0.647662  1
  Te  Te23  1  0.352976  0.015679  0.762932  1
  Te  Te24  1  0.761968  0.354412  0.018455  1
  Te  Te25  1  0.016141  0.760883  0.355496  1
  Te  Te26  1  0.779209  0.771122  0.767746  1
  Te  Te27  1  0.227745  0.221975  0.222004  1
