# generated using pymatgen
data_Nd4MnNi3(BO2)20
_symmetry_space_group_name_H-M   'P 1'
_cell_length_a   7.69086217
_cell_length_b   8.73661967
_cell_length_c   9.56977287
_cell_angle_alpha   92.92652692
_cell_angle_beta   90.15106266
_cell_angle_gamma   90.00213726
_symmetry_Int_Tables_number   1
_chemical_formula_structural   Nd4MnNi3(BO2)20
_chemical_formula_sum   'Nd4 Mn1 Ni3 B20 O40'
_cell_volume   642.17265378
_cell_formula_units_Z   1
loop_
 _symmetry_equiv_pos_site_id
 _symmetry_equiv_pos_as_xyz
  1  'x, y, z'
loop_
 _atom_site_type_symbol
 _atom_site_label
 _atom_site_symmetry_multiplicity
 _atom_site_fract_x
 _atom_site_fract_y
 _atom_site_fract_z
 _atom_site_occupancy
  Nd  Nd0  1  0.681961  0.316757  0.262941  1
  Nd  Nd1  1  0.182360  0.182263  0.236337  1
  Nd  Nd2  1  0.317076  0.683242  0.735405  1
  Nd  Nd3  1  0.818402  0.816865  0.764053  1
  Mn  Mn4  1  0.910203  0.899571  0.376891  1
  Ni  Ni5  1  0.410785  0.603044  0.126627  1
  Ni  Ni6  1  0.091553  0.107277  0.631098  1
  Ni  Ni7  1  0.588920  0.396555  0.872537  1
  B  B8  1  0.814241  0.567997  0.086006  1
  B  B9  1  0.316549  0.933512  0.415091  1
  B  B10  1  0.186305  0.431312  0.912695  1
  B  B11  1  0.686564  0.072706  0.593476  1
  B  B12  1  0.099522  0.653515  0.498482  1
  B  B13  1  0.598497  0.842232  0.997901  1
  B  B14  1  0.899936  0.342437  0.498877  1
  B  B15  1  0.400433  0.156904  0.001714  1
  B  B16  1  0.034370  0.779552  0.053709  1
  B  B17  1  0.530511  0.719429  0.444472  1
  B  B18  1  0.965873  0.220976  0.944767  1
  B  B19  1  0.466870  0.280539  0.556572  1
  B  B20  1  0.825258  0.015151  0.104410  1
  B  B21  1  0.325429  0.482667  0.392856  1
  B  B22  1  0.174580  0.984639  0.893626  1
  B  B23  1  0.675024  0.515926  0.606190  1
  B  B24  1  0.079206  0.584206  0.238397  1
  B  B25  1  0.575847  0.910685  0.258083  1
  B  B26  1  0.922554  0.413408  0.758752  1
  B  B27  1  0.421580  0.088767  0.742091  1
  O  O28  1  0.948521  0.261033  0.381529  1
  O  O29  1  0.449549  0.236636  0.119618  1
  O  O30  1  0.047292  0.736245  0.613923  1
  O  O31  1  0.549749  0.762019  0.880147  1
  O  O32  1  0.159669  0.008193  0.435664  1
  O  O33  1  0.652885  0.497928  0.069045  1
  O  O34  1  0.848417  0.005233  0.579530  1
  O  O35  1  0.347280  0.501786  0.930062  1
  O  O36  1  0.876273  0.684788  0.009311  1
  O  O37  1  0.375582  0.815226  0.491394  1
  O  O38  1  0.123153  0.315858  0.990357  1
  O  O39  1  0.623471  0.185342  0.512540  1
  O  O40  1  0.724849  0.955353  0.984033  1
  O  O41  1  0.226812  0.542046  0.514521  1
  O  O42  1  0.274255  0.043555  0.014975  1
  O  O43  1  0.773171  0.455359  0.484591  1
  O  O44  1  0.890507  0.172182  0.080231  1
  O  O45  1  0.394250  0.328034  0.419473  1
  O  O46  1  0.107854  0.827746  0.917086  1
  O  O47  1  0.606438  0.670912  0.580256  1
  O  O48  1  0.975030  0.915496  0.143234  1
  O  O49  1  0.469800  0.586136  0.351193  1
  O  O50  1  0.027819  0.087103  0.853031  1
  O  O51  1  0.528709  0.414303  0.649069  1
  O  O52  1  0.152503  0.683262  0.132892  1
  O  O53  1  0.647328  0.813495  0.365276  1
  O  O54  1  0.847897  0.315918  0.864428  1
  O  O55  1  0.348244  0.187307  0.636892  1
  O  O56  1  0.913682  0.511515  0.192273  1
  O  O57  1  0.412148  0.984771  0.304233  1
  O  O58  1  0.087746  0.486268  0.804993  1
  O  O59  1  0.585721  0.015109  0.697743  1
  O  O60  1  0.037485  0.680437  0.367162  1
  O  O61  1  0.533943  0.812710  0.128024  1
  O  O62  1  0.965951  0.315361  0.629144  1
  O  O63  1  0.464454  0.187126  0.871947  1
  O  O64  1  0.211386  0.465512  0.266590  1
  O  O65  1  0.710550  0.028281  0.230547  1
  O  O66  1  0.790828  0.532179  0.730853  1
  O  O67  1  0.288400  0.970102  0.768134  1
