# generated using pymatgen
data_Rb2Sn(AuS2)2
_symmetry_space_group_name_H-M   'P 1'
_cell_length_a   7.73747523
_cell_length_b   8.75217193
_cell_length_c   9.59419573
_cell_angle_alpha   71.11791095
_cell_angle_beta   81.11364541
_cell_angle_gamma   66.77044665
_symmetry_Int_Tables_number   1
_chemical_formula_structural   Rb2Sn(AuS2)2
_chemical_formula_sum   'Rb4 Sn2 Au4 S8'
_cell_volume   564.64688141
_cell_formula_units_Z   2
loop_
 _symmetry_equiv_pos_site_id
 _symmetry_equiv_pos_as_xyz
  1  'x, y, z'
loop_
 _atom_site_type_symbol
 _atom_site_label
 _atom_site_symmetry_multiplicity
 _atom_site_fract_x
 _atom_site_fract_y
 _atom_site_fract_z
 _atom_site_occupancy
  Rb  Rb0  1  0.781012  0.814623  0.420051  1
  Rb  Rb1  1  0.218988  0.185377  0.579949  1
  Rb  Rb2  1  0.029550  0.251631  0.077023  1
  Rb  Rb3  1  0.970450  0.748369  0.922977  1
  Sn  Sn4  1  0.619328  0.287357  0.802576  1
  Sn  Sn5  1  0.380672  0.712643  0.197424  1
  Au  Au6  1  0.534413  0.704741  0.838659  1
  Au  Au7  1  0.268045  0.662474  0.572975  1
  Au  Au8  1  0.465587  0.295259  0.161341  1
  Au  Au9  1  0.731955  0.337526  0.427025  1
  S  S10  1  0.719512  0.575524  0.225621  1
  S  S11  1  0.758315  0.103822  0.636065  1
  S  S12  1  0.306343  0.904882  0.946025  1
  S  S13  1  0.225453  0.503337  0.252532  1
  S  S14  1  0.280488  0.424476  0.774379  1
  S  S15  1  0.693657  0.095118  0.053975  1
  S  S16  1  0.241685  0.896178  0.363935  1
  S  S17  1  0.774547  0.496663  0.747468  1
