# generated using pymatgen
data_LaPr9Nd2Fe2I17
_symmetry_space_group_name_H-M   'P 1'
_cell_length_a   10.05167822
_cell_length_b   12.16818668
_cell_length_c   12.15759334
_cell_angle_alpha   74.05407227
_cell_angle_beta   75.26087168
_cell_angle_gamma   65.41526902
_symmetry_Int_Tables_number   1
_chemical_formula_structural   LaPr9Nd2Fe2I17
_chemical_formula_sum   'La1 Pr9 Nd2 Fe2 I17'
_cell_volume   1283.36761710
_cell_formula_units_Z   1
loop_
 _symmetry_equiv_pos_site_id
 _symmetry_equiv_pos_as_xyz
  1  'x, y, z'
loop_
 _atom_site_type_symbol
 _atom_site_label
 _atom_site_symmetry_multiplicity
 _atom_site_fract_x
 _atom_site_fract_y
 _atom_site_fract_z
 _atom_site_occupancy
  La  La0  1  0.147961  0.714599  0.153378  1
  Pr  Pr1  1  0.453872  0.486772  0.323223  1
  Pr  Pr2  1  0.556381  0.670279  0.007941  1
  Pr  Pr3  1  0.272220  0.988461  0.107741  1
  Pr  Pr4  1  0.861985  0.287882  0.848074  1
  Pr  Pr5  1  0.406612  0.241206  0.718075  1
  Pr  Pr6  1  0.725817  0.019719  0.890080  1
  Pr  Pr7  1  0.548550  0.504607  0.678516  1
  Pr  Pr8  1  0.451050  0.327094  0.986927  1
  Pr  Pr9  1  0.581379  0.757125  0.279605  1
  Nd  Nd10  1  0.817649  0.193142  0.587432  1
  Nd  Nd11  1  0.174934  0.810242  0.418662  1
  Fe  Fe12  1  0.359184  0.737509  0.212373  1
  Fe  Fe13  1  0.634519  0.262106  0.785933  1
  I  I14  1  0.054964  0.101283  0.326981  1
  I  I15  1  0.464524  0.948073  0.844430  1
  I  I16  1  0.426933  0.810604  0.535317  1
  I  I17  1  0.572855  0.184611  0.464376  1
  I  I18  1  0.837584  0.713201  0.046786  1
  I  I19  1  0.226523  0.417711  0.239843  1
  I  I20  1  0.688780  0.369957  0.102665  1
  I  I21  1  0.535870  0.049696  0.157723  1
  I  I22  1  0.742852  0.471699  0.416581  1
  I  I23  1  0.887925  0.784305  0.372417  1
  I  I24  1  0.946993  0.899653  0.674086  1
  I  I25  1  0.158757  0.292653  0.954742  1
  I  I26  1  0.317270  0.630063  0.897119  1
  I  I27  1  0.000701  0.002166  0.000410  1
  I  I28  1  0.112100  0.214931  0.630136  1
  I  I29  1  0.777873  0.580545  0.758182  1
  I  I30  1  0.255384  0.528103  0.580248  1
