# generated using pymatgen
data_YAlAu3
_symmetry_space_group_name_H-M   'P 1'
_cell_length_a   9.19762800
_cell_length_b   9.19762800
_cell_length_c   9.19762800
_cell_angle_alpha   90.00000000
_cell_angle_beta   90.00000000
_cell_angle_gamma   90.00000000
_symmetry_Int_Tables_number   1
_chemical_formula_structural   YAlAu3
_chemical_formula_sum   'Y8 Al8 Au24'
_cell_volume   778.08585703
_cell_formula_units_Z   8
loop_
 _symmetry_equiv_pos_site_id
 _symmetry_equiv_pos_as_xyz
  1  'x, y, z'
loop_
 _atom_site_type_symbol
 _atom_site_label
 _atom_site_symmetry_multiplicity
 _atom_site_fract_x
 _atom_site_fract_y
 _atom_site_fract_z
 _atom_site_occupancy
  Y  Y0  1  0.890714  0.390715  0.109285  1
  Y  Y1  1  0.609286  0.890714  0.109285  1
  Y  Y2  1  0.390715  0.390715  0.390715  1
  Y  Y3  1  0.109285  0.890714  0.390715  1
  Y  Y4  1  0.890714  0.109285  0.609286  1
  Y  Y5  1  0.609286  0.609286  0.609286  1
  Y  Y6  1  0.390715  0.109285  0.890714  1
  Y  Y7  1  0.109285  0.609286  0.890714  1
  Al  Al8  1  0.103716  0.103716  0.103716  1
  Al  Al9  1  0.396284  0.603716  0.103716  1
  Al  Al10  1  0.603716  0.103716  0.396284  1
  Al  Al11  1  0.896284  0.603716  0.396284  1
  Al  Al12  1  0.103716  0.396284  0.603716  1
  Al  Al13  1  0.396284  0.896284  0.603716  1
  Al  Al14  1  0.603716  0.396284  0.896284  1
  Al  Al15  1  0.896284  0.896284  0.896284  1
  Au  Au16  1  0.262433  0.357092  0.078274  1
  Au  Au17  1  0.237567  0.857091  0.078274  1
  Au  Au18  1  0.578275  0.262433  0.142908  1
  Au  Au19  1  0.921725  0.762433  0.142908  1
  Au  Au20  1  0.857091  0.078274  0.237567  1
  Au  Au21  1  0.642908  0.578275  0.237567  1
  Au  Au22  1  0.357092  0.078274  0.262433  1
  Au  Au23  1  0.142908  0.578275  0.262433  1
  Au  Au24  1  0.078274  0.262433  0.357092  1
  Au  Au25  1  0.421725  0.762433  0.357092  1
  Au  Au26  1  0.762433  0.357092  0.421725  1
  Au  Au27  1  0.737567  0.857091  0.421725  1
  Au  Au28  1  0.262433  0.142908  0.578275  1
  Au  Au29  1  0.237567  0.642908  0.578275  1
  Au  Au30  1  0.578275  0.237567  0.642908  1
  Au  Au31  1  0.921725  0.737567  0.642908  1
  Au  Au32  1  0.857091  0.421725  0.737567  1
  Au  Au33  1  0.642908  0.921725  0.737567  1
  Au  Au34  1  0.357092  0.421725  0.762433  1
  Au  Au35  1  0.142908  0.921725  0.762433  1
  Au  Au36  1  0.078274  0.237567  0.857091  1
  Au  Au37  1  0.421725  0.737567  0.857091  1
  Au  Au38  1  0.762433  0.142908  0.921725  1
  Au  Au39  1  0.737567  0.642908  0.921725  1
