# generated using pymatgen
data_Pr2NdTh5(Si3Ni)4
_symmetry_space_group_name_H-M   'P 1'
_cell_length_a   8.07265900
_cell_length_b   8.05325529
_cell_length_c   8.51414100
_cell_angle_alpha   90.00000000
_cell_angle_beta   90.00000000
_cell_angle_gamma   120.07973929
_symmetry_Int_Tables_number   1
_chemical_formula_structural   Pr2NdTh5(Si3Ni)4
_chemical_formula_sum   'Pr2 Nd1 Th5 Si12 Ni4'
_cell_volume   478.97188832
_cell_formula_units_Z   1
loop_
 _symmetry_equiv_pos_site_id
 _symmetry_equiv_pos_as_xyz
  1  'x, y, z'
loop_
 _atom_site_type_symbol
 _atom_site_label
 _atom_site_symmetry_multiplicity
 _atom_site_fract_x
 _atom_site_fract_y
 _atom_site_fract_z
 _atom_site_occupancy
  Pr  Pr0  1  0.500050  0.500053  0.250000  1
  Pr  Pr1  1  0.000002  0.500053  0.250000  1
  Nd  Nd2  1  0.000021  0.000043  0.250000  1
  Th  Th3  1  0.500007  0.500046  0.750000  1
  Th  Th4  1  0.000038  0.500046  0.750000  1
  Th  Th5  1  0.500017  0.000037  0.750000  1
  Th  Th6  1  0.500032  0.000065  0.250000  1
  Th  Th7  1  0.000009  0.000017  0.750000  1
  Si  Si8  1  0.829910  0.170408  0.999734  1
  Si  Si9  1  0.170137  0.829604  0.999742  1
  Si  Si10  1  0.340499  0.170408  0.999734  1
  Si  Si11  1  0.170137  0.829604  0.500258  1
  Si  Si12  1  0.659466  0.829604  0.999742  1
  Si  Si13  1  0.829910  0.170408  0.500266  1
  Si  Si14  1  0.828505  0.657008  0.999526  1
  Si  Si15  1  0.659466  0.829604  0.500258  1
  Si  Si16  1  0.171462  0.342925  0.999554  1
  Si  Si17  1  0.340499  0.170408  0.500266  1
  Si  Si18  1  0.171462  0.342925  0.500446  1
  Si  Si19  1  0.828505  0.657008  0.500474  1
  Ni  Ni20  1  0.665094  0.330188  0.993376  1
  Ni  Ni21  1  0.334838  0.669678  0.993225  1
  Ni  Ni22  1  0.334838  0.669678  0.506775  1
  Ni  Ni23  1  0.665094  0.330188  0.506624  1
