# generated using pymatgen
data_Ca2Yb3Si12Rh19
_symmetry_space_group_name_H-M   'P 1'
_cell_length_a   12.80032300
_cell_length_b   12.80011405
_cell_length_c   3.98351300
_cell_angle_alpha   90.00000000
_cell_angle_beta   90.00000000
_cell_angle_gamma   119.99946232
_symmetry_Int_Tables_number   1
_chemical_formula_structural   Ca2Yb3Si12Rh19
_chemical_formula_sum   'Ca2 Yb3 Si12 Rh19'
_cell_volume   565.24143656
_cell_formula_units_Z   1
loop_
 _symmetry_equiv_pos_site_id
 _symmetry_equiv_pos_as_xyz
  1  'x, y, z'
loop_
 _atom_site_type_symbol
 _atom_site_label
 _atom_site_symmetry_multiplicity
 _atom_site_fract_x
 _atom_site_fract_y
 _atom_site_fract_z
 _atom_site_occupancy
  Ca  Ca0  1  0.815910  0.815899  0.500000  1
  Ca  Ca1  1  0.184090  0.999990  0.500000  1
  Yb  Yb2  1  0.000000  0.184248  0.500000  1
  Yb  Yb3  1  0.666665  0.333243  0.000000  1
  Yb  Yb4  1  0.333335  0.666578  0.000000  1
  Si  Si5  1  0.475273  0.313171  0.500000  1
  Si  Si6  1  0.816863  0.999863  0.000000  1
  Si  Si7  1  0.183137  0.182998  0.000000  1
  Si  Si8  1  0.000000  0.817435  0.000000  1
  Si  Si9  1  0.374320  0.000069  0.000000  1
  Si  Si10  1  0.687054  0.162530  0.500000  1
  Si  Si11  1  0.837810  0.524181  0.500000  1
  Si  Si12  1  0.524727  0.837898  0.500000  1
  Si  Si13  1  0.162190  0.686370  0.500000  1
  Si  Si14  1  0.312946  0.475477  0.500000  1
  Si  Si15  1  0.000000  0.373889  0.000000  1
  Si  Si16  1  0.625680  0.625748  0.000000  1
  Rh  Rh17  1  0.808031  0.184634  0.000000  1
  Rh  Rh18  1  0.378124  0.193679  0.000000  1
  Rh  Rh19  1  0.639566  0.512202  0.500000  1
  Rh  Rh20  1  0.872840  0.359756  0.500000  1
  Rh  Rh21  1  0.360434  0.872636  0.500000  1
  Rh  Rh22  1  0.512129  0.639582  0.500000  1
  Rh  Rh23  1  0.127160  0.486916  0.500000  1
  Rh  Rh24  1  0.815317  0.621830  0.000000  1
  Rh  Rh25  1  0.621876  0.815555  0.000000  1
  Rh  Rh26  1  0.184683  0.806513  0.000000  1
  Rh  Rh27  1  0.191969  0.376602  0.000000  1
  Rh  Rh28  1  0.000000  0.721822  0.500000  1
  Rh  Rh29  1  0.277597  0.277925  0.500000  1
  Rh  Rh30  1  0.722403  0.000328  0.500000  1
  Rh  Rh31  1  0.000000  0.555976  0.000000  1
  Rh  Rh32  1  0.443281  0.444314  0.000000  1
  Rh  Rh33  1  0.556719  0.001032  0.000000  1
  Rh  Rh34  1  0.000000  0.001662  0.000000  1
  Rh  Rh35  1  0.487871  0.127454  0.500000  1
