# generated using pymatgen
data_Dy3Er7(InBi2)2
_symmetry_space_group_name_H-M   'P 1'
_cell_length_a   9.03224714
_cell_length_b   9.03224743
_cell_length_c   6.47343100
_cell_angle_alpha   90.00000000
_cell_angle_beta   90.00000000
_cell_angle_gamma   119.64198755
_symmetry_Int_Tables_number   1
_chemical_formula_structural   Dy3Er7(InBi2)2
_chemical_formula_sum   'Dy3 Er7 In2 Bi4'
_cell_volume   458.99955460
_cell_formula_units_Z   1
loop_
 _symmetry_equiv_pos_site_id
 _symmetry_equiv_pos_as_xyz
  1  'x, y, z'
loop_
 _atom_site_type_symbol
 _atom_site_label
 _atom_site_symmetry_multiplicity
 _atom_site_fract_x
 _atom_site_fract_y
 _atom_site_fract_z
 _atom_site_occupancy
  Dy  Dy0  1  0.762047  0.762047  0.750000  1
  Dy  Dy1  1  0.234400  0.997879  0.750000  1
  Dy  Dy2  1  0.997879  0.234400  0.750000  1
  Er  Er3  1  0.668973  0.329048  0.003841  1
  Er  Er4  1  0.329048  0.668973  0.003841  1
  Er  Er5  1  0.329048  0.668973  0.496159  1
  Er  Er6  1  0.668973  0.329048  0.496159  1
  Er  Er7  1  0.233946  0.233946  0.250000  1
  Er  Er8  1  0.766218  0.008910  0.250000  1
  Er  Er9  1  0.008910  0.766218  0.250000  1
  In  In10  1  0.396763  0.002052  0.250000  1
  In  In11  1  0.002052  0.396763  0.250000  1
  Bi  Bi12  1  0.393981  0.393981  0.750000  1
  Bi  Bi13  1  0.601873  0.996778  0.750000  1
  Bi  Bi14  1  0.996778  0.601873  0.750000  1
  Bi  Bi15  1  0.609110  0.609110  0.250000  1
