# generated using pymatgen
data_V6ReMo3Os2
_symmetry_space_group_name_H-M   'P 1'
_cell_length_a   4.28986600
_cell_length_b   6.09415600
_cell_length_c   13.00219100
_cell_angle_alpha   90.00000000
_cell_angle_beta   90.00003098
_cell_angle_gamma   90.00000000
_symmetry_Int_Tables_number   1
_chemical_formula_structural   V6ReMo3Os2
_chemical_formula_sum   'V12 Re2 Mo6 Os4'
_cell_volume   339.91774366
_cell_formula_units_Z   2
loop_
 _symmetry_equiv_pos_site_id
 _symmetry_equiv_pos_as_xyz
  1  'x, y, z'
loop_
 _atom_site_type_symbol
 _atom_site_label
 _atom_site_symmetry_multiplicity
 _atom_site_fract_x
 _atom_site_fract_y
 _atom_site_fract_z
 _atom_site_occupancy
  V  V0  1  0.499999  0.250815  0.000076  1
  V  V1  1  0.499999  0.749185  0.000076  1
  V  V2  1  0.000081  0.249172  0.166609  1
  V  V3  1  0.000081  0.750828  0.166609  1
  V  V4  1  0.500070  0.249696  0.332967  1
  V  V5  1  0.500070  0.750303  0.332967  1
  V  V6  1  0.999998  0.249768  0.499777  1
  V  V7  1  0.999998  0.750233  0.499777  1
  V  V8  1  0.499923  0.250233  0.666889  1
  V  V9  1  0.499923  0.749766  0.666889  1
  V  V10  1  0.999924  0.250296  0.833662  1
  V  V11  1  0.999924  0.749704  0.833662  1
  Re  Re12  1  0.000002  0.500000  0.999553  1
  Re  Re13  1  0.500061  0.000000  0.167150  1
  Mo  Mo14  1  0.999998  0.000000  0.998909  1
  Mo  Mo15  1  0.500078  0.500000  0.167767  1
  Mo  Mo16  1  0.000078  0.000000  0.334559  1
  Mo  Mo17  1  0.500002  0.500000  0.500061  1
  Mo  Mo18  1  0.999935  0.000000  0.666619  1
  Mo  Mo19  1  0.499923  0.500000  0.832090  1
  Os  Os20  1  0.000074  0.500000  0.334176  1
  Os  Os21  1  0.500003  0.000000  0.500402  1
  Os  Os22  1  0.999929  0.500000  0.666268  1
  Os  Os23  1  0.499928  0.000000  0.832481  1
