# generated using pymatgen
data_Lu6GaNiRu
_symmetry_space_group_name_H-M   'P 1'
_cell_length_a   8.15761425
_cell_length_b   8.15761433
_cell_length_c   8.15761368
_cell_angle_alpha   113.00499660
_cell_angle_beta   110.86631153
_cell_angle_gamma   104.65510418
_symmetry_Int_Tables_number   1
_chemical_formula_structural   Lu6GaNiRu
_chemical_formula_sum   'Lu12 Ga2 Ni2 Ru2'
_cell_volume   415.54683986
_cell_formula_units_Z   2
loop_
 _symmetry_equiv_pos_site_id
 _symmetry_equiv_pos_as_xyz
  1  'x, y, z'
loop_
 _atom_site_type_symbol
 _atom_site_label
 _atom_site_symmetry_multiplicity
 _atom_site_fract_x
 _atom_site_fract_y
 _atom_site_fract_z
 _atom_site_occupancy
  Lu  Lu0  1  0.436176  0.243128  0.193048  1
  Lu  Lu1  1  0.563824  0.756872  0.806952  1
  Lu  Lu2  1  0.050080  0.243128  0.806952  1
  Lu  Lu3  1  0.949920  0.756872  0.193048  1
  Lu  Lu4  1  0.179471  0.280807  0.460278  1
  Lu  Lu5  1  0.820529  0.719193  0.539722  1
  Lu  Lu6  1  0.179471  0.719193  0.898664  1
  Lu  Lu7  1  0.820529  0.280807  0.101336  1
  Lu  Lu8  1  0.330329  0.641649  0.311320  1
  Lu  Lu9  1  0.669671  0.358351  0.688680  1
  Lu  Lu10  1  0.330329  0.019010  0.688680  1
  Lu  Lu11  1  0.669671  0.980990  0.311320  1
  Ga  Ga12  1  0.500000  0.500000  0.000000  1
  Ga  Ga13  1  0.000000  0.000000  0.000000  1
  Ni  Ni14  1  0.122294  0.622294  0.500000  1
  Ni  Ni15  1  0.877706  0.377706  0.500000  1
  Ru  Ru16  1  0.327291  0.000000  0.327291  1
  Ru  Ru17  1  0.672709  0.000000  0.672709  1
