# generated using pymatgen
data_Ho7Er2Tm(In2Ni)4
_symmetry_space_group_name_H-M   'P 1'
_cell_length_a   3.58136400
_cell_length_b   7.98694003
_cell_length_c   17.88782307
_cell_angle_alpha   89.98958580
_cell_angle_beta   90.00000000
_cell_angle_gamma   90.00000000
_symmetry_Int_Tables_number   1
_chemical_formula_structural   Ho7Er2Tm(In2Ni)4
_chemical_formula_sum   'Ho7 Er2 Tm1 In8 Ni4'
_cell_volume   511.66577818
_cell_formula_units_Z   1
loop_
 _symmetry_equiv_pos_site_id
 _symmetry_equiv_pos_as_xyz
  1  'x, y, z'
loop_
 _atom_site_type_symbol
 _atom_site_label
 _atom_site_symmetry_multiplicity
 _atom_site_fract_x
 _atom_site_fract_y
 _atom_site_fract_z
 _atom_site_occupancy
  Ho  Ho0  1  0.000000  0.499994  0.499921  1
  Ho  Ho1  1  0.000000  0.000054  0.000050  1
  Ho  Ho2  1  0.000000  0.746140  0.278381  1
  Ho  Ho3  1  0.000000  0.253948  0.721758  1
  Ho  Ho4  1  0.000000  0.754024  0.778118  1
  Ho  Ho5  1  0.000000  0.245736  0.221958  1
  Ho  Ho6  1  0.000000  0.617052  0.088170  1
  Er  Er7  1  0.000000  0.383025  0.911705  1
  Er  Er8  1  0.000000  0.883115  0.588244  1
  Tm  Tm9  1  0.000000  0.116809  0.411344  1
  In  In10  1  0.500000  0.705068  0.930912  1
  In  In11  1  0.500000  0.294477  0.069053  1
  In  In12  1  0.500000  0.795939  0.431220  1
  In  In13  1  0.500000  0.204692  0.568492  1
  In  In14  1  0.500000  0.573606  0.651695  1
  In  In15  1  0.500000  0.425820  0.348296  1
  In  In16  1  0.500000  0.926867  0.152132  1
  In  In17  1  0.500000  0.073450  0.848060  1
  Ni  Ni18  1  0.500000  0.524290  0.195765  1
  Ni  Ni19  1  0.500000  0.475455  0.804471  1
  Ni  Ni20  1  0.500000  0.975541  0.695350  1
  Ni  Ni21  1  0.500000  0.024897  0.304904  1
