# generated using pymatgen
data_CaLa7(GePd)8
_symmetry_space_group_name_H-M   'P 1'
_cell_length_a   4.53127000
_cell_length_b   7.79147908
_cell_length_c   14.86957747
_cell_angle_alpha   90.03385751
_cell_angle_beta   90.00000000
_cell_angle_gamma   90.00000000
_symmetry_Int_Tables_number   1
_chemical_formula_structural   CaLa7(GePd)8
_chemical_formula_sum   'Ca1 La7 Ge8 Pd8'
_cell_volume   524.97473381
_cell_formula_units_Z   1
loop_
 _symmetry_equiv_pos_site_id
 _symmetry_equiv_pos_as_xyz
  1  'x, y, z'
loop_
 _atom_site_type_symbol
 _atom_site_label
 _atom_site_symmetry_multiplicity
 _atom_site_fract_x
 _atom_site_fract_y
 _atom_site_fract_z
 _atom_site_occupancy
  Ca  Ca0  1  0.500000  0.782207  0.251848  1
  La  La1  1  0.000000  0.214637  0.752722  1
  La  La2  1  0.000000  0.207391  0.248075  1
  La  La3  1  0.500000  0.784821  0.747058  1
  La  La4  1  0.000000  0.283457  0.498886  1
  La  La5  1  0.500000  0.716989  0.002004  1
  La  La6  1  0.000000  0.295903  0.001601  1
  La  La7  1  0.500000  0.707406  0.497812  1
  Ge  Ge8  1  0.000000  0.589414  0.856416  1
  Ge  Ge9  1  0.000000  0.593294  0.147468  1
  Ge  Ge10  1  0.500000  0.411483  0.643369  1
  Ge  Ge11  1  0.500000  0.413380  0.354262  1
  Ge  Ge12  1  0.000000  0.911185  0.401298  1
  Ge  Ge13  1  0.000000  0.912730  0.593406  1
  Ge  Ge14  1  0.500000  0.086807  0.097065  1
  Ge  Ge15  1  0.500000  0.087453  0.906591  1
  Pd  Pd16  1  0.000000  0.922276  0.889553  1
  Pd  Pd17  1  0.000000  0.920368  0.114435  1
  Pd  Pd18  1  0.500000  0.078414  0.610565  1
  Pd  Pd19  1  0.500000  0.076754  0.385537  1
  Pd  Pd20  1  0.000000  0.582234  0.343522  1
  Pd  Pd21  1  0.000000  0.580569  0.651385  1
  Pd  Pd22  1  0.500000  0.421412  0.156061  1
  Pd  Pd23  1  0.500000  0.419416  0.849058  1
