# generated using pymatgen
data_Nd4AlTcRu6
_symmetry_space_group_name_H-M   'P 1'
_cell_length_a   5.27009257
_cell_length_b   5.27009320
_cell_length_c   9.10348100
_cell_angle_alpha   90.00000000
_cell_angle_beta   90.00000000
_cell_angle_gamma   115.09724430
_symmetry_Int_Tables_number   1
_chemical_formula_structural   Nd4AlTcRu6
_chemical_formula_sum   'Nd4 Al1 Tc1 Ru6'
_cell_volume   228.96824943
_cell_formula_units_Z   1
loop_
 _symmetry_equiv_pos_site_id
 _symmetry_equiv_pos_as_xyz
  1  'x, y, z'
loop_
 _atom_site_type_symbol
 _atom_site_label
 _atom_site_symmetry_multiplicity
 _atom_site_fract_x
 _atom_site_fract_y
 _atom_site_fract_z
 _atom_site_occupancy
  Nd  Nd0  1  0.329421  0.670579  0.433414  1
  Nd  Nd1  1  0.664875  0.335125  0.566549  1
  Nd  Nd2  1  0.664875  0.335125  0.933451  1
  Nd  Nd3  1  0.329421  0.670579  0.066586  1
  Al  Al4  1  0.169793  0.830207  0.750000  1
  Tc  Tc5  1  0.845500  0.154500  0.250000  1
  Ru  Ru6  1  0.986145  0.013855  0.498852  1
  Ru  Ru7  1  0.986145  0.013855  0.001148  1
  Ru  Ru8  1  0.832131  0.647173  0.250000  1
  Ru  Ru9  1  0.352827  0.167869  0.250000  1
  Ru  Ru10  1  0.169714  0.330850  0.750000  1
  Ru  Ru11  1  0.669150  0.830286  0.750000  1
