# generated using pymatgen
data_Tb4Y12CdNi4Ag3
_symmetry_space_group_name_H-M   'P 1'
_cell_length_a   9.50746434
_cell_length_b   9.53575983
_cell_length_c   9.53576000
_cell_angle_alpha   59.99999942
_cell_angle_beta   59.90150075
_cell_angle_gamma   59.90150473
_symmetry_Int_Tables_number   1
_chemical_formula_structural   Tb4Y12CdNi4Ag3
_chemical_formula_sum   'Tb4 Y12 Cd1 Ni4 Ag3'
_cell_volume   610.39665303
_cell_formula_units_Z   1
loop_
 _symmetry_equiv_pos_site_id
 _symmetry_equiv_pos_as_xyz
  1  'x, y, z'
loop_
 _atom_site_type_symbol
 _atom_site_label
 _atom_site_symmetry_multiplicity
 _atom_site_fract_x
 _atom_site_fract_y
 _atom_site_fract_z
 _atom_site_occupancy
  Tb  Tb0  1  0.600621  0.599431  0.599431  1
  Tb  Tb1  1  0.600621  0.599431  0.200516  1
  Tb  Tb2  1  0.600621  0.200516  0.599431  1
  Tb  Tb3  1  0.196521  0.601159  0.601159  1
  Y  Y4  1  0.060839  0.438825  0.438825  1
  Y  Y5  1  0.437959  0.061583  0.061583  1
  Y  Y6  1  0.437959  0.061583  0.438875  1
  Y  Y7  1  0.060839  0.438825  0.061510  1
  Y  Y8  1  0.437959  0.438875  0.061583  1
  Y  Y9  1  0.060839  0.061510  0.438825  1
  Y  Y10  1  0.183836  0.814224  0.814224  1
  Y  Y11  1  0.814394  0.185765  0.185765  1
  Y  Y12  1  0.814394  0.185765  0.814076  1
  Y  Y13  1  0.183836  0.814224  0.187717  1
  Y  Y14  1  0.814394  0.814076  0.185765  1
  Y  Y15  1  0.183836  0.187717  0.814224  1
  Cd  Cd16  1  0.514400  0.828533  0.828533  1
  Ni  Ni17  1  0.392561  0.393553  0.393553  1
  Ni  Ni18  1  0.392561  0.393553  0.820336  1
  Ni  Ni19  1  0.392561  0.820336  0.393553  1
  Ni  Ni20  1  0.820997  0.393001  0.393001  1
  Ag  Ag21  1  0.832486  0.832501  0.832501  1
  Ag  Ag22  1  0.832486  0.832501  0.502512  1
  Ag  Ag23  1  0.832486  0.502512  0.832501  1
