# generated using pymatgen
data_YTm2Ga5Rh
_symmetry_space_group_name_H-M   'P 1'
_cell_length_a   6.88383700
_cell_length_b   6.89459806
_cell_length_c   4.27391400
_cell_angle_alpha   90.00000000
_cell_angle_beta   90.00000000
_cell_angle_gamma   119.94838750
_symmetry_Int_Tables_number   1
_chemical_formula_structural   YTm2Ga5Rh
_chemical_formula_sum   'Y1 Tm2 Ga5 Rh1'
_cell_volume   175.76061986
_cell_formula_units_Z   1
loop_
 _symmetry_equiv_pos_site_id
 _symmetry_equiv_pos_as_xyz
  1  'x, y, z'
loop_
 _atom_site_type_symbol
 _atom_site_label
 _atom_site_symmetry_multiplicity
 _atom_site_fract_x
 _atom_site_fract_y
 _atom_site_fract_z
 _atom_site_occupancy
  Y  Y0  1  0.587086  0.000000  0.000000  1
  Tm  Tm1  1  0.999266  0.590519  0.000000  1
  Tm  Tm2  1  0.408747  0.409481  0.000000  1
  Ga  Ga3  1  0.237430  0.000000  0.500000  1
  Ga  Ga4  1  0.000712  0.238618  0.500000  1
  Ga  Ga5  1  0.762094  0.761382  0.500000  1
  Ga  Ga6  1  0.331306  0.663751  0.500000  1
  Ga  Ga7  1  0.667556  0.336249  0.500000  1
  Rh  Rh8  1  0.005802  0.000000  0.000000  1
