# generated using pymatgen
data_Li4Ce4Si5Sn
_symmetry_space_group_name_H-M   'P 1'
_cell_length_a   9.59316300
_cell_length_b   9.59316393
_cell_length_c   6.78200800
_cell_angle_alpha   90.00000000
_cell_angle_beta   90.00000000
_cell_angle_gamma   152.87002607
_symmetry_Int_Tables_number   1
_chemical_formula_structural   Li4Ce4Si5Sn
_chemical_formula_sum   'Li4 Ce4 Si5 Sn1'
_cell_volume   284.61440809
_cell_formula_units_Z   1
loop_
 _symmetry_equiv_pos_site_id
 _symmetry_equiv_pos_as_xyz
  1  'x, y, z'
loop_
 _atom_site_type_symbol
 _atom_site_label
 _atom_site_symmetry_multiplicity
 _atom_site_fract_x
 _atom_site_fract_y
 _atom_site_fract_z
 _atom_site_occupancy
  Li  Li0  1  0.813704  0.186296  0.568483  1
  Li  Li1  1  0.187177  0.812823  0.451071  1
  Li  Li2  1  0.187177  0.812823  0.048929  1
  Li  Li3  1  0.813704  0.186296  0.931517  1
  Ce  Ce4  1  0.546303  0.453697  0.250000  1
  Ce  Ce5  1  0.450039  0.549961  0.750000  1
  Ce  Ce6  1  0.348491  0.651509  0.250000  1
  Ce  Ce7  1  0.654581  0.345419  0.750000  1
  Si  Si8  1  0.941612  0.058388  0.072720  1
  Si  Si9  1  0.058244  0.941756  0.926112  1
  Si  Si10  1  0.058244  0.941756  0.573888  1
  Si  Si11  1  0.941612  0.058388  0.427280  1
  Si  Si12  1  0.280342  0.719658  0.750000  1
  Sn  Sn13  1  0.718774  0.281226  0.250000  1
