# generated using pymatgen
data_Sm7ErGaPd24
_symmetry_space_group_name_H-M   'P 1'
_cell_length_a   8.42146392
_cell_length_b   8.42146392
_cell_length_c   8.42146392
_cell_angle_alpha   89.96215246
_cell_angle_beta   89.96215246
_cell_angle_gamma   89.96215246
_symmetry_Int_Tables_number   1
_chemical_formula_structural   Sm7ErGaPd24
_chemical_formula_sum   'Sm7 Er1 Ga1 Pd24'
_cell_volume   597.25871102
_cell_formula_units_Z   1
loop_
 _symmetry_equiv_pos_site_id
 _symmetry_equiv_pos_as_xyz
  1  'x, y, z'
loop_
 _atom_site_type_symbol
 _atom_site_label
 _atom_site_symmetry_multiplicity
 _atom_site_fract_x
 _atom_site_fract_y
 _atom_site_fract_z
 _atom_site_occupancy
  Sm  Sm0  1  0.748182  0.748182  0.748182  1
  Sm  Sm1  1  0.748027  0.748027  0.251935  1
  Sm  Sm2  1  0.748027  0.251935  0.748027  1
  Sm  Sm3  1  0.251965  0.251965  0.748100  1
  Sm  Sm4  1  0.251965  0.748100  0.251965  1
  Sm  Sm5  1  0.251935  0.748027  0.748027  1
  Sm  Sm6  1  0.748100  0.251965  0.251965  1
  Er  Er7  1  0.252211  0.252211  0.252211  1
  Ga  Ga8  1  0.999903  0.999903  0.999903  1
  Pd  Pd9  1  0.260615  0.498249  0.002194  1
  Pd  Pd10  1  0.739440  0.500005  0.999901  1
  Pd  Pd11  1  0.002194  0.260615  0.498249  1
  Pd  Pd12  1  0.498249  0.260615  0.002194  1
  Pd  Pd13  1  0.999901  0.739440  0.500005  1
  Pd  Pd14  1  0.500005  0.739440  0.999901  1
  Pd  Pd15  1  0.498249  0.002194  0.260615  1
  Pd  Pd16  1  0.260615  0.002194  0.498249  1
  Pd  Pd17  1  0.500005  0.999901  0.739440  1
  Pd  Pd18  1  0.739440  0.999901  0.500005  1
  Pd  Pd19  1  0.002194  0.498249  0.260615  1
  Pd  Pd20  1  0.999901  0.500005  0.739440  1
  Pd  Pd21  1  0.253263  0.497819  0.497819  1
  Pd  Pd22  1  0.746744  0.500093  0.500093  1
  Pd  Pd23  1  0.497819  0.253263  0.497819  1
  Pd  Pd24  1  0.500093  0.746744  0.500093  1
  Pd  Pd25  1  0.497819  0.497819  0.253263  1
  Pd  Pd26  1  0.500093  0.500093  0.746744  1
  Pd  Pd27  1  0.292716  0.001858  0.001858  1
  Pd  Pd28  1  0.706679  0.999968  0.999968  1
  Pd  Pd29  1  0.001858  0.292716  0.001858  1
  Pd  Pd30  1  0.999968  0.706679  0.999968  1
  Pd  Pd31  1  0.001858  0.001858  0.292716  1
  Pd  Pd32  1  0.999968  0.999968  0.706679  1
