# generated using pymatgen
data_Pr5GdNb2O14
_symmetry_space_group_name_H-M   'P 1'
_cell_length_a   6.70695559
_cell_length_b   6.69791036
_cell_length_c   7.78220100
_cell_angle_alpha   90.00000000
_cell_angle_beta   90.00000000
_cell_angle_gamma   109.19980591
_symmetry_Int_Tables_number   1
_chemical_formula_structural   Pr5GdNb2O14
_chemical_formula_sum   'Pr5 Gd1 Nb2 O14'
_cell_volume   330.15116128
_cell_formula_units_Z   1
loop_
 _symmetry_equiv_pos_site_id
 _symmetry_equiv_pos_as_xyz
  1  'x, y, z'
loop_
 _atom_site_type_symbol
 _atom_site_label
 _atom_site_symmetry_multiplicity
 _atom_site_fract_x
 _atom_site_fract_y
 _atom_site_fract_z
 _atom_site_occupancy
  Pr  Pr0  1  0.472483  0.476442  0.500884  1
  Pr  Pr1  1  0.472483  0.476442  0.999116  1
  Pr  Pr2  1  0.537102  0.997101  0.750000  1
  Pr  Pr3  1  0.995310  0.536273  0.250000  1
  Pr  Pr4  1  0.463423  0.998101  0.250000  1
  Gd  Gd5  1  0.997716  0.465842  0.750000  1
  Nb  Nb6  1  0.997307  0.997485  0.501814  1
  Nb  Nb7  1  0.997307  0.997485  0.998186  1
  O  O8  1  0.690699  0.931943  0.468764  1
  O  O9  1  0.953849  0.696770  0.539319  1
  O  O10  1  0.690699  0.931943  0.031236  1
  O  O11  1  0.953849  0.696770  0.960681  1
  O  O12  1  0.321306  0.080874  0.527697  1
  O  O13  1  0.072104  0.319964  0.475781  1
  O  O14  1  0.321306  0.080874  0.972303  1
  O  O15  1  0.072104  0.319964  0.024219  1
  O  O16  1  0.359304  0.624272  0.750000  1
  O  O17  1  0.628228  0.369378  0.250000  1
  O  O18  1  0.644661  0.366671  0.750000  1
  O  O19  1  0.361693  0.631744  0.250000  1
  O  O20  1  0.939446  0.062805  0.750000  1
  O  O21  1  0.057622  0.940854  0.250000  1
