# generated using pymatgen
data_Mn2ZnCo4Sb
_symmetry_space_group_name_H-M   'P 1'
_cell_length_a   7.18392248
_cell_length_b   7.18392216
_cell_length_c   7.18392378
_cell_angle_alpha   33.44081317
_cell_angle_beta   33.44081911
_cell_angle_gamma   33.44082623
_symmetry_Int_Tables_number   1
_chemical_formula_structural   Mn2ZnCo4Sb
_chemical_formula_sum   'Mn2 Zn1 Co4 Sb1'
_cell_volume   100.26903782
_cell_formula_units_Z   1
loop_
 _symmetry_equiv_pos_site_id
 _symmetry_equiv_pos_as_xyz
  1  'x, y, z'
loop_
 _atom_site_type_symbol
 _atom_site_label
 _atom_site_symmetry_multiplicity
 _atom_site_fract_x
 _atom_site_fract_y
 _atom_site_fract_z
 _atom_site_occupancy
  Mn  Mn0  1  0.255041  0.255041  0.255041  1
  Mn  Mn1  1  0.744959  0.744959  0.744959  1
  Zn  Zn2  1  0.000000  0.000000  0.000000  1
  Co  Co3  1  0.373986  0.373986  0.373986  1
  Co  Co4  1  0.876096  0.876096  0.876096  1
  Co  Co5  1  0.626014  0.626014  0.626014  1
  Co  Co6  1  0.123904  0.123904  0.123904  1
  Sb  Sb7  1  0.500000  0.500000  0.500000  1
