# generated using pymatgen
data_Hf5Ti7CuSn9
_symmetry_space_group_name_H-M   'P 1'
_cell_length_a   9.40484000
_cell_length_b   9.40437566
_cell_length_c   5.76036303
_cell_angle_alpha   90.19424082
_cell_angle_beta   90.00000000
_cell_angle_gamma   120.00164036
_symmetry_Int_Tables_number   1
_chemical_formula_structural   Hf5Ti7CuSn9
_chemical_formula_sum   'Hf5 Ti7 Cu1 Sn9'
_cell_volume   441.21610876
_cell_formula_units_Z   1
loop_
 _symmetry_equiv_pos_site_id
 _symmetry_equiv_pos_as_xyz
  1  'x, y, z'
loop_
 _atom_site_type_symbol
 _atom_site_label
 _atom_site_symmetry_multiplicity
 _atom_site_fract_x
 _atom_site_fract_y
 _atom_site_fract_z
 _atom_site_occupancy
  Hf  Hf0  1  0.852982  0.705962  0.740506  1
  Hf  Hf1  1  0.147503  0.845236  0.261658  1
  Hf  Hf2  1  0.697732  0.845236  0.261658  1
  Hf  Hf3  1  0.302769  0.146433  0.739499  1
  Hf  Hf4  1  0.843664  0.146433  0.739499  1
  Ti  Ti5  1  0.155427  0.310856  0.257056  1
  Ti  Ti6  1  0.500380  0.000760  0.498929  1
  Ti  Ti7  1  0.497269  0.498426  0.000615  1
  Ti  Ti8  1  0.001157  0.498426  0.000615  1
  Ti  Ti9  1  0.000664  0.498583  0.498415  1
  Ti  Ti10  1  0.500738  0.001475  0.999624  1
  Ti  Ti11  1  0.497919  0.498583  0.498415  1
  Cu  Cu12  1  0.005472  0.010945  0.496988  1
  Sn  Sn13  1  0.203133  0.406266  0.751597  1
  Sn  Sn14  1  0.797710  0.205011  0.244573  1
  Sn  Sn15  1  0.407302  0.205011  0.244573  1
  Sn  Sn16  1  0.583170  0.790476  0.755591  1
  Sn  Sn17  1  0.207304  0.790476  0.755591  1
  Sn  Sn18  1  0.791527  0.583054  0.244859  1
  Sn  Sn19  1  0.668829  0.337656  0.745879  1
  Sn  Sn20  1  0.332059  0.664118  0.253212  1
  Sn  Sn21  1  0.005288  0.010577  0.010645  1
