# generated using pymatgen
data_YbDy3Y2(Si3Ru)8
_symmetry_space_group_name_H-M   'P 1'
_cell_length_a   10.14303216
_cell_length_b   10.14303148
_cell_length_c   8.14639000
_cell_angle_alpha   89.92233571
_cell_angle_beta   90.07767004
_cell_angle_gamma   132.64472903
_symmetry_Int_Tables_number   1
_chemical_formula_structural   YbDy3Y2(Si3Ru)8
_chemical_formula_sum   'Yb1 Dy3 Y2 Si24 Ru8'
_cell_volume   616.48624208
_cell_formula_units_Z   1
loop_
 _symmetry_equiv_pos_site_id
 _symmetry_equiv_pos_as_xyz
  1  'x, y, z'
loop_
 _atom_site_type_symbol
 _atom_site_label
 _atom_site_symmetry_multiplicity
 _atom_site_fract_x
 _atom_site_fract_y
 _atom_site_fract_z
 _atom_site_occupancy
  Yb  Yb0  1  0.002237  0.502237  0.250000  1
  Dy  Dy1  1  0.000316  0.000375  0.000485  1
  Dy  Dy2  1  0.500375  0.500316  0.499515  1
  Dy  Dy3  1  0.498054  0.998054  0.750000  1
  Y  Y4  1  0.997240  0.497240  0.750000  1
  Y  Y5  1  0.502675  0.002675  0.250000  1
  Si  Si6  1  0.293645  0.704213  0.000408  1
  Si  Si7  1  0.795684  0.206430  0.498638  1
  Si  Si8  1  0.706430  0.295684  0.001362  1
  Si  Si9  1  0.204213  0.793645  0.499592  1
  Si  Si10  1  0.832767  0.834114  0.333148  1
  Si  Si11  1  0.166817  0.168064  0.666690  1
  Si  Si12  1  0.668064  0.666817  0.833310  1
  Si  Si13  1  0.334114  0.332767  0.166852  1
  Si  Si14  1  0.621584  0.387348  0.228155  1
  Si  Si15  1  0.610908  0.377492  0.772152  1
  Si  Si16  1  0.111569  0.878060  0.728500  1
  Si  Si17  1  0.122944  0.888826  0.272091  1
  Si  Si18  1  0.378060  0.611569  0.771500  1
  Si  Si19  1  0.388826  0.622944  0.227909  1
  Si  Si20  1  0.887348  0.121584  0.271845  1
  Si  Si21  1  0.877492  0.110908  0.727848  1
  Si  Si22  1  0.844668  0.611383  0.003993  1
  Si  Si23  1  0.388343  0.155303  0.994268  1
  Si  Si24  1  0.888537  0.654785  0.505454  1
  Si  Si25  1  0.344487  0.111777  0.494756  1
  Si  Si26  1  0.154785  0.388537  0.994546  1
  Si  Si27  1  0.611777  0.844487  0.005244  1
  Si  Si28  1  0.111383  0.344668  0.496007  1
  Si  Si29  1  0.655303  0.888343  0.505732  1
  Ru  Ru30  1  0.170105  0.830934  0.999833  1
  Ru  Ru31  1  0.668102  0.329415  0.501163  1
  Ru  Ru32  1  0.829415  0.168102  0.998837  1
  Ru  Ru33  1  0.330934  0.670105  0.500167  1
  Ru  Ru34  1  0.626711  0.626872  0.127117  1
  Ru  Ru35  1  0.373161  0.374052  0.873082  1
  Ru  Ru36  1  0.874052  0.873161  0.626918  1
  Ru  Ru37  1  0.126872  0.126711  0.372883  1
