# generated using pymatgen
data_Yb11Pr8ErPb16
_symmetry_space_group_name_H-M   'P 1'
_cell_length_a   8.08155681
_cell_length_b   8.63172278
_cell_length_c   16.24737689
_cell_angle_alpha   90.04638722
_cell_angle_beta   90.09458776
_cell_angle_gamma   89.98517148
_symmetry_Int_Tables_number   1
_chemical_formula_structural   Yb11Pr8ErPb16
_chemical_formula_sum   'Yb11 Pr8 Er1 Pb16'
_cell_volume   1133.37863166
_cell_formula_units_Z   1
loop_
 _symmetry_equiv_pos_site_id
 _symmetry_equiv_pos_as_xyz
  1  'x, y, z'
loop_
 _atom_site_type_symbol
 _atom_site_label
 _atom_site_symmetry_multiplicity
 _atom_site_fract_x
 _atom_site_fract_y
 _atom_site_fract_z
 _atom_site_occupancy
  Yb  Yb0  1  0.165344  0.333481  0.877301  1
  Yb  Yb1  1  0.334781  0.833289  0.122849  1
  Yb  Yb2  1  0.835152  0.666512  0.377189  1
  Yb  Yb3  1  0.334330  0.832956  0.377015  1
  Yb  Yb4  1  0.834890  0.666703  0.122840  1
  Yb  Yb5  1  0.664891  0.166714  0.877179  1
  Yb  Yb6  1  0.165253  0.333076  0.622580  1
  Yb  Yb7  1  0.834621  0.495526  0.750056  1
  Yb  Yb8  1  0.334384  0.004114  0.750161  1
  Yb  Yb9  1  0.165576  0.504411  0.249964  1
  Yb  Yb10  1  0.665573  0.995759  0.249970  1
  Pr  Pr11  1  0.501117  0.685353  0.595443  1
  Pr  Pr12  1  0.001590  0.813779  0.904990  1
  Pr  Pr13  1  0.498833  0.313780  0.095536  1
  Pr  Pr14  1  0.999051  0.186354  0.404266  1
  Pr  Pr15  1  0.498421  0.314111  0.404365  1
  Pr  Pr16  1  0.998971  0.186217  0.095506  1
  Pr  Pr17  1  0.501077  0.685775  0.904646  1
  Pr  Pr18  1  0.001107  0.813688  0.595096  1
  Er  Er19  1  0.665283  0.167503  0.622985  1
  Pb  Pb20  1  0.678527  0.962518  0.460200  1
  Pb  Pb21  1  0.178036  0.538306  0.040757  1
  Pb  Pb22  1  0.322471  0.038177  0.959108  1
  Pb  Pb23  1  0.819967  0.460267  0.541315  1
  Pb  Pb24  1  0.323991  0.039044  0.541554  1
  Pb  Pb25  1  0.822035  0.461708  0.959055  1
  Pb  Pb26  1  0.677670  0.961751  0.040800  1
  Pb  Pb27  1  0.178745  0.538474  0.459180  1
  Pb  Pb28  1  0.468402  0.389773  0.749788  1
  Pb  Pb29  1  0.965669  0.109651  0.748849  1
  Pb  Pb30  1  0.532427  0.608725  0.250063  1
  Pb  Pb31  1  0.032556  0.891554  0.249981  1
  Pb  Pb32  1  0.702605  0.854480  0.749279  1
  Pb  Pb33  1  0.202623  0.646433  0.749709  1
  Pb  Pb34  1  0.296896  0.146215  0.250223  1
  Pb  Pb35  1  0.797133  0.353824  0.250201  1
