# generated using pymatgen
data_SrYbAs2O7
_symmetry_space_group_name_H-M   'P 1'
_cell_length_a   5.94755271
_cell_length_b   7.20195599
_cell_length_c   7.65992186
_cell_angle_alpha   101.41973737
_cell_angle_beta   90.05793799
_cell_angle_gamma   98.60851222
_symmetry_Int_Tables_number   1
_chemical_formula_structural   SrYbAs2O7
_chemical_formula_sum   'Sr2 Yb2 As4 O14'
_cell_volume   317.82746347
_cell_formula_units_Z   2
loop_
 _symmetry_equiv_pos_site_id
 _symmetry_equiv_pos_as_xyz
  1  'x, y, z'
loop_
 _atom_site_type_symbol
 _atom_site_label
 _atom_site_symmetry_multiplicity
 _atom_site_fract_x
 _atom_site_fract_y
 _atom_site_fract_z
 _atom_site_occupancy
  Sr  Sr0  1  0.689250  0.272283  0.937750  1
  Sr  Sr1  1  0.310750  0.727717  0.062250  1
  Yb  Yb2  1  0.315264  0.826888  0.600558  1
  Yb  Yb3  1  0.684736  0.173112  0.399442  1
  As  As4  1  0.814933  0.776681  0.818259  1
  As  As5  1  0.185067  0.223319  0.181741  1
  As  As6  1  0.792917  0.673057  0.380203  1
  As  As7  1  0.207083  0.326943  0.619797  1
  O  O8  1  0.936168  0.223148  0.644195  1
  O  O9  1  0.063832  0.776852  0.355805  1
  O  O10  1  0.759085  0.629750  0.965871  1
  O  O11  1  0.240915  0.370250  0.034129  1
  O  O12  1  0.785882  0.618108  0.601588  1
  O  O13  1  0.214118  0.381892  0.398412  1
  O  O14  1  0.604639  0.914837  0.819393  1
  O  O15  1  0.395361  0.085163  0.180607  1
  O  O16  1  0.594137  0.823648  0.375008  1
  O  O17  1  0.405863  0.176352  0.624992  1
  O  O18  1  0.286920  0.554260  0.732715  1
  O  O19  1  0.713080  0.445740  0.267285  1
  O  O20  1  0.086665  0.892188  0.836810  1
  O  O21  1  0.913335  0.107812  0.163190  1
