# generated using pymatgen
data_Lu2(Hf2Bi3)3
_symmetry_space_group_name_H-M   'P 1'
_cell_length_a   10.91351000
_cell_length_b   10.91351000
_cell_length_c   7.78460600
_cell_angle_alpha   90.00000000
_cell_angle_beta   90.00000000
_cell_angle_gamma   90.00000000
_symmetry_Int_Tables_number   1
_chemical_formula_structural   Lu2(Hf2Bi3)3
_chemical_formula_sum   'Lu4 Hf12 Bi18'
_cell_volume   927.18316630
_cell_formula_units_Z   2
loop_
 _symmetry_equiv_pos_site_id
 _symmetry_equiv_pos_as_xyz
  1  'x, y, z'
loop_
 _atom_site_type_symbol
 _atom_site_label
 _atom_site_symmetry_multiplicity
 _atom_site_fract_x
 _atom_site_fract_y
 _atom_site_fract_z
 _atom_site_occupancy
  Lu  Lu0  1  0.750000  0.750000  0.080089  1
  Lu  Lu1  1  0.250000  0.250000  0.432691  1
  Lu  Lu2  1  0.750000  0.750000  0.567310  1
  Lu  Lu3  1  0.250000  0.250000  0.919912  1
  Hf  Hf4  1  0.000000  0.000000  0.000000  1
  Hf  Hf5  1  0.500000  0.000000  0.000000  1
  Hf  Hf6  1  0.000000  0.500000  0.000000  1
  Hf  Hf7  1  0.500000  0.500000  0.000000  1
  Hf  Hf8  1  0.750000  0.104675  0.155668  1
  Hf  Hf9  1  0.750000  0.395324  0.155668  1
  Hf  Hf10  1  0.104675  0.750000  0.155668  1
  Hf  Hf11  1  0.395324  0.750000  0.155668  1
  Hf  Hf12  1  0.604675  0.249999  0.844333  1
  Hf  Hf13  1  0.895326  0.250000  0.844333  1
  Hf  Hf14  1  0.249999  0.604675  0.844333  1
  Hf  Hf15  1  0.250000  0.895326  0.844333  1
  Bi  Bi16  1  0.250000  0.009349  0.192433  1
  Bi  Bi17  1  0.009349  0.250000  0.192433  1
  Bi  Bi18  1  0.490650  0.249999  0.192433  1
  Bi  Bi19  1  0.249999  0.490650  0.192433  1
  Bi  Bi20  1  0.580192  0.580192  0.346186  1
  Bi  Bi21  1  0.919808  0.580192  0.346186  1
  Bi  Bi22  1  0.919808  0.919808  0.346186  1
  Bi  Bi23  1  0.580192  0.919808  0.346186  1
  Bi  Bi24  1  0.750000  0.250000  0.500000  1
  Bi  Bi25  1  0.250000  0.750000  0.500000  1
  Bi  Bi26  1  0.419808  0.080192  0.653814  1
  Bi  Bi27  1  0.080192  0.080192  0.653814  1
  Bi  Bi28  1  0.080192  0.419808  0.653814  1
  Bi  Bi29  1  0.419808  0.419808  0.653814  1
  Bi  Bi30  1  0.750000  0.509349  0.807568  1
  Bi  Bi31  1  0.509349  0.750000  0.807568  1
  Bi  Bi32  1  0.990651  0.750000  0.807568  1
  Bi  Bi33  1  0.750000  0.990651  0.807568  1
