# generated using pymatgen
data_TbPrYRuO7
_symmetry_space_group_name_H-M   'P 1'
_cell_length_a   6.48484115
_cell_length_b   6.47579332
_cell_length_c   7.54211300
_cell_angle_alpha   90.00000000
_cell_angle_beta   90.00000000
_cell_angle_gamma   110.16737787
_symmetry_Int_Tables_number   1
_chemical_formula_structural   TbPrYRuO7
_chemical_formula_sum   'Tb2 Pr2 Y2 Ru2 O14'
_cell_volume   297.30848460
_cell_formula_units_Z   2
loop_
 _symmetry_equiv_pos_site_id
 _symmetry_equiv_pos_as_xyz
  1  'x, y, z'
loop_
 _atom_site_type_symbol
 _atom_site_label
 _atom_site_symmetry_multiplicity
 _atom_site_fract_x
 _atom_site_fract_y
 _atom_site_fract_z
 _atom_site_occupancy
  Tb  Tb0  1  0.481745  0.929882  0.750000  1
  Tb  Tb1  1  0.518255  0.070118  0.250000  1
  Pr  Pr2  1  0.000000  0.000000  0.500000  1
  Pr  Pr3  1  0.000000  0.000000  0.000000  1
  Y  Y4  1  0.931137  0.482088  0.750000  1
  Y  Y5  1  0.068863  0.517912  0.250000  1
  Ru  Ru6  1  0.500000  0.500000  0.500000  1
  Ru  Ru7  1  0.500000  0.500000  0.000000  1
  O  O8  1  0.587655  0.587611  0.750000  1
  O  O9  1  0.412345  0.412389  0.250000  1
  O  O10  1  0.838359  0.118645  0.750000  1
  O  O11  1  0.161641  0.881355  0.250000  1
  O  O12  1  0.116943  0.837673  0.750000  1
  O  O13  1  0.883057  0.162327  0.250000  1
  O  O14  1  0.440197  0.182704  0.963606  1
  O  O15  1  0.559803  0.817296  0.463606  1
  O  O16  1  0.183080  0.440497  0.963885  1
  O  O17  1  0.816920  0.559503  0.463885  1
  O  O18  1  0.440197  0.182704  0.536394  1
  O  O19  1  0.559803  0.817296  0.036394  1
  O  O20  1  0.816920  0.559503  0.036115  1
  O  O21  1  0.183080  0.440497  0.536115  1
