# generated using pymatgen
data_Cs4SbAsCl12
_symmetry_space_group_name_H-M   'P 1'
_cell_length_a   13.15250778
_cell_length_b   13.15250807
_cell_length_c   13.15250683
_cell_angle_alpha   131.64682888
_cell_angle_beta   131.64682961
_cell_angle_gamma   70.78739551
_symmetry_Int_Tables_number   1
_chemical_formula_structural   Cs4SbAsCl12
_chemical_formula_sum   'Cs8 Sb2 As2 Cl24'
_cell_volume   1244.39916459
_cell_formula_units_Z   2
loop_
 _symmetry_equiv_pos_site_id
 _symmetry_equiv_pos_as_xyz
  1  'x, y, z'
loop_
 _atom_site_type_symbol
 _atom_site_label
 _atom_site_symmetry_multiplicity
 _atom_site_fract_x
 _atom_site_fract_y
 _atom_site_fract_z
 _atom_site_occupancy
  Cs  Cs0  1  0.375000  0.845186  0.970186  1
  Cs  Cs1  1  0.595186  0.625000  0.470186  1
  Cs  Cs2  1  0.875000  0.845186  0.470186  1
  Cs  Cs3  1  0.595186  0.125000  0.970186  1
  Cs  Cs4  1  0.875000  0.404814  0.029814  1
  Cs  Cs5  1  0.154814  0.125000  0.529814  1
  Cs  Cs6  1  0.375000  0.404814  0.529814  1
  Cs  Cs7  1  0.154814  0.625000  0.029814  1
  Sb  Sb8  1  0.000000  0.000000  0.000000  1
  Sb  Sb9  1  0.750000  0.250000  0.500000  1
  As  As10  1  0.500000  0.500000  0.000000  1
  As  As11  1  0.250000  0.750000  0.500000  1
  Cl  Cl12  1  0.731405  0.496719  0.234686  1
  Cl  Cl13  1  0.503281  0.268595  0.765314  1
  Cl  Cl14  1  0.382093  0.382093  0.000000  1
  Cl  Cl15  1  0.132093  0.632093  0.500000  1
  Cl  Cl16  1  0.367907  0.867907  0.500000  1
  Cl  Cl17  1  0.617907  0.617907  0.000000  1
  Cl  Cl18  1  0.112853  0.112853  0.000000  1
  Cl  Cl19  1  0.862853  0.362853  0.500000  1
  Cl  Cl20  1  0.637147  0.137147  0.500000  1
  Cl  Cl21  1  0.887147  0.887147  0.000000  1
  Cl  Cl22  1  0.225960  0.000718  0.225242  1
  Cl  Cl23  1  0.750718  0.025475  0.274758  1
  Cl  Cl24  1  0.503281  0.737965  0.234686  1
  Cl  Cl25  1  0.524040  0.249282  0.274758  1
  Cl  Cl26  1  0.974525  0.249282  0.725242  1
  Cl  Cl27  1  0.999282  0.224525  0.225242  1
  Cl  Cl28  1  0.999282  0.774040  0.774758  1
  Cl  Cl29  1  0.775475  0.000718  0.774758  1
  Cl  Cl30  1  0.750718  0.475960  0.725242  1
  Cl  Cl31  1  0.246719  0.512035  0.265314  1
  Cl  Cl32  1  0.246719  0.981405  0.734686  1
  Cl  Cl33  1  0.018595  0.753281  0.265314  1
  Cl  Cl34  1  0.487965  0.753281  0.734686  1
  Cl  Cl35  1  0.262035  0.496719  0.765314  1
