# generated using pymatgen
data_Th4Co3Ru9C10
_symmetry_space_group_name_H-M   'P 1'
_cell_length_a   8.90853056
_cell_length_b   9.01916325
_cell_length_c   4.18153300
_cell_angle_alpha   90.00000000
_cell_angle_beta   90.00000000
_cell_angle_gamma   89.46578664
_symmetry_Int_Tables_number   1
_chemical_formula_structural   Th4Co3Ru9C10
_chemical_formula_sum   'Th4 Co3 Ru9 C10'
_cell_volume   335.96108324
_cell_formula_units_Z   1
loop_
 _symmetry_equiv_pos_site_id
 _symmetry_equiv_pos_as_xyz
  1  'x, y, z'
loop_
 _atom_site_type_symbol
 _atom_site_label
 _atom_site_symmetry_multiplicity
 _atom_site_fract_x
 _atom_site_fract_y
 _atom_site_fract_z
 _atom_site_occupancy
  Th  Th0  1  0.320779  0.820009  0.500000  1
  Th  Th1  1  0.823270  0.681603  0.500000  1
  Th  Th2  1  0.176788  0.321769  0.500000  1
  Th  Th3  1  0.679326  0.175632  0.500000  1
  Co  Co4  1  0.719362  0.437374  0.000000  1
  Co  Co5  1  0.498678  0.997316  0.000000  1
  Co  Co6  1  0.994753  0.501721  0.000000  1
  Ru  Ru7  1  0.441939  0.280788  0.000000  1
  Ru  Ru8  1  0.998948  0.002493  0.500000  1
  Ru  Ru9  1  0.511228  0.495954  0.500000  1
  Ru  Ru10  1  0.782002  0.936466  0.000000  1
  Ru  Ru11  1  0.930797  0.222227  0.000000  1
  Ru  Ru12  1  0.065050  0.782716  0.000000  1
  Ru  Ru13  1  0.217098  0.066767  0.000000  1
  Ru  Ru14  1  0.566920  0.714255  0.000000  1
  Ru  Ru15  1  0.285206  0.559677  0.000000  1
  C  C16  1  0.508218  0.496261  0.000000  1
  C  C17  1  0.999210  0.002578  0.000000  1
  C  C18  1  0.874587  0.390014  0.673043  1
  C  C19  1  0.115994  0.613745  0.673095  1
  C  C20  1  0.874587  0.390014  0.326957  1
  C  C21  1  0.384953  0.115081  0.328354  1
  C  C22  1  0.614679  0.883359  0.328048  1
  C  C23  1  0.115994  0.613745  0.326905  1
  C  C24  1  0.614679  0.883359  0.671952  1
  C  C25  1  0.384953  0.115081  0.671646  1
