# generated using pymatgen
data_K8SnAs4
_symmetry_space_group_name_H-M   'P 1'
_cell_length_a   11.07262392
_cell_length_b   11.07261790
_cell_length_c   11.07260200
_cell_angle_alpha   59.99988605
_cell_angle_beta   59.99992134
_cell_angle_gamma   59.99993170
_symmetry_Int_Tables_number   1
_chemical_formula_structural   K8SnAs4
_chemical_formula_sum   'K16 Sn2 As8'
_cell_volume   959.91924411
_cell_formula_units_Z   2
loop_
 _symmetry_equiv_pos_site_id
 _symmetry_equiv_pos_as_xyz
  1  'x, y, z'
loop_
 _atom_site_type_symbol
 _atom_site_label
 _atom_site_symmetry_multiplicity
 _atom_site_fract_x
 _atom_site_fract_y
 _atom_site_fract_z
 _atom_site_occupancy
  K  K0  1  0.625000  0.125000  0.625001  1
  K  K1  1  0.625000  0.625000  0.124999  1
  K  K2  1  0.125000  0.624999  0.625000  1
  K  K3  1  0.625000  0.625000  0.625001  1
  K  K4  1  0.023185  0.023186  0.476814  1
  K  K5  1  0.773186  0.226814  0.226814  1
  K  K6  1  0.226814  0.773185  0.773185  1
  K  K7  1  0.773185  0.773185  0.226815  1
  K  K8  1  0.773185  0.226814  0.773186  1
  K  K9  1  0.226815  0.773185  0.226815  1
  K  K10  1  0.476815  0.023186  0.476815  1
  K  K11  1  0.476814  0.023186  0.023185  1
  K  K12  1  0.023186  0.476815  0.476814  1
  K  K13  1  0.023185  0.476815  0.023186  1
  K  K14  1  0.226815  0.226814  0.773185  1
  K  K15  1  0.476814  0.476815  0.023186  1
  Sn  Sn16  1  0.750000  0.750002  0.749999  1
  Sn  Sn17  1  0.500001  0.499999  0.499998  1
  As  As18  1  0.398409  0.804772  0.398410  1
  As  As19  1  0.851591  0.851591  0.445228  1
  As  As20  1  0.445229  0.851590  0.851591  1
  As  As21  1  0.851590  0.851590  0.851591  1
  As  As22  1  0.804771  0.398409  0.398410  1
  As  As23  1  0.398410  0.398410  0.398410  1
  As  As24  1  0.398409  0.398409  0.804772  1
  As  As25  1  0.851591  0.445229  0.851591  1
