# generated using pymatgen
data_Sm8Ta11Si16Mo
_symmetry_space_group_name_H-M   'P 1'
_cell_length_a   6.90827143
_cell_length_b   7.11766770
_cell_length_c   13.46923100
_cell_angle_alpha   90.00000000
_cell_angle_beta   90.00000000
_cell_angle_gamma   89.95421113
_symmetry_Int_Tables_number   1
_chemical_formula_structural   Sm8Ta11Si16Mo
_chemical_formula_sum   'Sm8 Ta11 Si16 Mo1'
_cell_volume   662.29238918
_cell_formula_units_Z   1
loop_
 _symmetry_equiv_pos_site_id
 _symmetry_equiv_pos_as_xyz
  1  'x, y, z'
loop_
 _atom_site_type_symbol
 _atom_site_label
 _atom_site_symmetry_multiplicity
 _atom_site_fract_x
 _atom_site_fract_y
 _atom_site_fract_z
 _atom_site_occupancy
  Sm  Sm0  1  0.503849  0.330237  0.095975  1
  Sm  Sm1  1  0.002810  0.170223  0.404166  1
  Sm  Sm2  1  0.496100  0.670155  0.595602  1
  Sm  Sm3  1  0.996138  0.830252  0.904133  1
  Sm  Sm4  1  0.496100  0.670155  0.904398  1
  Sm  Sm5  1  0.996138  0.830252  0.595867  1
  Sm  Sm6  1  0.503849  0.330237  0.404025  1
  Sm  Sm7  1  0.002810  0.170223  0.095834  1
  Ta  Ta8  1  0.836712  0.325719  0.625793  1
  Ta  Ta9  1  0.336466  0.174284  0.874026  1
  Ta  Ta10  1  0.163970  0.672946  0.126632  1
  Ta  Ta11  1  0.663805  0.825739  0.373601  1
  Ta  Ta12  1  0.163970  0.672946  0.373368  1
  Ta  Ta13  1  0.663805  0.825739  0.126399  1
  Ta  Ta14  1  0.836712  0.325719  0.874207  1
  Ta  Ta15  1  0.336466  0.174284  0.625974  1
  Ta  Ta16  1  0.661196  0.010501  0.750000  1
  Ta  Ta17  1  0.160690  0.488546  0.750000  1
  Ta  Ta18  1  0.338398  0.988586  0.250000  1
  Si  Si19  1  0.660993  0.039467  0.542050  1
  Si  Si20  1  0.161416  0.460606  0.958096  1
  Si  Si21  1  0.338973  0.960929  0.042426  1
  Si  Si22  1  0.839386  0.540456  0.457354  1
  Si  Si23  1  0.338973  0.960929  0.457574  1
  Si  Si24  1  0.839386  0.540456  0.042646  1
  Si  Si25  1  0.660993  0.039467  0.957950  1
  Si  Si26  1  0.161416  0.460606  0.541904  1
  Si  Si27  1  0.540261  0.373629  0.750000  1
  Si  Si28  1  0.039563  0.125276  0.750000  1
  Si  Si29  1  0.462805  0.625461  0.250000  1
  Si  Si30  1  0.959529  0.872896  0.250000  1
  Si  Si31  1  0.795892  0.622630  0.750000  1
  Si  Si32  1  0.296294  0.876903  0.750000  1
  Si  Si33  1  0.200823  0.377838  0.250000  1
  Si  Si34  1  0.702627  0.123173  0.250000  1
  Mo  Mo35  1  0.840684  0.512529  0.250000  1
