# generated using pymatgen
data_HoPa5Al20(SiOs2)4
_symmetry_space_group_name_H-M   'P 1'
_cell_length_a   8.76611200
_cell_length_b   8.77321501
_cell_length_c   9.52376300
_cell_angle_alpha   90.00000000
_cell_angle_beta   90.00000000
_cell_angle_gamma   119.97321392
_symmetry_Int_Tables_number   1
_chemical_formula_structural   HoPa5Al20(SiOs2)4
_chemical_formula_sum   'Ho1 Pa5 Al20 Si4 Os8'
_cell_volume   634.48616688
_cell_formula_units_Z   1
loop_
 _symmetry_equiv_pos_site_id
 _symmetry_equiv_pos_as_xyz
  1  'x, y, z'
loop_
 _atom_site_type_symbol
 _atom_site_label
 _atom_site_symmetry_multiplicity
 _atom_site_fract_x
 _atom_site_fract_y
 _atom_site_fract_z
 _atom_site_occupancy
  Ho  Ho0  1  0.196077  0.392153  0.250000  1
  Pa  Pa1  1  0.800969  0.601939  0.750000  1
  Pa  Pa2  1  0.602589  0.801942  0.250000  1
  Pa  Pa3  1  0.397304  0.199033  0.750000  1
  Pa  Pa4  1  0.199353  0.801942  0.250000  1
  Pa  Pa5  1  0.801729  0.199033  0.750000  1
  Al  Al6  1  0.163506  0.327011  0.575339  1
  Al  Al7  1  0.837255  0.674510  0.420571  1
  Al  Al8  1  0.673998  0.837394  0.577543  1
  Al  Al9  1  0.837255  0.674510  0.079429  1
  Al  Al10  1  0.325878  0.163779  0.422447  1
  Al  Al11  1  0.163506  0.327011  0.924661  1
  Al  Al12  1  0.163395  0.837394  0.577543  1
  Al  Al13  1  0.325878  0.163779  0.077553  1
  Al  Al14  1  0.837900  0.163779  0.422447  1
  Al  Al15  1  0.673998  0.837394  0.922457  1
  Al  Al16  1  0.837900  0.163779  0.077553  1
  Al  Al17  1  0.163395  0.837394  0.922457  1
  Al  Al18  1  0.565111  0.130221  0.250000  1
  Al  Al19  1  0.435393  0.870787  0.750000  1
  Al  Al20  1  0.873829  0.435205  0.250000  1
  Al  Al21  1  0.129827  0.564447  0.750000  1
  Al  Al22  1  0.561377  0.435205  0.250000  1
  Al  Al23  1  0.434619  0.564447  0.750000  1
  Al  Al24  1  0.999900  0.999800  0.250000  1
  Al  Al25  1  0.999884  0.999769  0.750000  1
  Si  Si26  1  0.331518  0.663037  0.036904  1
  Si  Si27  1  0.666489  0.332976  0.967212  1
  Si  Si28  1  0.666489  0.332976  0.532788  1
  Si  Si29  1  0.331518  0.663037  0.463096  1
  Os  Os30  1  0.500205  0.000409  0.999342  1
  Os  Os31  1  0.999002  0.500797  0.998673  1
  Os  Os32  1  0.500205  0.000409  0.500658  1
  Os  Os33  1  0.501794  0.500797  0.998673  1
  Os  Os34  1  0.999002  0.500797  0.501327  1
  Os  Os35  1  0.501794  0.500797  0.501327  1
  Os  Os36  1  0.000077  0.000153  0.000014  1
  Os  Os37  1  0.000077  0.000153  0.499986  1
