# generated using pymatgen
data_Nd14Y2Cd4Co3Ru
_symmetry_space_group_name_H-M   'P 1'
_cell_length_a   9.82321024
_cell_length_b   9.81665969
_cell_length_c   9.77863803
_cell_angle_alpha   59.86948683
_cell_angle_beta   60.39489861
_cell_angle_gamma   60.02017268
_symmetry_Int_Tables_number   1
_chemical_formula_structural   Nd14Y2Cd4Co3Ru
_chemical_formula_sum   'Nd14 Y2 Cd4 Co3 Ru1'
_cell_volume   668.18020285
_cell_formula_units_Z   1
loop_
 _symmetry_equiv_pos_site_id
 _symmetry_equiv_pos_as_xyz
  1  'x, y, z'
loop_
 _atom_site_type_symbol
 _atom_site_label
 _atom_site_symmetry_multiplicity
 _atom_site_fract_x
 _atom_site_fract_y
 _atom_site_fract_z
 _atom_site_occupancy
  Nd  Nd0  1  0.438154  0.437821  0.061449  1
  Nd  Nd1  1  0.062666  0.057327  0.439743  1
  Nd  Nd2  1  0.438192  0.062573  0.061356  1
  Nd  Nd3  1  0.840917  0.852746  0.847163  1
  Nd  Nd4  1  0.688809  0.312279  0.312046  1
  Nd  Nd5  1  0.062745  0.440239  0.439682  1
  Nd  Nd6  1  0.316425  0.687580  0.687474  1
  Nd  Nd7  1  0.316427  0.308516  0.687482  1
  Nd  Nd8  1  0.845949  0.848340  0.457357  1
  Nd  Nd9  1  0.688795  0.686879  0.312071  1
  Nd  Nd10  1  0.458320  0.844736  0.852170  1
  Nd  Nd11  1  0.061408  0.441398  0.055786  1
  Nd  Nd12  1  0.840891  0.459208  0.847120  1
  Nd  Nd13  1  0.440933  0.059188  0.440773  1
  Y  Y14  1  0.312488  0.690143  0.307264  1
  Y  Y15  1  0.692298  0.309198  0.689258  1
  Cd  Cd16  1  0.080617  0.761784  0.079878  1
  Cd  Cd17  1  0.077847  0.080622  0.760946  1
  Cd  Cd18  1  0.760615  0.080981  0.077464  1
  Cd  Cd19  1  0.080591  0.077741  0.079856  1
  Co  Co20  1  0.637480  0.079937  0.641576  1
  Co  Co21  1  0.637499  0.640995  0.641587  1
  Co  Co22  1  0.639503  0.640363  0.079744  1
  Ru  Ru23  1  0.080432  0.639404  0.640749  1
