# generated using pymatgen
data_Er3Sn3GeIr2
_symmetry_space_group_name_H-M   'P 1'
_cell_length_a   7.36538100
_cell_length_b   7.36538070
_cell_length_c   4.16070200
_cell_angle_alpha   90.00000000
_cell_angle_beta   90.00000000
_cell_angle_gamma   120.00000462
_symmetry_Int_Tables_number   1
_chemical_formula_structural   Er3Sn3GeIr2
_chemical_formula_sum   'Er3 Sn3 Ge1 Ir2'
_cell_volume   195.47338779
_cell_formula_units_Z   1
loop_
 _symmetry_equiv_pos_site_id
 _symmetry_equiv_pos_as_xyz
  1  'x, y, z'
loop_
 _atom_site_type_symbol
 _atom_site_label
 _atom_site_symmetry_multiplicity
 _atom_site_fract_x
 _atom_site_fract_y
 _atom_site_fract_z
 _atom_site_occupancy
  Er  Er0  1  0.398602  0.412907  0.500000  1
  Er  Er1  1  0.587093  0.985695  0.500000  1
  Er  Er2  1  0.014305  0.601398  0.500000  1
  Sn  Sn3  1  0.741367  0.753793  0.000000  1
  Sn  Sn4  1  0.246207  0.987574  0.000000  1
  Sn  Sn5  1  0.012426  0.258633  0.000000  1
  Ge  Ge6  1  0.666667  0.333333  0.000000  1
  Ir  Ir7  1  0.333333  0.666667  0.000000  1
  Ir  Ir8  1  0.000000  0.000000  0.500000  1
