# generated using pymatgen
data_Li3B3PdPt8
_symmetry_space_group_name_H-M   'P 1'
_cell_length_a   9.33228980
_cell_length_b   9.31769202
_cell_length_c   2.80681900
_cell_angle_alpha   90.00000000
_cell_angle_beta   90.00000000
_cell_angle_gamma   119.94826833
_symmetry_Int_Tables_number   1
_chemical_formula_structural   Li3B3PdPt8
_chemical_formula_sum   'Li3 B3 Pd1 Pt8'
_cell_volume   211.47925023
_cell_formula_units_Z   1
loop_
 _symmetry_equiv_pos_site_id
 _symmetry_equiv_pos_as_xyz
  1  'x, y, z'
loop_
 _atom_site_type_symbol
 _atom_site_label
 _atom_site_symmetry_multiplicity
 _atom_site_fract_x
 _atom_site_fract_y
 _atom_site_fract_z
 _atom_site_occupancy
  Li  Li0  1  0.000000  0.362950  0.000000  1
  Li  Li1  1  0.637136  0.636924  0.000000  1
  Li  Li2  1  0.362864  0.999788  0.000000  1
  B  B3  1  0.000000  0.002313  0.500000  1
  B  B4  1  0.667714  0.334902  0.000000  1
  B  B5  1  0.332286  0.667190  0.000000  1
  Pd  Pd6  1  0.000000  0.823390  0.000000  1
  Pt  Pt7  1  0.681883  0.165029  0.500000  1
  Pt  Pt8  1  0.483434  0.317315  0.500000  1
  Pt  Pt9  1  0.835497  0.517075  0.500000  1
  Pt  Pt10  1  0.164503  0.681578  0.500000  1
  Pt  Pt11  1  0.318117  0.483145  0.500000  1
  Pt  Pt12  1  0.516566  0.833881  0.500000  1
  Pt  Pt13  1  0.176943  0.175731  0.000000  1
  Pt  Pt14  1  0.823057  0.998788  0.000000  1
