# generated using pymatgen
data_Y2Er18Zn3Cd3Ru2
_symmetry_space_group_name_H-M   'P 1'
_cell_length_a   9.45395104
_cell_length_b   9.45395100
_cell_length_c   9.62247100
_cell_angle_alpha   90.00000000
_cell_angle_beta   90.00000000
_cell_angle_gamma   119.98912985
_symmetry_Int_Tables_number   1
_chemical_formula_structural   Y2Er18Zn3Cd3Ru2
_chemical_formula_sum   'Y2 Er18 Zn3 Cd3 Ru2'
_cell_volume   744.88889324
_cell_formula_units_Z   1
loop_
 _symmetry_equiv_pos_site_id
 _symmetry_equiv_pos_as_xyz
  1  'x, y, z'
loop_
 _atom_site_type_symbol
 _atom_site_label
 _atom_site_symmetry_multiplicity
 _atom_site_fract_x
 _atom_site_fract_y
 _atom_site_fract_z
 _atom_site_occupancy
  Y  Y0  1  0.459136  0.917955  0.750000  1
  Y  Y1  1  0.082045  0.540864  0.750000  1
  Er  Er2  1  0.999964  0.000036  0.474724  1
  Er  Er3  1  0.999964  0.000036  0.025276  1
  Er  Er4  1  0.208062  0.791938  0.438496  1
  Er  Er5  1  0.208294  0.416243  0.438696  1
  Er  Er6  1  0.583757  0.791706  0.438696  1
  Er  Er7  1  0.790912  0.209088  0.556756  1
  Er  Er8  1  0.790620  0.581799  0.556887  1
  Er  Er9  1  0.418201  0.209380  0.556887  1
  Er  Er10  1  0.790912  0.209088  0.943244  1
  Er  Er11  1  0.790620  0.581799  0.943113  1
  Er  Er12  1  0.418201  0.209380  0.943113  1
  Er  Er13  1  0.208062  0.791938  0.061504  1
  Er  Er14  1  0.208294  0.416243  0.061304  1
  Er  Er15  1  0.583757  0.791706  0.061304  1
  Er  Er16  1  0.541493  0.458507  0.250000  1
  Er  Er17  1  0.541486  0.082942  0.250000  1
  Er  Er18  1  0.917058  0.458514  0.250000  1
  Er  Er19  1  0.459276  0.540724  0.750000  1
  Zn  Zn20  1  0.878401  0.121599  0.250000  1
  Zn  Zn21  1  0.878365  0.756782  0.250000  1
  Zn  Zn22  1  0.243218  0.121635  0.250000  1
  Cd  Cd23  1  0.110229  0.889771  0.750000  1
  Cd  Cd24  1  0.110607  0.220814  0.750000  1
  Cd  Cd25  1  0.779186  0.889393  0.750000  1
  Ru  Ru26  1  0.333317  0.666683  0.250000  1
  Ru  Ru27  1  0.666561  0.333439  0.750000  1
