# generated using pymatgen
data_Y16Tm4(Ir3Pt)3
_symmetry_space_group_name_H-M   'P 1'
_cell_length_a   10.98434540
_cell_length_b   10.98434540
_cell_length_c   6.34944306
_cell_angle_alpha   89.98940462
_cell_angle_beta   89.98940462
_cell_angle_gamma   90.17870422
_symmetry_Int_Tables_number   1
_chemical_formula_structural   Y16Tm4(Ir3Pt)3
_chemical_formula_sum   'Y16 Tm4 Ir9 Pt3'
_cell_volume   766.09365780
_cell_formula_units_Z   1
loop_
 _symmetry_equiv_pos_site_id
 _symmetry_equiv_pos_as_xyz
  1  'x, y, z'
loop_
 _atom_site_type_symbol
 _atom_site_label
 _atom_site_symmetry_multiplicity
 _atom_site_fract_x
 _atom_site_fract_y
 _atom_site_fract_z
 _atom_site_occupancy
  Y  Y0  1  0.292830  0.086467  0.372387  1
  Y  Y1  1  0.292028  0.909284  0.877035  1
  Y  Y2  1  0.706339  0.089439  0.874161  1
  Y  Y3  1  0.705606  0.910459  0.373440  1
  Y  Y4  1  0.584778  0.789914  0.878404  1
  Y  Y5  1  0.585055  0.210189  0.378352  1
  Y  Y6  1  0.411590  0.790231  0.378113  1
  Y  Y7  1  0.414709  0.210148  0.878215  1
  Y  Y8  1  0.210086  0.415222  0.621596  1
  Y  Y9  1  0.209769  0.588410  0.121887  1
  Y  Y10  1  0.789811  0.414945  0.121648  1
  Y  Y11  1  0.789852  0.585291  0.621785  1
  Y  Y12  1  0.913533  0.707170  0.127613  1
  Y  Y13  1  0.910561  0.293661  0.625839  1
  Y  Y14  1  0.090716  0.707972  0.622965  1
  Y  Y15  1  0.089541  0.294394  0.126560  1
  Tm  Tm16  1  0.001354  0.998203  0.499223  1
  Tm  Tm17  1  0.001797  0.998646  0.000777  1
  Tm  Tm18  1  0.499847  0.499970  0.000360  1
  Tm  Tm19  1  0.500030  0.500153  0.499640  1
  Ir  Ir20  1  0.149849  0.850151  0.250000  1
  Ir  Ir21  1  0.652247  0.347753  0.750000  1
  Ir  Ir22  1  0.652451  0.652279  0.249736  1
  Ir  Ir23  1  0.347721  0.347549  0.250264  1
  Ir  Ir24  1  0.348645  0.651355  0.750000  1
  Ir  Ir25  1  0.500472  0.000069  0.124305  1
  Ir  Ir26  1  0.500336  0.000230  0.625516  1
  Ir  Ir27  1  0.999770  0.499664  0.874484  1
  Ir  Ir28  1  0.999931  0.499528  0.375695  1
  Pt  Pt29  1  0.849555  0.150445  0.250000  1
  Pt  Pt30  1  0.848328  0.849136  0.749905  1
  Pt  Pt31  1  0.150864  0.151672  0.750095  1
