# generated using pymatgen
data_VNi2Mo3C
_symmetry_space_group_name_H-M   'P 1'
_cell_length_a   7.91859301
_cell_length_b   7.91859187
_cell_length_c   7.91859300
_cell_angle_alpha   59.99999947
_cell_angle_beta   60.00000422
_cell_angle_gamma   59.99999806
_symmetry_Int_Tables_number   1
_chemical_formula_structural   VNi2Mo3C
_chemical_formula_sum   'V4 Ni8 Mo12 C4'
_cell_volume   351.09853034
_cell_formula_units_Z   4
loop_
 _symmetry_equiv_pos_site_id
 _symmetry_equiv_pos_as_xyz
  1  'x, y, z'
loop_
 _atom_site_type_symbol
 _atom_site_label
 _atom_site_symmetry_multiplicity
 _atom_site_fract_x
 _atom_site_fract_y
 _atom_site_fract_z
 _atom_site_occupancy
  V  V0  1  0.125000  0.125000  0.125000  1
  V  V1  1  0.625000  0.125000  0.125000  1
  V  V2  1  0.125000  0.125000  0.625000  1
  V  V3  1  0.125000  0.625000  0.125000  1
  Ni  Ni4  1  0.919575  0.919575  0.241276  1
  Ni  Ni5  1  0.330425  0.330425  0.330425  1
  Ni  Ni6  1  0.241276  0.919575  0.919575  1
  Ni  Ni7  1  0.330425  0.008724  0.330425  1
  Ni  Ni8  1  0.008724  0.330425  0.330425  1
  Ni  Ni9  1  0.330425  0.330425  0.008724  1
  Ni  Ni10  1  0.919575  0.919575  0.919575  1
  Ni  Ni11  1  0.919575  0.241276  0.919575  1
  Mo  Mo12  1  0.688948  0.311052  0.311052  1
  Mo  Mo13  1  0.938948  0.938948  0.561052  1
  Mo  Mo14  1  0.688948  0.688948  0.311052  1
  Mo  Mo15  1  0.688948  0.311052  0.688948  1
  Mo  Mo16  1  0.311052  0.688948  0.311052  1
  Mo  Mo17  1  0.561052  0.938948  0.561052  1
  Mo  Mo18  1  0.561052  0.938948  0.938948  1
  Mo  Mo19  1  0.938948  0.561052  0.561052  1
  Mo  Mo20  1  0.938948  0.561052  0.938948  1
  Mo  Mo21  1  0.311052  0.311052  0.688948  1
  Mo  Mo22  1  0.561052  0.561052  0.938948  1
  Mo  Mo23  1  0.311052  0.688948  0.688948  1
  C  C24  1  0.625000  0.625000  0.625000  1
  C  C25  1  0.625000  0.625000  0.125000  1
  C  C26  1  0.125000  0.625000  0.625000  1
  C  C27  1  0.625000  0.125000  0.625000  1
