# generated using pymatgen
data_HoLu(Mn2Si)4
_symmetry_space_group_name_H-M   'P 1'
_cell_length_a   6.56298840
_cell_length_b   7.41718110
_cell_length_c   3.90649900
_cell_angle_alpha   90.00000000
_cell_angle_beta   90.00000000
_cell_angle_gamma   89.70761554
_symmetry_Int_Tables_number   1
_chemical_formula_structural   HoLu(Mn2Si)4
_chemical_formula_sum   'Ho1 Lu1 Mn8 Si4'
_cell_volume   190.16149475
_cell_formula_units_Z   1
loop_
 _symmetry_equiv_pos_site_id
 _symmetry_equiv_pos_as_xyz
  1  'x, y, z'
loop_
 _atom_site_type_symbol
 _atom_site_label
 _atom_site_symmetry_multiplicity
 _atom_site_fract_x
 _atom_site_fract_y
 _atom_site_fract_z
 _atom_site_occupancy
  Ho  Ho0  1  0.500000  0.500000  0.000000  1
  Lu  Lu1  1  0.000000  0.000000  0.500000  1
  Mn  Mn2  1  0.856609  0.385203  0.500000  1
  Mn  Mn3  1  0.143391  0.614797  0.500000  1
  Mn  Mn4  1  0.644552  0.886327  0.000000  1
  Mn  Mn5  1  0.355448  0.113673  0.000000  1
  Mn  Mn6  1  0.565657  0.150586  0.500000  1
  Mn  Mn7  1  0.434343  0.849414  0.500000  1
  Mn  Mn8  1  0.936150  0.652588  0.000000  1
  Mn  Mn9  1  0.063850  0.347412  0.000000  1
  Si  Si10  1  0.258464  0.309968  0.500000  1
  Si  Si11  1  0.741536  0.690032  0.500000  1
  Si  Si12  1  0.239971  0.813027  0.000000  1
  Si  Si13  1  0.760029  0.186973  0.000000  1
