# generated using pymatgen
data_Sr4Zn(Si2Pt)5
_symmetry_space_group_name_H-M   'P 1'
_cell_length_a   8.39100827
_cell_length_b   8.39100752
_cell_length_c   8.39100800
_cell_angle_alpha   137.77800759
_cell_angle_beta   105.20001014
_cell_angle_gamma   89.84322963
_symmetry_Int_Tables_number   1
_chemical_formula_structural   Sr4Zn(Si2Pt)5
_chemical_formula_sum   'Sr4 Zn1 Si10 Pt5'
_cell_volume   366.06042724
_cell_formula_units_Z   1
loop_
 _symmetry_equiv_pos_site_id
 _symmetry_equiv_pos_as_xyz
  1  'x, y, z'
loop_
 _atom_site_type_symbol
 _atom_site_label
 _atom_site_symmetry_multiplicity
 _atom_site_fract_x
 _atom_site_fract_y
 _atom_site_fract_z
 _atom_site_occupancy
  Sr  Sr0  1  0.111757  0.872737  0.236665  1
  Sr  Sr1  1  0.888243  0.124908  0.760980  1
  Sr  Sr2  1  0.636072  0.375092  0.263335  1
  Sr  Sr3  1  0.363928  0.627263  0.739020  1
  Zn  Zn4  1  0.500000  0.750000  0.250000  1
  Si  Si5  1  0.000000  0.750000  0.750000  1
  Si  Si6  1  0.000000  0.250000  0.250000  1
  Si  Si7  1  0.270046  0.020046  0.750000  1
  Si  Si8  1  0.729954  0.479954  0.750000  1
  Si  Si9  1  0.736459  0.986459  0.250000  1
  Si  Si10  1  0.263541  0.513541  0.250000  1
  Si  Si11  1  0.764976  0.615816  0.145124  1
  Si  Si12  1  0.235024  0.380148  0.850840  1
  Si  Si13  1  0.470692  0.119852  0.354876  1
  Si  Si14  1  0.529308  0.884184  0.649160  1
  Pt  Pt15  1  0.500000  0.250000  0.750000  1
  Pt  Pt16  1  0.022248  0.636554  0.389562  1
  Pt  Pt17  1  0.977752  0.367313  0.614306  1
  Pt  Pt18  1  0.246992  0.132687  0.110438  1
  Pt  Pt19  1  0.753008  0.863446  0.885694  1
