# generated using pymatgen
data_Y3V(Co4P3)2
_symmetry_space_group_name_H-M   'P 1'
_cell_length_a   3.69091700
_cell_length_b   10.55248900
_cell_length_c   12.22589600
_cell_angle_alpha   90.00000000
_cell_angle_beta   90.00000000
_cell_angle_gamma   90.00000000
_symmetry_Int_Tables_number   1
_chemical_formula_structural   Y3V(Co4P3)2
_chemical_formula_sum   'Y6 V2 Co16 P12'
_cell_volume   476.17861147
_cell_formula_units_Z   2
loop_
 _symmetry_equiv_pos_site_id
 _symmetry_equiv_pos_as_xyz
  1  'x, y, z'
loop_
 _atom_site_type_symbol
 _atom_site_label
 _atom_site_symmetry_multiplicity
 _atom_site_fract_x
 _atom_site_fract_y
 _atom_site_fract_z
 _atom_site_occupancy
  Y  Y0  1  0.000000  0.500000  0.523207  1
  Y  Y1  1  0.500000  0.000000  0.476793  1
  Y  Y2  1  0.500000  0.818254  0.204502  1
  Y  Y3  1  0.500000  0.181746  0.204502  1
  Y  Y4  1  0.000000  0.681746  0.795498  1
  Y  Y5  1  0.000000  0.318254  0.795498  1
  V  V6  1  0.500000  0.500000  0.153951  1
  V  V7  1  0.000000  0.000000  0.846049  1
  Co  Co8  1  0.500000  0.500000  0.702024  1
  Co  Co9  1  0.000000  0.000000  0.297976  1
  Co  Co10  1  0.000000  0.500000  0.986688  1
  Co  Co11  1  0.500000  0.000000  0.013312  1
  Co  Co12  1  0.500000  0.332563  0.992942  1
  Co  Co13  1  0.500000  0.667437  0.992942  1
  Co  Co14  1  0.000000  0.167437  0.007058  1
  Co  Co15  1  0.000000  0.832563  0.007058  1
  Co  Co16  1  0.500000  0.296006  0.431214  1
  Co  Co17  1  0.500000  0.703994  0.431214  1
  Co  Co18  1  0.000000  0.203994  0.568786  1
  Co  Co19  1  0.000000  0.796006  0.568786  1
  Co  Co20  1  0.500000  0.879103  0.707882  1
  Co  Co21  1  0.500000  0.120897  0.707882  1
  Co  Co22  1  0.000000  0.620897  0.292118  1
  Co  Co23  1  0.000000  0.379103  0.292118  1
  P  P24  1  0.500000  0.500000  0.882122  1
  P  P25  1  0.000000  0.000000  0.117878  1
  P  P26  1  0.500000  0.500000  0.346683  1
  P  P27  1  0.000000  0.000000  0.653317  1
  P  P28  1  0.500000  0.310778  0.615847  1
  P  P29  1  0.500000  0.689222  0.615847  1
  P  P30  1  0.000000  0.189222  0.384153  1
  P  P31  1  0.000000  0.810778  0.384153  1
  P  P32  1  0.500000  0.846310  0.892471  1
  P  P33  1  0.500000  0.153690  0.892471  1
  P  P34  1  0.000000  0.653690  0.107529  1
  P  P35  1  0.000000  0.346310  0.107529  1
