# generated using pymatgen
data_Fe6Si2TcMo3
_symmetry_space_group_name_H-M   'P 1'
_cell_length_a   4.74074300
_cell_length_b   4.74074286
_cell_length_c   7.65018500
_cell_angle_alpha   90.00000000
_cell_angle_beta   90.00000000
_cell_angle_gamma   119.99999399
_symmetry_Int_Tables_number   1
_chemical_formula_structural   Fe6Si2TcMo3
_chemical_formula_sum   'Fe6 Si2 Tc1 Mo3'
_cell_volume   148.90024346
_cell_formula_units_Z   1
loop_
 _symmetry_equiv_pos_site_id
 _symmetry_equiv_pos_as_xyz
  1  'x, y, z'
loop_
 _atom_site_type_symbol
 _atom_site_label
 _atom_site_symmetry_multiplicity
 _atom_site_fract_x
 _atom_site_fract_y
 _atom_site_fract_z
 _atom_site_occupancy
  Fe  Fe0  1  0.828533  0.171467  0.749812  1
  Fe  Fe1  1  0.828533  0.657063  0.749812  1
  Fe  Fe2  1  0.342937  0.171467  0.749812  1
  Fe  Fe3  1  0.171292  0.828708  0.249269  1
  Fe  Fe4  1  0.171292  0.342584  0.249269  1
  Fe  Fe5  1  0.657416  0.828708  0.249269  1
  Si  Si6  1  0.000000  0.000000  0.998825  1
  Si  Si7  1  0.000000  0.000000  0.499304  1
  Tc  Tc8  1  0.333333  0.666667  0.936511  1
  Mo  Mo9  1  0.666667  0.333333  0.061668  1
  Mo  Mo10  1  0.666667  0.333333  0.434544  1
  Mo  Mo11  1  0.333333  0.666667  0.571906  1
