# generated using pymatgen
data_Tm4Lu8TlInFe3
_symmetry_space_group_name_H-M   'P 1'
_cell_length_a   8.18784963
_cell_length_b   8.18784998
_cell_length_c   8.18784993
_cell_angle_alpha   108.32495914
_cell_angle_beta   108.61887138
_cell_angle_gamma   111.48899609
_symmetry_Int_Tables_number   1
_chemical_formula_structural   Tm4Lu8TlInFe3
_chemical_formula_sum   'Tm4 Lu8 Tl1 In1 Fe3'
_cell_volume   422.16207999
_cell_formula_units_Z   1
loop_
 _symmetry_equiv_pos_site_id
 _symmetry_equiv_pos_as_xyz
  1  'x, y, z'
loop_
 _atom_site_type_symbol
 _atom_site_label
 _atom_site_symmetry_multiplicity
 _atom_site_fract_x
 _atom_site_fract_y
 _atom_site_fract_z
 _atom_site_occupancy
  Tm  Tm0  1  0.307150  0.308078  0.615229  1
  Tm  Tm1  1  0.692850  0.691922  0.384771  1
  Tm  Tm2  1  0.692850  0.308078  0.000928  1
  Tm  Tm3  1  0.307150  0.691922  0.999072  1
  Lu  Lu4  1  0.189568  0.424526  0.234958  1
  Lu  Lu5  1  0.810432  0.575474  0.765042  1
  Lu  Lu6  1  0.189568  0.954609  0.765042  1
  Lu  Lu7  1  0.953887  0.190166  0.763722  1
  Lu  Lu8  1  0.810432  0.045391  0.234958  1
  Lu  Lu9  1  0.046113  0.809834  0.236278  1
  Lu  Lu10  1  0.426444  0.190166  0.236278  1
  Lu  Lu11  1  0.573556  0.809834  0.763722  1
  Tl  Tl12  1  0.500000  0.000000  0.500000  1
  In  In13  1  0.000000  0.500000  0.500000  1
  Fe  Fe14  1  0.383343  0.383343  0.000000  1
  Fe  Fe15  1  0.616657  0.616657  0.000000  1
  Fe  Fe16  1  0.000000  0.000000  0.000000  1
