# generated using pymatgen
data_S(O2F3)2
_symmetry_space_group_name_H-M   'P 1'
_cell_length_a   6.68340086
_cell_length_b   6.69412511
_cell_length_c   6.69322524
_cell_angle_alpha   119.49758394
_cell_angle_beta   119.34989961
_cell_angle_gamma   91.03872757
_symmetry_Int_Tables_number   1
_chemical_formula_structural   S(O2F3)2
_chemical_formula_sum   'S1 O4 F6'
_cell_volume   213.48144102
_cell_formula_units_Z   1
loop_
 _symmetry_equiv_pos_site_id
 _symmetry_equiv_pos_as_xyz
  1  'x, y, z'
loop_
 _atom_site_type_symbol
 _atom_site_label
 _atom_site_symmetry_multiplicity
 _atom_site_fract_x
 _atom_site_fract_y
 _atom_site_fract_z
 _atom_site_occupancy
  S  S0  1  0.006796  0.006786  0.000017  1
  O  O1  1  0.280293  0.689378  0.408033  1
  O  O2  1  0.280319  0.872166  0.590779  1
  O  O3  1  0.690307  0.281116  0.409287  1
  O  O4  1  0.872496  0.280815  0.591794  1
  F  F5  1  0.177000  0.176731  0.000212  1
  F  F6  1  0.173970  0.174133  0.334796  1
  F  F7  1  0.173988  0.839190  0.999838  1
  F  F8  1  0.835833  0.836083  0.999821  1
  F  F9  1  0.839107  0.838931  0.665235  1
  F  F10  1  0.839093  0.173870  0.000190  1
