# generated using pymatgen
data_DyHo2Tm2Si3
_symmetry_space_group_name_H-M   'P 1'
_cell_length_a   8.38504216
_cell_length_b   8.38786200
_cell_length_c   6.27767100
_cell_angle_alpha   90.00000000
_cell_angle_beta   90.00000000
_cell_angle_gamma   120.01113899
_symmetry_Int_Tables_number   1
_chemical_formula_structural   DyHo2Tm2Si3
_chemical_formula_sum   'Dy2 Ho4 Tm4 Si6'
_cell_volume   382.32874620
_cell_formula_units_Z   2
loop_
 _symmetry_equiv_pos_site_id
 _symmetry_equiv_pos_as_xyz
  1  'x, y, z'
loop_
 _atom_site_type_symbol
 _atom_site_label
 _atom_site_symmetry_multiplicity
 _atom_site_fract_x
 _atom_site_fract_y
 _atom_site_fract_z
 _atom_site_occupancy
  Dy  Dy0  1  0.756420  0.756459  0.250000  1
  Dy  Dy1  1  0.243580  0.000039  0.250000  1
  Ho  Ho2  1  0.000000  0.243720  0.250000  1
  Ho  Ho3  1  0.243484  0.243585  0.750000  1
  Ho  Ho4  1  0.756516  0.000101  0.750000  1
  Ho  Ho5  1  0.000000  0.756310  0.750000  1
  Tm  Tm6  1  0.666742  0.333322  0.500064  1
  Tm  Tm7  1  0.333258  0.666582  0.500064  1
  Tm  Tm8  1  0.333258  0.666582  0.999936  1
  Tm  Tm9  1  0.666742  0.333322  0.999936  1
  Si  Si10  1  0.394367  0.394576  0.250000  1
  Si  Si11  1  0.605633  0.000209  0.250000  1
  Si  Si12  1  0.000000  0.605112  0.250000  1
  Si  Si13  1  0.605545  0.605573  0.750000  1
  Si  Si14  1  0.394455  0.000027  0.750000  1
  Si  Si15  1  0.000000  0.394481  0.750000  1
