# generated using pymatgen
data_Lu3ThMgOs
_symmetry_space_group_name_H-M   'P 1'
_cell_length_a   9.65016112
_cell_length_b   9.65016104
_cell_length_c   9.65016300
_cell_angle_alpha   60.00000356
_cell_angle_beta   60.00000383
_cell_angle_gamma   60.00000624
_symmetry_Int_Tables_number   1
_chemical_formula_structural   Lu3ThMgOs
_chemical_formula_sum   'Lu12 Th4 Mg4 Os4'
_cell_volume   635.46088157
_cell_formula_units_Z   4
loop_
 _symmetry_equiv_pos_site_id
 _symmetry_equiv_pos_as_xyz
  1  'x, y, z'
loop_
 _atom_site_type_symbol
 _atom_site_label
 _atom_site_symmetry_multiplicity
 _atom_site_fract_x
 _atom_site_fract_y
 _atom_site_fract_z
 _atom_site_occupancy
  Lu  Lu0  1  0.813561  0.186439  0.186439  1
  Lu  Lu1  1  0.186439  0.813561  0.813561  1
  Lu  Lu2  1  0.186439  0.813561  0.186439  1
  Lu  Lu3  1  0.813561  0.186439  0.813561  1
  Lu  Lu4  1  0.186439  0.186439  0.813561  1
  Lu  Lu5  1  0.813561  0.813561  0.186439  1
  Lu  Lu6  1  0.935401  0.564599  0.564599  1
  Lu  Lu7  1  0.564599  0.935401  0.935401  1
  Lu  Lu8  1  0.564599  0.935401  0.564599  1
  Lu  Lu9  1  0.935401  0.564599  0.935401  1
  Lu  Lu10  1  0.564599  0.564599  0.935401  1
  Lu  Lu11  1  0.935401  0.935401  0.564599  1
  Th  Th12  1  0.347972  0.347972  0.347972  1
  Th  Th13  1  0.347972  0.347972  0.956087  1
  Th  Th14  1  0.347972  0.956087  0.347972  1
  Th  Th15  1  0.956087  0.347972  0.347972  1
  Mg  Mg16  1  0.581299  0.581299  0.581299  1
  Mg  Mg17  1  0.581299  0.581299  0.256102  1
  Mg  Mg18  1  0.581299  0.256102  0.581299  1
  Mg  Mg19  1  0.256102  0.581299  0.581299  1
  Os  Os20  1  0.141321  0.141321  0.141321  1
  Os  Os21  1  0.141321  0.141321  0.576035  1
  Os  Os22  1  0.141321  0.576035  0.141321  1
  Os  Os23  1  0.576035  0.141321  0.141321  1
