# generated using pymatgen
data_Tb2Al9Pd2Rh
_symmetry_space_group_name_H-M   'P 1'
_cell_length_a   7.62266309
_cell_length_b   7.62268234
_cell_length_c   9.48071436
_cell_angle_alpha   89.98411983
_cell_angle_beta   89.98404758
_cell_angle_gamma   119.55315378
_symmetry_Int_Tables_number   1
_chemical_formula_structural   Tb2Al9Pd2Rh
_chemical_formula_sum   'Tb4 Al18 Pd4 Rh2'
_cell_volume   479.20807001
_cell_formula_units_Z   2
loop_
 _symmetry_equiv_pos_site_id
 _symmetry_equiv_pos_as_xyz
  1  'x, y, z'
loop_
 _atom_site_type_symbol
 _atom_site_label
 _atom_site_symmetry_multiplicity
 _atom_site_fract_x
 _atom_site_fract_y
 _atom_site_fract_z
 _atom_site_occupancy
  Tb  Tb0  1  0.994995  0.669885  0.250453  1
  Tb  Tb1  1  0.007343  0.331565  0.749630  1
  Tb  Tb2  1  0.668435  0.992657  0.250370  1
  Tb  Tb3  1  0.330117  0.005007  0.749546  1
  Al  Al4  1  0.128862  0.129938  0.253625  1
  Al  Al5  1  0.870065  0.871141  0.746371  1
  Al  Al6  1  0.000789  0.334585  0.077489  1
  Al  Al7  1  0.998282  0.664997  0.922200  1
  Al  Al8  1  0.997175  0.665233  0.573207  1
  Al  Al9  1  0.334770  0.002826  0.426792  1
  Al  Al10  1  0.995120  0.330404  0.426352  1
  Al  Al11  1  0.669598  0.004881  0.573647  1
  Al  Al12  1  0.665415  0.999211  0.922511  1
  Al  Al13  1  0.335004  0.001719  0.077800  1
  Al  Al14  1  0.332373  0.329241  0.551194  1
  Al  Al15  1  0.670761  0.667628  0.448806  1
  Al  Al16  1  0.665923  0.665795  0.057187  1
  Al  Al17  1  0.334206  0.334079  0.942813  1
  Al  Al18  1  0.339530  0.546602  0.251380  1
  Al  Al19  1  0.659551  0.450854  0.745977  1
  Al  Al20  1  0.549147  0.340449  0.254023  1
  Al  Al21  1  0.453399  0.660471  0.748619  1
  Pd  Pd22  1  0.671981  0.328016  0.000002  1
  Pd  Pd23  1  0.327660  0.672338  0.000001  1
  Pd  Pd24  1  0.327685  0.672312  0.500000  1
  Pd  Pd25  1  0.000026  0.999978  0.000000  1
  Rh  Rh26  1  0.671505  0.328492  0.500001  1
  Rh  Rh27  1  0.000284  0.999696  0.500004  1
