# generated using pymatgen
data_DyHoB5
_symmetry_space_group_name_H-M   'P 1'
_cell_length_a   7.08614100
_cell_length_b   7.08342547
_cell_length_c   7.11351862
_cell_angle_alpha   76.69159311
_cell_angle_beta   90.00000000
_cell_angle_gamma   90.00000000
_symmetry_Int_Tables_number   1
_chemical_formula_structural   DyHoB5
_chemical_formula_sum   'Dy4 Ho4 B20'
_cell_volume   347.46830412
_cell_formula_units_Z   4
loop_
 _symmetry_equiv_pos_site_id
 _symmetry_equiv_pos_as_xyz
  1  'x, y, z'
loop_
 _atom_site_type_symbol
 _atom_site_label
 _atom_site_symmetry_multiplicity
 _atom_site_fract_x
 _atom_site_fract_y
 _atom_site_fract_z
 _atom_site_occupancy
  Dy  Dy0  1  0.692346  0.769111  0.626814  1
  Dy  Dy1  1  0.192346  0.230889  0.873186  1
  Dy  Dy2  1  0.307654  0.230889  0.373186  1
  Dy  Dy3  1  0.807654  0.769111  0.126814  1
  Ho  Ho4  1  0.315148  0.755976  0.253074  1
  Ho  Ho5  1  0.815148  0.244024  0.246926  1
  Ho  Ho6  1  0.684852  0.244024  0.746926  1
  Ho  Ho7  1  0.184852  0.755976  0.753074  1
  B  B8  1  0.502431  0.313704  0.041131  1
  B  B9  1  0.002431  0.686296  0.458869  1
  B  B10  1  0.497569  0.686296  0.958869  1
  B  B11  1  0.997569  0.313704  0.541131  1
  B  B12  1  0.489001  0.926416  0.924472  1
  B  B13  1  0.989001  0.073584  0.575528  1
  B  B14  1  0.510999  0.073584  0.075528  1
  B  B15  1  0.010999  0.926416  0.424472  1
  B  B16  1  0.325984  0.496267  0.039861  1
  B  B17  1  0.825984  0.503733  0.460139  1
  B  B18  1  0.674016  0.503733  0.960139  1
  B  B19  1  0.174016  0.496267  0.539861  1
  B  B20  1  0.910928  0.498625  0.910970  1
  B  B21  1  0.410928  0.501375  0.589030  1
  B  B22  1  0.089072  0.501375  0.089030  1
  B  B23  1  0.589072  0.498625  0.410970  1
  B  B24  1  0.961629  0.496543  0.674487  1
  B  B25  1  0.461629  0.503457  0.825513  1
  B  B26  1  0.038371  0.503457  0.325513  1
  B  B27  1  0.538371  0.496543  0.174487  1
