# generated using pymatgen
data_Tb3Th(CuSi3)2
_symmetry_space_group_name_H-M   'P 1'
_cell_length_a   8.08816116
_cell_length_b   8.03649845
_cell_length_c   5.75985699
_cell_angle_alpha   69.55194382
_cell_angle_beta   68.59194454
_cell_angle_gamma   41.85611978
_symmetry_Int_Tables_number   1
_chemical_formula_structural   Tb3Th(CuSi3)2
_chemical_formula_sum   'Tb3 Th1 Cu2 Si6'
_cell_volume   230.76573110
_cell_formula_units_Z   1
loop_
 _symmetry_equiv_pos_site_id
 _symmetry_equiv_pos_as_xyz
  1  'x, y, z'
loop_
 _atom_site_type_symbol
 _atom_site_label
 _atom_site_symmetry_multiplicity
 _atom_site_fract_x
 _atom_site_fract_y
 _atom_site_fract_z
 _atom_site_occupancy
  Tb  Tb0  1  0.249649  0.250352  0.249648  1
  Tb  Tb1  1  0.749648  0.750351  0.749649  1
  Tb  Tb2  1  0.756410  0.243591  0.756408  1
  Th  Th3  1  0.244343  0.755658  0.244341  1
  Cu  Cu4  1  0.668100  0.666090  0.333909  1
  Cu  Cu5  1  0.333910  0.331900  0.668099  1
  Si  Si6  1  0.828543  0.831959  0.168040  1
  Si  Si7  1  0.829875  0.340141  0.170808  1
  Si  Si8  1  0.659859  0.170125  0.340824  1
  Si  Si9  1  0.340825  0.829191  0.659858  1
  Si  Si10  1  0.170809  0.659175  0.829874  1
  Si  Si11  1  0.168041  0.171457  0.828542  1
