# generated using pymatgen
data_Tm16Cd3Co4Ag
_symmetry_space_group_name_H-M   'P 1'
_cell_length_a   9.36304130
_cell_length_b   9.35227589
_cell_length_c   9.36304300
_cell_angle_alpha   59.96191918
_cell_angle_beta   60.00000460
_cell_angle_gamma   59.96191969
_symmetry_Int_Tables_number   1
_chemical_formula_structural   Tm16Cd3Co4Ag
_chemical_formula_sum   'Tm16 Cd3 Co4 Ag1'
_cell_volume   579.41011103
_cell_formula_units_Z   1
loop_
 _symmetry_equiv_pos_site_id
 _symmetry_equiv_pos_as_xyz
  1  'x, y, z'
loop_
 _atom_site_type_symbol
 _atom_site_label
 _atom_site_symmetry_multiplicity
 _atom_site_fract_x
 _atom_site_fract_y
 _atom_site_fract_z
 _atom_site_occupancy
  Tm  Tm0  1  0.153563  0.539309  0.153563  1
  Tm  Tm1  1  0.688074  0.311990  0.688074  1
  Tm  Tm2  1  0.688074  0.311990  0.311861  1
  Tm  Tm3  1  0.938475  0.558683  0.564366  1
  Tm  Tm4  1  0.539804  0.152741  0.153727  1
  Tm  Tm5  1  0.153727  0.152741  0.539804  1
  Tm  Tm6  1  0.937952  0.936613  0.562718  1
  Tm  Tm7  1  0.311863  0.688228  0.311863  1
  Tm  Tm8  1  0.562718  0.936613  0.937952  1
  Tm  Tm9  1  0.562718  0.936613  0.562718  1
  Tm  Tm10  1  0.688045  0.688228  0.311863  1
  Tm  Tm11  1  0.564366  0.558683  0.938475  1
  Tm  Tm12  1  0.938475  0.558683  0.938475  1
  Tm  Tm13  1  0.311863  0.688228  0.688045  1
  Tm  Tm14  1  0.153727  0.152741  0.153727  1
  Tm  Tm15  1  0.311861  0.311990  0.688074  1
  Cd  Cd16  1  0.918772  0.922009  0.918772  1
  Cd  Cd17  1  0.918772  0.922009  0.240446  1
  Cd  Cd18  1  0.240446  0.922009  0.918772  1
  Co  Co19  1  0.358726  0.359222  0.923327  1
  Co  Co20  1  0.359014  0.922958  0.359014  1
  Co  Co21  1  0.923327  0.359222  0.358726  1
  Co  Co22  1  0.358726  0.359222  0.358726  1
  Ag  Ag23  1  0.916908  0.249275  0.916908  1
