# generated using pymatgen
data_Ho4As3Rh7Pb3
_symmetry_space_group_name_H-M   'P 1'
_cell_length_a   7.68430268
_cell_length_b   7.49000477
_cell_length_c   7.49000400
_cell_angle_alpha   108.93977755
_cell_angle_beta   109.99756958
_cell_angle_gamma   109.99758172
_symmetry_Int_Tables_number   1
_chemical_formula_structural   Ho4As3Rh7Pb3
_chemical_formula_sum   'Ho4 As3 Rh7 Pb3'
_cell_volume   329.67365038
_cell_formula_units_Z   1
loop_
 _symmetry_equiv_pos_site_id
 _symmetry_equiv_pos_as_xyz
  1  'x, y, z'
loop_
 _atom_site_type_symbol
 _atom_site_label
 _atom_site_symmetry_multiplicity
 _atom_site_fract_x
 _atom_site_fract_y
 _atom_site_fract_z
 _atom_site_occupancy
  Ho  Ho0  1  0.445595  0.000000  0.000000  1
  Ho  Ho1  1  0.011921  0.532138  0.000000  1
  Ho  Ho2  1  0.011921  0.000000  0.532138  1
  Ho  Ho3  1  0.479783  0.467862  0.467862  1
  As  As4  1  0.990970  0.655697  0.655697  1
  As  As5  1  0.335272  0.000000  0.344303  1
  As  As6  1  0.335272  0.344303  0.000000  1
  Rh  Rh7  1  0.069701  0.000000  0.000000  1
  Rh  Rh8  1  0.492578  0.750603  0.252601  1
  Rh  Rh9  1  0.741975  0.501997  0.249397  1
  Rh  Rh10  1  0.239977  0.747399  0.498003  1
  Rh  Rh11  1  0.239977  0.498003  0.747399  1
  Rh  Rh12  1  0.492578  0.252601  0.750603  1
  Rh  Rh13  1  0.741975  0.249397  0.501997  1
  Pb  Pb14  1  0.979581  0.284119  0.284119  1
  Pb  Pb15  1  0.695462  0.000000  0.715881  1
  Pb  Pb16  1  0.695462  0.715881  0.000000  1
