# generated using pymatgen
data_Li2MgCr2Ni9P7
_symmetry_space_group_name_H-M   'P 1'
_cell_length_a   3.56607700
_cell_length_b   9.10260539
_cell_length_c   9.04445538
_cell_angle_alpha   119.94335621
_cell_angle_beta   90.00000000
_cell_angle_gamma   90.00000000
_symmetry_Int_Tables_number   1
_chemical_formula_structural   Li2MgCr2Ni9P7
_chemical_formula_sum   'Li2 Mg1 Cr2 Ni9 P7'
_cell_volume   254.39998900
_cell_formula_units_Z   1
loop_
 _symmetry_equiv_pos_site_id
 _symmetry_equiv_pos_as_xyz
  1  'x, y, z'
loop_
 _atom_site_type_symbol
 _atom_site_label
 _atom_site_symmetry_multiplicity
 _atom_site_fract_x
 _atom_site_fract_y
 _atom_site_fract_z
 _atom_site_occupancy
  Li  Li0  1  0.500000  0.099946  0.878219  1
  Li  Li1  1  0.000000  0.662204  0.331897  1
  Mg  Mg2  1  0.500000  0.335009  0.667179  1
  Cr  Cr3  1  0.500000  0.782567  0.907308  1
  Cr  Cr4  1  0.500000  0.124131  0.220062  1
  Ni  Ni5  1  0.000000  0.565539  0.936664  1
  Ni  Ni6  1  0.000000  0.372152  0.438804  1
  Ni  Ni7  1  0.000000  0.064190  0.626939  1
  Ni  Ni8  1  0.500000  0.945943  0.385773  1
  Ni  Ni9  1  0.500000  0.436162  0.049895  1
  Ni  Ni10  1  0.500000  0.614391  0.559780  1
  Ni  Ni11  1  0.000000  0.873619  0.162451  1
  Ni  Ni12  1  0.000000  0.279927  0.117789  1
  Ni  Ni13  1  0.000000  0.846867  0.720481  1
  P  P14  1  0.500000  0.708321  0.122308  1
  P  P15  1  0.500000  0.409942  0.290125  1
  P  P16  1  0.500000  0.871337  0.580407  1
  P  P17  1  0.000000  0.997112  0.005596  1
  P  P18  1  0.000000  0.592655  0.707816  1
  P  P19  1  0.000000  0.118072  0.411740  1
  P  P20  1  0.000000  0.299914  0.878770  1
