# generated using pymatgen
data_Lu20(AlBi3)3
_symmetry_space_group_name_H-M   'P 1'
_cell_length_a   8.03023188
_cell_length_b   9.30262600
_cell_length_c   11.71957367
_cell_angle_alpha   90.00000000
_cell_angle_beta   89.75125501
_cell_angle_gamma   90.00000000
_symmetry_Int_Tables_number   1
_chemical_formula_structural   Lu20(AlBi3)3
_chemical_formula_sum   'Lu20 Al3 Bi9'
_cell_volume   875.47019980
_cell_formula_units_Z   1
loop_
 _symmetry_equiv_pos_site_id
 _symmetry_equiv_pos_as_xyz
  1  'x, y, z'
loop_
 _atom_site_type_symbol
 _atom_site_label
 _atom_site_symmetry_multiplicity
 _atom_site_fract_x
 _atom_site_fract_y
 _atom_site_fract_z
 _atom_site_occupancy
  Lu  Lu0  1  0.035174  0.250000  0.508162  1
  Lu  Lu1  1  0.964491  0.750000  0.492380  1
  Lu  Lu2  1  0.462857  0.750000  0.008155  1
  Lu  Lu3  1  0.521965  0.250000  0.990826  1
  Lu  Lu4  1  0.350200  0.250000  0.292884  1
  Lu  Lu5  1  0.648425  0.750000  0.706428  1
  Lu  Lu6  1  0.146618  0.750000  0.792401  1
  Lu  Lu7  1  0.848291  0.250000  0.217432  1
  Lu  Lu8  1  0.195536  0.250000  0.776069  1
  Lu  Lu9  1  0.815398  0.750000  0.215410  1
  Lu  Lu10  1  0.317957  0.750000  0.284260  1
  Lu  Lu11  1  0.680407  0.250000  0.710858  1
  Lu  Lu12  1  0.193454  0.052121  0.060495  1
  Lu  Lu13  1  0.813077  0.927946  0.943796  1
  Lu  Lu14  1  0.315540  0.939810  0.555390  1
  Lu  Lu15  1  0.813077  0.572054  0.943796  1
  Lu  Lu16  1  0.684407  0.059283  0.445860  1
  Lu  Lu17  1  0.193454  0.447879  0.060495  1
  Lu  Lu18  1  0.684407  0.440717  0.445860  1
  Lu  Lu19  1  0.315540  0.560190  0.555390  1
  Al  Al20  1  0.405517  0.250000  0.541352  1
  Al  Al21  1  0.591840  0.750000  0.456312  1
  Al  Al22  1  0.091110  0.750000  0.042622  1
  Bi  Bi23  1  0.907274  0.250000  0.955425  1
  Bi  Bi24  1  0.059157  0.000179  0.322067  1
  Bi  Bi25  1  0.940592  0.999018  0.676617  1
  Bi  Bi26  1  0.440637  0.998367  0.822993  1
  Bi  Bi27  1  0.940592  0.500982  0.676617  1
  Bi  Bi28  1  0.561605  0.001775  0.177293  1
  Bi  Bi29  1  0.059157  0.499821  0.322067  1
  Bi  Bi30  1  0.561605  0.498225  0.177293  1
  Bi  Bi31  1  0.440637  0.501633  0.822993  1
