# generated using pymatgen
data_Lu4Zn4In3Sn
_symmetry_space_group_name_H-M   'P 1'
_cell_length_a   4.61223300
_cell_length_b   4.61223330
_cell_length_c   14.40969400
_cell_angle_alpha   90.00000000
_cell_angle_beta   90.00000000
_cell_angle_gamma   120.00000504
_symmetry_Int_Tables_number   1
_chemical_formula_structural   Lu4Zn4In3Sn
_chemical_formula_sum   'Lu4 Zn4 In3 Sn1'
_cell_volume   265.46536888
_cell_formula_units_Z   1
loop_
 _symmetry_equiv_pos_site_id
 _symmetry_equiv_pos_as_xyz
  1  'x, y, z'
loop_
 _atom_site_type_symbol
 _atom_site_label
 _atom_site_symmetry_multiplicity
 _atom_site_fract_x
 _atom_site_fract_y
 _atom_site_fract_z
 _atom_site_occupancy
  Lu  Lu0  1  0.000000  0.000000  0.252433  1
  Lu  Lu1  1  0.000000  0.000000  0.747058  1
  Lu  Lu2  1  0.000000  0.000000  0.004313  1
  Lu  Lu3  1  0.000000  0.000000  0.498524  1
  Zn  Zn4  1  0.333333  0.666667  0.106250  1
  Zn  Zn5  1  0.666667  0.333333  0.840947  1
  Zn  Zn6  1  0.666667  0.333333  0.649457  1
  Zn  Zn7  1  0.333333  0.666667  0.397741  1
  In  In8  1  0.333333  0.666667  0.608809  1
  In  In9  1  0.666667  0.333333  0.365597  1
  In  In10  1  0.666667  0.333333  0.138221  1
  Sn  Sn11  1  0.333333  0.666667  0.890649  1
