# generated using pymatgen
data_K4Zr6BeBr18
_symmetry_space_group_name_H-M   'P 1'
_cell_length_a   10.52446445
_cell_length_b   10.68536506
_cell_length_c   10.79453333
_cell_angle_alpha   118.50357400
_cell_angle_beta   100.02917076
_cell_angle_gamma   103.84830519
_symmetry_Int_Tables_number   1
_chemical_formula_structural   K4Zr6BeBr18
_chemical_formula_sum   'K4 Zr6 Be1 Br18'
_cell_volume   974.82815873
_cell_formula_units_Z   1
loop_
 _symmetry_equiv_pos_site_id
 _symmetry_equiv_pos_as_xyz
  1  'x, y, z'
loop_
 _atom_site_type_symbol
 _atom_site_label
 _atom_site_symmetry_multiplicity
 _atom_site_fract_x
 _atom_site_fract_y
 _atom_site_fract_z
 _atom_site_occupancy
  K  K0  1  0.185844  0.724310  0.564133  1
  K  K1  1  0.847857  0.961688  0.773024  1
  K  K2  1  0.152143  0.038312  0.226976  1
  K  K3  1  0.814156  0.275690  0.435867  1
  Zr  Zr4  1  0.347458  0.442324  0.764872  1
  Zr  Zr5  1  0.358406  0.629756  0.136866  1
  Zr  Zr6  1  0.648202  0.743897  0.046263  1
  Zr  Zr7  1  0.652542  0.557676  0.235128  1
  Zr  Zr8  1  0.351798  0.256103  0.953737  1
  Zr  Zr9  1  0.641594  0.370244  0.863134  1
  Be  Be10  1  0.500000  0.500000  0.000000  1
  Br  Br11  1  0.821351  0.422488  0.110245  1
  Br  Br12  1  0.514349  0.705342  0.410122  1
  Br  Br13  1  0.176718  0.975491  0.899282  1
  Br  Br14  1  0.178649  0.577512  0.889755  1
  Br  Br15  1  0.830349  0.835161  0.312541  1
  Br  Br16  1  0.503683  0.294806  0.210120  1
  Br  Br17  1  0.798249  0.223428  0.710449  1
  Br  Br18  1  0.169651  0.164839  0.687459  1
  Br  Br19  1  0.507738  0.911326  0.197918  1
  Br  Br20  1  0.818356  0.628337  0.902708  1
  Br  Br21  1  0.201751  0.776572  0.289551  1
  Br  Br22  1  0.165971  0.378581  0.496331  1
  Br  Br23  1  0.496317  0.705194  0.789880  1
  Br  Br24  1  0.823282  0.024509  0.100718  1
  Br  Br25  1  0.485651  0.294658  0.589878  1
  Br  Br26  1  0.181644  0.371663  0.097292  1
  Br  Br27  1  0.834029  0.621419  0.503669  1
  Br  Br28  1  0.492262  0.088674  0.802082  1
