# generated using pymatgen
data_Zr8Nb11Si16Tc
_symmetry_space_group_name_H-M   'P 1'
_cell_length_a   6.67608805
_cell_length_b   6.87001213
_cell_length_c   13.12542100
_cell_angle_alpha   90.00000000
_cell_angle_beta   90.00000000
_cell_angle_gamma   90.23786247
_symmetry_Int_Tables_number   1
_chemical_formula_structural   Zr8Nb11Si16Tc
_chemical_formula_sum   'Zr8 Nb11 Si16 Tc1'
_cell_volume   601.98969861
_cell_formula_units_Z   1
loop_
 _symmetry_equiv_pos_site_id
 _symmetry_equiv_pos_as_xyz
  1  'x, y, z'
loop_
 _atom_site_type_symbol
 _atom_site_label
 _atom_site_symmetry_multiplicity
 _atom_site_fract_x
 _atom_site_fract_y
 _atom_site_fract_z
 _atom_site_occupancy
  Zr  Zr0  1  0.494315  0.674064  0.593317  1
  Zr  Zr1  1  0.999626  0.828692  0.907328  1
  Zr  Zr2  1  0.502093  0.327928  0.094015  1
  Zr  Zr3  1  0.002145  0.174213  0.405101  1
  Zr  Zr4  1  0.502093  0.327928  0.405985  1
  Zr  Zr5  1  0.002145  0.174213  0.094899  1
  Zr  Zr6  1  0.494315  0.674064  0.906683  1
  Zr  Zr7  1  0.999626  0.828692  0.592672  1
  Nb  Nb8  1  0.666173  0.167709  0.625579  1
  Nb  Nb9  1  0.166971  0.328199  0.874961  1
  Nb  Nb10  1  0.335010  0.827878  0.123939  1
  Nb  Nb11  1  0.835549  0.670671  0.377886  1
  Nb  Nb12  1  0.335010  0.827878  0.376061  1
  Nb  Nb13  1  0.835549  0.670671  0.122114  1
  Nb  Nb14  1  0.666173  0.167709  0.874421  1
  Nb  Nb15  1  0.166971  0.328199  0.625039  1
  Nb  Nb16  1  0.339664  0.998922  0.750000  1
  Nb  Nb17  1  0.162004  0.504168  0.250000  1
  Nb  Nb18  1  0.661435  0.996554  0.250000  1
  Si  Si19  1  0.670158  0.964148  0.461332  1
  Si  Si20  1  0.169454  0.536135  0.037640  1
  Si  Si21  1  0.330702  0.037178  0.961179  1
  Si  Si22  1  0.829988  0.463556  0.543482  1
  Si  Si23  1  0.330702  0.037178  0.538821  1
  Si  Si24  1  0.829988  0.463556  0.956518  1
  Si  Si25  1  0.670158  0.964148  0.038668  1
  Si  Si26  1  0.169454  0.536135  0.462360  1
  Si  Si27  1  0.470789  0.389924  0.750000  1
  Si  Si28  1  0.962023  0.115334  0.750000  1
  Si  Si29  1  0.538243  0.613656  0.250000  1
  Si  Si30  1  0.036203  0.885619  0.250000  1
  Si  Si31  1  0.708313  0.853019  0.750000  1
  Si  Si32  1  0.195126  0.633857  0.750000  1
  Si  Si33  1  0.295002  0.137822  0.250000  1
  Si  Si34  1  0.794445  0.362838  0.250000  1
  Tc  Tc35  1  0.832388  0.507544  0.750000  1
