# generated using pymatgen
data_U4Mo4(As2Ru)3
_symmetry_space_group_name_H-M   'P 1'
_cell_length_a   7.26965461
_cell_length_b   7.26965469
_cell_length_c   7.26965411
_cell_angle_alpha   108.90622849
_cell_angle_beta   109.48142745
_cell_angle_gamma   110.02794489
_symmetry_Int_Tables_number   1
_chemical_formula_structural   U4Mo4(As2Ru)3
_chemical_formula_sum   'U4 Mo4 As6 Ru3'
_cell_volume   295.71803320
_cell_formula_units_Z   1
loop_
 _symmetry_equiv_pos_site_id
 _symmetry_equiv_pos_as_xyz
  1  'x, y, z'
loop_
 _atom_site_type_symbol
 _atom_site_label
 _atom_site_symmetry_multiplicity
 _atom_site_fract_x
 _atom_site_fract_y
 _atom_site_fract_z
 _atom_site_occupancy
  U  U0  1  0.997318  0.996764  0.497604  1
  U  U1  1  0.500841  0.003236  0.000554  1
  U  U2  1  0.997318  0.499714  0.000554  1
  U  U3  1  0.500841  0.500286  0.497604  1
  Mo  Mo4  1  0.751843  0.500000  0.251843  1
  Mo  Mo5  1  0.499222  0.750885  0.250107  1
  Mo  Mo6  1  0.499222  0.249115  0.748337  1
  Mo  Mo7  1  0.000970  0.000000  0.000970  1
  As  As8  1  0.309023  0.000000  0.309023  1
  As  As9  1  0.000557  0.307685  0.308242  1
  As  As10  1  0.000557  0.692315  0.692871  1
  As  As11  1  0.308159  0.308902  0.999257  1
  As  As12  1  0.690355  0.691098  0.999257  1
  As  As13  1  0.692317  0.000000  0.692317  1
  Ru  Ru14  1  0.753238  0.251348  0.501889  1
  Ru  Ru15  1  0.250541  0.748652  0.501889  1
  Ru  Ru16  1  0.247680  0.500000  0.747680  1
