# generated using pymatgen
data_HfTa8MnS16
_symmetry_space_group_name_H-M   'P 1'
_cell_length_a   6.67831700
_cell_length_b   6.67831623
_cell_length_c   12.69054500
_cell_angle_alpha   90.00000000
_cell_angle_beta   90.00000000
_cell_angle_gamma   120.00000876
_symmetry_Int_Tables_number   1
_chemical_formula_structural   HfTa8MnS16
_chemical_formula_sum   'Hf1 Ta8 Mn1 S16'
_cell_volume   490.16791092
_cell_formula_units_Z   1
loop_
 _symmetry_equiv_pos_site_id
 _symmetry_equiv_pos_as_xyz
  1  'x, y, z'
loop_
 _atom_site_type_symbol
 _atom_site_label
 _atom_site_symmetry_multiplicity
 _atom_site_fract_x
 _atom_site_fract_y
 _atom_site_fract_z
 _atom_site_occupancy
  Hf  Hf0  1  0.000000  0.000000  0.500000  1
  Ta  Ta1  1  0.506018  0.493982  0.752323  1
  Ta  Ta2  1  0.012035  0.506018  0.247677  1
  Ta  Ta3  1  0.493982  0.987965  0.247677  1
  Ta  Ta4  1  0.506018  0.012035  0.752323  1
  Ta  Ta5  1  0.987965  0.493982  0.752323  1
  Ta  Ta6  1  0.493982  0.506018  0.247677  1
  Ta  Ta7  1  0.000000  0.000000  0.752384  1
  Ta  Ta8  1  0.000000  0.000000  0.247616  1
  Mn  Mn9  1  0.000000  0.000000  0.000000  1
  S  S10  1  0.831588  0.168412  0.372208  1
  S  S11  1  0.831588  0.663176  0.372208  1
  S  S12  1  0.336824  0.168412  0.372208  1
  S  S13  1  0.663016  0.831508  0.875003  1
  S  S14  1  0.168412  0.336824  0.627792  1
  S  S15  1  0.168492  0.831508  0.875003  1
  S  S16  1  0.168492  0.336984  0.875003  1
  S  S17  1  0.831508  0.168492  0.124997  1
  S  S18  1  0.336984  0.168492  0.124997  1
  S  S19  1  0.663176  0.831588  0.627792  1
  S  S20  1  0.333333  0.666667  0.121762  1
  S  S21  1  0.666667  0.333333  0.625301  1
  S  S22  1  0.666667  0.333333  0.878238  1
  S  S23  1  0.333333  0.666667  0.374699  1
  S  S24  1  0.831508  0.663016  0.124997  1
  S  S25  1  0.168412  0.831588  0.627792  1
