# generated using pymatgen
data_Y6Tm10Cd4NiIr3
_symmetry_space_group_name_H-M   'P 1'
_cell_length_a   9.53746414
_cell_length_b   9.55011576
_cell_length_c   9.55011400
_cell_angle_alpha   60.00000608
_cell_angle_beta   59.95611553
_cell_angle_gamma   59.95611088
_symmetry_Int_Tables_number   1
_chemical_formula_structural   Y6Tm10Cd4NiIr3
_chemical_formula_sum   'Y6 Tm10 Cd4 Ni1 Ir3'
_cell_volume   614.67666204
_cell_formula_units_Z   1
loop_
 _symmetry_equiv_pos_site_id
 _symmetry_equiv_pos_as_xyz
  1  'x, y, z'
loop_
 _atom_site_type_symbol
 _atom_site_label
 _atom_site_symmetry_multiplicity
 _atom_site_fract_x
 _atom_site_fract_y
 _atom_site_fract_z
 _atom_site_occupancy
  Y  Y0  1  0.188929  0.811234  0.811234  1
  Y  Y1  1  0.810470  0.187409  0.187409  1
  Y  Y2  1  0.810470  0.187409  0.814711  1
  Y  Y3  1  0.188929  0.811234  0.188603  1
  Y  Y4  1  0.810470  0.814711  0.187409  1
  Y  Y5  1  0.188929  0.188603  0.811234  1
  Tm  Tm6  1  0.601413  0.596906  0.596906  1
  Tm  Tm7  1  0.601413  0.596906  0.204776  1
  Tm  Tm8  1  0.601413  0.204776  0.596906  1
  Tm  Tm9  1  0.203661  0.598779  0.598779  1
  Tm  Tm10  1  0.060895  0.437763  0.437763  1
  Tm  Tm11  1  0.437479  0.062166  0.062166  1
  Tm  Tm12  1  0.437479  0.062166  0.438188  1
  Tm  Tm13  1  0.060895  0.437763  0.063578  1
  Tm  Tm14  1  0.437479  0.438188  0.062166  1
  Tm  Tm15  1  0.060895  0.063578  0.437763  1
  Cd  Cd16  1  0.829769  0.830748  0.830748  1
  Cd  Cd17  1  0.829769  0.830748  0.508732  1
  Cd  Cd18  1  0.829769  0.508732  0.830748  1
  Cd  Cd19  1  0.507969  0.830677  0.830677  1
  Ni  Ni20  1  0.825685  0.391439  0.391439  1
  Ir  Ir21  1  0.391940  0.392080  0.392080  1
  Ir  Ir22  1  0.391940  0.392080  0.823901  1
  Ir  Ir23  1  0.391940  0.823901  0.392080  1
