# generated using pymatgen
data_Sc3In3NiAu2
_symmetry_space_group_name_H-M   'P 1'
_cell_length_a   7.65469800
_cell_length_b   7.65469893
_cell_length_c   3.49698100
_cell_angle_alpha   90.00000000
_cell_angle_beta   90.00000000
_cell_angle_gamma   119.99999598
_symmetry_Int_Tables_number   1
_chemical_formula_structural   Sc3In3NiAu2
_chemical_formula_sum   'Sc3 In3 Ni1 Au2'
_cell_volume   177.45167256
_cell_formula_units_Z   1
loop_
 _symmetry_equiv_pos_site_id
 _symmetry_equiv_pos_as_xyz
  1  'x, y, z'
loop_
 _atom_site_type_symbol
 _atom_site_label
 _atom_site_symmetry_multiplicity
 _atom_site_fract_x
 _atom_site_fract_y
 _atom_site_fract_z
 _atom_site_occupancy
  Sc  Sc0  1  0.395323  0.000000  0.500000  1
  Sc  Sc1  1  0.000000  0.395323  0.500000  1
  Sc  Sc2  1  0.604677  0.604677  0.500000  1
  In  In3  1  0.743151  0.000000  0.000000  1
  In  In4  1  0.000000  0.743151  0.000000  1
  In  In5  1  0.256849  0.256849  0.000000  1
  Ni  Ni6  1  0.000000  0.000000  0.500000  1
  Au  Au7  1  0.333333  0.666667  0.000000  1
  Au  Au8  1  0.666667  0.333333  0.000000  1
