# generated using pymatgen
data_Er5InPb2Cl
_symmetry_space_group_name_H-M   'P 1'
_cell_length_a   9.09085127
_cell_length_b   9.09085016
_cell_length_c   6.60677300
_cell_angle_alpha   90.00000000
_cell_angle_beta   90.00000000
_cell_angle_gamma   119.90282500
_symmetry_Int_Tables_number   1
_chemical_formula_structural   Er5InPb2Cl
_chemical_formula_sum   'Er10 In2 Pb4 Cl2'
_cell_volume   473.31852007
_cell_formula_units_Z   2
loop_
 _symmetry_equiv_pos_site_id
 _symmetry_equiv_pos_as_xyz
  1  'x, y, z'
loop_
 _atom_site_type_symbol
 _atom_site_label
 _atom_site_symmetry_multiplicity
 _atom_site_fract_x
 _atom_site_fract_y
 _atom_site_fract_z
 _atom_site_occupancy
  Er  Er0  1  0.736991  0.736991  0.250000  1
  Er  Er1  1  0.996113  0.739356  0.750000  1
  Er  Er2  1  0.739356  0.996113  0.750000  1
  Er  Er3  1  0.335982  0.664018  0.500000  1
  Er  Er4  1  0.263009  0.263009  0.750000  1
  Er  Er5  1  0.003887  0.260644  0.250000  1
  Er  Er6  1  0.664018  0.335982  0.500000  1
  Er  Er7  1  0.260644  0.003887  0.250000  1
  Er  Er8  1  0.335982  0.664018  0.000000  1
  Er  Er9  1  0.664018  0.335982  0.000000  1
  In  In10  1  0.392566  0.392566  0.250000  1
  In  In11  1  0.607434  0.607434  0.750000  1
  Pb  Pb12  1  0.389269  0.998682  0.750000  1
  Pb  Pb13  1  0.001318  0.610731  0.250000  1
  Pb  Pb14  1  0.610731  0.001318  0.250000  1
  Pb  Pb15  1  0.998682  0.389269  0.750000  1
  Cl  Cl16  1  0.000000  0.000000  0.500000  1
  Cl  Cl17  1  0.000000  0.000000  0.000000  1
