# generated using pymatgen
data_LaAs12IrRu3
_symmetry_space_group_name_H-M   'P 1'
_cell_length_a   7.45126345
_cell_length_b   7.46157544
_cell_length_c   7.45126301
_cell_angle_alpha   109.49924911
_cell_angle_beta   109.44316842
_cell_angle_gamma   109.49926070
_symmetry_Int_Tables_number   1
_chemical_formula_structural   LaAs12IrRu3
_chemical_formula_sum   'La1 As12 Ir1 Ru3'
_cell_volume   318.79984336
_cell_formula_units_Z   1
loop_
 _symmetry_equiv_pos_site_id
 _symmetry_equiv_pos_as_xyz
  1  'x, y, z'
loop_
 _atom_site_type_symbol
 _atom_site_label
 _atom_site_symmetry_multiplicity
 _atom_site_fract_x
 _atom_site_fract_y
 _atom_site_fract_z
 _atom_site_occupancy
  La  La0  1  0.000000  0.000000  0.000000  1
  As  As1  1  0.347421  0.197038  0.849942  1
  As  As2  1  0.652579  0.802962  0.150058  1
  As  As3  1  0.649342  0.502664  0.849361  1
  As  As4  1  0.350658  0.497336  0.150639  1
  As  As5  1  0.200019  0.853321  0.350658  1
  As  As6  1  0.799981  0.146679  0.649342  1
  As  As7  1  0.502522  0.849617  0.652579  1
  As  As8  1  0.497478  0.150383  0.347421  1
  As  As9  1  0.849361  0.346697  0.200019  1
  As  As10  1  0.150639  0.653303  0.799981  1
  As  As11  1  0.849942  0.652904  0.502522  1
  As  As12  1  0.150058  0.347096  0.497478  1
  Ir  Ir13  1  0.000000  0.500000  0.000000  1
  Ru  Ru14  1  0.000000  0.000000  0.500000  1
  Ru  Ru15  1  0.500000  0.000000  0.000000  1
  Ru  Ru16  1  0.500000  0.500000  0.500000  1
