# generated using pymatgen
data_La5PrZn4IrPd12
_symmetry_space_group_name_H-M   'P 1'
_cell_length_a   8.44803449
_cell_length_b   8.44803505
_cell_length_c   8.44803510
_cell_angle_alpha   109.55986980
_cell_angle_beta   109.55987714
_cell_angle_gamma   109.29405976
_symmetry_Int_Tables_number   1
_chemical_formula_structural   La5PrZn4IrPd12
_chemical_formula_sum   'La5 Pr1 Zn4 Ir1 Pd12'
_cell_volume   464.13262004
_cell_formula_units_Z   1
loop_
 _symmetry_equiv_pos_site_id
 _symmetry_equiv_pos_as_xyz
  1  'x, y, z'
loop_
 _atom_site_type_symbol
 _atom_site_label
 _atom_site_symmetry_multiplicity
 _atom_site_fract_x
 _atom_site_fract_y
 _atom_site_fract_z
 _atom_site_occupancy
  La  La0  1  0.298055  0.999797  0.298258  1
  La  La1  1  0.999797  0.298055  0.298258  1
  La  La2  1  0.299471  0.299471  0.000000  1
  La  La3  1  0.701539  0.999797  0.701742  1
  La  La4  1  0.999797  0.701539  0.701742  1
  Pr  Pr5  1  0.700687  0.700687  0.000000  1
  Zn  Zn6  1  0.999671  0.999671  0.499301  1
  Zn  Zn7  1  0.999671  0.500370  0.000000  1
  Zn  Zn8  1  0.500370  0.999671  0.000000  1
  Zn  Zn9  1  0.500370  0.500370  0.500699  1
  Ir  Ir10  1  0.000814  0.000814  0.000000  1
  Pd  Pd11  1  0.331133  0.331133  0.662373  1
  Pd  Pd12  1  0.668895  0.999891  0.330996  1
  Pd  Pd13  1  0.999891  0.668895  0.330996  1
  Pd  Pd14  1  0.668761  0.331133  0.000000  1
  Pd  Pd15  1  0.331098  0.662279  0.331181  1
  Pd  Pd16  1  0.999917  0.331098  0.668819  1
  Pd  Pd17  1  0.331133  0.668761  0.000000  1
  Pd  Pd18  1  0.331098  0.999917  0.668819  1
  Pd  Pd19  1  0.662279  0.331098  0.331181  1
  Pd  Pd20  1  0.668761  0.668761  0.337627  1
  Pd  Pd21  1  0.668895  0.337898  0.669004  1
  Pd  Pd22  1  0.337898  0.668895  0.669004  1
