# generated using pymatgen
data_Dy3Lu5Ga3Ir
_symmetry_space_group_name_H-M   'P 1'
_cell_length_a   9.88328500
_cell_length_b   9.89636609
_cell_length_c   7.01247019
_cell_angle_alpha   90.02983645
_cell_angle_beta   90.00000000
_cell_angle_gamma   119.95628126
_symmetry_Int_Tables_number   1
_chemical_formula_structural   Dy3Lu5Ga3Ir
_chemical_formula_sum   'Dy6 Lu10 Ga6 Ir2'
_cell_volume   594.25084491
_cell_formula_units_Z   2
loop_
 _symmetry_equiv_pos_site_id
 _symmetry_equiv_pos_as_xyz
  1  'x, y, z'
loop_
 _atom_site_type_symbol
 _atom_site_label
 _atom_site_symmetry_multiplicity
 _atom_site_fract_x
 _atom_site_fract_y
 _atom_site_fract_z
 _atom_site_occupancy
  Dy  Dy0  1  0.465327  0.930656  0.205647  1
  Dy  Dy1  1  0.533765  0.466179  0.705831  1
  Dy  Dy2  1  0.932415  0.466179  0.705831  1
  Dy  Dy3  1  0.534120  0.068241  0.706063  1
  Dy  Dy4  1  0.000028  0.000056  0.232879  1
  Dy  Dy5  1  0.999905  0.999810  0.732977  1
  Lu  Lu6  1  0.171580  0.827034  0.511812  1
  Lu  Lu7  1  0.655454  0.827034  0.511812  1
  Lu  Lu8  1  0.172236  0.344473  0.510600  1
  Lu  Lu9  1  0.828888  0.173320  0.014322  1
  Lu  Lu10  1  0.344432  0.173320  0.014322  1
  Lu  Lu11  1  0.827482  0.654965  0.015437  1
  Lu  Lu12  1  0.332733  0.665466  0.834183  1
  Lu  Lu13  1  0.667234  0.334467  0.333582  1
  Lu  Lu14  1  0.464105  0.535565  0.205298  1
  Lu  Lu15  1  0.071459  0.535565  0.205298  1
  Ga  Ga16  1  0.163401  0.835924  0.956249  1
  Ga  Ga17  1  0.672522  0.835924  0.956249  1
  Ga  Ga18  1  0.164336  0.328672  0.957236  1
  Ga  Ga19  1  0.836226  0.163182  0.455784  1
  Ga  Ga20  1  0.326957  0.163182  0.455784  1
  Ga  Ga21  1  0.836485  0.672969  0.454732  1
  Ir  Ir22  1  0.332265  0.664532  0.445420  1
  Ir  Ir23  1  0.666644  0.333286  0.947488  1
