# generated using pymatgen
data_La4Fe2B6Pb
_symmetry_space_group_name_H-M   'P 1'
_cell_length_a   5.44750873
_cell_length_b   5.44750805
_cell_length_c   8.58816800
_cell_angle_alpha   71.50923483
_cell_angle_beta   71.50923725
_cell_angle_gamma   60.00001727
_symmetry_Int_Tables_number   1
_chemical_formula_structural   La4Fe2B6Pb
_chemical_formula_sum   'La4 Fe2 B6 Pb1'
_cell_volume   205.37968809
_cell_formula_units_Z   1
loop_
 _symmetry_equiv_pos_site_id
 _symmetry_equiv_pos_as_xyz
  1  'x, y, z'
loop_
 _atom_site_type_symbol
 _atom_site_label
 _atom_site_symmetry_multiplicity
 _atom_site_fract_x
 _atom_site_fract_y
 _atom_site_fract_z
 _atom_site_occupancy
  La  La0  1  0.746356  0.746356  0.760932  1
  La  La1  1  0.253644  0.253644  0.239068  1
  La  La2  1  0.586459  0.586459  0.240623  1
  La  La3  1  0.413541  0.413541  0.759377  1
  Fe  Fe4  1  0.879876  0.879876  0.360371  1
  Fe  Fe5  1  0.120124  0.120124  0.639629  1
  B  B6  1  0.500000  0.167292  0.500000  1
  B  B7  1  0.832708  0.500000  0.500000  1
  B  B8  1  0.167292  0.832708  0.500000  1
  B  B9  1  0.167292  0.500000  0.500000  1
  B  B10  1  0.832708  0.167292  0.500000  1
  B  B11  1  0.500000  0.832708  0.500000  1
  Pb  Pb12  1  0.000000  0.000000  0.000000  1
