# generated using pymatgen
data_TbDy3B16Mo3W
_symmetry_space_group_name_H-M   'P 1'
_cell_length_a   3.62773200
_cell_length_b   6.03463741
_cell_length_c   11.66361600
_cell_angle_alpha   90.02216599
_cell_angle_beta   90.00000000
_cell_angle_gamma   90.00000000
_symmetry_Int_Tables_number   1
_chemical_formula_structural   TbDy3B16Mo3W
_chemical_formula_sum   'Tb1 Dy3 B16 Mo3 W1'
_cell_volume   255.34041344
_cell_formula_units_Z   1
loop_
 _symmetry_equiv_pos_site_id
 _symmetry_equiv_pos_as_xyz
  1  'x, y, z'
loop_
 _atom_site_type_symbol
 _atom_site_label
 _atom_site_symmetry_multiplicity
 _atom_site_fract_x
 _atom_site_fract_y
 _atom_site_fract_z
 _atom_site_occupancy
  Tb  Tb0  1  0.000000  0.126978  0.149662  1
  Dy  Dy1  1  0.000000  0.872890  0.850111  1
  Dy  Dy2  1  0.000000  0.627190  0.350265  1
  Dy  Dy3  1  0.000000  0.373194  0.649913  1
  B  B4  1  0.500000  0.476995  0.193366  1
  B  B5  1  0.500000  0.523543  0.806476  1
  B  B6  1  0.500000  0.975862  0.306724  1
  B  B7  1  0.500000  0.023198  0.693422  1
  B  B8  1  0.500000  0.287613  0.313705  1
  B  B9  1  0.500000  0.713113  0.686106  1
  B  B10  1  0.500000  0.786406  0.186070  1
  B  B11  1  0.500000  0.213079  0.813782  1
  B  B12  1  0.500000  0.366859  0.468332  1
  B  B13  1  0.500000  0.633739  0.532130  1
  B  B14  1  0.500000  0.866407  0.031747  1
  B  B15  1  0.500000  0.133387  0.967913  1
  B  B16  1  0.500000  0.386473  0.047299  1
  B  B17  1  0.500000  0.613964  0.952402  1
  B  B18  1  0.500000  0.885790  0.452786  1
  B  B19  1  0.500000  0.113618  0.547704  1
  Mo  Mo20  1  0.000000  0.869381  0.584253  1
  Mo  Mo21  1  0.000000  0.629762  0.083603  1
  Mo  Mo22  1  0.000000  0.370229  0.916253  1
  W  W23  1  0.000000  0.130328  0.415973  1
