# generated using pymatgen
data_U8Ta6Nb5Si16Ru
_symmetry_space_group_name_H-M   'P 1'
_cell_length_a   7.00446822
_cell_length_b   7.01504285
_cell_length_c   12.96153104
_cell_angle_alpha   89.92053683
_cell_angle_beta   90.08324612
_cell_angle_gamma   90.03251257
_symmetry_Int_Tables_number   1
_chemical_formula_structural   U8Ta6Nb5Si16Ru
_chemical_formula_sum   'U8 Ta6 Nb5 Si16 Ru1'
_cell_volume   636.88475903
_cell_formula_units_Z   1
loop_
 _symmetry_equiv_pos_site_id
 _symmetry_equiv_pos_as_xyz
  1  'x, y, z'
loop_
 _atom_site_type_symbol
 _atom_site_label
 _atom_site_symmetry_multiplicity
 _atom_site_fract_x
 _atom_site_fract_y
 _atom_site_fract_z
 _atom_site_occupancy
  U  U0  1  0.996798  0.334997  0.221404  1
  U  U1  1  0.008592  0.671355  0.717023  1
  U  U2  1  0.166278  0.498035  0.469015  1
  U  U3  1  0.503431  0.831465  0.033704  1
  U  U4  1  0.830564  0.506423  0.969469  1
  U  U5  1  0.495907  0.166333  0.529092  1
  U  U6  1  0.328335  0.993188  0.779641  1
  U  U7  1  0.670325  0.003941  0.279195  1
  Ta  Ta8  1  0.167360  0.166404  0.001045  1
  Ta  Ta9  1  0.830060  0.832665  0.500177  1
  Ta  Ta10  1  0.329130  0.665378  0.249753  1
  Ta  Ta11  1  0.668204  0.331097  0.749431  1
  Ta  Ta12  1  0.843709  0.001920  0.873783  1
  Ta  Ta13  1  0.496353  0.658180  0.623509  1
  Nb  Nb14  1  0.343934  0.499266  0.875973  1
  Nb  Nb15  1  0.495607  0.338618  0.125118  1
  Nb  Nb16  1  0.658248  0.498423  0.375654  1
  Nb  Nb17  1  0.998135  0.157784  0.627396  1
  Nb  Nb18  1  0.996616  0.839781  0.122778  1
  Si  Si19  1  0.291762  0.035109  0.188795  1
  Si  Si20  1  0.701710  0.959765  0.683996  1
  Si  Si21  1  0.459556  0.796355  0.432451  1
  Si  Si22  1  0.202534  0.537349  0.065286  1
  Si  Si23  1  0.538735  0.200889  0.934473  1
  Si  Si24  1  0.794821  0.461142  0.565462  1
  Si  Si25  1  0.039906  0.298920  0.816244  1
  Si  Si26  1  0.965772  0.716704  0.316426  1
  Si  Si27  1  0.370072  0.291431  0.317058  1
  Si  Si28  1  0.629446  0.707062  0.815209  1
  Si  Si29  1  0.203373  0.872608  0.561955  1
  Si  Si30  1  0.129172  0.793981  0.933864  1
  Si  Si31  1  0.793814  0.130394  0.066626  1
  Si  Si32  1  0.880422  0.199855  0.433890  1
  Si  Si33  1  0.294382  0.369682  0.683091  1
  Si  Si34  1  0.705648  0.624829  0.184963  1
  Ru  Ru35  1  0.171288  0.008672  0.377054  1
