# generated using pymatgen
data_Pu5ReTcC7
_symmetry_space_group_name_H-M   'P 1'
_cell_length_a   8.40112777
_cell_length_b   8.40112893
_cell_length_c   3.43433100
_cell_angle_alpha   90.00000000
_cell_angle_beta   90.00000000
_cell_angle_gamma   124.80082262
_symmetry_Int_Tables_number   1
_chemical_formula_structural   Pu5ReTcC7
_chemical_formula_sum   'Pu5 Re1 Tc1 C7'
_cell_volume   199.03760380
_cell_formula_units_Z   1
loop_
 _symmetry_equiv_pos_site_id
 _symmetry_equiv_pos_as_xyz
  1  'x, y, z'
loop_
 _atom_site_type_symbol
 _atom_site_label
 _atom_site_symmetry_multiplicity
 _atom_site_fract_x
 _atom_site_fract_y
 _atom_site_fract_z
 _atom_site_occupancy
  Pu  Pu0  1  0.500338  0.499662  0.000000  1
  Pu  Pu1  1  0.060540  0.320979  0.500000  1
  Pu  Pu2  1  0.938385  0.677675  0.500000  1
  Pu  Pu3  1  0.679021  0.939460  0.500000  1
  Pu  Pu4  1  0.322325  0.061615  0.500000  1
  Re  Re5  1  0.289130  0.710870  0.000000  1
  Tc  Tc6  1  0.710883  0.289117  0.000000  1
  C  C7  1  0.626608  0.373392  0.500000  1
  C  C8  1  0.373323  0.626677  0.500000  1
  C  C9  1  0.999867  0.000133  0.000000  1
  C  C10  1  0.174893  0.175056  0.000000  1
  C  C11  1  0.824944  0.825107  0.000000  1
  C  C12  1  0.000678  0.500937  0.000000  1
  C  C13  1  0.499063  0.999322  0.000000  1
