# generated using pymatgen
data_YbErSc3Si7Pt9
_symmetry_space_group_name_H-M   'P 1'
_cell_length_a   10.08351800
_cell_length_b   10.08351822
_cell_length_c   3.94840500
_cell_angle_alpha   90.00000000
_cell_angle_beta   90.00000000
_cell_angle_gamma   119.99999928
_symmetry_Int_Tables_number   1
_chemical_formula_structural   YbErSc3Si7Pt9
_chemical_formula_sum   'Yb1 Er1 Sc3 Si7 Pt9'
_cell_volume   347.67742560
_cell_formula_units_Z   1
loop_
 _symmetry_equiv_pos_site_id
 _symmetry_equiv_pos_as_xyz
  1  'x, y, z'
loop_
 _atom_site_type_symbol
 _atom_site_label
 _atom_site_symmetry_multiplicity
 _atom_site_fract_x
 _atom_site_fract_y
 _atom_site_fract_z
 _atom_site_occupancy
  Yb  Yb0  1  0.000000  0.000000  0.000000  1
  Er  Er1  1  0.333333  0.666667  0.500000  1
  Sc  Sc2  1  0.894791  0.457704  0.500000  1
  Sc  Sc3  1  0.562913  0.105209  0.500000  1
  Sc  Sc4  1  0.542296  0.437087  0.500000  1
  Si  Si5  1  0.243821  0.193332  0.500000  1
  Si  Si6  1  0.806668  0.050491  0.500000  1
  Si  Si7  1  0.949509  0.756179  0.500000  1
  Si  Si8  1  0.556195  0.647252  0.000000  1
  Si  Si9  1  0.352748  0.908942  0.000000  1
  Si  Si10  1  0.091058  0.443805  0.000000  1
  Si  Si11  1  0.666667  0.333333  0.000000  1
  Pt  Pt12  1  0.219142  0.935421  0.500000  1
  Pt  Pt13  1  0.064579  0.283722  0.500000  1
  Pt  Pt14  1  0.716278  0.780858  0.500000  1
  Pt  Pt15  1  0.314447  0.413388  0.000000  1
  Pt  Pt16  1  0.586612  0.901060  0.000000  1
  Pt  Pt17  1  0.098940  0.685553  0.000000  1
  Pt  Pt18  1  0.384753  0.173071  0.000000  1
  Pt  Pt19  1  0.826929  0.211684  0.000000  1
  Pt  Pt20  1  0.788316  0.615247  0.000000  1
