# generated using pymatgen
data_Er9Lu7(ScBi3)4
_symmetry_space_group_name_H-M   'P 1'
_cell_length_a   8.06378428
_cell_length_b   9.31768808
_cell_length_c   11.86004380
_cell_angle_alpha   89.99328571
_cell_angle_beta   89.93703632
_cell_angle_gamma   89.98653376
_symmetry_Int_Tables_number   1
_chemical_formula_structural   Er9Lu7(ScBi3)4
_chemical_formula_sum   'Er9 Lu7 Sc4 Bi12'
_cell_volume   891.11362647
_cell_formula_units_Z   1
loop_
 _symmetry_equiv_pos_site_id
 _symmetry_equiv_pos_as_xyz
  1  'x, y, z'
loop_
 _atom_site_type_symbol
 _atom_site_label
 _atom_site_symmetry_multiplicity
 _atom_site_fract_x
 _atom_site_fract_y
 _atom_site_fract_z
 _atom_site_occupancy
  Er  Er0  1  0.355244  0.250403  0.283509  1
  Er  Er1  1  0.645340  0.749990  0.716659  1
  Er  Er2  1  0.145267  0.750207  0.783311  1
  Er  Er3  1  0.854517  0.250463  0.216826  1
  Er  Er4  1  0.186153  0.250158  0.781248  1
  Er  Er5  1  0.813892  0.749991  0.218557  1
  Er  Er6  1  0.313944  0.750050  0.281442  1
  Er  Er7  1  0.686191  0.250064  0.718490  1
  Er  Er8  1  0.194912  0.065617  0.058333  1
  Lu  Lu9  1  0.804598  0.932560  0.941505  1
  Lu  Lu10  1  0.304438  0.932518  0.558496  1
  Lu  Lu11  1  0.804279  0.567322  0.941505  1
  Lu  Lu12  1  0.695636  0.067357  0.441483  1
  Lu  Lu13  1  0.195625  0.432907  0.058544  1
  Lu  Lu14  1  0.695691  0.432712  0.441536  1
  Lu  Lu15  1  0.304335  0.567420  0.558554  1
  Sc  Sc16  1  0.023331  0.249818  0.512151  1
  Sc  Sc17  1  0.976589  0.750376  0.488105  1
  Sc  Sc18  1  0.476923  0.750280  0.012169  1
  Sc  Sc19  1  0.524069  0.250277  0.987859  1
  Bi  Bi20  1  0.400693  0.249898  0.543061  1
  Bi  Bi21  1  0.599422  0.749968  0.456884  1
  Bi  Bi22  1  0.098826  0.748019  0.042659  1
  Bi  Bi23  1  0.900199  0.250495  0.956852  1
  Bi  Bi24  1  0.065457  0.004144  0.330484  1
  Bi  Bi25  1  0.934217  0.995988  0.669456  1
  Bi  Bi26  1  0.434267  0.996250  0.830124  1
  Bi  Bi27  1  0.934238  0.504248  0.669641  1
  Bi  Bi28  1  0.566003  0.004118  0.169957  1
  Bi  Bi29  1  0.065593  0.496034  0.330480  1
  Bi  Bi30  1  0.565652  0.496195  0.169811  1
  Bi  Bi31  1  0.434461  0.504154  0.830309  1
