# generated using pymatgen
data_TbYHo6(WO6)4
_symmetry_space_group_name_H-M   'P 1'
_cell_length_a   5.38979100
_cell_length_b   7.69574797
_cell_length_c   11.46358309
_cell_angle_alpha   75.42832920
_cell_angle_beta   90.00000000
_cell_angle_gamma   90.00000000
_symmetry_Int_Tables_number   1
_chemical_formula_structural   TbYHo6(WO6)4
_chemical_formula_sum   'Tb1 Y1 Ho6 W4 O24'
_cell_volume   460.19710065
_cell_formula_units_Z   1
loop_
 _symmetry_equiv_pos_site_id
 _symmetry_equiv_pos_as_xyz
  1  'x, y, z'
loop_
 _atom_site_type_symbol
 _atom_site_label
 _atom_site_symmetry_multiplicity
 _atom_site_fract_x
 _atom_site_fract_y
 _atom_site_fract_z
 _atom_site_occupancy
  Tb  Tb0  1  0.315942  0.500000  0.250000  1
  Y  Y1  1  0.684073  0.500000  0.750000  1
  Ho  Ho2  1  0.739312  0.000000  0.750000  1
  Ho  Ho3  1  0.261175  0.000000  0.250000  1
  Ho  Ho4  1  0.185778  0.795608  0.577692  1
  Ho  Ho5  1  0.814371  0.795676  0.077858  1
  Ho  Ho6  1  0.185778  0.204392  0.922308  1
  Ho  Ho7  1  0.814371  0.204324  0.422142  1
  W  W8  1  0.254579  0.723887  0.885386  1
  W  W9  1  0.745430  0.723640  0.385339  1
  W  W10  1  0.254579  0.276113  0.614614  1
  W  W11  1  0.745430  0.276360  0.114661  1
  O  O12  1  0.041527  0.940127  0.895570  1
  O  O13  1  0.532098  0.848554  0.930741  1
  O  O14  1  0.958333  0.940156  0.395145  1
  O  O15  1  0.458387  0.791112  0.727273  1
  O  O16  1  0.468059  0.848626  0.430699  1
  O  O17  1  0.981383  0.711367  0.771154  1
  O  O18  1  0.541217  0.790815  0.227310  1
  O  O19  1  0.851410  0.635401  0.548091  1
  O  O20  1  0.360290  0.489833  0.886496  1
  O  O21  1  0.017931  0.711007  0.271216  1
  O  O22  1  0.360290  0.510167  0.613504  1
  O  O23  1  0.851410  0.364599  0.951909  1
  O  O24  1  0.149151  0.635819  0.048199  1
  O  O25  1  0.639803  0.489632  0.386593  1
  O  O26  1  0.981383  0.288633  0.728846  1
  O  O27  1  0.639803  0.510368  0.113407  1
  O  O28  1  0.149151  0.364181  0.451801  1
  O  O29  1  0.458387  0.208888  0.772727  1
  O  O30  1  0.017931  0.288993  0.228784  1
  O  O31  1  0.532098  0.151446  0.569259  1
  O  O32  1  0.541217  0.209185  0.272690  1
  O  O33  1  0.041527  0.059873  0.604430  1
  O  O34  1  0.468059  0.151374  0.069301  1
  O  O35  1  0.958333  0.059844  0.104855  1
