# generated using pymatgen
data_TbDy3Co18(P6Os)2
_symmetry_space_group_name_H-M   'P 1'
_cell_length_a   3.68369800
_cell_length_b   10.34917202
_cell_length_c   11.74607402
_cell_angle_alpha   89.99269742
_cell_angle_beta   90.00000000
_cell_angle_gamma   90.00000000
_symmetry_Int_Tables_number   1
_chemical_formula_structural   TbDy3Co18(P6Os)2
_chemical_formula_sum   'Tb1 Dy3 Co18 P12 Os2'
_cell_volume   447.79821073
_cell_formula_units_Z   1
loop_
 _symmetry_equiv_pos_site_id
 _symmetry_equiv_pos_as_xyz
  1  'x, y, z'
loop_
 _atom_site_type_symbol
 _atom_site_label
 _atom_site_symmetry_multiplicity
 _atom_site_fract_x
 _atom_site_fract_y
 _atom_site_fract_z
 _atom_site_occupancy
  Tb  Tb0  1  0.250000  0.917390  0.201776  1
  Dy  Dy1  1  0.250000  0.582578  0.701730  1
  Dy  Dy2  1  0.750000  0.413348  0.295586  1
  Dy  Dy3  1  0.750000  0.086704  0.795594  1
  Co  Co4  1  0.750000  0.284040  0.009126  1
  Co  Co5  1  0.750000  0.216010  0.509191  1
  Co  Co6  1  0.250000  0.406130  0.488148  1
  Co  Co7  1  0.250000  0.094029  0.988077  1
  Co  Co8  1  0.750000  0.591888  0.509756  1
  Co  Co9  1  0.750000  0.908131  0.009381  1
  Co  Co10  1  0.250000  0.220331  0.176835  1
  Co  Co11  1  0.250000  0.279802  0.676900  1
  Co  Co12  1  0.750000  0.777459  0.822835  1
  Co  Co13  1  0.750000  0.722254  0.322967  1
  Co  Co14  1  0.250000  0.887459  0.701779  1
  Co  Co15  1  0.250000  0.612417  0.201766  1
  Co  Co16  1  0.750000  0.115983  0.301302  1
  Co  Co17  1  0.750000  0.384309  0.801234  1
  Co  Co18  1  0.250000  0.465482  0.932710  1
  Co  Co19  1  0.250000  0.034537  0.432956  1
  Co  Co20  1  0.750000  0.533099  0.068692  1
  Co  Co21  1  0.750000  0.966685  0.568878  1
  P  P22  1  0.250000  0.416104  0.112165  1
  P  P23  1  0.250000  0.083897  0.612291  1
  P  P24  1  0.750000  0.578630  0.886580  1
  P  P25  1  0.750000  0.921353  0.386890  1
  P  P26  1  0.250000  0.271077  0.869538  1
  P  P27  1  0.250000  0.229017  0.369483  1
  P  P28  1  0.750000  0.728467  0.132413  1
  P  P29  1  0.750000  0.771213  0.632526  1
  P  P30  1  0.250000  0.593840  0.390231  1
  P  P31  1  0.250000  0.906189  0.890271  1
  P  P32  1  0.750000  0.397092  0.608566  1
  P  P33  1  0.750000  0.103255  0.108414  1
  Os  Os34  1  0.250000  0.714911  0.991644  1
  Os  Os35  1  0.250000  0.784889  0.491769  1
