# generated using pymatgen
data_Nb4GaCo4As3
_symmetry_space_group_name_H-M   'P 1'
_cell_length_a   3.74934900
_cell_length_b   6.33852990
_cell_length_c   7.19484720
_cell_angle_alpha   89.91090084
_cell_angle_beta   90.00000000
_cell_angle_gamma   90.00000000
_symmetry_Int_Tables_number   1
_chemical_formula_structural   Nb4GaCo4As3
_chemical_formula_sum   'Nb4 Ga1 Co4 As3'
_cell_volume   170.98793228
_cell_formula_units_Z   1
loop_
 _symmetry_equiv_pos_site_id
 _symmetry_equiv_pos_as_xyz
  1  'x, y, z'
loop_
 _atom_site_type_symbol
 _atom_site_label
 _atom_site_symmetry_multiplicity
 _atom_site_fract_x
 _atom_site_fract_y
 _atom_site_fract_z
 _atom_site_occupancy
  Nb  Nb0  1  0.250000  0.024927  0.324507  1
  Nb  Nb1  1  0.250000  0.522829  0.175721  1
  Nb  Nb2  1  0.750000  0.977091  0.675076  1
  Nb  Nb3  1  0.750000  0.475634  0.823977  1
  Ga  Ga4  1  0.250000  0.274205  0.623094  1
  Co  Co5  1  0.250000  0.141341  0.944231  1
  Co  Co6  1  0.250000  0.649193  0.560371  1
  Co  Co7  1  0.750000  0.853450  0.063082  1
  Co  Co8  1  0.750000  0.357898  0.432553  1
  As  As9  1  0.250000  0.773836  0.876770  1
  As  As10  1  0.750000  0.724166  0.379774  1
  As  As11  1  0.750000  0.225431  0.120846  1
