# generated using pymatgen
data_ErSc4Ga2Bi
_symmetry_space_group_name_H-M   'P 1'
_cell_length_a   8.33046067
_cell_length_b   8.35820999
_cell_length_c   6.13316800
_cell_angle_alpha   90.00000000
_cell_angle_beta   90.00000000
_cell_angle_gamma   120.11024402
_symmetry_Int_Tables_number   1
_chemical_formula_structural   ErSc4Ga2Bi
_chemical_formula_sum   'Er2 Sc8 Ga4 Bi2'
_cell_volume   369.41477612
_cell_formula_units_Z   2
loop_
 _symmetry_equiv_pos_site_id
 _symmetry_equiv_pos_as_xyz
  1  'x, y, z'
loop_
 _atom_site_type_symbol
 _atom_site_label
 _atom_site_symmetry_multiplicity
 _atom_site_fract_x
 _atom_site_fract_y
 _atom_site_fract_z
 _atom_site_occupancy
  Er  Er0  1  0.228523  0.999216  0.250000  1
  Er  Er1  1  0.228523  0.229307  0.750000  1
  Sc  Sc2  1  0.309113  0.654557  0.000000  1
  Sc  Sc3  1  0.674659  0.337329  0.500000  1
  Sc  Sc4  1  0.674659  0.337329  0.000000  1
  Sc  Sc5  1  0.309113  0.654557  0.500000  1
  Sc  Sc6  1  0.015921  0.762898  0.750000  1
  Sc  Sc7  1  0.015921  0.253022  0.250000  1
  Sc  Sc8  1  0.767334  0.749614  0.250000  1
  Sc  Sc9  1  0.767334  0.017720  0.750000  1
  Ga  Ga10  1  0.994110  0.399778  0.750000  1
  Ga  Ga11  1  0.994110  0.594333  0.250000  1
  Ga  Ga12  1  0.402558  0.401929  0.250000  1
  Ga  Ga13  1  0.402558  0.000629  0.750000  1
  Bi  Bi14  1  0.607781  0.993437  0.250000  1
  Bi  Bi15  1  0.607781  0.614344  0.750000  1
