# generated using pymatgen
data_La10Pr2Fe2I17
_symmetry_space_group_name_H-M   'P 1'
_cell_length_a   9.93529311
_cell_length_b   11.98881319
_cell_length_c   12.15199600
_cell_angle_alpha   73.64337155
_cell_angle_beta   74.88637873
_cell_angle_gamma   67.19407895
_symmetry_Int_Tables_number   1
_chemical_formula_structural   La10Pr2Fe2I17
_chemical_formula_sum   'La10 Pr2 Fe2 I17'
_cell_volume   1261.35418231
_cell_formula_units_Z   1
loop_
 _symmetry_equiv_pos_site_id
 _symmetry_equiv_pos_as_xyz
  1  'x, y, z'
loop_
 _atom_site_type_symbol
 _atom_site_label
 _atom_site_symmetry_multiplicity
 _atom_site_fract_x
 _atom_site_fract_y
 _atom_site_fract_z
 _atom_site_occupancy
  La  La0  1  0.295440  0.000293  0.083199  1
  La  La1  1  0.840701  0.282663  0.848329  1
  La  La2  1  0.422055  0.236653  0.731215  1
  La  La3  1  0.705994  0.995202  0.916904  1
  La  La4  1  0.549921  0.520757  0.670642  1
  La  La5  1  0.436655  0.329355  0.001917  1
  La  La6  1  0.578558  0.762305  0.267560  1
  La  La7  1  0.830377  0.184576  0.576495  1
  La  La8  1  0.169942  0.812776  0.423656  1
  La  La9  1  0.158472  0.716702  0.152422  1
  Pr  Pr10  1  0.452086  0.484122  0.325348  1
  Pr  Pr11  1  0.559307  0.675112  0.002577  1
  Fe  Fe12  1  0.361727  0.735077  0.213481  1
  Fe  Fe13  1  0.635213  0.266176  0.787231  1
  I  I14  1  0.058393  0.104844  0.316956  1
  I  I15  1  0.460038  0.940111  0.820456  1
  I  I16  1  0.429626  0.824690  0.528268  1
  I  I17  1  0.568764  0.180778  0.468988  1
  I  I18  1  0.857717  0.691821  0.048519  1
  I  I19  1  0.215165  0.417671  0.250752  1
  I  I20  1  0.690216  0.369317  0.106181  1
  I  I21  1  0.541032  0.058359  0.179006  1
  I  I22  1  0.744820  0.473694  0.410452  1
  I  I23  1  0.886917  0.783459  0.368436  1
  I  I24  1  0.942519  0.892793  0.683316  1
  I  I25  1  0.142721  0.306197  0.950605  1
  I  I26  1  0.311969  0.633788  0.893794  1
  I  I27  1  0.000112  0.999395  0.999819  1
  I  I28  1  0.111278  0.216420  0.631660  1
  I  I29  1  0.784802  0.582134  0.757379  1
  I  I30  1  0.257463  0.522761  0.584436  1
