# generated using pymatgen
data_Tm3Mg3PdPb2
_symmetry_space_group_name_H-M   'P 1'
_cell_length_a   7.45229400
_cell_length_b   7.45229370
_cell_length_c   4.51913500
_cell_angle_alpha   90.00000000
_cell_angle_beta   90.00000000
_cell_angle_gamma   120.00001020
_symmetry_Int_Tables_number   1
_chemical_formula_structural   Tm3Mg3PdPb2
_chemical_formula_sum   'Tm3 Mg3 Pd1 Pb2'
_cell_volume   217.35310301
_cell_formula_units_Z   1
loop_
 _symmetry_equiv_pos_site_id
 _symmetry_equiv_pos_as_xyz
  1  'x, y, z'
loop_
 _atom_site_type_symbol
 _atom_site_label
 _atom_site_symmetry_multiplicity
 _atom_site_fract_x
 _atom_site_fract_y
 _atom_site_fract_z
 _atom_site_occupancy
  Tm  Tm0  1  0.601480  0.000000  0.000000  1
  Tm  Tm1  1  0.000000  0.601480  0.000000  1
  Tm  Tm2  1  0.398520  0.398520  0.000000  1
  Mg  Mg3  1  0.230526  0.000000  0.500000  1
  Mg  Mg4  1  0.000000  0.230526  0.500000  1
  Mg  Mg5  1  0.769474  0.769474  0.500000  1
  Pd  Pd6  1  0.000000  0.000000  0.000000  1
  Pb  Pb7  1  0.333333  0.666667  0.500000  1
  Pb  Pb8  1  0.666667  0.333333  0.500000  1
