# generated using pymatgen
data_K2Ni(PdSe2)3
_symmetry_space_group_name_H-M   'P 1'
_cell_length_a   7.84851445
_cell_length_b   7.84851404
_cell_length_c   7.84851425
_cell_angle_alpha   55.77658853
_cell_angle_beta   55.77659406
_cell_angle_gamma   55.77659836
_symmetry_Int_Tables_number   1
_chemical_formula_structural   K2Ni(PdSe2)3
_chemical_formula_sum   'K2 Ni1 Pd3 Se6'
_cell_volume   308.37700134
_cell_formula_units_Z   1
loop_
 _symmetry_equiv_pos_site_id
 _symmetry_equiv_pos_as_xyz
  1  'x, y, z'
loop_
 _atom_site_type_symbol
 _atom_site_label
 _atom_site_symmetry_multiplicity
 _atom_site_fract_x
 _atom_site_fract_y
 _atom_site_fract_z
 _atom_site_occupancy
  K  K0  1  0.199333  0.199333  0.199333  1
  K  K1  1  0.800667  0.800667  0.800667  1
  Ni  Ni2  1  0.000000  0.000000  0.000000  1
  Pd  Pd3  1  0.000000  0.500000  0.500000  1
  Pd  Pd4  1  0.500000  0.000000  0.500000  1
  Pd  Pd5  1  0.500000  0.500000  0.000000  1
  Se  Se6  1  0.773574  0.773574  0.263851  1
  Se  Se7  1  0.736149  0.226426  0.226426  1
  Se  Se8  1  0.263851  0.773574  0.773574  1
  Se  Se9  1  0.773574  0.263851  0.773574  1
  Se  Se10  1  0.226426  0.226426  0.736149  1
  Se  Se11  1  0.226426  0.736149  0.226426  1
