# generated using pymatgen
data_Ac5InPd4
_symmetry_space_group_name_H-M   'P 1'
_cell_length_a   8.38169800
_cell_length_b   8.38169800
_cell_length_c   4.18307900
_cell_angle_alpha   90.00000000
_cell_angle_beta   90.00000000
_cell_angle_gamma   90.00000000
_symmetry_Int_Tables_number   1
_chemical_formula_structural   Ac5InPd4
_chemical_formula_sum   'Ac5 In1 Pd4'
_cell_volume   293.87326906
_cell_formula_units_Z   1
loop_
 _symmetry_equiv_pos_site_id
 _symmetry_equiv_pos_as_xyz
  1  'x, y, z'
loop_
 _atom_site_type_symbol
 _atom_site_label
 _atom_site_symmetry_multiplicity
 _atom_site_fract_x
 _atom_site_fract_y
 _atom_site_fract_z
 _atom_site_occupancy
  Ac  Ac0  1  0.812246  0.645529  0.500000  1
  Ac  Ac1  1  0.354471  0.812246  0.500000  1
  Ac  Ac2  1  0.187754  0.354471  0.500000  1
  Ac  Ac3  1  0.645529  0.187754  0.500000  1
  Ac  Ac4  1  0.000000  0.000000  0.000000  1
  In  In5  1  0.500000  0.500000  0.000000  1
  Pd  Pd6  1  0.125254  0.638472  0.000000  1
  Pd  Pd7  1  0.638472  0.874746  0.000000  1
  Pd  Pd8  1  0.361528  0.125254  0.000000  1
  Pd  Pd9  1  0.874746  0.361528  0.000000  1
