# generated using pymatgen
data_Er2NpGa6Co8Ni
_symmetry_space_group_name_H-M   'P 1'
_cell_length_a   8.81254100
_cell_length_b   8.82604174
_cell_length_c   3.91826500
_cell_angle_alpha   90.00000000
_cell_angle_beta   90.00000000
_cell_angle_gamma   119.94940880
_symmetry_Int_Tables_number   1
_chemical_formula_structural   Er2NpGa6Co8Ni
_chemical_formula_sum   'Er2 Np1 Ga6 Co8 Ni1'
_cell_volume   264.06615228
_cell_formula_units_Z   1
loop_
 _symmetry_equiv_pos_site_id
 _symmetry_equiv_pos_as_xyz
  1  'x, y, z'
loop_
 _atom_site_type_symbol
 _atom_site_label
 _atom_site_symmetry_multiplicity
 _atom_site_fract_x
 _atom_site_fract_y
 _atom_site_fract_z
 _atom_site_occupancy
  Er  Er0  1  0.667025  0.334049  0.500000  1
  Er  Er1  1  0.332975  0.665951  0.500000  1
  Np  Np2  1  0.000000  0.000000  0.000000  1
  Ga  Ga3  1  0.675143  0.674755  0.500000  1
  Ga  Ga4  1  0.322283  0.000000  0.500000  1
  Ga  Ga5  1  0.000388  0.325245  0.500000  1
  Ga  Ga6  1  0.324857  0.325245  0.500000  1
  Ga  Ga7  1  0.677717  0.000000  0.500000  1
  Ga  Ga8  1  0.999612  0.674755  0.500000  1
  Co  Co9  1  0.500000  0.500000  0.000000  1
  Co  Co10  1  0.000000  0.500000  0.000000  1
  Co  Co11  1  0.833128  0.168525  0.000000  1
  Co  Co12  1  0.829024  0.658048  0.000000  1
  Co  Co13  1  0.335398  0.168525  0.000000  1
  Co  Co14  1  0.166872  0.831475  0.000000  1
  Co  Co15  1  0.664602  0.831475  0.000000  1
  Co  Co16  1  0.170976  0.341952  0.000000  1
  Ni  Ni17  1  0.500000  0.000000  0.000000  1
