# generated using pymatgen
data_CaMn2(Sb6Pt)2
_symmetry_space_group_name_H-M   'P 1'
_cell_length_a   8.11659283
_cell_length_b   8.13128045
_cell_length_c   8.13231713
_cell_angle_alpha   109.67597799
_cell_angle_beta   109.38101228
_cell_angle_gamma   109.43675462
_symmetry_Int_Tables_number   1
_chemical_formula_structural   CaMn2(Sb6Pt)2
_chemical_formula_sum   'Ca1 Mn2 Sb12 Pt2'
_cell_volume   412.75534698
_cell_formula_units_Z   1
loop_
 _symmetry_equiv_pos_site_id
 _symmetry_equiv_pos_as_xyz
  1  'x, y, z'
loop_
 _atom_site_type_symbol
 _atom_site_label
 _atom_site_symmetry_multiplicity
 _atom_site_fract_x
 _atom_site_fract_y
 _atom_site_fract_z
 _atom_site_occupancy
  Ca  Ca0  1  0.000000  0.000000  0.000000  1
  Mn  Mn1  1  0.500000  0.000000  0.000000  1
  Mn  Mn2  1  0.500000  0.500000  0.500000  1
  Sb  Sb3  1  0.349390  0.180707  0.852793  1
  Sb  Sb4  1  0.650610  0.819293  0.147207  1
  Sb  Sb5  1  0.650659  0.503388  0.831327  1
  Sb  Sb6  1  0.349341  0.496612  0.168673  1
  Sb  Sb7  1  0.196767  0.849232  0.347475  1
  Sb  Sb8  1  0.803233  0.150768  0.652525  1
  Sb  Sb9  1  0.508547  0.835958  0.672810  1
  Sb  Sb10  1  0.491453  0.164042  0.327190  1
  Sb  Sb11  1  0.833323  0.328344  0.180832  1
  Sb  Sb12  1  0.166677  0.671656  0.819168  1
  Sb  Sb13  1  0.833429  0.652678  0.505184  1
  Sb  Sb14  1  0.166571  0.347322  0.494816  1
  Pt  Pt15  1  0.000000  0.000000  0.500000  1
  Pt  Pt16  1  0.000000  0.500000  0.000000  1
