# generated using pymatgen
data_UTi(PO5)2
_symmetry_space_group_name_H-M   'P 1'
_cell_length_a   5.73461284
_cell_length_b   5.28967660
_cell_length_c   7.56268533
_cell_angle_alpha   105.47762448
_cell_angle_beta   110.22817902
_cell_angle_gamma   96.61596317
_symmetry_Int_Tables_number   1
_chemical_formula_structural   UTi(PO5)2
_chemical_formula_sum   'U1 Ti1 P2 O10'
_cell_volume   201.91833507
_cell_formula_units_Z   1
loop_
 _symmetry_equiv_pos_site_id
 _symmetry_equiv_pos_as_xyz
  1  'x, y, z'
loop_
 _atom_site_type_symbol
 _atom_site_label
 _atom_site_symmetry_multiplicity
 _atom_site_fract_x
 _atom_site_fract_y
 _atom_site_fract_z
 _atom_site_occupancy
  U  U0  1  0.000000  0.500000  0.000000  1
  Ti  Ti1  1  0.000000  0.500000  0.500000  1
  P  P2  1  0.326818  0.135105  0.744546  1
  P  P3  1  0.673182  0.864895  0.255454  1
  O  O4  1  0.182390  0.186637  0.887277  1
  O  O5  1  0.264617  0.831111  0.630864  1
  O  O6  1  0.933609  0.560712  0.751286  1
  O  O7  1  0.246110  0.296481  0.598992  1
  O  O8  1  0.753890  0.703519  0.401008  1
  O  O9  1  0.617213  0.231689  0.870541  1
  O  O10  1  0.382787  0.768311  0.129459  1
  O  O11  1  0.066391  0.439288  0.248714  1
  O  O12  1  0.735383  0.168889  0.369136  1
  O  O13  1  0.817610  0.813363  0.112723  1
