# generated using pymatgen
data_La5TcGe2
_symmetry_space_group_name_H-M   'P 1'
_cell_length_a   8.25224000
_cell_length_b   9.15368700
_cell_length_c   12.29280100
_cell_angle_alpha   90.00000000
_cell_angle_beta   90.00000000
_cell_angle_gamma   90.00000000
_symmetry_Int_Tables_number   1
_chemical_formula_structural   La5TcGe2
_chemical_formula_sum   'La20 Tc4 Ge8'
_cell_volume   928.57878961
_cell_formula_units_Z   4
loop_
 _symmetry_equiv_pos_site_id
 _symmetry_equiv_pos_as_xyz
  1  'x, y, z'
loop_
 _atom_site_type_symbol
 _atom_site_label
 _atom_site_symmetry_multiplicity
 _atom_site_fract_x
 _atom_site_fract_y
 _atom_site_fract_z
 _atom_site_occupancy
  La  La0  1  0.683944  0.474208  0.072739  1
  La  La1  1  0.183944  0.525792  0.427261  1
  La  La2  1  0.316056  0.974208  0.927261  1
  La  La3  1  0.816056  0.025792  0.572739  1
  La  La4  1  0.316056  0.525792  0.927261  1
  La  La5  1  0.816056  0.474208  0.572739  1
  La  La6  1  0.683944  0.025792  0.072739  1
  La  La7  1  0.183944  0.974208  0.427261  1
  La  La8  1  0.967171  0.750000  0.002857  1
  La  La9  1  0.467171  0.250000  0.497143  1
  La  La10  1  0.032829  0.250000  0.997143  1
  La  La11  1  0.532829  0.750000  0.502857  1
  La  La12  1  0.367400  0.750000  0.201367  1
  La  La13  1  0.867400  0.250000  0.298633  1
  La  La14  1  0.632600  0.250000  0.798633  1
  La  La15  1  0.132600  0.750000  0.701367  1
  La  La16  1  0.839996  0.750000  0.292337  1
  La  La17  1  0.339996  0.250000  0.207663  1
  La  La18  1  0.160004  0.250000  0.707663  1
  La  La19  1  0.660004  0.750000  0.792337  1
  Tc  Tc20  1  0.584857  0.750000  0.018861  1
  Tc  Tc21  1  0.084857  0.250000  0.481139  1
  Tc  Tc22  1  0.415143  0.250000  0.981139  1
  Tc  Tc23  1  0.915143  0.750000  0.518861  1
  Ge  Ge24  1  0.565557  0.494346  0.327262  1
  Ge  Ge25  1  0.065557  0.505654  0.172738  1
  Ge  Ge26  1  0.434443  0.994346  0.672738  1
  Ge  Ge27  1  0.934443  0.005654  0.827262  1
  Ge  Ge28  1  0.434443  0.505654  0.672738  1
  Ge  Ge29  1  0.934443  0.494346  0.827262  1
  Ge  Ge30  1  0.565557  0.005654  0.327262  1
  Ge  Ge31  1  0.065557  0.994346  0.172738  1
