# generated using pymatgen
data_AlTe29
_symmetry_space_group_name_H-M   'P 1'
_cell_length_a   8.25024173
_cell_length_b   10.77227480
_cell_length_c   12.83260600
_cell_angle_alpha   75.41230255
_cell_angle_beta   80.59286683
_cell_angle_gamma   67.66417869
_symmetry_Int_Tables_number   1
_chemical_formula_structural   AlTe29
_chemical_formula_sum   'Al1 Te29'
_cell_volume   1017.98178772
_cell_formula_units_Z   1
loop_
 _symmetry_equiv_pos_site_id
 _symmetry_equiv_pos_as_xyz
  1  'x, y, z'
loop_
 _atom_site_type_symbol
 _atom_site_label
 _atom_site_symmetry_multiplicity
 _atom_site_fract_x
 _atom_site_fract_y
 _atom_site_fract_z
 _atom_site_occupancy
  Al  Al0  1  0.000000  0.000000  0.000000  1
  Te  Te1  1  0.500000  0.000000  0.000000  1
  Te  Te2  1  0.101113  0.196555  0.198593  1
  Te  Te3  1  0.700263  0.401277  0.398626  1
  Te  Te4  1  0.299737  0.598723  0.601374  1
  Te  Te5  1  0.604518  0.196535  0.198333  1
  Te  Te6  1  0.898887  0.803445  0.801407  1
  Te  Te7  1  0.201385  0.398187  0.399331  1
  Te  Te8  1  0.798615  0.601813  0.600669  1
  Te  Te9  1  0.395482  0.803465  0.801667  1
  Te  Te10  1  0.228186  0.090265  0.837123  1
  Te  Te11  1  0.651952  0.704498  0.975724  1
  Te  Te12  1  0.858589  0.274545  0.021975  1
  Te  Te13  1  0.234842  0.909481  0.162952  1
  Te  Te14  1  0.447237  0.496318  0.224547  1
  Te  Te15  1  0.765158  0.090519  0.837048  1
  Te  Te16  1  0.853467  0.103269  0.375272  1
  Te  Te17  1  0.141411  0.725455  0.978025  1
  Te  Te18  1  0.047222  0.695518  0.424974  1
  Te  Te19  1  0.348048  0.295502  0.024276  1
  Te  Te20  1  0.771814  0.909735  0.162877  1
  Te  Te21  1  0.454510  0.303673  0.574343  1
  Te  Te22  1  0.645672  0.898205  0.624225  1
  Te  Te23  1  0.947368  0.496063  0.224303  1
  Te  Te24  1  0.052632  0.503937  0.775697  1
  Te  Te25  1  0.354328  0.101795  0.375775  1
  Te  Te26  1  0.545490  0.696327  0.425657  1
  Te  Te27  1  0.952778  0.304482  0.575026  1
  Te  Te28  1  0.146533  0.896731  0.624728  1
  Te  Te29  1  0.552763  0.503682  0.775453  1
