# generated using pymatgen
data_Nb2V2GaP
_symmetry_space_group_name_H-M   'P 1'
_cell_length_a   3.41574000
_cell_length_b   6.58666100
_cell_length_c   7.96981700
_cell_angle_alpha   90.00000000
_cell_angle_beta   90.00000000
_cell_angle_gamma   90.00000000
_symmetry_Int_Tables_number   1
_chemical_formula_structural   Nb2V2GaP
_chemical_formula_sum   'Nb4 V4 Ga2 P2'
_cell_volume   179.30750472
_cell_formula_units_Z   2
loop_
 _symmetry_equiv_pos_site_id
 _symmetry_equiv_pos_as_xyz
  1  'x, y, z'
loop_
 _atom_site_type_symbol
 _atom_site_label
 _atom_site_symmetry_multiplicity
 _atom_site_fract_x
 _atom_site_fract_y
 _atom_site_fract_z
 _atom_site_occupancy
  Nb  Nb0  1  0.250000  0.039305  0.825577  1
  Nb  Nb1  1  0.250000  0.539305  0.674423  1
  Nb  Nb2  1  0.750000  0.949235  0.157885  1
  Nb  Nb3  1  0.750000  0.449235  0.342115  1
  V  V4  1  0.250000  0.136922  0.449439  1
  V  V5  1  0.250000  0.636922  0.050561  1
  V  V6  1  0.750000  0.875264  0.569892  1
  V  V7  1  0.750000  0.375264  0.930108  1
  Ga  Ga8  1  0.250000  0.754849  0.361746  1
  Ga  Ga9  1  0.250000  0.254849  0.138254  1
  P  P10  1  0.750000  0.244425  0.639791  1
  P  P11  1  0.750000  0.744425  0.860209  1
