# generated using pymatgen
data_Na6NiF8
_symmetry_space_group_name_H-M   'P 1'
_cell_length_a   6.58041230
_cell_length_b   6.58041226
_cell_length_c   6.58042000
_cell_angle_alpha   59.99996108
_cell_angle_beta   59.99996131
_cell_angle_gamma   60.00008078
_symmetry_Int_Tables_number   1
_chemical_formula_structural   Na6NiF8
_chemical_formula_sum   'Na6 Ni1 F8'
_cell_volume   201.48598120
_cell_formula_units_Z   1
loop_
 _symmetry_equiv_pos_site_id
 _symmetry_equiv_pos_as_xyz
  1  'x, y, z'
loop_
 _atom_site_type_symbol
 _atom_site_label
 _atom_site_symmetry_multiplicity
 _atom_site_fract_x
 _atom_site_fract_y
 _atom_site_fract_z
 _atom_site_occupancy
  Na  Na0  1  0.500000  0.000000  0.000000  1
  Na  Na1  1  0.000000  0.500000  0.500000  1
  Na  Na2  1  0.000000  0.500000  0.000000  1
  Na  Na3  1  0.500000  0.000000  0.500000  1
  Na  Na4  1  0.000000  0.000000  0.500000  1
  Na  Na5  1  0.500000  0.500000  0.000000  1
  Ni  Ni6  1  0.000000  0.000000  0.000000  1
  F  F7  1  0.250000  0.250000  0.250000  1
  F  F8  1  0.750000  0.750000  0.750000  1
  F  F9  1  0.779988  0.220012  0.220012  1
  F  F10  1  0.220012  0.779988  0.779988  1
  F  F11  1  0.220012  0.779988  0.220012  1
  F  F12  1  0.779988  0.220012  0.779988  1
  F  F13  1  0.220011  0.220011  0.779989  1
  F  F14  1  0.779989  0.779989  0.220011  1
