# generated using pymatgen
data_Sm4Tm7(Lu3Bi4)3
_symmetry_space_group_name_H-M   'P 1'
_cell_length_a   8.16573057
_cell_length_b   9.42552927
_cell_length_c   11.85551700
_cell_angle_alpha   89.98950801
_cell_angle_beta   89.97866248
_cell_angle_gamma   90.00876170
_symmetry_Int_Tables_number   1
_chemical_formula_structural   Sm4Tm7(Lu3Bi4)3
_chemical_formula_sum   'Sm4 Tm7 Lu9 Bi12'
_cell_volume   912.47557353
_cell_formula_units_Z   1
loop_
 _symmetry_equiv_pos_site_id
 _symmetry_equiv_pos_as_xyz
  1  'x, y, z'
loop_
 _atom_site_type_symbol
 _atom_site_label
 _atom_site_symmetry_multiplicity
 _atom_site_fract_x
 _atom_site_fract_y
 _atom_site_fract_z
 _atom_site_occupancy
  Sm  Sm0  1  0.314317  0.250097  0.218077  1
  Sm  Sm1  1  0.814411  0.250003  0.282245  1
  Sm  Sm2  1  0.685427  0.750136  0.781827  1
  Sm  Sm3  1  0.185723  0.749938  0.717932  1
  Tm  Tm4  1  0.352042  0.750079  0.218333  1
  Tm  Tm5  1  0.852095  0.750216  0.281636  1
  Tm  Tm6  1  0.648285  0.250160  0.781491  1
  Tm  Tm7  1  0.147922  0.250223  0.718310  1
  Tm  Tm8  1  0.691138  0.565657  0.059767  1
  Tm  Tm9  1  0.190848  0.934294  0.440294  1
  Tm  Tm10  1  0.308939  0.065693  0.940171  1
  Lu  Lu11  1  0.808760  0.433435  0.559677  1
  Lu  Lu12  1  0.308942  0.433388  0.940435  1
  Lu  Lu13  1  0.809040  0.066635  0.559546  1
  Lu  Lu14  1  0.691030  0.933238  0.059564  1
  Lu  Lu15  1  0.191082  0.566772  0.440452  1
  Lu  Lu16  1  0.478206  0.250051  0.489659  1
  Lu  Lu17  1  0.977949  0.250127  0.010337  1
  Lu  Lu18  1  0.522149  0.749958  0.510467  1
  Lu  Lu19  1  0.022097  0.750161  0.989610  1
  Bi  Bi20  1  0.401265  0.749087  0.960799  1
  Bi  Bi21  1  0.900969  0.749731  0.539330  1
  Bi  Bi22  1  0.598751  0.249013  0.039167  1
  Bi  Bi23  1  0.098745  0.251217  0.460947  1
  Bi  Bi24  1  0.564943  0.992736  0.327442  1
  Bi  Bi25  1  0.064779  0.507364  0.172684  1
  Bi  Bi26  1  0.435256  0.492697  0.672558  1
  Bi  Bi27  1  0.935077  0.007385  0.827303  1
  Bi  Bi28  1  0.435223  0.007391  0.672626  1
  Bi  Bi29  1  0.935097  0.492901  0.827244  1
  Bi  Bi30  1  0.564711  0.507357  0.327408  1
  Bi  Bi31  1  0.064779  0.992856  0.172660  1
