# generated using pymatgen
data_ErTh3Ga18Ir5Ru
_symmetry_space_group_name_H-M   'P 1'
_cell_length_a   7.67609193
_cell_length_b   7.68622232
_cell_length_c   9.51479433
_cell_angle_alpha   90.01552126
_cell_angle_beta   90.01472280
_cell_angle_gamma   119.75997345
_symmetry_Int_Tables_number   1
_chemical_formula_structural   ErTh3Ga18Ir5Ru
_chemical_formula_sum   'Er1 Th3 Ga18 Ir5 Ru1'
_cell_volume   487.33592330
_cell_formula_units_Z   1
loop_
 _symmetry_equiv_pos_site_id
 _symmetry_equiv_pos_as_xyz
  1  'x, y, z'
loop_
 _atom_site_type_symbol
 _atom_site_label
 _atom_site_symmetry_multiplicity
 _atom_site_fract_x
 _atom_site_fract_y
 _atom_site_fract_z
 _atom_site_occupancy
  Er  Er0  1  0.330540  0.004446  0.249876  1
  Th  Th1  1  0.995805  0.668927  0.750019  1
  Th  Th2  1  0.002175  0.331286  0.249829  1
  Th  Th3  1  0.668614  0.996460  0.750150  1
  Ga  Ga4  1  0.133770  0.132305  0.750011  1
  Ga  Ga5  1  0.870853  0.870467  0.250128  1
  Ga  Ga6  1  0.003003  0.334749  0.578701  1
  Ga  Ga7  1  0.000177  0.669576  0.417852  1
  Ga  Ga8  1  0.002101  0.671808  0.082962  1
  Ga  Ga9  1  0.334668  0.003882  0.925671  1
  Ga  Ga10  1  0.005412  0.335070  0.920651  1
  Ga  Ga11  1  0.658772  0.996280  0.082629  1
  Ga  Ga12  1  0.658791  0.998475  0.417877  1
  Ga  Ga13  1  0.336718  0.005815  0.573036  1
  Ga  Ga14  1  0.335931  0.330848  0.066677  1
  Ga  Ga15  1  0.663124  0.662992  0.939326  1
  Ga  Ga16  1  0.662870  0.660387  0.559401  1
  Ga  Ga17  1  0.338507  0.330602  0.434500  1
  Ga  Ga18  1  0.339433  0.541920  0.749870  1
  Ga  Ga19  1  0.658482  0.450808  0.251955  1
  Ga  Ga20  1  0.543191  0.337441  0.748078  1
  Ga  Ga21  1  0.456580  0.663639  0.250336  1
  Ir  Ir22  1  0.327354  0.671017  0.500517  1
  Ir  Ir23  1  0.327540  0.670783  0.999683  1
  Ir  Ir24  1  0.674924  0.330236  0.999667  1
  Ir  Ir25  1  0.997564  0.000169  0.500712  1
  Ir  Ir26  1  0.997829  0.000160  0.999466  1
  Ru  Ru27  1  0.675273  0.329458  0.500421  1
