# generated using pymatgen
data_Li2Dy4Co7P12Ir11
_symmetry_space_group_name_H-M   'P 1'
_cell_length_a   3.85754900
_cell_length_b   10.63737302
_cell_length_c   12.34903187
_cell_angle_alpha   89.92516585
_cell_angle_beta   90.00000000
_cell_angle_gamma   90.00000000
_symmetry_Int_Tables_number   1
_chemical_formula_structural   Li2Dy4Co7P12Ir11
_chemical_formula_sum   'Li2 Dy4 Co7 P12 Ir11'
_cell_volume   506.73205920
_cell_formula_units_Z   1
loop_
 _symmetry_equiv_pos_site_id
 _symmetry_equiv_pos_as_xyz
  1  'x, y, z'
loop_
 _atom_site_type_symbol
 _atom_site_label
 _atom_site_symmetry_multiplicity
 _atom_site_fract_x
 _atom_site_fract_y
 _atom_site_fract_z
 _atom_site_occupancy
  Li  Li0  1  0.250000  0.701134  0.990685  1
  Li  Li1  1  0.250000  0.794863  0.484880  1
  Dy  Dy2  1  0.250000  0.580932  0.713158  1
  Dy  Dy3  1  0.250000  0.916079  0.211251  1
  Dy  Dy4  1  0.750000  0.421409  0.290660  1
  Dy  Dy5  1  0.750000  0.081906  0.792709  1
  Co  Co6  1  0.250000  0.617716  0.193725  1
  Co  Co7  1  0.750000  0.117835  0.302222  1
  Co  Co8  1  0.750000  0.382343  0.803903  1
  Co  Co9  1  0.250000  0.457660  0.936566  1
  Co  Co10  1  0.250000  0.041413  0.432144  1
  Co  Co11  1  0.750000  0.533253  0.065914  1
  Co  Co12  1  0.750000  0.966606  0.560980  1
  P  P13  1  0.250000  0.434374  0.112295  1
  P  P14  1  0.250000  0.075494  0.605022  1
  P  P15  1  0.750000  0.567611  0.889629  1
  P  P16  1  0.750000  0.930660  0.386242  1
  P  P17  1  0.250000  0.272656  0.867273  1
  P  P18  1  0.250000  0.228477  0.365379  1
  P  P19  1  0.750000  0.725469  0.133999  1
  P  P20  1  0.750000  0.769475  0.631657  1
  P  P21  1  0.250000  0.601692  0.381055  1
  P  P22  1  0.250000  0.895841  0.889512  1
  P  P23  1  0.750000  0.402449  0.621221  1
  P  P24  1  0.750000  0.098588  0.120984  1
  Ir  Ir25  1  0.750000  0.283072  0.010736  1
  Ir  Ir26  1  0.750000  0.217663  0.510632  1
  Ir  Ir27  1  0.250000  0.406699  0.473354  1
  Ir  Ir28  1  0.250000  0.094003  0.975900  1
  Ir  Ir29  1  0.750000  0.591114  0.524367  1
  Ir  Ir30  1  0.750000  0.907617  0.025531  1
  Ir  Ir31  1  0.250000  0.228404  0.176677  1
  Ir  Ir32  1  0.250000  0.275364  0.677253  1
  Ir  Ir33  1  0.750000  0.773200  0.825743  1
  Ir  Ir34  1  0.750000  0.722298  0.323100  1
  Ir  Ir35  1  0.250000  0.884630  0.693645  1
