# generated using pymatgen
data_Pr13Th3(InRu)4
_symmetry_space_group_name_H-M   'P 1'
_cell_length_a   10.03045021
_cell_length_b   10.05882489
_cell_length_c   10.05864200
_cell_angle_alpha   59.94970705
_cell_angle_beta   59.86725581
_cell_angle_gamma   59.86806225
_symmetry_Int_Tables_number   1
_chemical_formula_structural   Pr13Th3(InRu)4
_chemical_formula_sum   'Pr13 Th3 In4 Ru4'
_cell_volume   715.90552224
_cell_formula_units_Z   1
loop_
 _symmetry_equiv_pos_site_id
 _symmetry_equiv_pos_as_xyz
  1  'x, y, z'
loop_
 _atom_site_type_symbol
 _atom_site_label
 _atom_site_symmetry_multiplicity
 _atom_site_fract_x
 _atom_site_fract_y
 _atom_site_fract_z
 _atom_site_occupancy
  Pr  Pr0  1  0.202568  0.599404  0.599418  1
  Pr  Pr1  1  0.058096  0.442567  0.442567  1
  Pr  Pr2  1  0.442291  0.057898  0.057922  1
  Pr  Pr3  1  0.442449  0.057877  0.441904  1
  Pr  Pr4  1  0.057614  0.442614  0.057139  1
  Pr  Pr5  1  0.442456  0.441904  0.057874  1
  Pr  Pr6  1  0.057599  0.057142  0.442624  1
  Pr  Pr7  1  0.192034  0.809323  0.809321  1
  Pr  Pr8  1  0.809593  0.190560  0.190556  1
  Pr  Pr9  1  0.810007  0.189839  0.809931  1
  Pr  Pr10  1  0.191811  0.809528  0.189401  1
  Pr  Pr11  1  0.810028  0.809930  0.189829  1
  Pr  Pr12  1  0.191799  0.189391  0.809543  1
  Th  Th13  1  0.592025  0.594259  0.594253  1
  Th  Th14  1  0.591732  0.595130  0.218999  1
  Th  Th15  1  0.591725  0.219004  0.595130  1
  In  In16  1  0.828656  0.831317  0.831319  1
  In  In17  1  0.828473  0.831401  0.508336  1
  In  In18  1  0.828475  0.508349  0.831389  1
  In  In19  1  0.508322  0.830145  0.830147  1
  Ru  Ru20  1  0.402796  0.389693  0.389675  1
  Ru  Ru21  1  0.403656  0.388798  0.818048  1
  Ru  Ru22  1  0.403645  0.818051  0.388809  1
  Ru  Ru23  1  0.812150  0.395878  0.395866  1
