# generated using pymatgen
data_TiMn(SiRu2)2
_symmetry_space_group_name_H-M   'P 1'
_cell_length_a   7.29964953
_cell_length_b   7.29964906
_cell_length_c   7.29964826
_cell_angle_alpha   33.59500235
_cell_angle_beta   33.59501032
_cell_angle_gamma   33.59501062
_symmetry_Int_Tables_number   1
_chemical_formula_structural   TiMn(SiRu2)2
_chemical_formula_sum   'Ti1 Mn1 Si2 Ru4'
_cell_volume   106.07839000
_cell_formula_units_Z   1
loop_
 _symmetry_equiv_pos_site_id
 _symmetry_equiv_pos_as_xyz
  1  'x, y, z'
loop_
 _atom_site_type_symbol
 _atom_site_label
 _atom_site_symmetry_multiplicity
 _atom_site_fract_x
 _atom_site_fract_y
 _atom_site_fract_z
 _atom_site_occupancy
  Ti  Ti0  1  0.500000  0.500000  0.500000  1
  Mn  Mn1  1  0.000000  0.000000  0.000000  1
  Si  Si2  1  0.250821  0.250821  0.250821  1
  Si  Si3  1  0.749179  0.749179  0.749179  1
  Ru  Ru4  1  0.625954  0.625954  0.625954  1
  Ru  Ru5  1  0.124176  0.124176  0.124176  1
  Ru  Ru6  1  0.875824  0.875824  0.875824  1
  Ru  Ru7  1  0.374046  0.374046  0.374046  1
