# generated using pymatgen
data_LiNd3Hg3Rh2
_symmetry_space_group_name_H-M   'P 1'
_cell_length_a   7.79530600
_cell_length_b   7.79530511
_cell_length_c   3.86398300
_cell_angle_alpha   90.00000000
_cell_angle_beta   90.00000000
_cell_angle_gamma   120.00000377
_symmetry_Int_Tables_number   1
_chemical_formula_structural   LiNd3Hg3Rh2
_chemical_formula_sum   'Li1 Nd3 Hg3 Rh2'
_cell_volume   203.34434929
_cell_formula_units_Z   1
loop_
 _symmetry_equiv_pos_site_id
 _symmetry_equiv_pos_as_xyz
  1  'x, y, z'
loop_
 _atom_site_type_symbol
 _atom_site_label
 _atom_site_symmetry_multiplicity
 _atom_site_fract_x
 _atom_site_fract_y
 _atom_site_fract_z
 _atom_site_occupancy
  Li  Li0  1  0.000000  0.000000  0.499999  1
  Nd  Nd1  1  0.420678  0.000000  0.499999  1
  Nd  Nd2  1  0.000000  0.420677  0.499999  1
  Nd  Nd3  1  0.579323  0.579322  0.499999  1
  Hg  Hg4  1  0.752258  0.000000  0.000000  1
  Hg  Hg5  1  0.247743  0.247742  0.000000  1
  Hg  Hg6  1  0.000000  0.752258  0.000000  1
  Rh  Rh7  1  0.666668  0.333334  0.000000  1
  Rh  Rh8  1  0.333333  0.666667  0.000000  1
