# generated using pymatgen
data_Zr14CdPd19
_symmetry_space_group_name_H-M   'P 1'
_cell_length_a   8.21032062
_cell_length_b   8.21031800
_cell_length_c   9.76345083
_cell_angle_alpha   90.08249509
_cell_angle_beta   90.08245105
_cell_angle_gamma   106.92580340
_symmetry_Int_Tables_number   1
_chemical_formula_structural   Zr14CdPd19
_chemical_formula_sum   'Zr14 Cd1 Pd19'
_cell_volume   629.63669365
_cell_formula_units_Z   1
loop_
 _symmetry_equiv_pos_site_id
 _symmetry_equiv_pos_as_xyz
  1  'x, y, z'
loop_
 _atom_site_type_symbol
 _atom_site_label
 _atom_site_symmetry_multiplicity
 _atom_site_fract_x
 _atom_site_fract_y
 _atom_site_fract_z
 _atom_site_occupancy
  Zr  Zr0  1  0.690461  0.306656  0.500473  1
  Zr  Zr1  1  0.203011  0.808293  0.995013  1
  Zr  Zr2  1  0.502253  0.000130  0.747716  1
  Zr  Zr3  1  0.998791  0.503377  0.249400  1
  Zr  Zr4  1  0.000130  0.502253  0.747716  1
  Zr  Zr5  1  0.503377  0.998791  0.249400  1
  Zr  Zr6  1  0.816093  0.816093  0.802881  1
  Zr  Zr7  1  0.199399  0.199399  0.185345  1
  Zr  Zr8  1  0.308714  0.308714  0.689123  1
  Zr  Zr9  1  0.666707  0.666706  0.332059  1
  Zr  Zr10  1  0.001355  0.001355  0.495585  1
  Zr  Zr11  1  0.503925  0.503925  0.998533  1
  Zr  Zr12  1  0.306656  0.690461  0.500473  1
  Zr  Zr13  1  0.808293  0.203011  0.995013  1
  Cd  Cd14  1  0.885890  0.885890  0.116937  1
  Pd  Pd15  1  0.353947  0.647012  0.791267  1
  Pd  Pd16  1  0.350775  0.642637  0.206815  1
  Pd  Pd17  1  0.858376  0.150048  0.705404  1
  Pd  Pd18  1  0.854930  0.149985  0.291130  1
  Pd  Pd19  1  0.150048  0.858376  0.705404  1
  Pd  Pd20  1  0.149985  0.854930  0.291130  1
  Pd  Pd21  1  0.647011  0.353947  0.791267  1
  Pd  Pd22  1  0.642637  0.350775  0.206815  1
  Pd  Pd23  1  0.647718  0.937339  0.502896  1
  Pd  Pd24  1  0.060511  0.355856  0.497615  1
  Pd  Pd25  1  0.147251  0.439005  0.996195  1
  Pd  Pd26  1  0.564757  0.856668  0.999456  1
  Pd  Pd27  1  0.937339  0.647718  0.502896  1
  Pd  Pd28  1  0.355856  0.060511  0.497615  1
  Pd  Pd29  1  0.439005  0.147251  0.996195  1
  Pd  Pd30  1  0.856668  0.564756  0.999456  1
  Pd  Pd31  1  0.600832  0.600832  0.608108  1
  Pd  Pd32  1  0.391882  0.391882  0.399871  1
  Pd  Pd33  1  0.095416  0.095416  0.904797  1
