# generated using pymatgen
data_CaYbEr4(Si3Ru)8
_symmetry_space_group_name_H-M   'P 1'
_cell_length_a   10.12776294
_cell_length_b   10.12784154
_cell_length_c   8.13350831
_cell_angle_alpha   90.01449972
_cell_angle_beta   89.98478753
_cell_angle_gamma   132.67029346
_symmetry_Int_Tables_number   1
_chemical_formula_structural   CaYbEr4(Si3Ru)8
_chemical_formula_sum   'Ca1 Yb1 Er4 Si24 Ru8'
_cell_volume   613.41284941
_cell_formula_units_Z   1
loop_
 _symmetry_equiv_pos_site_id
 _symmetry_equiv_pos_as_xyz
  1  'x, y, z'
loop_
 _atom_site_type_symbol
 _atom_site_label
 _atom_site_symmetry_multiplicity
 _atom_site_fract_x
 _atom_site_fract_y
 _atom_site_fract_z
 _atom_site_occupancy
  Ca  Ca0  1  0.000802  0.500783  0.750033  1
  Yb  Yb1  1  0.498967  0.998972  0.249996  1
  Er  Er2  1  0.503712  0.003719  0.749985  1
  Er  Er3  1  0.996418  0.496442  0.249987  1
  Er  Er4  1  0.500046  0.499773  0.500060  1
  Er  Er5  1  0.999792  0.000070  0.999928  1
  Si  Si6  1  0.389211  0.155406  0.002902  1
  Si  Si7  1  0.655403  0.889214  0.497107  1
  Si  Si8  1  0.110832  0.344570  0.502227  1
  Si  Si9  1  0.844578  0.610842  0.997780  1
  Si  Si10  1  0.611542  0.844824  0.993349  1
  Si  Si11  1  0.344852  0.111566  0.506644  1
  Si  Si12  1  0.888195  0.654970  0.492503  1
  Si  Si13  1  0.154954  0.388196  0.007522  1
  Si  Si14  1  0.612864  0.378471  0.227576  1
  Si  Si15  1  0.878465  0.112860  0.272429  1
  Si  Si16  1  0.886585  0.120853  0.727696  1
  Si  Si17  1  0.620865  0.386598  0.772289  1
  Si  Si18  1  0.391771  0.625315  0.771427  1
  Si  Si19  1  0.125310  0.891762  0.728579  1
  Si  Si20  1  0.705532  0.293683  0.000315  1
  Si  Si21  1  0.793709  0.205544  0.499678  1
  Si  Si22  1  0.294890  0.705664  0.000111  1
  Si  Si23  1  0.205657  0.794877  0.499888  1
  Si  Si24  1  0.163803  0.170728  0.332718  1
  Si  Si25  1  0.670735  0.663815  0.167271  1
  Si  Si26  1  0.336121  0.329500  0.832789  1
  Si  Si27  1  0.829474  0.836104  0.667203  1
  Si  Si28  1  0.375447  0.609132  0.228241  1
  Si  Si29  1  0.109137  0.875472  0.271759  1
  Ru  Ru30  1  0.626243  0.626861  0.873575  1
  Ru  Ru31  1  0.126841  0.126203  0.626441  1
  Ru  Ru32  1  0.873993  0.873313  0.373676  1
  Ru  Ru33  1  0.373337  0.374044  0.126303  1
  Ru  Ru34  1  0.330660  0.670347  0.499391  1
  Ru  Ru35  1  0.170369  0.830655  0.000645  1
  Ru  Ru36  1  0.668126  0.330751  0.499349  1
  Ru  Ru37  1  0.830760  0.168103  0.000629  1
