# generated using pymatgen
data_CePr3Dy4(CdIr)2
_symmetry_space_group_name_H-M   'P 1'
_cell_length_a   9.79082300
_cell_length_b   9.79082310
_cell_length_c   9.83843600
_cell_angle_alpha   59.83900878
_cell_angle_beta   59.83900846
_cell_angle_gamma   59.87065332
_symmetry_Int_Tables_number   1
_chemical_formula_structural   CePr3Dy4(CdIr)2
_chemical_formula_sum   'Ce2 Pr6 Dy8 Cd4 Ir4'
_cell_volume   664.60576493
_cell_formula_units_Z   2
loop_
 _symmetry_equiv_pos_site_id
 _symmetry_equiv_pos_as_xyz
  1  'x, y, z'
loop_
 _atom_site_type_symbol
 _atom_site_label
 _atom_site_symmetry_multiplicity
 _atom_site_fract_x
 _atom_site_fract_y
 _atom_site_fract_z
 _atom_site_occupancy
  Ce  Ce0  1  0.344510  0.344510  0.347398  1
  Ce  Ce1  1  0.344510  0.344510  0.963581  1
  Pr  Pr2  1  0.943987  0.557999  0.559029  1
  Pr  Pr3  1  0.557999  0.943987  0.938985  1
  Pr  Pr4  1  0.557999  0.943987  0.559029  1
  Pr  Pr5  1  0.943987  0.557999  0.938985  1
  Pr  Pr6  1  0.558843  0.558843  0.941157  1
  Pr  Pr7  1  0.942089  0.942089  0.557911  1
  Dy  Dy8  1  0.349085  0.953109  0.348903  1
  Dy  Dy9  1  0.953109  0.349085  0.348903  1
  Dy  Dy10  1  0.814327  0.186256  0.187184  1
  Dy  Dy11  1  0.186256  0.814327  0.812234  1
  Dy  Dy12  1  0.186256  0.814327  0.187184  1
  Dy  Dy13  1  0.814327  0.186256  0.812234  1
  Dy  Dy14  1  0.185985  0.185985  0.814015  1
  Dy  Dy15  1  0.813186  0.813186  0.186814  1
  Cd  Cd16  1  0.578806  0.578806  0.579546  1
  Cd  Cd17  1  0.578806  0.578806  0.262841  1
  Cd  Cd18  1  0.578581  0.261926  0.579746  1
  Cd  Cd19  1  0.261926  0.578581  0.579746  1
  Ir  Ir20  1  0.143433  0.143433  0.140053  1
  Ir  Ir21  1  0.143433  0.143433  0.573080  1
  Ir  Ir22  1  0.145760  0.572800  0.140721  1
  Ir  Ir23  1  0.572800  0.145760  0.140721  1
