# generated using pymatgen
data_Y2BeSi3
_symmetry_space_group_name_H-M   'P 1'
_cell_length_a   7.85259400
_cell_length_b   7.85259410
_cell_length_c   8.11219900
_cell_angle_alpha   90.00000000
_cell_angle_beta   90.00000000
_cell_angle_gamma   119.99999960
_symmetry_Int_Tables_number   1
_chemical_formula_structural   Y2BeSi3
_chemical_formula_sum   'Y8 Be4 Si12'
_cell_volume   433.20705651
_cell_formula_units_Z   4
loop_
 _symmetry_equiv_pos_site_id
 _symmetry_equiv_pos_as_xyz
  1  'x, y, z'
loop_
 _atom_site_type_symbol
 _atom_site_label
 _atom_site_symmetry_multiplicity
 _atom_site_fract_x
 _atom_site_fract_y
 _atom_site_fract_z
 _atom_site_occupancy
  Y  Y0  1  0.000000  0.000000  0.250000  1
  Y  Y1  1  0.000000  0.000000  0.750000  1
  Y  Y2  1  0.999361  0.499680  0.250000  1
  Y  Y3  1  0.500320  0.499680  0.250000  1
  Y  Y4  1  0.499680  0.999361  0.750000  1
  Y  Y5  1  0.500320  0.000639  0.250000  1
  Y  Y6  1  0.499680  0.500320  0.750000  1
  Y  Y7  1  0.000639  0.500320  0.750000  1
  Be  Be8  1  0.333333  0.666667  0.999059  1
  Be  Be9  1  0.333333  0.666667  0.500941  1
  Be  Be10  1  0.666667  0.333333  0.000941  1
  Be  Be11  1  0.666667  0.333333  0.499059  1
  Si  Si12  1  0.172467  0.344934  0.999945  1
  Si  Si13  1  0.655066  0.827533  0.999945  1
  Si  Si14  1  0.172467  0.344934  0.500055  1
  Si  Si15  1  0.344934  0.172467  0.000055  1
  Si  Si16  1  0.172467  0.827533  0.999945  1
  Si  Si17  1  0.655066  0.827533  0.500055  1
  Si  Si18  1  0.827533  0.655066  0.000055  1
  Si  Si19  1  0.344934  0.172467  0.499945  1
  Si  Si20  1  0.172467  0.827533  0.500055  1
  Si  Si21  1  0.827533  0.655066  0.499945  1
  Si  Si22  1  0.827533  0.172467  0.000055  1
  Si  Si23  1  0.827533  0.172467  0.499945  1
