# generated using pymatgen
data_Yb8AlSbPd23
_symmetry_space_group_name_H-M   'P 1'
_cell_length_a   8.18958200
_cell_length_b   8.49407000
_cell_length_c   8.39896400
_cell_angle_alpha   90.00000000
_cell_angle_beta   90.00000000
_cell_angle_gamma   90.00000000
_symmetry_Int_Tables_number   1
_chemical_formula_structural   Yb8AlSbPd23
_chemical_formula_sum   'Yb8 Al1 Sb1 Pd23'
_cell_volume   584.25614819
_cell_formula_units_Z   1
loop_
 _symmetry_equiv_pos_site_id
 _symmetry_equiv_pos_as_xyz
  1  'x, y, z'
loop_
 _atom_site_type_symbol
 _atom_site_label
 _atom_site_symmetry_multiplicity
 _atom_site_fract_x
 _atom_site_fract_y
 _atom_site_fract_z
 _atom_site_occupancy
  Yb  Yb0  1  0.748722  0.733145  0.241291  1
  Yb  Yb1  1  0.748722  0.266855  0.758709  1
  Yb  Yb2  1  0.252848  0.751544  0.743835  1
  Yb  Yb3  1  0.748722  0.733145  0.758709  1
  Yb  Yb4  1  0.748722  0.266855  0.241291  1
  Yb  Yb5  1  0.252848  0.248456  0.743835  1
  Yb  Yb6  1  0.252848  0.751544  0.256165  1
  Yb  Yb7  1  0.252848  0.248456  0.256165  1
  Al  Al8  1  0.713245  0.000000  0.500000  1
  Sb  Sb9  1  0.006115  0.000000  0.000000  1
  Pd  Pd10  1  0.970808  0.000000  0.317721  1
  Pd  Pd11  1  0.737322  0.500000  0.000000  1
  Pd  Pd12  1  0.515323  0.000000  0.727504  1
  Pd  Pd13  1  0.992726  0.731960  0.500000  1
  Pd  Pd14  1  0.515323  0.000000  0.272496  1
  Pd  Pd15  1  0.992726  0.268040  0.500000  1
  Pd  Pd16  1  0.498326  0.731688  0.000000  1
  Pd  Pd17  1  0.257524  0.500000  0.500000  1
  Pd  Pd18  1  0.495733  0.500000  0.742734  1
  Pd  Pd19  1  0.495733  0.500000  0.257266  1
  Pd  Pd20  1  0.513231  0.250901  0.500000  1
  Pd  Pd21  1  0.513231  0.749099  0.500000  1
  Pd  Pd22  1  0.743980  0.500000  0.500000  1
  Pd  Pd23  1  0.320442  0.000000  0.000000  1
  Pd  Pd24  1  0.970808  0.000000  0.682279  1
  Pd  Pd25  1  0.007209  0.500000  0.263533  1
  Pd  Pd26  1  0.004928  0.304707  0.000000  1
  Pd  Pd27  1  0.004928  0.695293  0.000000  1
  Pd  Pd28  1  0.691878  0.000000  0.000000  1
  Pd  Pd29  1  0.266254  0.500000  0.000000  1
  Pd  Pd30  1  0.260388  0.000000  0.500000  1
  Pd  Pd31  1  0.007209  0.500000  0.736467  1
  Pd  Pd32  1  0.498326  0.268312  0.000000  1
