# generated using pymatgen
data_K2Pt5S6
_symmetry_space_group_name_H-M   'P 1'
_cell_length_a   7.09188293
_cell_length_b   7.10876300
_cell_length_c   11.40371252
_cell_angle_alpha   90.00011149
_cell_angle_beta   98.20901055
_cell_angle_gamma   90.00009648
_symmetry_Int_Tables_number   1
_chemical_formula_structural   K2Pt5S6
_chemical_formula_sum   'K4 Pt10 S12'
_cell_volume   569.02195900
_cell_formula_units_Z   2
loop_
 _symmetry_equiv_pos_site_id
 _symmetry_equiv_pos_as_xyz
  1  'x, y, z'
loop_
 _atom_site_type_symbol
 _atom_site_label
 _atom_site_symmetry_multiplicity
 _atom_site_fract_x
 _atom_site_fract_y
 _atom_site_fract_z
 _atom_site_occupancy
  K  K0  1  0.387227  0.274451  0.032301  1
  K  K1  1  0.112773  0.774457  0.467696  1
  K  K2  1  0.887229  0.225551  0.532301  1
  K  K3  1  0.612775  0.725550  0.967699  1
  Pt  Pt4  1  0.000000  0.999999  0.000000  1
  Pt  Pt5  1  0.234202  0.574020  0.233889  1
  Pt  Pt6  1  0.746470  0.313509  0.245689  1
  Pt  Pt7  1  0.753530  0.813509  0.254311  1
  Pt  Pt8  1  0.265800  0.074021  0.266111  1
  Pt  Pt9  1  0.499999  0.500000  0.500000  1
  Pt  Pt10  1  0.734199  0.925979  0.733889  1
  Pt  Pt11  1  0.246469  0.186490  0.745689  1
  Pt  Pt12  1  0.253531  0.686490  0.754310  1
  Pt  Pt13  1  0.765799  0.425978  0.766112  1
  S  S14  1  0.262578  0.843168  0.115049  1
  S  S15  1  0.909107  0.562177  0.170768  1
  S  S16  1  0.934650  0.064824  0.192821  1
  S  S17  1  0.565350  0.564824  0.307179  1
  S  S18  1  0.590894  0.062178  0.329233  1
  S  S19  1  0.237423  0.343169  0.384951  1
  S  S20  1  0.762576  0.656831  0.615050  1
  S  S21  1  0.409106  0.937823  0.670766  1
  S  S22  1  0.434649  0.435174  0.692822  1
  S  S23  1  0.065350  0.935174  0.807178  1
  S  S24  1  0.090894  0.437822  0.829233  1
  S  S25  1  0.737421  0.156830  0.884952  1
