# generated using pymatgen
data_YErGe2(Ru2C)2
_symmetry_space_group_name_H-M   'P 1'
_cell_length_a   5.91411693
_cell_length_b   5.91411653
_cell_length_c   7.28246200
_cell_angle_alpha   90.00000000
_cell_angle_beta   90.00000000
_cell_angle_gamma   141.72276861
_symmetry_Int_Tables_number   1
_chemical_formula_structural   YErGe2(Ru2C)2
_chemical_formula_sum   'Y1 Er1 Ge2 Ru4 C2'
_cell_volume   157.78883640
_cell_formula_units_Z   1
loop_
 _symmetry_equiv_pos_site_id
 _symmetry_equiv_pos_as_xyz
  1  'x, y, z'
loop_
 _atom_site_type_symbol
 _atom_site_label
 _atom_site_symmetry_multiplicity
 _atom_site_fract_x
 _atom_site_fract_y
 _atom_site_fract_z
 _atom_site_occupancy
  Y  Y0  1  0.454570  0.545430  0.750000  1
  Er  Er1  1  0.545298  0.454702  0.250000  1
  Ge  Ge2  1  0.266534  0.733466  0.250000  1
  Ge  Ge3  1  0.733160  0.266840  0.750000  1
  Ru  Ru4  1  0.838186  0.161814  0.057549  1
  Ru  Ru5  1  0.161814  0.838186  0.943946  1
  Ru  Ru6  1  0.161814  0.838186  0.556054  1
  Ru  Ru7  1  0.838186  0.161814  0.442451  1
  C  C8  1  0.000218  0.999782  0.002255  1
  C  C9  1  0.000218  0.999782  0.497745  1
