# generated using pymatgen
data_Sr4Si7PIr8
_symmetry_space_group_name_H-M   'P 1'
_cell_length_a   6.45310804
_cell_length_b   7.80483186
_cell_length_c   7.98576966
_cell_angle_alpha   86.54996955
_cell_angle_beta   90.11193944
_cell_angle_gamma   89.60891939
_symmetry_Int_Tables_number   1
_chemical_formula_structural   Sr4Si7PIr8
_chemical_formula_sum   'Sr4 Si7 P1 Ir8'
_cell_volume   401.46725524
_cell_formula_units_Z   1
loop_
 _symmetry_equiv_pos_site_id
 _symmetry_equiv_pos_as_xyz
  1  'x, y, z'
loop_
 _atom_site_type_symbol
 _atom_site_label
 _atom_site_symmetry_multiplicity
 _atom_site_fract_x
 _atom_site_fract_y
 _atom_site_fract_z
 _atom_site_occupancy
  Sr  Sr0  1  0.378772  0.993066  0.236530  1
  Sr  Sr1  1  0.872882  0.506113  0.765522  1
  Sr  Sr2  1  0.122653  0.491558  0.229706  1
  Sr  Sr3  1  0.620159  0.003718  0.767828  1
  Si  Si4  1  0.145722  0.193707  0.561105  1
  Si  Si5  1  0.646364  0.309645  0.437547  1
  Si  Si6  1  0.855978  0.808063  0.440100  1
  Si  Si7  1  0.918674  0.127639  0.071025  1
  Si  Si8  1  0.582509  0.633520  0.073643  1
  Si  Si9  1  0.085975  0.871840  0.929061  1
  Si  Si10  1  0.350004  0.691068  0.558977  1
  P  P11  1  0.417181  0.371594  0.927192  1
  Ir  Ir12  1  0.396609  0.390502  0.627766  1
  Ir  Ir13  1  0.604741  0.610324  0.375668  1
  Ir  Ir14  1  0.106576  0.893646  0.626546  1
  Ir  Ir15  1  0.171500  0.173087  0.861314  1
  Ir  Ir16  1  0.660624  0.328804  0.136275  1
  Ir  Ir17  1  0.836189  0.830718  0.141213  1
  Ir  Ir18  1  0.331372  0.661733  0.858730  1
  Ir  Ir19  1  0.895518  0.109656  0.374253  1
