# generated using pymatgen
data_Ca(Yb5Bi4)3
_symmetry_space_group_name_H-M   'P 1'
_cell_length_a   9.61925919
_cell_length_b   9.61925978
_cell_length_c   9.61925900
_cell_angle_alpha   90.31588527
_cell_angle_beta   90.31588529
_cell_angle_gamma   89.68411723
_symmetry_Int_Tables_number   1
_chemical_formula_structural   Ca(Yb5Bi4)3
_chemical_formula_sum   'Ca1 Yb15 Bi12'
_cell_volume   890.03107491
_cell_formula_units_Z   1
loop_
 _symmetry_equiv_pos_site_id
 _symmetry_equiv_pos_as_xyz
  1  'x, y, z'
loop_
 _atom_site_type_symbol
 _atom_site_label
 _atom_site_symmetry_multiplicity
 _atom_site_fract_x
 _atom_site_fract_y
 _atom_site_fract_z
 _atom_site_occupancy
  Ca  Ca0  1  0.075427  0.575423  0.924432  1
  Yb  Yb1  1  0.826020  0.326020  0.173989  1
  Yb  Yb2  1  0.924841  0.925685  0.925622  1
  Yb  Yb3  1  0.826998  0.674068  0.327198  1
  Yb  Yb4  1  0.174285  0.825533  0.325227  1
  Yb  Yb5  1  0.174067  0.172800  0.173015  1
  Yb  Yb6  1  0.326277  0.826281  0.673731  1
  Yb  Yb7  1  0.074387  0.424835  0.574324  1
  Yb  Yb8  1  0.325537  0.174776  0.825716  1
  Yb  Yb9  1  0.672795  0.326990  0.825937  1
  Yb  Yb10  1  0.674776  0.674287  0.674477  1
  Yb  Yb11  1  0.574425  0.074422  0.425585  1
  Yb  Yb12  1  0.425693  0.574388  0.075159  1
  Yb  Yb13  1  0.923784  0.076910  0.576675  1
  Yb  Yb14  1  0.423324  0.423788  0.423107  1
  Yb  Yb15  1  0.576904  0.923323  0.076217  1
  Bi  Bi16  1  0.749708  0.374509  0.500410  1
  Bi  Bi17  1  0.874509  0.999597  0.250295  1
  Bi  Bi18  1  0.000071  0.750859  0.625179  1
  Bi  Bi19  1  0.249367  0.125236  0.499242  1
  Bi  Bi20  1  0.126219  0.499328  0.250020  1
  Bi  Bi21  1  0.999327  0.249980  0.873786  1
  Bi  Bi22  1  0.250860  0.874825  0.999933  1
  Bi  Bi23  1  0.374829  0.500071  0.749147  1
  Bi  Bi24  1  0.499597  0.249711  0.125495  1
  Bi  Bi25  1  0.749979  0.626224  0.000677  1
  Bi  Bi26  1  0.625233  0.000763  0.750636  1
  Bi  Bi27  1  0.500762  0.749367  0.374771  1
