# generated using pymatgen
data_Ho4TmP12Ru19
_symmetry_space_group_name_H-M   'P 1'
_cell_length_a   12.52199701
_cell_length_b   12.52290847
_cell_length_c   3.97106500
_cell_angle_alpha   90.00000000
_cell_angle_beta   90.00000000
_cell_angle_gamma   120.00240553
_symmetry_Int_Tables_number   1
_chemical_formula_structural   Ho4TmP12Ru19
_chemical_formula_sum   'Ho4 Tm1 P12 Ru19'
_cell_volume   539.26955439
_cell_formula_units_Z   1
loop_
 _symmetry_equiv_pos_site_id
 _symmetry_equiv_pos_as_xyz
  1  'x, y, z'
loop_
 _atom_site_type_symbol
 _atom_site_label
 _atom_site_symmetry_multiplicity
 _atom_site_fract_x
 _atom_site_fract_y
 _atom_site_fract_z
 _atom_site_occupancy
  Ho  Ho0  1  0.816005  0.816013  0.500000  1
  Ho  Ho1  1  0.183995  0.000007  0.500000  1
  Ho  Ho2  1  0.666664  0.333307  0.000000  1
  Ho  Ho3  1  0.333336  0.666644  0.000000  1
  Tm  Tm4  1  0.000000  0.183944  0.500000  1
  P  P5  1  0.000000  0.816175  0.000000  1
  P  P6  1  0.183690  0.183900  0.000000  1
  P  P7  1  0.816310  0.000210  0.000000  1
  P  P8  1  0.692738  0.170795  0.500000  1
  P  P9  1  0.829213  0.521921  0.500000  1
  P  P10  1  0.477982  0.307235  0.500000  1
  P  P11  1  0.170787  0.692707  0.500000  1
  P  P12  1  0.522018  0.829253  0.500000  1
  P  P13  1  0.307262  0.478057  0.500000  1
  P  P14  1  0.000000  0.372141  0.000000  1
  P  P15  1  0.627691  0.627693  0.000000  1
  P  P16  1  0.372309  0.000001  0.000000  1
  Ru  Ru17  1  0.000000  0.554387  0.000000  1
  Ru  Ru18  1  0.445547  0.445559  0.000000  1
  Ru  Ru19  1  0.554453  0.000012  0.000000  1
  Ru  Ru20  1  0.000000  0.717177  0.500000  1
  Ru  Ru21  1  0.282485  0.282689  0.500000  1
  Ru  Ru22  1  0.717515  0.000203  0.500000  1
  Ru  Ru23  1  0.808197  0.184699  0.000000  1
  Ru  Ru24  1  0.815371  0.623058  0.000000  1
  Ru  Ru25  1  0.376913  0.192320  0.000000  1
  Ru  Ru26  1  0.184629  0.807687  0.000000  1
  Ru  Ru27  1  0.623087  0.815407  0.000000  1
  Ru  Ru28  1  0.191803  0.376502  0.000000  1
  Ru  Ru29  1  0.873835  0.365179  0.500000  1
  Ru  Ru30  1  0.634704  0.508516  0.500000  1
  Ru  Ru31  1  0.491457  0.126188  0.500000  1
  Ru  Ru32  1  0.365296  0.873812  0.500000  1
  Ru  Ru33  1  0.508543  0.634731  0.500000  1
  Ru  Ru34  1  0.126165  0.491344  0.500000  1
  Ru  Ru35  1  0.000000  0.000526  0.000000  1
