# generated using pymatgen
data_Pr5Y(PtRh8)2
_symmetry_space_group_name_H-M   'P 1'
_cell_length_a   5.36666500
_cell_length_b   5.36666542
_cell_length_c   17.72934200
_cell_angle_alpha   90.00000000
_cell_angle_beta   90.00000000
_cell_angle_gamma   119.99999123
_symmetry_Int_Tables_number   1
_chemical_formula_structural   Pr5Y(PtRh8)2
_chemical_formula_sum   'Pr5 Y1 Pt2 Rh16'
_cell_volume   442.21380353
_cell_formula_units_Z   1
loop_
 _symmetry_equiv_pos_site_id
 _symmetry_equiv_pos_as_xyz
  1  'x, y, z'
loop_
 _atom_site_type_symbol
 _atom_site_label
 _atom_site_symmetry_multiplicity
 _atom_site_fract_x
 _atom_site_fract_y
 _atom_site_fract_z
 _atom_site_occupancy
  Pr  Pr0  1  0.333333  0.666667  0.956145  1
  Pr  Pr1  1  0.666667  0.333333  0.043529  1
  Pr  Pr2  1  0.666667  0.333333  0.457973  1
  Pr  Pr3  1  0.333333  0.666667  0.749029  1
  Pr  Pr4  1  0.666667  0.333333  0.250369  1
  Y  Y5  1  0.333333  0.666667  0.544813  1
  Pt  Pt6  1  0.000000  0.000000  0.500375  1
  Pt  Pt7  1  0.000000  0.000000  0.999973  1
  Rh  Rh8  1  0.167483  0.832517  0.372834  1
  Rh  Rh9  1  0.167483  0.334966  0.372834  1
  Rh  Rh10  1  0.665034  0.832517  0.372834  1
  Rh  Rh11  1  0.832592  0.167408  0.626640  1
  Rh  Rh12  1  0.832592  0.665184  0.626640  1
  Rh  Rh13  1  0.334816  0.167408  0.626640  1
  Rh  Rh14  1  0.832925  0.167075  0.871125  1
  Rh  Rh15  1  0.832925  0.665848  0.871125  1
  Rh  Rh16  1  0.334152  0.167075  0.871125  1
  Rh  Rh17  1  0.167031  0.832969  0.128785  1
  Rh  Rh18  1  0.167031  0.334064  0.128785  1
  Rh  Rh19  1  0.665936  0.832969  0.128785  1
  Rh  Rh20  1  0.333333  0.666667  0.250582  1
  Rh  Rh21  1  0.666667  0.333333  0.749116  1
  Rh  Rh22  1  0.000000  0.000000  0.250987  1
  Rh  Rh23  1  0.000000  0.000000  0.748957  1
