# generated using pymatgen
data_Sc6AgSn6Ru11
_symmetry_space_group_name_H-M   'P 1'
_cell_length_a   4.55802400
_cell_length_b   6.45712200
_cell_length_c   13.67367000
_cell_angle_alpha   90.00000000
_cell_angle_beta   90.00082546
_cell_angle_gamma   90.00000000
_symmetry_Int_Tables_number   1
_chemical_formula_structural   Sc6AgSn6Ru11
_chemical_formula_sum   'Sc6 Ag1 Sn6 Ru11'
_cell_volume   402.43958641
_cell_formula_units_Z   1
loop_
 _symmetry_equiv_pos_site_id
 _symmetry_equiv_pos_as_xyz
  1  'x, y, z'
loop_
 _atom_site_type_symbol
 _atom_site_label
 _atom_site_symmetry_multiplicity
 _atom_site_fract_x
 _atom_site_fract_y
 _atom_site_fract_z
 _atom_site_occupancy
  Sc  Sc0  1  0.000000  0.515037  0.000000  1
  Sc  Sc1  1  0.499937  0.993748  0.172381  1
  Sc  Sc2  1  0.999951  0.498573  0.334352  1
  Sc  Sc3  1  0.500000  0.003795  0.500000  1
  Sc  Sc4  1  0.000049  0.498573  0.665648  1
  Sc  Sc5  1  0.500063  0.993748  0.827619  1
  Ag  Ag6  1  0.500000  0.250934  0.000000  1
  Sn  Sn7  1  0.000000  0.988487  0.000000  1
  Sn  Sn8  1  0.499957  0.506271  0.171730  1
  Sn  Sn9  1  0.999953  0.999411  0.333930  1
  Sn  Sn10  1  0.500000  0.500174  0.500000  1
  Sn  Sn11  1  0.000047  0.999411  0.666070  1
  Sn  Sn12  1  0.500044  0.506271  0.828270  1
  Ru  Ru13  1  0.500000  0.745024  0.000000  1
  Ru  Ru14  1  0.999939  0.248970  0.164406  1
  Ru  Ru15  1  0.999931  0.750656  0.165635  1
  Ru  Ru16  1  0.499953  0.249890  0.332631  1
  Ru  Ru17  1  0.499944  0.751035  0.334423  1
  Ru  Ru18  1  0.000000  0.249140  0.500000  1
  Ru  Ru19  1  0.000000  0.750303  0.500000  1
  Ru  Ru20  1  0.500048  0.249890  0.667369  1
  Ru  Ru21  1  0.500057  0.751035  0.665577  1
  Ru  Ru22  1  0.000061  0.248970  0.835594  1
  Ru  Ru23  1  0.000069  0.750656  0.834365  1
