# generated using pymatgen
data_Cs6Sb2Se3S5
_symmetry_space_group_name_H-M   'P 1'
_cell_length_a   10.22531300
_cell_length_b   10.47172235
_cell_length_c   11.99082720
_cell_angle_alpha   89.85739298
_cell_angle_beta   90.00000000
_cell_angle_gamma   90.00000000
_symmetry_Int_Tables_number   1
_chemical_formula_structural   Cs6Sb2Se3S5
_chemical_formula_sum   'Cs12 Sb4 Se6 S10'
_cell_volume   1283.93349429
_cell_formula_units_Z   2
loop_
 _symmetry_equiv_pos_site_id
 _symmetry_equiv_pos_as_xyz
  1  'x, y, z'
loop_
 _atom_site_type_symbol
 _atom_site_label
 _atom_site_symmetry_multiplicity
 _atom_site_fract_x
 _atom_site_fract_y
 _atom_site_fract_z
 _atom_site_occupancy
  Cs  Cs0  1  0.849448  0.914403  0.749462  1
  Cs  Cs1  1  0.349448  0.585597  0.750538  1
  Cs  Cs2  1  0.147480  0.084381  0.247321  1
  Cs  Cs3  1  0.647480  0.415619  0.252679  1
  Cs  Cs4  1  0.052597  0.303716  0.546516  1
  Cs  Cs5  1  0.552597  0.196284  0.953484  1
  Cs  Cs6  1  0.951063  0.703322  0.050095  1
  Cs  Cs7  1  0.451063  0.796678  0.449905  1
  Cs  Cs8  1  0.951174  0.699739  0.451246  1
  Cs  Cs9  1  0.451174  0.800261  0.048754  1
  Cs  Cs10  1  0.044620  0.295966  0.954790  1
  Cs  Cs11  1  0.544620  0.204034  0.545210  1
  Sb  Sb12  1  0.777923  0.478540  0.749875  1
  Sb  Sb13  1  0.277923  0.021460  0.750125  1
  Sb  Sb14  1  0.224631  0.519501  0.252045  1
  Sb  Sb15  1  0.724631  0.980499  0.247955  1
  Se  Se16  1  0.845129  0.041476  0.422605  1
  Se  Se17  1  0.345129  0.458524  0.077395  1
  Se  Se18  1  0.156744  0.958405  0.924005  1
  Se  Se19  1  0.656744  0.541595  0.575995  1
  Se  Se20  1  0.156072  0.961007  0.575988  1
  Se  Se21  1  0.656072  0.538993  0.924012  1
  S  S22  1  0.801296  0.253372  0.748664  1
  S  S23  1  0.301296  0.246628  0.751336  1
  S  S24  1  0.200318  0.744911  0.251534  1
  S  S25  1  0.700318  0.755089  0.248466  1
  S  S26  1  0.988116  0.575360  0.749964  1
  S  S27  1  0.488116  0.924640  0.750036  1
  S  S28  1  0.013947  0.423466  0.253038  1
  S  S29  1  0.513947  0.076534  0.246962  1
  S  S30  1  0.839441  0.039330  0.084569  1
  S  S31  1  0.339441  0.460670  0.415431  1
