# generated using pymatgen
data_SbTeBrO3
_symmetry_space_group_name_H-M   'P 1'
_cell_length_a   5.52228100
_cell_length_b   7.50956400
_cell_length_c   11.98921200
_cell_angle_alpha   90.00000000
_cell_angle_beta   90.00000000
_cell_angle_gamma   90.00000000
_symmetry_Int_Tables_number   1
_chemical_formula_structural   SbTeBrO3
_chemical_formula_sum   'Sb4 Te4 Br4 O12'
_cell_volume   497.19169362
_cell_formula_units_Z   4
loop_
 _symmetry_equiv_pos_site_id
 _symmetry_equiv_pos_as_xyz
  1  'x, y, z'
loop_
 _atom_site_type_symbol
 _atom_site_label
 _atom_site_symmetry_multiplicity
 _atom_site_fract_x
 _atom_site_fract_y
 _atom_site_fract_z
 _atom_site_occupancy
  Sb  Sb0  1  0.250000  0.947380  0.755612  1
  Sb  Sb1  1  0.750000  0.052620  0.244388  1
  Sb  Sb2  1  0.750000  0.447380  0.744388  1
  Sb  Sb3  1  0.250000  0.552620  0.255612  1
  Te  Te4  1  0.750000  0.834646  0.916177  1
  Te  Te5  1  0.750000  0.665354  0.416177  1
  Te  Te6  1  0.250000  0.165354  0.083823  1
  Te  Te7  1  0.250000  0.334646  0.583823  1
  Br  Br8  1  0.750000  0.102238  0.581684  1
  Br  Br9  1  0.250000  0.897762  0.418316  1
  Br  Br10  1  0.250000  0.602238  0.918316  1
  Br  Br11  1  0.750000  0.397762  0.081684  1
  O  O12  1  0.995622  0.004593  0.872734  1
  O  O13  1  0.004378  0.995407  0.127266  1
  O  O14  1  0.750000  0.781943  0.273149  1
  O  O15  1  0.495622  0.504593  0.627266  1
  O  O16  1  0.995622  0.495407  0.372734  1
  O  O17  1  0.504378  0.495407  0.372734  1
  O  O18  1  0.750000  0.718057  0.773149  1
  O  O19  1  0.495622  0.995407  0.127266  1
  O  O20  1  0.504378  0.004593  0.872734  1
  O  O21  1  0.250000  0.218057  0.726851  1
  O  O22  1  0.004378  0.504593  0.627266  1
  O  O23  1  0.250000  0.281943  0.226851  1
