# generated using pymatgen
data_Tm2CuSi2Ru
_symmetry_space_group_name_H-M   'P 1'
_cell_length_a   4.18933400
_cell_length_b   6.85879521
_cell_length_c   7.32941318
_cell_angle_alpha   91.23670949
_cell_angle_beta   90.00000000
_cell_angle_gamma   90.00000000
_symmetry_Int_Tables_number   1
_chemical_formula_structural   Tm2CuSi2Ru
_chemical_formula_sum   'Tm4 Cu2 Si4 Ru2'
_cell_volume   210.55271732
_cell_formula_units_Z   2
loop_
 _symmetry_equiv_pos_site_id
 _symmetry_equiv_pos_as_xyz
  1  'x, y, z'
loop_
 _atom_site_type_symbol
 _atom_site_label
 _atom_site_symmetry_multiplicity
 _atom_site_fract_x
 _atom_site_fract_y
 _atom_site_fract_z
 _atom_site_occupancy
  Tm  Tm0  1  0.250000  0.995295  0.798207  1
  Tm  Tm1  1  0.750000  0.004705  0.201793  1
  Tm  Tm2  1  0.250000  0.494367  0.689754  1
  Tm  Tm3  1  0.750000  0.505633  0.310246  1
  Cu  Cu4  1  0.750000  0.831699  0.573149  1
  Cu  Cu5  1  0.250000  0.168301  0.426851  1
  Si  Si6  1  0.250000  0.296715  0.092432  1
  Si  Si7  1  0.750000  0.703285  0.907568  1
  Si  Si8  1  0.250000  0.794074  0.389783  1
  Si  Si9  1  0.750000  0.205926  0.610217  1
  Ru  Ru10  1  0.750000  0.344742  0.935815  1
  Ru  Ru11  1  0.250000  0.655258  0.064185  1
