# generated using pymatgen
data_Nd4Y6B2Br15
_symmetry_space_group_name_H-M   'P 1'
_cell_length_a   9.31831864
_cell_length_b   10.00700987
_cell_length_c   10.82499592
_cell_angle_alpha   91.30537399
_cell_angle_beta   114.22369941
_cell_angle_gamma   110.97770973
_symmetry_Int_Tables_number   1
_chemical_formula_structural   Nd4Y6B2Br15
_chemical_formula_sum   'Nd4 Y6 B2 Br15'
_cell_volume   842.28668855
_cell_formula_units_Z   1
loop_
 _symmetry_equiv_pos_site_id
 _symmetry_equiv_pos_as_xyz
  1  'x, y, z'
loop_
 _atom_site_type_symbol
 _atom_site_label
 _atom_site_symmetry_multiplicity
 _atom_site_fract_x
 _atom_site_fract_y
 _atom_site_fract_z
 _atom_site_occupancy
  Nd  Nd0  1  0.801569  0.410454  0.278979  1
  Nd  Nd1  1  0.198431  0.589546  0.721021  1
  Nd  Nd2  1  0.672681  0.746580  0.816545  1
  Nd  Nd3  1  0.327319  0.253420  0.183455  1
  Y  Y4  1  0.524076  0.708515  0.092085  1
  Y  Y5  1  0.475924  0.291485  0.907915  1
  Y  Y6  1  0.583567  0.039788  0.319372  1
  Y  Y7  1  0.416433  0.960212  0.680628  1
  Y  Y8  1  0.717404  0.073312  0.046567  1
  Y  Y9  1  0.282596  0.926688  0.953433  1
  B  B10  1  0.467894  0.823252  0.879135  1
  B  B11  1  0.532106  0.176748  0.120865  1
  Br  Br12  1  0.000000  0.000000  0.000000  1
  Br  Br13  1  0.631418  0.889307  0.578232  1
  Br  Br14  1  0.368582  0.110693  0.421768  1
  Br  Br15  1  0.877546  0.289111  0.529097  1
  Br  Br16  1  0.122454  0.710889  0.470903  1
  Br  Br17  1  0.294277  0.764304  0.177868  1
  Br  Br18  1  0.705723  0.235696  0.822132  1
  Br  Br19  1  0.047569  0.335636  0.220416  1
  Br  Br20  1  0.172463  0.057181  0.707501  1
  Br  Br21  1  0.827537  0.942819  0.292499  1
  Br  Br22  1  0.242368  0.412681  0.946647  1
  Br  Br23  1  0.757632  0.587319  0.053353  1
  Br  Br24  1  0.408032  0.452524  0.662200  1
  Br  Br25  1  0.591968  0.547476  0.337800  1
  Br  Br26  1  0.952431  0.664364  0.779584  1
