# generated using pymatgen
data_Rb3TaSe3O
_symmetry_space_group_name_H-M   'P 1'
_cell_length_a   6.86743000
_cell_length_b   11.12163600
_cell_length_c   13.64472100
_cell_angle_alpha   90.00000000
_cell_angle_beta   90.00000000
_cell_angle_gamma   90.00000000
_symmetry_Int_Tables_number   1
_chemical_formula_structural   Rb3TaSe3O
_chemical_formula_sum   'Rb12 Ta4 Se12 O4'
_cell_volume   1042.14362968
_cell_formula_units_Z   4
loop_
 _symmetry_equiv_pos_site_id
 _symmetry_equiv_pos_as_xyz
  1  'x, y, z'
loop_
 _atom_site_type_symbol
 _atom_site_label
 _atom_site_symmetry_multiplicity
 _atom_site_fract_x
 _atom_site_fract_y
 _atom_site_fract_z
 _atom_site_occupancy
  Rb  Rb0  1  0.252882  0.451563  0.131158  1
  Rb  Rb1  1  0.235272  0.750000  0.367325  1
  Rb  Rb2  1  0.247118  0.951563  0.631158  1
  Rb  Rb3  1  0.752882  0.048437  0.368842  1
  Rb  Rb4  1  0.264728  0.250000  0.867325  1
  Rb  Rb5  1  0.252882  0.048437  0.131158  1
  Rb  Rb6  1  0.247118  0.548437  0.631158  1
  Rb  Rb7  1  0.735272  0.750000  0.132675  1
  Rb  Rb8  1  0.752882  0.451563  0.368842  1
  Rb  Rb9  1  0.747118  0.951563  0.868842  1
  Rb  Rb10  1  0.764728  0.250000  0.632675  1
  Rb  Rb11  1  0.747118  0.548437  0.868842  1
  Ta  Ta12  1  0.338283  0.250000  0.454102  1
  Ta  Ta13  1  0.161717  0.750000  0.954102  1
  Ta  Ta14  1  0.661717  0.750000  0.545898  1
  Ta  Ta15  1  0.838283  0.250000  0.045898  1
  Se  Se16  1  0.244512  0.750000  0.127438  1
  Se  Se17  1  0.237961  0.062561  0.378127  1
  Se  Se18  1  0.255488  0.250000  0.627439  1
  Se  Se19  1  0.237961  0.437439  0.378127  1
  Se  Se20  1  0.755488  0.250000  0.872561  1
  Se  Se21  1  0.737961  0.437439  0.121873  1
  Se  Se22  1  0.762039  0.562561  0.621873  1
  Se  Se23  1  0.737961  0.062561  0.121873  1
  Se  Se24  1  0.762039  0.937439  0.621873  1
  Se  Se25  1  0.262039  0.937439  0.878127  1
  Se  Se26  1  0.262039  0.562561  0.878127  1
  Se  Se27  1  0.744512  0.750000  0.372562  1
  O  O28  1  0.600041  0.250000  0.450445  1
  O  O29  1  0.399959  0.750000  0.549555  1
  O  O30  1  0.899959  0.750000  0.950445  1
  O  O31  1  0.100041  0.250000  0.049555  1
