# generated using pymatgen
data_Sm8Dy12Si15Sn
_symmetry_space_group_name_H-M   'P 1'
_cell_length_a   7.72316072
_cell_length_b   7.74214100
_cell_length_c   14.18010800
_cell_angle_alpha   89.71404317
_cell_angle_beta   90.08100477
_cell_angle_gamma   89.78331007
_symmetry_Int_Tables_number   1
_chemical_formula_structural   Sm8Dy12Si15Sn
_chemical_formula_sum   'Sm8 Dy12 Si15 Sn1'
_cell_volume   847.86503740
_cell_formula_units_Z   1
loop_
 _symmetry_equiv_pos_site_id
 _symmetry_equiv_pos_as_xyz
  1  'x, y, z'
loop_
 _atom_site_type_symbol
 _atom_site_label
 _atom_site_symmetry_multiplicity
 _atom_site_fract_x
 _atom_site_fract_y
 _atom_site_fract_z
 _atom_site_occupancy
  Sm  Sm0  1  0.988235  0.359739  0.205543  1
  Sm  Sm1  1  0.006489  0.642922  0.710013  1
  Sm  Sm2  1  0.133805  0.502710  0.463558  1
  Sm  Sm3  1  0.508105  0.856675  0.039383  1
  Sm  Sm4  1  0.858809  0.506482  0.957812  1
  Sm  Sm5  1  0.492144  0.141992  0.543110  1
  Sm  Sm6  1  0.359049  0.994250  0.791638  1
  Sm  Sm7  1  0.646937  0.000205  0.290498  1
  Dy  Dy8  1  0.182820  0.182084  0.999344  1
  Dy  Dy9  1  0.816457  0.820422  0.502285  1
  Dy  Dy10  1  0.320277  0.687003  0.247844  1
  Dy  Dy11  1  0.682976  0.317969  0.750592  1
  Dy  Dy12  1  0.130307  0.997962  0.375123  1
  Dy  Dy13  1  0.861881  0.992063  0.875050  1
  Dy  Dy14  1  0.490932  0.639277  0.626188  1
  Dy  Dy15  1  0.361796  0.507205  0.873983  1
  Dy  Dy16  1  0.507468  0.359519  0.122922  1
  Dy  Dy17  1  0.651645  0.503795  0.376434  1
  Dy  Dy18  1  0.007832  0.139686  0.624954  1
  Dy  Dy19  1  0.991136  0.859214  0.121571  1
  Si  Si20  1  0.652361  0.705844  0.813191  1
  Si  Si21  1  0.204210  0.849358  0.564106  1
  Si  Si22  1  0.153002  0.793974  0.935503  1
  Si  Si23  1  0.795706  0.151880  0.061095  1
  Si  Si24  1  0.844987  0.204319  0.437915  1
  Si  Si25  1  0.294120  0.348257  0.687709  1
  Si  Si26  1  0.704534  0.650001  0.184771  1
  Si  Si27  1  0.293087  0.052576  0.184561  1
  Si  Si28  1  0.706284  0.938099  0.689601  1
  Si  Si29  1  0.437476  0.795950  0.438764  1
  Si  Si30  1  0.206264  0.559485  0.060440  1
  Si  Si31  1  0.562425  0.206270  0.938274  1
  Si  Si32  1  0.791216  0.437770  0.562931  1
  Si  Si33  1  0.062616  0.293908  0.811006  1
  Si  Si34  1  0.940469  0.705521  0.309628  1
  Sn  Sn35  1  0.352139  0.295611  0.322661  1
