# generated using pymatgen
data_Ca2Be2Si4Pd21
_symmetry_space_group_name_H-M   'P 1'
_cell_length_a   8.57158717
_cell_length_b   8.60873697
_cell_length_c   8.60873636
_cell_angle_alpha   59.50307322
_cell_angle_beta   60.14264704
_cell_angle_gamma   60.14264232
_symmetry_Int_Tables_number   1
_chemical_formula_structural   Ca2Be2Si4Pd21
_chemical_formula_sum   'Ca2 Be2 Si4 Pd21'
_cell_volume   448.42890367
_cell_formula_units_Z   1
loop_
 _symmetry_equiv_pos_site_id
 _symmetry_equiv_pos_as_xyz
  1  'x, y, z'
loop_
 _atom_site_type_symbol
 _atom_site_label
 _atom_site_symmetry_multiplicity
 _atom_site_fract_x
 _atom_site_fract_y
 _atom_site_fract_z
 _atom_site_occupancy
  Ca  Ca0  1  0.750298  0.746131  0.753272  1
  Ca  Ca1  1  0.249702  0.246728  0.253869  1
  Be  Be2  1  0.728247  0.725271  0.274729  1
  Be  Be3  1  0.271753  0.725271  0.274729  1
  Si  Si4  1  0.728970  0.269745  0.272316  1
  Si  Si5  1  0.268031  0.266581  0.733419  1
  Si  Si6  1  0.731969  0.266581  0.733419  1
  Si  Si7  1  0.271030  0.727684  0.730255  1
  Pd  Pd8  1  0.000000  0.004772  0.995228  1
  Pd  Pd9  1  0.613182  0.620620  0.153017  1
  Pd  Pd10  1  0.616158  0.149843  0.617842  1
  Pd  Pd11  1  0.151605  0.618011  0.611524  1
  Pd  Pd12  1  0.618860  0.618011  0.611524  1
  Pd  Pd13  1  0.383842  0.382158  0.850157  1
  Pd  Pd14  1  0.386818  0.846983  0.379380  1
  Pd  Pd15  1  0.848395  0.388476  0.381989  1
  Pd  Pd16  1  0.381140  0.388476  0.381989  1
  Pd  Pd17  1  0.004130  0.994926  0.335405  1
  Pd  Pd18  1  0.665539  0.994926  0.335405  1
  Pd  Pd19  1  0.000000  0.668165  0.331835  1
  Pd  Pd20  1  0.655374  0.344558  0.000867  1
  Pd  Pd21  1  0.999200  0.344558  0.000867  1
  Pd  Pd22  1  0.000000  0.346384  0.653616  1
  Pd  Pd23  1  0.334461  0.664595  0.005074  1
  Pd  Pd24  1  0.344626  0.999133  0.655442  1
  Pd  Pd25  1  0.338390  0.993843  0.006157  1
  Pd  Pd26  1  0.000800  0.999133  0.655442  1
  Pd  Pd27  1  0.995870  0.664595  0.005074  1
  Pd  Pd28  1  0.661610  0.993843  0.006157  1
