# generated using pymatgen
data_Yb3Sc(Si5Pt3)2
_symmetry_space_group_name_H-M   'P 1'
_cell_length_a   8.20412083
_cell_length_b   8.19540214
_cell_length_c   8.19540279
_cell_angle_alpha   137.92442147
_cell_angle_beta   103.78156897
_cell_angle_gamma   91.10264137
_symmetry_Int_Tables_number   1
_chemical_formula_structural   Yb3Sc(Si5Pt3)2
_chemical_formula_sum   'Yb3 Sc1 Si10 Pt6'
_cell_volume   341.95760817
_cell_formula_units_Z   1
loop_
 _symmetry_equiv_pos_site_id
 _symmetry_equiv_pos_as_xyz
  1  'x, y, z'
loop_
 _atom_site_type_symbol
 _atom_site_label
 _atom_site_symmetry_multiplicity
 _atom_site_fract_x
 _atom_site_fract_y
 _atom_site_fract_z
 _atom_site_occupancy
  Yb  Yb0  1  0.896041  0.128640  0.767402  1
  Yb  Yb1  1  0.637073  0.370926  0.266147  1
  Yb  Yb2  1  0.363515  0.629729  0.733785  1
  Sc  Sc3  1  0.098320  0.870721  0.227599  1
  Si  Si4  1  0.998968  0.746576  0.747731  1
  Si  Si5  1  0.998968  0.251236  0.252392  1
  Si  Si6  1  0.272770  0.020637  0.750124  1
  Si  Si7  1  0.729488  0.477432  0.747248  1
  Si  Si8  1  0.729488  0.982240  0.252056  1
  Si  Si9  1  0.272770  0.522646  0.252133  1
  Si  Si10  1  0.766378  0.615288  0.151090  1
  Si  Si11  1  0.237795  0.387794  0.850001  1
  Si  Si12  1  0.454077  0.107373  0.346704  1
  Si  Si13  1  0.540455  0.887998  0.652457  1
  Pt  Pt14  1  0.500094  0.749737  0.249570  1
  Pt  Pt15  1  0.500094  0.250524  0.750357  1
  Pt  Pt16  1  0.022246  0.638965  0.383281  1
  Pt  Pt17  1  0.982560  0.363325  0.619234  1
  Pt  Pt18  1  0.249646  0.134316  0.115331  1
  Pt  Pt19  1  0.749254  0.863896  0.885358  1
