# generated using pymatgen
data_TaTi7Cr2(B2P)2
_symmetry_space_group_name_H-M   'P 1'
_cell_length_a   5.91370004
_cell_length_b   5.91370022
_cell_length_c   7.05093186
_cell_angle_alpha   114.70577059
_cell_angle_beta   114.95682114
_cell_angle_gamma   89.91926808
_symmetry_Int_Tables_number   1
_chemical_formula_structural   TaTi7Cr2(B2P)2
_chemical_formula_sum   'Ta1 Ti7 Cr2 B4 P2'
_cell_volume   198.46213648
_cell_formula_units_Z   1
loop_
 _symmetry_equiv_pos_site_id
 _symmetry_equiv_pos_as_xyz
  1  'x, y, z'
loop_
 _atom_site_type_symbol
 _atom_site_label
 _atom_site_symmetry_multiplicity
 _atom_site_fract_x
 _atom_site_fract_y
 _atom_site_fract_z
 _atom_site_occupancy
  Ta  Ta0  1  0.460751  0.308907  0.269658  1
  Ti  Ti1  1  0.039776  0.541900  0.732088  1
  Ti  Ti2  1  0.690189  0.192312  0.732088  1
  Ti  Ti3  1  0.191111  0.042078  0.733190  1
  Ti  Ti4  1  0.541705  0.691543  0.733247  1
  Ti  Ti5  1  0.956939  0.457038  0.266825  1
  Ti  Ti6  1  0.309787  0.809886  0.266825  1
  Ti  Ti7  1  0.809946  0.956687  0.266633  1
  Cr  Cr8  1  0.499397  0.499628  0.997330  1
  Cr  Cr9  1  0.997702  0.997933  0.997330  1
  B  B10  1  0.385951  0.883534  0.998012  1
  B  B11  1  0.614478  0.112061  0.998012  1
  B  B12  1  0.112129  0.387124  0.999253  1
  B  B13  1  0.887660  0.612983  0.000643  1
  P  P14  1  0.249405  0.251360  0.504433  1
  P  P15  1  0.753073  0.755028  0.504433  1
