# generated using pymatgen
data_YbCe5(SnIr)6
_symmetry_space_group_name_H-M   'P 1'
_cell_length_a   7.48871600
_cell_length_b   7.49317454
_cell_length_c   8.09339100
_cell_angle_alpha   90.00000000
_cell_angle_beta   90.00000000
_cell_angle_gamma   120.04221948
_symmetry_Int_Tables_number   1
_chemical_formula_structural   YbCe5(SnIr)6
_chemical_formula_sum   'Yb1 Ce5 Sn6 Ir6'
_cell_volume   393.14200081
_cell_formula_units_Z   1
loop_
 _symmetry_equiv_pos_site_id
 _symmetry_equiv_pos_as_xyz
  1  'x, y, z'
loop_
 _atom_site_type_symbol
 _atom_site_label
 _atom_site_symmetry_multiplicity
 _atom_site_fract_x
 _atom_site_fract_y
 _atom_site_fract_z
 _atom_site_occupancy
  Yb  Yb0  1  0.592785  0.593288  0.750000  1
  Ce  Ce1  1  0.410820  0.998242  0.250000  1
  Ce  Ce2  1  0.587246  0.587103  0.250000  1
  Ce  Ce3  1  0.997464  0.410613  0.250000  1
  Ce  Ce4  1  0.001512  0.414891  0.750000  1
  Ce  Ce5  1  0.414602  0.000929  0.750000  1
  Sn  Sn6  1  0.259706  0.259519  0.501696  1
  Sn  Sn7  1  0.259706  0.259519  0.998304  1
  Sn  Sn8  1  0.745303  0.994222  0.997781  1
  Sn  Sn9  1  0.994382  0.745670  0.502027  1
  Sn  Sn10  1  0.745303  0.994222  0.502219  1
  Sn  Sn11  1  0.994382  0.745670  0.997973  1
  Ir  Ir12  1  0.667251  0.324480  0.495990  1
  Ir  Ir13  1  0.667251  0.324480  0.004010  1
  Ir  Ir14  1  0.325043  0.667683  0.004899  1
  Ir  Ir15  1  0.325043  0.667683  0.495101  1
  Ir  Ir16  1  0.011393  0.010915  0.750000  1
  Ir  Ir17  1  0.000805  0.000869  0.250000  1
