# generated using pymatgen
data_Yb2BRu4C3
_symmetry_space_group_name_H-M   'P 1'
_cell_length_a   6.63163565
_cell_length_b   5.80777297
_cell_length_c   5.43353566
_cell_angle_alpha   72.21903934
_cell_angle_beta   57.06746963
_cell_angle_gamma   51.27447640
_symmetry_Int_Tables_number   1
_chemical_formula_structural   Yb2BRu4C3
_chemical_formula_sum   'Yb2 B1 Ru4 C3'
_cell_volume   136.83698102
_cell_formula_units_Z   1
loop_
 _symmetry_equiv_pos_site_id
 _symmetry_equiv_pos_as_xyz
  1  'x, y, z'
loop_
 _atom_site_type_symbol
 _atom_site_label
 _atom_site_symmetry_multiplicity
 _atom_site_fract_x
 _atom_site_fract_y
 _atom_site_fract_z
 _atom_site_occupancy
  Yb  Yb0  1  0.999508  0.000511  0.999475  1
  Yb  Yb1  1  0.250879  0.249130  0.250866  1
  B  B2  1  0.934544  0.565484  0.934466  1
  Ru  Ru3  1  0.627851  0.639135  0.373697  1
  Ru  Ru4  1  0.890000  0.886480  0.605485  1
  Ru  Ru5  1  0.373582  0.359387  0.627894  1
  Ru  Ru6  1  0.605511  0.618014  0.889898  1
  C  C7  1  0.317017  0.682992  0.317027  1
  C  C8  1  0.567034  0.932921  0.567092  1
  C  C9  1  0.684067  0.315953  0.684103  1
