# generated using pymatgen
data_Yb3Y(Si5Pt3)2
_symmetry_space_group_name_H-M   'P 1'
_cell_length_a   8.23693815
_cell_length_b   8.24024750
_cell_length_c   8.24024725
_cell_angle_alpha   138.00384613
_cell_angle_beta   104.18669073
_cell_angle_gamma   90.67789846
_symmetry_Int_Tables_number   1
_chemical_formula_structural   Yb3Y(Si5Pt3)2
_chemical_formula_sum   'Yb3 Y1 Si10 Pt6'
_cell_volume   346.20462663
_cell_formula_units_Z   1
loop_
 _symmetry_equiv_pos_site_id
 _symmetry_equiv_pos_as_xyz
  1  'x, y, z'
loop_
 _atom_site_type_symbol
 _atom_site_label
 _atom_site_symmetry_multiplicity
 _atom_site_fract_x
 _atom_site_fract_y
 _atom_site_fract_z
 _atom_site_occupancy
  Yb  Yb0  1  0.636686  0.370368  0.266318  1
  Yb  Yb1  1  0.362968  0.628947  0.734021  1
  Yb  Yb2  1  0.105713  0.871717  0.233995  1
  Y  Y3  1  0.896620  0.128813  0.767807  1
  Si  Si4  1  0.460949  0.112430  0.348520  1
  Si  Si5  1  0.539197  0.887924  0.651272  1
  Si  Si6  1  0.761732  0.612025  0.149708  1
  Si  Si7  1  0.237050  0.387627  0.849423  1
  Si  Si8  1  0.270816  0.521197  0.251465  1
  Si  Si9  1  0.728113  0.478754  0.748259  1
  Si  Si10  1  0.728113  0.979854  0.249358  1
  Si  Si11  1  0.270816  0.019351  0.749620  1
  Si  Si12  1  0.001235  0.251477  0.251804  1
  Si  Si13  1  0.001235  0.749431  0.749758  1
  Pt  Pt14  1  0.500217  0.249192  0.749642  1
  Pt  Pt15  1  0.500217  0.750575  0.251025  1
  Pt  Pt16  1  0.251009  0.136035  0.114973  1
  Pt  Pt17  1  0.749153  0.864545  0.884609  1
  Pt  Pt18  1  0.019111  0.636364  0.382746  1
  Pt  Pt19  1  0.979052  0.363376  0.615677  1
