# generated using pymatgen
data_BaCa2CoF9
_symmetry_space_group_name_H-M   'P 1'
_cell_length_a   5.49035256
_cell_length_b   5.49613765
_cell_length_c   12.53758407
_cell_angle_alpha   92.09096052
_cell_angle_beta   100.91696722
_cell_angle_gamma   90.85740143
_symmetry_Int_Tables_number   1
_chemical_formula_structural   BaCa2CoF9
_chemical_formula_sum   'Ba2 Ca4 Co2 F18'
_cell_volume   371.14441954
_cell_formula_units_Z   2
loop_
 _symmetry_equiv_pos_site_id
 _symmetry_equiv_pos_as_xyz
  1  'x, y, z'
loop_
 _atom_site_type_symbol
 _atom_site_label
 _atom_site_symmetry_multiplicity
 _atom_site_fract_x
 _atom_site_fract_y
 _atom_site_fract_z
 _atom_site_occupancy
  Ba  Ba0  1  0.694723  0.748992  0.894316  1
  Ba  Ba1  1  0.305277  0.251008  0.105684  1
  Ca  Ca2  1  0.965445  0.242059  0.387825  1
  Ca  Ca3  1  0.034555  0.757941  0.612175  1
  Ca  Ca4  1  0.552534  0.269912  0.610486  1
  Ca  Ca5  1  0.447466  0.730088  0.389514  1
  Co  Co6  1  0.794462  0.795307  0.183709  1
  Co  Co7  1  0.205538  0.204693  0.816291  1
  F  F8  1  0.168459  0.948354  0.905693  1
  F  F9  1  0.831541  0.051646  0.094307  1
  F  F10  1  0.266463  0.456546  0.727275  1
  F  F11  1  0.733537  0.543454  0.272725  1
  F  F12  1  0.627085  0.003521  0.269825  1
  F  F13  1  0.372915  0.996479  0.730175  1
  F  F14  1  0.952662  0.597505  0.097399  1
  F  F15  1  0.047338  0.402495  0.902601  1
  F  F16  1  0.090427  0.897204  0.278709  1
  F  F17  1  0.909573  0.102796  0.721291  1
  F  F18  1  0.493322  0.718682  0.090150  1
  F  F19  1  0.506678  0.281318  0.909850  1
  F  F20  1  0.748723  0.990894  0.498812  1
  F  F21  1  0.251277  0.009106  0.501188  1
  F  F22  1  0.748533  0.485624  0.489989  1
  F  F23  1  0.251467  0.514376  0.510011  1
  F  F24  1  0.742670  0.609617  0.698833  1
  F  F25  1  0.257330  0.390383  0.301167  1
