# generated using pymatgen
data_Sm4ReBr4
_symmetry_space_group_name_H-M   'P 1'
_cell_length_a   12.99896000
_cell_length_b   12.99896000
_cell_length_c   6.68893000
_cell_angle_alpha   90.00000000
_cell_angle_beta   90.00000000
_cell_angle_gamma   90.00000000
_symmetry_Int_Tables_number   1
_chemical_formula_structural   Sm4ReBr4
_chemical_formula_sum   'Sm16 Re4 Br16'
_cell_volume   1130.24830857
_cell_formula_units_Z   4
loop_
 _symmetry_equiv_pos_site_id
 _symmetry_equiv_pos_as_xyz
  1  'x, y, z'
loop_
 _atom_site_type_symbol
 _atom_site_label
 _atom_site_symmetry_multiplicity
 _atom_site_fract_x
 _atom_site_fract_y
 _atom_site_fract_z
 _atom_site_occupancy
  Sm  Sm0  1  0.174154  0.075491  0.008950  1
  Sm  Sm1  1  0.575491  0.325846  0.008950  1
  Sm  Sm2  1  0.424509  0.674154  0.008950  1
  Sm  Sm3  1  0.825846  0.924510  0.008950  1
  Sm  Sm4  1  0.075491  0.174154  0.491051  1
  Sm  Sm5  1  0.674154  0.424509  0.491051  1
  Sm  Sm6  1  0.325846  0.575491  0.491051  1
  Sm  Sm7  1  0.924510  0.825846  0.491051  1
  Sm  Sm8  1  0.825846  0.075491  0.508949  1
  Sm  Sm9  1  0.424509  0.325846  0.508949  1
  Sm  Sm10  1  0.575491  0.674154  0.508949  1
  Sm  Sm11  1  0.174154  0.924510  0.508949  1
  Sm  Sm12  1  0.924510  0.174154  0.991050  1
  Sm  Sm13  1  0.325846  0.424509  0.991050  1
  Sm  Sm14  1  0.674154  0.575491  0.991050  1
  Sm  Sm15  1  0.075491  0.825846  0.991050  1
  Re  Re16  1  0.000000  0.000000  0.250000  1
  Re  Re17  1  0.500000  0.500000  0.250000  1
  Re  Re18  1  0.000000  0.000000  0.749999  1
  Re  Re19  1  0.500000  0.500000  0.749999  1
  Br  Br20  1  0.112701  0.300806  0.084767  1
  Br  Br21  1  0.800806  0.387299  0.084767  1
  Br  Br22  1  0.199195  0.612701  0.084767  1
  Br  Br23  1  0.887299  0.699195  0.084767  1
  Br  Br24  1  0.300806  0.112701  0.415232  1
  Br  Br25  1  0.612701  0.199195  0.415232  1
  Br  Br26  1  0.387299  0.800806  0.415232  1
  Br  Br27  1  0.699195  0.887299  0.415232  1
  Br  Br28  1  0.887299  0.300806  0.584768  1
  Br  Br29  1  0.199195  0.387299  0.584768  1
  Br  Br30  1  0.800806  0.612701  0.584768  1
  Br  Br31  1  0.112701  0.699195  0.584768  1
  Br  Br32  1  0.699195  0.112701  0.915233  1
  Br  Br33  1  0.387299  0.199195  0.915233  1
  Br  Br34  1  0.612701  0.800806  0.915233  1
  Br  Br35  1  0.300806  0.887299  0.915233  1
