# generated using pymatgen
data_Dy4Ho4Sc11Si16Ag
_symmetry_space_group_name_H-M   'P 1'
_cell_length_a   7.02642309
_cell_length_b   7.38720574
_cell_length_c   14.00986518
_cell_angle_alpha   90.00379680
_cell_angle_beta   90.01795878
_cell_angle_gamma   89.90423502
_symmetry_Int_Tables_number   1
_chemical_formula_structural   Dy4Ho4Sc11Si16Ag
_chemical_formula_sum   'Dy4 Ho4 Sc11 Si16 Ag1'
_cell_volume   727.18986672
_cell_formula_units_Z   1
loop_
 _symmetry_equiv_pos_site_id
 _symmetry_equiv_pos_as_xyz
  1  'x, y, z'
loop_
 _atom_site_type_symbol
 _atom_site_label
 _atom_site_symmetry_multiplicity
 _atom_site_fract_x
 _atom_site_fract_y
 _atom_site_fract_z
 _atom_site_occupancy
  Dy  Dy0  1  0.010988  0.175065  0.096430  1
  Dy  Dy1  1  0.989941  0.815093  0.901258  1
  Dy  Dy2  1  0.484432  0.673484  0.901606  1
  Dy  Dy3  1  0.989931  0.814975  0.598479  1
  Ho  Ho4  1  0.510522  0.323591  0.096695  1
  Ho  Ho5  1  0.011337  0.175410  0.403449  1
  Ho  Ho6  1  0.510533  0.323439  0.403629  1
  Ho  Ho7  1  0.484300  0.673627  0.598417  1
  Sc  Sc8  1  0.838472  0.496978  0.250099  1
  Sc  Sc9  1  0.340381  0.003561  0.250146  1
  Sc  Sc10  1  0.656923  0.997951  0.749896  1
  Sc  Sc11  1  0.325430  0.182676  0.626693  1
  Sc  Sc12  1  0.671318  0.823614  0.375220  1
  Sc  Sc13  1  0.170737  0.678794  0.373897  1
  Sc  Sc14  1  0.671325  0.823679  0.125062  1
  Sc  Sc15  1  0.836474  0.327206  0.626387  1
  Sc  Sc16  1  0.325392  0.182611  0.873148  1
  Sc  Sc17  1  0.836633  0.327535  0.873281  1
  Sc  Sc18  1  0.170751  0.678778  0.126275  1
  Si  Si19  1  0.027314  0.099058  0.749816  1
  Si  Si20  1  0.969066  0.887984  0.250207  1
  Si  Si21  1  0.467881  0.616718  0.250157  1
  Si  Si22  1  0.537362  0.384349  0.749793  1
  Si  Si23  1  0.287967  0.882770  0.749787  1
  Si  Si24  1  0.713514  0.128160  0.250329  1
  Si  Si25  1  0.213226  0.372097  0.250235  1
  Si  Si26  1  0.776109  0.628953  0.749688  1
  Si  Si27  1  0.162176  0.459797  0.531145  1
  Si  Si28  1  0.842910  0.534488  0.461470  1
  Si  Si29  1  0.344372  0.965449  0.462781  1
  Si  Si30  1  0.842634  0.534946  0.038402  1
  Si  Si31  1  0.657104  0.034062  0.540288  1
  Si  Si32  1  0.161694  0.459923  0.968898  1
  Si  Si33  1  0.657385  0.034592  0.959819  1
  Si  Si34  1  0.344888  0.965664  0.037332  1
  Ag  Ag35  1  0.158574  0.512924  0.749786  1
