# generated using pymatgen
data_YErIr2F14
_symmetry_space_group_name_H-M   'P 1'
_cell_length_a   5.57320900
_cell_length_b   8.92040150
_cell_length_c   11.93105103
_cell_angle_alpha   62.58183651
_cell_angle_beta   90.00000000
_cell_angle_gamma   90.00000000
_symmetry_Int_Tables_number   1
_chemical_formula_structural   YErIr2F14
_chemical_formula_sum   'Y2 Er2 Ir4 F28'
_cell_volume   526.52586328
_cell_formula_units_Z   2
loop_
 _symmetry_equiv_pos_site_id
 _symmetry_equiv_pos_as_xyz
  1  'x, y, z'
loop_
 _atom_site_type_symbol
 _atom_site_label
 _atom_site_symmetry_multiplicity
 _atom_site_fract_x
 _atom_site_fract_y
 _atom_site_fract_z
 _atom_site_occupancy
  Y  Y0  1  0.239805  0.187196  0.233557  1
  Y  Y1  1  0.739805  0.812804  0.266443  1
  Er  Er2  1  0.759855  0.815047  0.766043  1
  Er  Er3  1  0.259855  0.184953  0.733957  1
  Ir  Ir4  1  0.757025  0.274948  0.953370  1
  Ir  Ir5  1  0.257025  0.725052  0.546630  1
  Ir  Ir6  1  0.243624  0.727359  0.042881  1
  Ir  Ir7  1  0.743624  0.272641  0.457119  1
  F  F8  1  0.449075  0.706031  0.916878  1
  F  F9  1  0.949075  0.293969  0.583122  1
  F  F10  1  0.553026  0.295566  0.080095  1
  F  F11  1  0.053026  0.704434  0.419905  1
  F  F12  1  0.449012  0.281738  0.547419  1
  F  F13  1  0.949012  0.718262  0.952581  1
  F  F14  1  0.549533  0.715441  0.456393  1
  F  F15  1  0.049533  0.284559  0.043607  1
  F  F16  1  0.765276  0.519982  0.856819  1
  F  F17  1  0.265276  0.480018  0.643181  1
  F  F18  1  0.233854  0.482379  0.140766  1
  F  F19  1  0.733854  0.517621  0.359234  1
  F  F20  1  0.758318  0.030191  0.048155  1
  F  F21  1  0.258318  0.969809  0.451845  1
  F  F22  1  0.242919  0.972921  0.948501  1
  F  F23  1  0.742919  0.027079  0.551499  1
  F  F24  1  0.971620  0.730872  0.642203  1
  F  F25  1  0.471620  0.269128  0.857797  1
  F  F26  1  0.030179  0.269865  0.361220  1
  F  F27  1  0.530179  0.730135  0.138780  1
  F  F28  1  0.044303  0.746377  0.172330  1
  F  F29  1  0.544303  0.253623  0.327670  1
  F  F30  1  0.958773  0.254281  0.825311  1
  F  F31  1  0.458773  0.745719  0.674689  1
  F  F32  1  0.417392  0.970842  0.232067  1
  F  F33  1  0.917392  0.029158  0.267933  1
  F  F34  1  0.576412  0.026329  0.767122  1
  F  F35  1  0.076412  0.973671  0.732878  1
