# generated using pymatgen
data_LaNd4HoTa2O14
_symmetry_space_group_name_H-M   'P 1'
_cell_length_a   6.66976388
_cell_length_b   6.64650868
_cell_length_c   7.70725112
_cell_angle_alpha   90.00796699
_cell_angle_beta   90.01510617
_cell_angle_gamma   108.76439860
_symmetry_Int_Tables_number   1
_chemical_formula_structural   LaNd4HoTa2O14
_chemical_formula_sum   'La1 Nd4 Ho1 Ta2 O14'
_cell_volume   323.50752732
_cell_formula_units_Z   1
loop_
 _symmetry_equiv_pos_site_id
 _symmetry_equiv_pos_as_xyz
  1  'x, y, z'
loop_
 _atom_site_type_symbol
 _atom_site_label
 _atom_site_symmetry_multiplicity
 _atom_site_fract_x
 _atom_site_fract_y
 _atom_site_fract_z
 _atom_site_occupancy
  La  La0  1  0.522281  0.517355  0.498482  1
  Nd  Nd1  1  0.534228  0.527786  0.001103  1
  Nd  Nd2  1  0.005933  0.463049  0.750766  1
  Nd  Nd3  1  0.533074  0.003121  0.750578  1
  Nd  Nd4  1  0.462825  0.002974  0.248961  1
  Ho  Ho5  1  0.003089  0.530475  0.249609  1
  Ta  Ta6  1  0.000090  0.000331  0.497664  1
  Ta  Ta7  1  0.001537  0.001852  0.002358  1
  O  O8  1  0.945541  0.057200  0.750043  1
  O  O9  1  0.059173  0.936207  0.249881  1
  O  O10  1  0.352340  0.634706  0.246812  1
  O  O11  1  0.642323  0.368636  0.752443  1
  O  O12  1  0.371536  0.631798  0.753331  1
  O  O13  1  0.645270  0.377028  0.247549  1
  O  O14  1  0.309007  0.070688  0.969429  1
  O  O15  1  0.680422  0.922347  0.472200  1
  O  O16  1  0.310095  0.071094  0.530284  1
  O  O17  1  0.679026  0.918264  0.027170  1
  O  O18  1  0.039639  0.302426  0.458091  1
  O  O19  1  0.931185  0.680437  0.976993  1
  O  O20  1  0.935457  0.682015  0.523673  1
  O  O21  1  0.035926  0.300211  0.042578  1
