# generated using pymatgen
data_TaNb2(SiW)3
_symmetry_space_group_name_H-M   'P 1'
_cell_length_a   6.97507089
_cell_length_b   6.95522111
_cell_length_c   3.34553100
_cell_angle_alpha   90.00000000
_cell_angle_beta   90.00000000
_cell_angle_gamma   119.90590653
_symmetry_Int_Tables_number   1
_chemical_formula_structural   TaNb2(SiW)3
_chemical_formula_sum   'Ta1 Nb2 Si3 W3'
_cell_volume   140.69097919
_cell_formula_units_Z   1
loop_
 _symmetry_equiv_pos_site_id
 _symmetry_equiv_pos_as_xyz
  1  'x, y, z'
loop_
 _atom_site_type_symbol
 _atom_site_label
 _atom_site_symmetry_multiplicity
 _atom_site_fract_x
 _atom_site_fract_y
 _atom_site_fract_z
 _atom_site_occupancy
  Ta  Ta0  1  0.000000  0.600722  0.500000  1
  Nb  Nb1  1  0.403952  0.401650  0.500000  1
  Nb  Nb2  1  0.596048  0.997698  0.500000  1
  Si  Si3  1  0.667493  0.332673  0.000000  1
  Si  Si4  1  0.332507  0.665180  0.000000  1
  Si  Si5  1  0.000000  0.002047  0.500000  1
  W  W6  1  0.742570  0.741160  0.000000  1
  W  W7  1  0.257430  0.998590  0.000000  1
  W  W8  1  0.000000  0.260279  0.000000  1
