# generated using pymatgen
data_YbDyB4Ir5
_symmetry_space_group_name_H-M   'P 1'
_cell_length_a   7.50425075
_cell_length_b   6.32723686
_cell_length_c   5.60675441
_cell_angle_alpha   77.66592124
_cell_angle_beta   55.45617272
_cell_angle_gamma   46.87790359
_symmetry_Int_Tables_number   1
_chemical_formula_structural   YbDyB4Ir5
_chemical_formula_sum   'Yb1 Dy1 B4 Ir5'
_cell_volume   153.20309920
_cell_formula_units_Z   1
loop_
 _symmetry_equiv_pos_site_id
 _symmetry_equiv_pos_as_xyz
  1  'x, y, z'
loop_
 _atom_site_type_symbol
 _atom_site_label
 _atom_site_symmetry_multiplicity
 _atom_site_fract_x
 _atom_site_fract_y
 _atom_site_fract_z
 _atom_site_occupancy
  Yb  Yb0  1  0.358122  0.358123  0.641878  1
  Dy  Dy1  1  0.635891  0.635892  0.364109  1
  B  B2  1  0.290322  0.976021  0.023979  1
  B  B3  1  0.024808  0.712139  0.287861  1
  B  B4  1  0.976021  0.290322  0.709678  1
  B  B5  1  0.712139  0.024808  0.975192  1
  Ir  Ir6  1  0.002162  0.002162  0.997838  1
  Ir  Ir7  1  0.499648  0.499648  0.000352  1
  Ir  Ir8  1  0.250618  0.250618  0.249383  1
  Ir  Ir9  1  0.999648  0.999648  0.500352  1
  Ir  Ir10  1  0.750617  0.750618  0.749383  1
