# generated using pymatgen
data_Na2Co2Ni10P7
_symmetry_space_group_name_H-M   'P 1'
_cell_length_a   3.55623900
_cell_length_b   9.05277587
_cell_length_c   9.07270376
_cell_angle_alpha   119.91627045
_cell_angle_beta   90.00000000
_cell_angle_gamma   90.00000000
_symmetry_Int_Tables_number   1
_chemical_formula_structural   Na2Co2Ni10P7
_chemical_formula_sum   'Na2 Co2 Ni10 P7'
_cell_volume   253.16628775
_cell_formula_units_Z   1
loop_
 _symmetry_equiv_pos_site_id
 _symmetry_equiv_pos_as_xyz
  1  'x, y, z'
loop_
 _atom_site_type_symbol
 _atom_site_label
 _atom_site_symmetry_multiplicity
 _atom_site_fract_x
 _atom_site_fract_y
 _atom_site_fract_z
 _atom_site_occupancy
  Na  Na0  1  0.000000  0.666064  0.332588  1
  Na  Na1  1  0.500000  0.335174  0.667109  1
  Co  Co2  1  0.000000  0.272534  0.156138  1
  Co  Co3  1  0.000000  0.843292  0.117239  1
  Ni  Ni4  1  0.000000  0.376475  0.941066  1
  Ni  Ni5  1  0.000000  0.058970  0.434297  1
  Ni  Ni6  1  0.000000  0.566310  0.622933  1
  Ni  Ni7  1  0.000000  0.883593  0.727627  1
  Ni  Ni8  1  0.500000  0.950546  0.567843  1
  Ni  Ni9  1  0.500000  0.432419  0.382458  1
  Ni  Ni10  1  0.500000  0.616630  0.050531  1
  Ni  Ni11  1  0.500000  0.123644  0.907704  1
  Ni  Ni12  1  0.500000  0.092890  0.219226  1
  Ni  Ni13  1  0.500000  0.782601  0.874512  1
  P  P14  1  0.000000  0.120249  0.707128  1
  P  P15  1  0.000000  0.291518  0.408985  1
  P  P16  1  0.000000  0.591536  0.882654  1
  P  P17  1  0.500000  0.707776  0.593332  1
  P  P18  1  0.500000  0.402090  0.113890  1
  P  P19  1  0.500000  0.884590  0.288695  1
  P  P20  1  0.000000  0.001101  0.004044  1
