# generated using pymatgen
data_Tm2AgPtPb
_symmetry_space_group_name_H-M   'P 1'
_cell_length_a   8.06271300
_cell_length_b   8.03788400
_cell_length_c   3.59473600
_cell_angle_alpha   90.00000000
_cell_angle_beta   90.00000000
_cell_angle_gamma   90.00000000
_symmetry_Int_Tables_number   1
_chemical_formula_structural   Tm2AgPtPb
_chemical_formula_sum   'Tm4 Ag2 Pt2 Pb2'
_cell_volume   232.96460170
_cell_formula_units_Z   2
loop_
 _symmetry_equiv_pos_site_id
 _symmetry_equiv_pos_as_xyz
  1  'x, y, z'
loop_
 _atom_site_type_symbol
 _atom_site_label
 _atom_site_symmetry_multiplicity
 _atom_site_fract_x
 _atom_site_fract_y
 _atom_site_fract_z
 _atom_site_occupancy
  Tm  Tm0  1  0.363194  0.826931  0.500000  1
  Tm  Tm1  1  0.692293  0.163249  0.500000  1
  Tm  Tm2  1  0.136806  0.326931  0.500000  1
  Tm  Tm3  1  0.807707  0.663249  0.500000  1
  Ag  Ag4  1  0.374944  0.134355  0.000000  1
  Ag  Ag5  1  0.125056  0.634355  0.000000  1
  Pt  Pt6  1  0.872737  0.384245  0.000000  1
  Pt  Pt7  1  0.627263  0.884245  0.000000  1
  Pb  Pb8  1  0.492323  0.491220  0.000000  1
  Pb  Pb9  1  0.007677  0.991220  0.000000  1
