# generated using pymatgen
data_Er2Si14Ir5Rh
_symmetry_space_group_name_H-M   'P 1'
_cell_length_a   8.00339175
_cell_length_b   8.00339268
_cell_length_c   8.07904100
_cell_angle_alpha   56.82640251
_cell_angle_beta   56.82639817
_cell_angle_gamma   57.01551108
_symmetry_Int_Tables_number   1
_chemical_formula_structural   Er2Si14Ir5Rh
_chemical_formula_sum   'Er2 Si14 Ir5 Rh1'
_cell_volume   339.66368331
_cell_formula_units_Z   1
loop_
 _symmetry_equiv_pos_site_id
 _symmetry_equiv_pos_as_xyz
  1  'x, y, z'
loop_
 _atom_site_type_symbol
 _atom_site_label
 _atom_site_symmetry_multiplicity
 _atom_site_fract_x
 _atom_site_fract_y
 _atom_site_fract_z
 _atom_site_occupancy
  Er  Er0  1  0.000495  0.999683  0.999244  1
  Er  Er1  1  0.500317  0.499505  0.500756  1
  Si  Si2  1  0.751234  0.748766  0.750000  1
  Si  Si3  1  0.250155  0.249845  0.250000  1
  Si  Si4  1  0.850084  0.065666  0.672271  1
  Si  Si5  1  0.672618  0.850568  0.064294  1
  Si  Si6  1  0.062021  0.673400  0.850678  1
  Si  Si7  1  0.649432  0.827382  0.435706  1
  Si  Si8  1  0.434334  0.649916  0.827729  1
  Si  Si9  1  0.826600  0.437979  0.649322  1
  Si  Si10  1  0.174168  0.562179  0.350537  1
  Si  Si11  1  0.566811  0.350172  0.171257  1
  Si  Si12  1  0.349817  0.175103  0.563943  1
  Si  Si13  1  0.937821  0.325832  0.149463  1
  Si  Si14  1  0.324897  0.150183  0.936057  1
  Si  Si15  1  0.149828  0.933189  0.328743  1
  Ir  Ir16  1  0.249841  0.929524  0.570741  1
  Ir  Ir17  1  0.570476  0.250159  0.929259  1
  Ir  Ir18  1  0.927962  0.572038  0.250000  1
  Ir  Ir19  1  0.429264  0.749652  0.070786  1
  Ir  Ir20  1  0.750348  0.070736  0.429214  1
  Rh  Rh21  1  0.071479  0.428521  0.750000  1
