# generated using pymatgen
data_TbTlBi2(Ir2O7)2
_symmetry_space_group_name_H-M   'P 1'
_cell_length_a   7.30084306
_cell_length_b   7.30084446
_cell_length_c   7.28746582
_cell_angle_alpha   60.69506235
_cell_angle_beta   60.69505841
_cell_angle_gamma   60.68155482
_symmetry_Int_Tables_number   1
_chemical_formula_structural   TbTlBi2(Ir2O7)2
_chemical_formula_sum   'Tb1 Tl1 Bi2 Ir4 O14'
_cell_volume   278.94896880
_cell_formula_units_Z   1
loop_
 _symmetry_equiv_pos_site_id
 _symmetry_equiv_pos_as_xyz
  1  'x, y, z'
loop_
 _atom_site_type_symbol
 _atom_site_label
 _atom_site_symmetry_multiplicity
 _atom_site_fract_x
 _atom_site_fract_y
 _atom_site_fract_z
 _atom_site_occupancy
  Tb  Tb0  1  0.125000  0.125000  0.625000  1
  Tl  Tl1  1  0.125000  0.125000  0.125000  1
  Bi  Bi2  1  0.625000  0.125000  0.125000  1
  Bi  Bi3  1  0.125000  0.625000  0.125000  1
  Ir  Ir4  1  0.125000  0.625000  0.625000  1
  Ir  Ir5  1  0.625000  0.125000  0.625000  1
  Ir  Ir6  1  0.625000  0.625000  0.125000  1
  Ir  Ir7  1  0.625000  0.625000  0.625000  1
  O  O8  1  0.705091  0.705091  0.296049  1
  O  O9  1  0.295730  0.295730  0.702021  1
  O  O10  1  0.713372  0.291788  0.704496  1
  O  O11  1  0.295292  0.705582  0.295107  1
  O  O12  1  0.291788  0.713372  0.704496  1
  O  O13  1  0.705582  0.295292  0.295107  1
  O  O14  1  0.544909  0.544909  0.953951  1
  O  O15  1  0.954270  0.954270  0.547979  1
  O  O16  1  0.536628  0.958212  0.545504  1
  O  O17  1  0.954708  0.544418  0.954893  1
  O  O18  1  0.958212  0.536628  0.545504  1
  O  O19  1  0.544418  0.954708  0.954893  1
  O  O20  1  0.250016  0.250016  0.259017  1
  O  O21  1  0.999984  0.999984  0.990983  1
