# generated using pymatgen
data_TbGaCo3B
_symmetry_space_group_name_H-M   'P 1'
_cell_length_a   5.16698800
_cell_length_b   5.16771399
_cell_length_c   6.66721300
_cell_angle_alpha   90.00000000
_cell_angle_beta   90.00000000
_cell_angle_gamma   119.99537846
_symmetry_Int_Tables_number   1
_chemical_formula_structural   TbGaCo3B
_chemical_formula_sum   'Tb2 Ga2 Co6 B2'
_cell_volume   154.18108846
_cell_formula_units_Z   2
loop_
 _symmetry_equiv_pos_site_id
 _symmetry_equiv_pos_as_xyz
  1  'x, y, z'
loop_
 _atom_site_type_symbol
 _atom_site_label
 _atom_site_symmetry_multiplicity
 _atom_site_fract_x
 _atom_site_fract_y
 _atom_site_fract_z
 _atom_site_occupancy
  Tb  Tb0  1  0.999975  0.000000  0.000000  1
  Tb  Tb1  1  0.999992  0.000000  0.500000  1
  Ga  Ga2  1  0.333301  0.666650  0.000000  1
  Ga  Ga3  1  0.666651  0.333350  0.000000  1
  Co  Co4  1  0.499988  0.000000  0.294933  1
  Co  Co5  1  0.499986  0.500002  0.294979  1
  Co  Co6  1  0.999983  0.499998  0.294979  1
  Co  Co7  1  0.499988  0.000000  0.705067  1
  Co  Co8  1  0.499986  0.500002  0.705021  1
  Co  Co9  1  0.999983  0.499998  0.705021  1
  B  B10  1  0.333333  0.666702  0.500000  1
  B  B11  1  0.666631  0.333298  0.500000  1
