# generated using pymatgen
data_Li3Sc(B4Ru5)2
_symmetry_space_group_name_H-M   'P 1'
_cell_length_a   2.97122200
_cell_length_b   8.19293182
_cell_length_c   9.93256301
_cell_angle_alpha   89.42533845
_cell_angle_beta   90.00000000
_cell_angle_gamma   90.00000000
_symmetry_Int_Tables_number   1
_chemical_formula_structural   Li3Sc(B4Ru5)2
_chemical_formula_sum   'Li3 Sc1 B8 Ru10'
_cell_volume   241.77641122
_cell_formula_units_Z   1
loop_
 _symmetry_equiv_pos_site_id
 _symmetry_equiv_pos_as_xyz
  1  'x, y, z'
loop_
 _atom_site_type_symbol
 _atom_site_label
 _atom_site_symmetry_multiplicity
 _atom_site_fract_x
 _atom_site_fract_y
 _atom_site_fract_z
 _atom_site_occupancy
  Li  Li0  1  0.500000  0.855741  0.145128  1
  Li  Li1  1  0.500000  0.118852  0.766520  1
  Li  Li2  1  0.500000  0.620137  0.721818  1
  Sc  Sc3  1  0.500000  0.351759  0.328536  1
  B  B4  1  0.500000  0.951375  0.586698  1
  B  B5  1  0.500000  0.039042  0.405341  1
  B  B6  1  0.500000  0.862126  0.894971  1
  B  B7  1  0.500000  0.147466  0.097242  1
  B  B8  1  0.500000  0.652526  0.406729  1
  B  B9  1  0.500000  0.355543  0.616453  1
  B  B10  1  0.500000  0.462904  0.918190  1
  B  B11  1  0.500000  0.551735  0.098808  1
  Ru  Ru12  1  0.000000  0.665136  0.956128  1
  Ru  Ru13  1  0.000000  0.353470  0.059178  1
  Ru  Ru14  1  0.000000  0.848317  0.451739  1
  Ru  Ru15  1  0.000000  0.160539  0.544642  1
  Ru  Ru16  1  0.000000  0.038927  0.967865  1
  Ru  Ru17  1  0.000000  0.363117  0.781035  1
  Ru  Ru18  1  0.000000  0.619487  0.246492  1
  Ru  Ru19  1  0.000000  0.517300  0.524136  1
  Ru  Ru20  1  0.000000  0.872330  0.731245  1
  Ru  Ru21  1  0.000000  0.092172  0.251106  1
