# generated using pymatgen
data_Nb4AlFe(B2Ru5)2
_symmetry_space_group_name_H-M   'P 1'
_cell_length_a   9.32061500
_cell_length_b   9.32061500
_cell_length_c   2.98247800
_cell_angle_alpha   90.00000000
_cell_angle_beta   90.00000000
_cell_angle_gamma   90.00000000
_symmetry_Int_Tables_number   1
_chemical_formula_structural   Nb4AlFe(B2Ru5)2
_chemical_formula_sum   'Nb4 Al1 Fe1 B4 Ru10'
_cell_volume   259.09938809
_cell_formula_units_Z   1
loop_
 _symmetry_equiv_pos_site_id
 _symmetry_equiv_pos_as_xyz
  1  'x, y, z'
loop_
 _atom_site_type_symbol
 _atom_site_label
 _atom_site_symmetry_multiplicity
 _atom_site_fract_x
 _atom_site_fract_y
 _atom_site_fract_z
 _atom_site_occupancy
  Nb  Nb0  1  0.820717  0.675379  0.000000  1
  Nb  Nb1  1  0.179283  0.324621  0.000000  1
  Nb  Nb2  1  0.324621  0.820717  0.000000  1
  Nb  Nb3  1  0.675379  0.179283  0.000000  1
  Al  Al4  1  0.500000  0.500000  0.000000  1
  Fe  Fe5  1  0.000000  0.000000  0.000000  1
  B  B6  1  0.622776  0.873736  0.000000  1
  B  B7  1  0.377224  0.126264  0.000000  1
  B  B8  1  0.126264  0.622776  0.000000  1
  B  B9  1  0.873736  0.377224  0.000000  1
  Ru  Ru10  1  0.570643  0.715533  0.500000  1
  Ru  Ru11  1  0.429357  0.284467  0.500000  1
  Ru  Ru12  1  0.067426  0.786497  0.500000  1
  Ru  Ru13  1  0.932574  0.213503  0.500000  1
  Ru  Ru14  1  0.284467  0.570643  0.500000  1
  Ru  Ru15  1  0.715533  0.429357  0.500000  1
  Ru  Ru16  1  0.213503  0.067426  0.500000  1
  Ru  Ru17  1  0.786497  0.932574  0.500000  1
  Ru  Ru18  1  0.500000  0.000000  0.500000  1
  Ru  Ru19  1  0.000000  0.500000  0.500000  1
