# generated using pymatgen
data_Y2Al20Os3Rh
_symmetry_space_group_name_H-M   'P 1'
_cell_length_a   6.87314364
_cell_length_b   6.86435108
_cell_length_c   9.16839162
_cell_angle_alpha   90.14571408
_cell_angle_beta   90.25686411
_cell_angle_gamma   96.59896958
_symmetry_Int_Tables_number   1
_chemical_formula_structural   Y2Al20Os3Rh
_chemical_formula_sum   'Y2 Al20 Os3 Rh1'
_cell_volume   429.68955151
_cell_formula_units_Z   1
loop_
 _symmetry_equiv_pos_site_id
 _symmetry_equiv_pos_as_xyz
  1  'x, y, z'
loop_
 _atom_site_type_symbol
 _atom_site_label
 _atom_site_symmetry_multiplicity
 _atom_site_fract_x
 _atom_site_fract_y
 _atom_site_fract_z
 _atom_site_occupancy
  Y  Y0  1  0.871133  0.131575  0.749360  1
  Y  Y1  1  0.128867  0.868425  0.250640  1
  Al  Al2  1  0.517371  0.780694  0.747929  1
  Al  Al3  1  0.782746  0.517252  0.249430  1
  Al  Al4  1  0.482629  0.219306  0.252071  1
  Al  Al5  1  0.217254  0.482748  0.750570  1
  Al  Al6  1  0.624333  0.378528  0.952368  1
  Al  Al7  1  0.375667  0.621472  0.047632  1
  Al  Al8  1  0.623817  0.376736  0.545824  1
  Al  Al9  1  0.376183  0.623264  0.454176  1
  Al  Al10  1  0.416581  0.148199  0.749801  1
  Al  Al11  1  0.146973  0.415218  0.250355  1
  Al  Al12  1  0.583419  0.851801  0.250199  1
  Al  Al13  1  0.853027  0.584782  0.749645  1
  Al  Al14  1  0.844458  0.154816  0.398719  1
  Al  Al15  1  0.155542  0.845184  0.601281  1
  Al  Al16  1  0.845338  0.156281  0.102950  1
  Al  Al17  1  0.154662  0.843719  0.897050  1
  Al  Al18  1  0.775269  0.774890  0.000443  1
  Al  Al19  1  0.776857  0.776572  0.499320  1
  Al  Al20  1  0.224731  0.225110  0.999557  1
  Al  Al21  1  0.223143  0.223428  0.500680  1
  Os  Os22  1  0.000000  0.500000  0.000000  1
  Os  Os23  1  0.500000  0.000000  0.500000  1
  Os  Os24  1  0.000000  0.500000  0.500000  1
  Rh  Rh25  1  0.500000  0.000000  0.000000  1
