# generated using pymatgen
data_EuTh(CuGe)2
_symmetry_space_group_name_H-M   'P 1'
_cell_length_a   4.29188400
_cell_length_b   4.29188487
_cell_length_c   8.02734500
_cell_angle_alpha   90.00000000
_cell_angle_beta   90.00000000
_cell_angle_gamma   120.00000872
_symmetry_Int_Tables_number   1
_chemical_formula_structural   EuTh(CuGe)2
_chemical_formula_sum   'Eu1 Th1 Cu2 Ge2'
_cell_volume   128.05559573
_cell_formula_units_Z   1
loop_
 _symmetry_equiv_pos_site_id
 _symmetry_equiv_pos_as_xyz
  1  'x, y, z'
loop_
 _atom_site_type_symbol
 _atom_site_label
 _atom_site_symmetry_multiplicity
 _atom_site_fract_x
 _atom_site_fract_y
 _atom_site_fract_z
 _atom_site_occupancy
  Eu  Eu0  1  0.000000  0.000000  0.500000  1
  Th  Th1  1  0.000000  0.000000  0.000000  1
  Cu  Cu2  1  0.333333  0.666667  0.241681  1
  Cu  Cu3  1  0.666667  0.333333  0.758319  1
  Ge  Ge4  1  0.666667  0.333333  0.238320  1
  Ge  Ge5  1  0.333333  0.666667  0.761680  1
