# generated using pymatgen
data_Pr20CoSn8Os3
_symmetry_space_group_name_H-M   'P 1'
_cell_length_a   8.25789091
_cell_length_b   9.21819000
_cell_length_c   12.85668875
_cell_angle_alpha   90.00000000
_cell_angle_beta   89.81166736
_cell_angle_gamma   90.00000000
_symmetry_Int_Tables_number   1
_chemical_formula_structural   Pr20CoSn8Os3
_chemical_formula_sum   'Pr20 Co1 Sn8 Os3'
_cell_volume   978.68195419
_cell_formula_units_Z   1
loop_
 _symmetry_equiv_pos_site_id
 _symmetry_equiv_pos_as_xyz
  1  'x, y, z'
loop_
 _atom_site_type_symbol
 _atom_site_label
 _atom_site_symmetry_multiplicity
 _atom_site_fract_x
 _atom_site_fract_y
 _atom_site_fract_z
 _atom_site_occupancy
  Pr  Pr0  1  0.838827  0.750000  0.786802  1
  Pr  Pr1  1  0.155283  0.250000  0.214864  1
  Pr  Pr2  1  0.340644  0.250000  0.715838  1
  Pr  Pr3  1  0.656471  0.750000  0.285811  1
  Pr  Pr4  1  0.374259  0.750000  0.695500  1
  Pr  Pr5  1  0.627817  0.250000  0.302992  1
  Pr  Pr6  1  0.875151  0.250000  0.804062  1
  Pr  Pr7  1  0.129593  0.750000  0.198333  1
  Pr  Pr8  1  0.949836  0.750000  0.502511  1
  Pr  Pr9  1  0.051573  0.250000  0.497770  1
  Pr  Pr10  1  0.447042  0.250000  0.998353  1
  Pr  Pr11  1  0.551097  0.750000  0.002678  1
  Pr  Pr12  1  0.674801  0.035754  0.569369  1
  Pr  Pr13  1  0.326042  0.964786  0.429787  1
  Pr  Pr14  1  0.174389  0.961545  0.930153  1
  Pr  Pr15  1  0.326042  0.535214  0.429787  1
  Pr  Pr16  1  0.826495  0.029253  0.066289  1
  Pr  Pr17  1  0.674801  0.464246  0.569369  1
  Pr  Pr18  1  0.826495  0.470747  0.066289  1
  Pr  Pr19  1  0.174389  0.538455  0.930153  1
  Co  Co20  1  0.921508  0.750000  0.010166  1
  Sn  Sn21  1  0.569974  0.494911  0.830531  1
  Sn  Sn22  1  0.429352  0.504051  0.170403  1
  Sn  Sn23  1  0.070236  0.505434  0.670036  1
  Sn  Sn24  1  0.429352  0.995949  0.170403  1
  Sn  Sn25  1  0.929032  0.495805  0.330062  1
  Sn  Sn26  1  0.569974  0.005089  0.830531  1
  Sn  Sn27  1  0.929032  0.004195  0.330062  1
  Sn  Sn28  1  0.070236  0.994566  0.670036  1
  Os  Os29  1  0.581203  0.750000  0.508784  1
  Os  Os30  1  0.421787  0.250000  0.491629  1
  Os  Os31  1  0.077267  0.250000  0.990645  1
