# generated using pymatgen
data_Fe6ReW6
_symmetry_space_group_name_H-M   'P 1'
_cell_length_a   9.19639459
_cell_length_b   9.19639456
_cell_length_c   9.19639491
_cell_angle_alpha   30.23613641
_cell_angle_beta   30.23613736
_cell_angle_gamma   30.23613846
_symmetry_Int_Tables_number   1
_chemical_formula_structural   Fe6ReW6
_chemical_formula_sum   'Fe6 Re1 W6'
_cell_volume   174.76048082
_cell_formula_units_Z   1
loop_
 _symmetry_equiv_pos_site_id
 _symmetry_equiv_pos_as_xyz
  1  'x, y, z'
loop_
 _atom_site_type_symbol
 _atom_site_label
 _atom_site_symmetry_multiplicity
 _atom_site_fract_x
 _atom_site_fract_y
 _atom_site_fract_z
 _atom_site_occupancy
  Fe  Fe0  1  0.582180  0.091485  0.091485  1
  Fe  Fe1  1  0.091485  0.091485  0.582180  1
  Fe  Fe2  1  0.091485  0.582180  0.091485  1
  Fe  Fe3  1  0.908515  0.417820  0.908515  1
  Fe  Fe4  1  0.417820  0.908515  0.908515  1
  Fe  Fe5  1  0.908515  0.908515  0.417820  1
  Re  Re6  1  0.000000  0.000000  0.000000  1
  W  W7  1  0.164990  0.164990  0.164990  1
  W  W8  1  0.835010  0.835010  0.835010  1
  W  W9  1  0.348130  0.348130  0.348130  1
  W  W10  1  0.651870  0.651870  0.651870  1
  W  W11  1  0.450703  0.450703  0.450703  1
  W  W12  1  0.549297  0.549297  0.549297  1
