# generated using pymatgen
data_Tb4GaGe3Pt8
_symmetry_space_group_name_H-M   'P 1'
_cell_length_a   5.64814418
_cell_length_b   7.12628700
_cell_length_c   7.42522992
_cell_angle_alpha   90.00000000
_cell_angle_beta   89.76142955
_cell_angle_gamma   90.00000000
_symmetry_Int_Tables_number   1
_chemical_formula_structural   Tb4GaGe3Pt8
_chemical_formula_sum   'Tb4 Ga1 Ge3 Pt8'
_cell_volume   298.86511478
_cell_formula_units_Z   1
loop_
 _symmetry_equiv_pos_site_id
 _symmetry_equiv_pos_as_xyz
  1  'x, y, z'
loop_
 _atom_site_type_symbol
 _atom_site_label
 _atom_site_symmetry_multiplicity
 _atom_site_fract_x
 _atom_site_fract_y
 _atom_site_fract_z
 _atom_site_occupancy
  Tb  Tb0  1  0.139139  0.750000  0.529099  1
  Tb  Tb1  1  0.859488  0.250000  0.474033  1
  Tb  Tb2  1  0.643721  0.250000  0.972026  1
  Tb  Tb3  1  0.356029  0.750000  0.025986  1
  Ga  Ga4  1  0.859062  0.750000  0.883642  1
  Ge  Ge5  1  0.140504  0.250000  0.117619  1
  Ge  Ge6  1  0.361279  0.250000  0.617496  1
  Ge  Ge7  1  0.637971  0.750000  0.380469  1
  Pt  Pt8  1  0.584542  0.551508  0.685563  1
  Pt  Pt9  1  0.414296  0.448514  0.314319  1
  Pt  Pt10  1  0.087471  0.448688  0.813901  1
  Pt  Pt11  1  0.414296  0.051486  0.314319  1
  Pt  Pt12  1  0.915094  0.551675  0.186033  1
  Pt  Pt13  1  0.584542  0.948492  0.685563  1
  Pt  Pt14  1  0.915094  0.948325  0.186033  1
  Pt  Pt15  1  0.087471  0.051312  0.813901  1
