# generated using pymatgen
data_Nd3Dy(Sc4Bi3)4
_symmetry_space_group_name_H-M   'P 1'
_cell_length_a   7.97263501
_cell_length_b   9.11732100
_cell_length_c   11.68767602
_cell_angle_alpha   90.00000000
_cell_angle_beta   89.99400827
_cell_angle_gamma   90.00000000
_symmetry_Int_Tables_number   1
_chemical_formula_structural   Nd3Dy(Sc4Bi3)4
_chemical_formula_sum   'Nd3 Dy1 Sc16 Bi12'
_cell_volume   849.56632592
_cell_formula_units_Z   1
loop_
 _symmetry_equiv_pos_site_id
 _symmetry_equiv_pos_as_xyz
  1  'x, y, z'
loop_
 _atom_site_type_symbol
 _atom_site_label
 _atom_site_symmetry_multiplicity
 _atom_site_fract_x
 _atom_site_fract_y
 _atom_site_fract_z
 _atom_site_occupancy
  Nd  Nd0  1  0.319340  0.250000  0.219428  1
  Nd  Nd1  1  0.818697  0.250000  0.280523  1
  Nd  Nd2  1  0.681323  0.750000  0.780773  1
  Dy  Dy3  1  0.182661  0.750000  0.718113  1
  Sc  Sc4  1  0.346124  0.750000  0.221558  1
  Sc  Sc5  1  0.846759  0.750000  0.279073  1
  Sc  Sc6  1  0.652413  0.250000  0.776473  1
  Sc  Sc7  1  0.153667  0.250000  0.722354  1
  Sc  Sc8  1  0.690639  0.567888  0.063980  1
  Sc  Sc9  1  0.191916  0.932904  0.436589  1
  Sc  Sc10  1  0.309119  0.067259  0.935634  1
  Sc  Sc11  1  0.807287  0.432917  0.563940  1
  Sc  Sc12  1  0.309119  0.432741  0.935634  1
  Sc  Sc13  1  0.807287  0.067083  0.563940  1
  Sc  Sc14  1  0.690639  0.932112  0.063980  1
  Sc  Sc15  1  0.191916  0.567096  0.436589  1
  Sc  Sc16  1  0.482945  0.250000  0.489395  1
  Sc  Sc17  1  0.984195  0.250000  0.010930  1
  Sc  Sc18  1  0.516653  0.750000  0.512711  1
  Sc  Sc19  1  0.016349  0.750000  0.987935  1
  Bi  Bi20  1  0.398319  0.750000  0.970348  1
  Bi  Bi21  1  0.903627  0.750000  0.530914  1
  Bi  Bi22  1  0.600610  0.250000  0.027246  1
  Bi  Bi23  1  0.099099  0.250000  0.472247  1
  Bi  Bi24  1  0.563486  0.985433  0.331386  1
  Bi  Bi25  1  0.063083  0.514340  0.169259  1
  Bi  Bi26  1  0.432652  0.488064  0.669982  1
  Bi  Bi27  1  0.940427  0.011810  0.829218  1
  Bi  Bi28  1  0.432652  0.011936  0.669982  1
  Bi  Bi29  1  0.940427  0.488190  0.829218  1
  Bi  Bi30  1  0.563486  0.514567  0.331386  1
  Bi  Bi31  1  0.063083  0.985660  0.169259  1
