# generated using pymatgen
data_KBa(LaB12)2
_symmetry_space_group_name_H-M   'P 1'
_cell_length_a   7.27987567
_cell_length_b   7.27987489
_cell_length_c   5.93865800
_cell_angle_alpha   90.00000000
_cell_angle_beta   90.00000000
_cell_angle_gamma   109.44114278
_symmetry_Int_Tables_number   1
_chemical_formula_structural   KBa(LaB12)2
_chemical_formula_sum   'K1 Ba1 La2 B24'
_cell_volume   296.78399070
_cell_formula_units_Z   1
loop_
 _symmetry_equiv_pos_site_id
 _symmetry_equiv_pos_as_xyz
  1  'x, y, z'
loop_
 _atom_site_type_symbol
 _atom_site_label
 _atom_site_symmetry_multiplicity
 _atom_site_fract_x
 _atom_site_fract_y
 _atom_site_fract_z
 _atom_site_occupancy
  K  K0  1  0.998980  0.001020  0.000000  1
  Ba  Ba1  1  0.752189  0.247811  0.500000  1
  La  La2  1  0.500336  0.499664  0.000000  1
  La  La3  1  0.247304  0.752696  0.500000  1
  B  B4  1  0.178295  0.326396  0.649348  1
  B  B5  1  0.926704  0.575960  0.148374  1
  B  B6  1  0.673604  0.821705  0.649348  1
  B  B7  1  0.424040  0.073296  0.148374  1
  B  B8  1  0.178295  0.326396  0.350652  1
  B  B9  1  0.926704  0.575960  0.851626  1
  B  B10  1  0.673604  0.821705  0.350652  1
  B  B11  1  0.424040  0.073296  0.851626  1
  B  B12  1  0.400227  0.398889  0.500000  1
  B  B13  1  0.148747  0.651321  0.000000  1
  B  B14  1  0.898124  0.898127  0.500000  1
  B  B15  1  0.648490  0.146806  0.000000  1
  B  B16  1  0.324326  0.176053  0.649475  1
  B  B17  1  0.077379  0.427921  0.148184  1
  B  B18  1  0.823947  0.675674  0.649475  1
  B  B19  1  0.572079  0.922621  0.148184  1
  B  B20  1  0.101873  0.101876  0.500000  1
  B  B21  1  0.853194  0.351510  0.000000  1
  B  B22  1  0.601111  0.599773  0.500000  1
  B  B23  1  0.348679  0.851253  0.000000  1
  B  B24  1  0.324326  0.176053  0.350525  1
  B  B25  1  0.077379  0.427921  0.851816  1
  B  B26  1  0.823947  0.675674  0.350525  1
  B  B27  1  0.572079  0.922621  0.851816  1
