# generated using pymatgen
data_Dy5Nb3(Si3Ir4)4
_symmetry_space_group_name_H-M   'P 1'
_cell_length_a   12.95140600
_cell_length_b   12.95140584
_cell_length_c   4.01342300
_cell_angle_alpha   90.00000000
_cell_angle_beta   90.00000000
_cell_angle_gamma   119.99999531
_symmetry_Int_Tables_number   1
_chemical_formula_structural   Dy5Nb3(Si3Ir4)4
_chemical_formula_sum   'Dy5 Nb3 Si12 Ir16'
_cell_volume   583.01458256
_cell_formula_units_Z   1
loop_
 _symmetry_equiv_pos_site_id
 _symmetry_equiv_pos_as_xyz
  1  'x, y, z'
loop_
 _atom_site_type_symbol
 _atom_site_label
 _atom_site_symmetry_multiplicity
 _atom_site_fract_x
 _atom_site_fract_y
 _atom_site_fract_z
 _atom_site_occupancy
  Dy  Dy0  1  0.333333  0.666667  0.500000  1
  Dy  Dy1  1  0.666667  0.333333  0.500000  1
  Dy  Dy2  1  0.000000  0.813423  0.000000  1
  Dy  Dy3  1  0.186577  0.186577  0.000000  1
  Dy  Dy4  1  0.813423  0.000000  0.000000  1
  Nb  Nb5  1  0.000000  0.438705  0.500000  1
  Nb  Nb6  1  0.561295  0.561295  0.500000  1
  Nb  Nb7  1  0.438705  0.000000  0.500000  1
  Si  Si8  1  0.000000  0.637501  0.500000  1
  Si  Si9  1  0.362499  0.362499  0.500000  1
  Si  Si10  1  0.637501  0.000000  0.500000  1
  Si  Si11  1  0.519241  0.690179  0.000000  1
  Si  Si12  1  0.309821  0.829063  0.000000  1
  Si  Si13  1  0.170937  0.480759  0.000000  1
  Si  Si14  1  0.480759  0.170937  0.000000  1
  Si  Si15  1  0.690179  0.519241  0.000000  1
  Si  Si16  1  0.829063  0.309821  0.000000  1
  Si  Si17  1  0.000000  0.181176  0.500000  1
  Si  Si18  1  0.818824  0.818824  0.500000  1
  Si  Si19  1  0.181176  0.000000  0.500000  1
  Ir  Ir20  1  0.512438  0.874031  0.000000  1
  Ir  Ir21  1  0.125969  0.638409  0.000000  1
  Ir  Ir22  1  0.361591  0.487562  0.000000  1
  Ir  Ir23  1  0.487562  0.361591  0.000000  1
  Ir  Ir24  1  0.874031  0.512438  0.000000  1
  Ir  Ir25  1  0.638409  0.125969  0.000000  1
  Ir  Ir26  1  0.000000  0.280133  0.000000  1
  Ir  Ir27  1  0.719867  0.719867  0.000000  1
  Ir  Ir28  1  0.280133  0.000000  0.000000  1
  Ir  Ir29  1  0.624988  0.806346  0.500000  1
  Ir  Ir30  1  0.193654  0.818641  0.500000  1
  Ir  Ir31  1  0.181359  0.375012  0.500000  1
  Ir  Ir32  1  0.375012  0.181359  0.500000  1
  Ir  Ir33  1  0.806346  0.624988  0.500000  1
  Ir  Ir34  1  0.818641  0.193654  0.500000  1
  Ir  Ir35  1  0.000000  0.000000  0.500000  1
