# generated using pymatgen
data_K12Li8Ta3TiAs12
_symmetry_space_group_name_H-M   'P 1'
_cell_length_a   10.13186853
_cell_length_b   10.13186921
_cell_length_c   15.28000306
_cell_angle_alpha   89.96120325
_cell_angle_beta   89.96120515
_cell_angle_gamma   142.82932190
_symmetry_Int_Tables_number   1
_chemical_formula_structural   K12Li8Ta3TiAs12
_chemical_formula_sum   'K12 Li8 Ta3 Ti1 As12'
_cell_volume   947.71143716
_cell_formula_units_Z   1
loop_
 _symmetry_equiv_pos_site_id
 _symmetry_equiv_pos_as_xyz
  1  'x, y, z'
loop_
 _atom_site_type_symbol
 _atom_site_label
 _atom_site_symmetry_multiplicity
 _atom_site_fract_x
 _atom_site_fract_y
 _atom_site_fract_z
 _atom_site_occupancy
  K  K0  1  0.605587  0.947683  0.828029  1
  K  K1  1  0.283810  0.283802  0.318700  1
  K  K2  1  0.219754  0.216940  0.820736  1
  K  K3  1  0.716198  0.716190  0.681300  1
  K  K4  1  0.445036  0.106663  0.672299  1
  K  K5  1  0.893337  0.554964  0.327701  1
  K  K6  1  0.052317  0.394413  0.171971  1
  K  K7  1  0.394636  0.055760  0.170349  1
  K  K8  1  0.554607  0.893112  0.328691  1
  K  K9  1  0.106888  0.445393  0.671309  1
  K  K10  1  0.944240  0.605364  0.829651  1
  K  K11  1  0.783060  0.780246  0.179264  1
  Li  Li12  1  0.083425  0.916575  0.000000  1
  Li  Li13  1  0.582568  0.417432  0.500000  1
  Li  Li14  1  0.918055  0.081945  0.000000  1
  Li  Li15  1  0.749233  0.250767  0.000000  1
  Li  Li16  1  0.749892  0.250108  0.500000  1
  Li  Li17  1  0.248295  0.751705  0.000000  1
  Li  Li18  1  0.249899  0.750101  0.500000  1
  Li  Li19  1  0.417556  0.582444  0.500000  1
  Ta  Ta20  1  0.082460  0.917540  0.500000  1
  Ta  Ta21  1  0.415924  0.584076  0.000000  1
  Ta  Ta22  1  0.917604  0.082396  0.500000  1
  Ti  Ti23  1  0.586223  0.413777  0.000000  1
  As  As24  1  0.066557  0.386052  0.407702  1
  As  As25  1  0.888591  0.566433  0.091972  1
  As  As26  1  0.433567  0.111409  0.908028  1
  As  As27  1  0.613948  0.933443  0.592298  1
  As  As28  1  0.933442  0.613935  0.592311  1
  As  As29  1  0.114364  0.434312  0.907990  1
  As  As30  1  0.565688  0.885636  0.092010  1
  As  As31  1  0.386065  0.066558  0.407689  1
  As  As32  1  0.227440  0.227487  0.592246  1
  As  As33  1  0.722744  0.725523  0.910487  1
  As  As34  1  0.274477  0.277256  0.089513  1
  As  As35  1  0.772513  0.772560  0.407754  1
