# generated using pymatgen
data_Ba3NdIr2O9
_symmetry_space_group_name_H-M   'P 1'
_cell_length_a   6.01596507
_cell_length_b   6.01560832
_cell_length_c   14.96076984
_cell_angle_alpha   89.02239041
_cell_angle_beta   89.01759859
_cell_angle_gamma   119.83110690
_symmetry_Int_Tables_number   1
_chemical_formula_structural   Ba3NdIr2O9
_chemical_formula_sum   'Ba6 Nd2 Ir4 O18'
_cell_volume   469.41081470
_cell_formula_units_Z   2
loop_
 _symmetry_equiv_pos_site_id
 _symmetry_equiv_pos_as_xyz
  1  'x, y, z'
loop_
 _atom_site_type_symbol
 _atom_site_label
 _atom_site_symmetry_multiplicity
 _atom_site_fract_x
 _atom_site_fract_y
 _atom_site_fract_z
 _atom_site_occupancy
  Ba  Ba0  1  0.326867  0.658685  0.594928  1
  Ba  Ba1  1  0.996176  0.003722  0.750163  1
  Ba  Ba2  1  0.341295  0.673082  0.905184  1
  Ba  Ba3  1  0.673133  0.341315  0.405072  1
  Ba  Ba4  1  0.003824  0.996278  0.249837  1
  Ba  Ba5  1  0.658705  0.326918  0.094816  1
  Nd  Nd6  1  0.000000  0.000000  0.000000  1
  Nd  Nd7  1  0.000000  0.000000  0.500000  1
  Ir  Ir8  1  0.681246  0.348746  0.833987  1
  Ir  Ir9  1  0.348740  0.681233  0.334057  1
  Ir  Ir10  1  0.318754  0.651254  0.166013  1
  Ir  Ir11  1  0.651260  0.318767  0.665943  1
  O  O12  1  0.147991  0.329074  0.099544  1
  O  O13  1  0.670890  0.851926  0.400464  1
  O  O14  1  0.852009  0.670926  0.900456  1
  O  O15  1  0.329110  0.148074  0.599536  1
  O  O16  1  0.793679  0.147777  0.591687  1
  O  O17  1  0.852329  0.206421  0.908295  1
  O  O18  1  0.206321  0.852223  0.408313  1
  O  O19  1  0.147671  0.793579  0.091705  1
  O  O20  1  0.791945  0.608620  0.577885  1
  O  O21  1  0.391425  0.208111  0.922123  1
  O  O22  1  0.208055  0.391380  0.422115  1
  O  O23  1  0.608575  0.791889  0.077877  1
  O  O24  1  0.022830  0.507736  0.260462  1
  O  O25  1  0.492301  0.977197  0.239676  1
  O  O26  1  0.977170  0.492264  0.739538  1
  O  O27  1  0.507699  0.022803  0.760324  1
  O  O28  1  0.490853  0.509201  0.250067  1
  O  O29  1  0.509147  0.490799  0.749933  1
