# generated using pymatgen
data_K2Lu2Zr3Se10
_symmetry_space_group_name_H-M   'P 1'
_cell_length_a   6.75369094
_cell_length_b   11.43691745
_cell_length_c   9.14118027
_cell_angle_alpha   59.50398016
_cell_angle_beta   68.34525242
_cell_angle_gamma   89.95378194
_symmetry_Int_Tables_number   1
_chemical_formula_structural   K2Lu2Zr3Se10
_chemical_formula_sum   'K2 Lu2 Zr3 Se10'
_cell_volume   549.92368058
_cell_formula_units_Z   1
loop_
 _symmetry_equiv_pos_site_id
 _symmetry_equiv_pos_as_xyz
  1  'x, y, z'
loop_
 _atom_site_type_symbol
 _atom_site_label
 _atom_site_symmetry_multiplicity
 _atom_site_fract_x
 _atom_site_fract_y
 _atom_site_fract_z
 _atom_site_occupancy
  K  K0  1  0.786390  0.075152  0.425993  1
  K  K1  1  0.012054  0.524782  0.975126  1
  Lu  Lu2  1  0.799459  0.600173  0.402755  1
  Lu  Lu3  1  0.201979  0.399481  0.594268  1
  Zr  Zr4  1  0.398097  0.796327  0.202480  1
  Zr  Zr5  1  0.601307  0.203184  0.802842  1
  Zr  Zr6  1  0.999374  0.999304  0.998562  1
  Se  Se7  1  0.000525  0.844420  0.344145  1
  Se  Se8  1  0.594211  0.036495  0.150869  1
  Se  Se9  1  0.189284  0.232748  0.958734  1
  Se  Se10  1  0.779046  0.430467  0.764118  1
  Se  Se11  1  0.386189  0.645684  0.545398  1
  Se  Se12  1  0.404609  0.964662  0.851989  1
  Se  Se13  1  0.999530  0.154206  0.655533  1
  Se  Se14  1  0.618175  0.352337  0.452447  1
  Se  Se15  1  0.222647  0.570748  0.233802  1
  Se  Se16  1  0.807124  0.769830  0.040940  1
