# generated using pymatgen
data_Ho5Zr5(Co2Si5)4
_symmetry_space_group_name_H-M   'P 1'
_cell_length_a   12.21186500
_cell_length_b   12.21186500
_cell_length_c   3.99561900
_cell_angle_alpha   90.00000000
_cell_angle_beta   90.00000000
_cell_angle_gamma   90.00000000
_symmetry_Int_Tables_number   1
_chemical_formula_structural   Ho5Zr5(Co2Si5)4
_chemical_formula_sum   'Ho5 Zr5 Co8 Si20'
_cell_volume   595.86525013
_cell_formula_units_Z   1
loop_
 _symmetry_equiv_pos_site_id
 _symmetry_equiv_pos_as_xyz
  1  'x, y, z'
loop_
 _atom_site_type_symbol
 _atom_site_label
 _atom_site_symmetry_multiplicity
 _atom_site_fract_x
 _atom_site_fract_y
 _atom_site_fract_z
 _atom_site_occupancy
  Ho  Ho0  1  0.000000  0.000000  0.000000  1
  Ho  Ho1  1  0.885834  0.386668  0.500000  1
  Ho  Ho2  1  0.114166  0.613332  0.500000  1
  Ho  Ho3  1  0.386668  0.114166  0.500000  1
  Ho  Ho4  1  0.613332  0.885834  0.500000  1
  Zr  Zr5  1  0.500000  0.500000  0.000000  1
  Zr  Zr6  1  0.676271  0.177307  0.500000  1
  Zr  Zr7  1  0.323729  0.822693  0.500000  1
  Zr  Zr8  1  0.177307  0.323729  0.500000  1
  Zr  Zr9  1  0.822693  0.676271  0.500000  1
  Co  Co10  1  0.742046  0.524503  0.000000  1
  Co  Co11  1  0.257954  0.475497  0.000000  1
  Co  Co12  1  0.245176  0.975486  0.000000  1
  Co  Co13  1  0.754824  0.024514  0.000000  1
  Co  Co14  1  0.475497  0.742046  0.000000  1
  Co  Co15  1  0.524503  0.257954  0.000000  1
  Co  Co16  1  0.024514  0.245176  0.000000  1
  Co  Co17  1  0.975486  0.754824  0.000000  1
  Si  Si18  1  0.568783  0.069740  0.000000  1
  Si  Si19  1  0.431217  0.930260  0.000000  1
  Si  Si20  1  0.069740  0.431217  0.000000  1
  Si  Si21  1  0.930260  0.568783  0.000000  1
  Si  Si22  1  0.656305  0.695993  0.000000  1
  Si  Si23  1  0.343695  0.304007  0.000000  1
  Si  Si24  1  0.156714  0.803279  0.000000  1
  Si  Si25  1  0.843286  0.196721  0.000000  1
  Si  Si26  1  0.304007  0.656305  0.000000  1
  Si  Si27  1  0.695993  0.343695  0.000000  1
  Si  Si28  1  0.196721  0.156714  0.000000  1
  Si  Si29  1  0.803279  0.843286  0.000000  1
  Si  Si30  1  0.662674  0.505681  0.500000  1
  Si  Si31  1  0.337326  0.494319  0.500000  1
  Si  Si32  1  0.166656  0.994723  0.500000  1
  Si  Si33  1  0.833344  0.005277  0.500000  1
  Si  Si34  1  0.494319  0.662674  0.500000  1
  Si  Si35  1  0.505681  0.337326  0.500000  1
  Si  Si36  1  0.005277  0.166656  0.500000  1
  Si  Si37  1  0.994723  0.833344  0.500000  1
