# generated using pymatgen
data_HoTa5(NbN3)4
_symmetry_space_group_name_H-M   'P 1'
_cell_length_a   5.30241613
_cell_length_b   5.28966587
_cell_length_c   10.53195200
_cell_angle_alpha   90.02586597
_cell_angle_beta   89.98710892
_cell_angle_gamma   119.92047958
_symmetry_Int_Tables_number   1
_chemical_formula_structural   HoTa5(NbN3)4
_chemical_formula_sum   'Ho1 Ta5 Nb4 N12'
_cell_volume   256.02887597
_cell_formula_units_Z   1
loop_
 _symmetry_equiv_pos_site_id
 _symmetry_equiv_pos_as_xyz
  1  'x, y, z'
loop_
 _atom_site_type_symbol
 _atom_site_label
 _atom_site_symmetry_multiplicity
 _atom_site_fract_x
 _atom_site_fract_y
 _atom_site_fract_z
 _atom_site_occupancy
  Ho  Ho0  1  0.329145  0.664573  0.500000  1
  Ta  Ta1  1  0.667015  0.333507  0.000000  1
  Ta  Ta2  1  0.665877  0.332938  0.500000  1
  Ta  Ta3  1  0.330658  0.665329  0.000000  1
  Ta  Ta4  1  0.676297  0.997791  0.754165  1
  Ta  Ta5  1  0.676297  0.678507  0.245835  1
  Nb  Nb6  1  0.001558  0.324986  0.244743  1
  Nb  Nb7  1  0.001558  0.676572  0.755257  1
  Nb  Nb8  1  0.324065  0.325096  0.755180  1
  Nb  Nb9  1  0.324065  0.998968  0.244820  1
  N  N10  1  0.357942  0.339195  0.369826  1
  N  N11  1  0.665598  0.014064  0.370333  1
  N  N12  1  0.977869  0.648017  0.370220  1
  N  N13  1  0.996260  0.337248  0.883420  1
  N  N14  1  0.657322  0.996272  0.116496  1
  N  N15  1  0.657322  0.661051  0.883504  1
  N  N16  1  0.346739  0.999795  0.882707  1
  N  N17  1  0.665598  0.651532  0.629667  1
  N  N18  1  0.977869  0.329851  0.629780  1
  N  N19  1  0.996260  0.659014  0.116580  1
  N  N20  1  0.357942  0.018746  0.630174  1
  N  N21  1  0.346739  0.346946  0.117293  1
