# generated using pymatgen
data_Yb5Th(UH12)2
_symmetry_space_group_name_H-M   'P 1'
_cell_length_a   6.64091200
_cell_length_b   6.75442600
_cell_length_c   6.64091200
_cell_angle_alpha   90.00000000
_cell_angle_beta   90.00000000
_cell_angle_gamma   90.00000000
_symmetry_Int_Tables_number   1
_chemical_formula_structural   Yb5Th(UH12)2
_chemical_formula_sum   'Yb5 Th1 U2 H24'
_cell_volume   297.88175147
_cell_formula_units_Z   1
loop_
 _symmetry_equiv_pos_site_id
 _symmetry_equiv_pos_as_xyz
  1  'x, y, z'
loop_
 _atom_site_type_symbol
 _atom_site_label
 _atom_site_symmetry_multiplicity
 _atom_site_fract_x
 _atom_site_fract_y
 _atom_site_fract_z
 _atom_site_occupancy
  Yb  Yb0  1  0.248279  0.995410  0.500000  1
  Yb  Yb1  1  0.751721  0.995410  0.500000  1
  Yb  Yb2  1  0.000000  0.504590  0.251721  1
  Yb  Yb3  1  0.000000  0.504590  0.748279  1
  Yb  Yb4  1  0.500000  0.750000  0.000000  1
  Th  Th5  1  0.500000  0.250000  0.000000  1
  U  U6  1  0.000000  0.000139  0.000000  1
  U  U7  1  0.500000  0.499861  0.500000  1
  H  H8  1  0.000000  0.148885  0.284119  1
  H  H9  1  0.500000  0.214807  0.651108  1
  H  H10  1  0.500000  0.779201  0.350055  1
  H  H11  1  0.785632  0.647099  0.500000  1
  H  H12  1  0.214368  0.647099  0.500000  1
  H  H13  1  0.349584  0.491770  0.795948  1
  H  H14  1  0.650416  0.491770  0.795948  1
  H  H15  1  0.295948  0.008230  0.150416  1
  H  H16  1  0.151108  0.285193  0.000000  1
  H  H17  1  0.850055  0.720799  0.000000  1
  H  H18  1  0.295948  0.008230  0.849584  1
  H  H19  1  0.848892  0.285193  0.000000  1
  H  H20  1  0.704052  0.008230  0.150416  1
  H  H21  1  0.704052  0.008230  0.849584  1
  H  H22  1  0.149945  0.720799  0.000000  1
  H  H23  1  0.000000  0.852901  0.714368  1
  H  H24  1  0.000000  0.148885  0.715881  1
  H  H25  1  0.000000  0.852901  0.285632  1
  H  H26  1  0.650416  0.491770  0.204052  1
  H  H27  1  0.349584  0.491770  0.204052  1
  H  H28  1  0.784119  0.351115  0.500000  1
  H  H29  1  0.215881  0.351115  0.500000  1
  H  H30  1  0.500000  0.779201  0.649945  1
  H  H31  1  0.500000  0.214807  0.348892  1
