# generated using pymatgen
data_Li8Dy8Bi3Pb5
_symmetry_space_group_name_H-M   'P 1'
_cell_length_a   9.59031700
_cell_length_b   9.59031712
_cell_length_c   7.30446700
_cell_angle_alpha   90.00000000
_cell_angle_beta   90.00000000
_cell_angle_gamma   120.00000304
_symmetry_Int_Tables_number   1
_chemical_formula_structural   Li8Dy8Bi3Pb5
_chemical_formula_sum   'Li8 Dy8 Bi3 Pb5'
_cell_volume   581.81522324
_cell_formula_units_Z   1
loop_
 _symmetry_equiv_pos_site_id
 _symmetry_equiv_pos_as_xyz
  1  'x, y, z'
loop_
 _atom_site_type_symbol
 _atom_site_label
 _atom_site_symmetry_multiplicity
 _atom_site_fract_x
 _atom_site_fract_y
 _atom_site_fract_z
 _atom_site_occupancy
  Li  Li0  1  0.166294  0.332590  0.279215  1
  Li  Li1  1  0.166294  0.833706  0.279215  1
  Li  Li2  1  0.667410  0.833706  0.279215  1
  Li  Li3  1  0.833041  0.666084  0.785298  1
  Li  Li4  1  0.833041  0.166959  0.785298  1
  Li  Li5  1  0.333916  0.166959  0.785298  1
  Li  Li6  1  0.333333  0.666667  0.676615  1
  Li  Li7  1  0.666667  0.333333  0.184207  1
  Dy  Dy8  1  0.512546  0.025093  0.490013  1
  Dy  Dy9  1  0.512546  0.487454  0.490013  1
  Dy  Dy10  1  0.974907  0.487454  0.490013  1
  Dy  Dy11  1  0.490050  0.980102  0.997340  1
  Dy  Dy12  1  0.490050  0.509950  0.997340  1
  Dy  Dy13  1  0.019898  0.509950  0.997340  1
  Dy  Dy14  1  0.000000  0.000000  0.498166  1
  Dy  Dy15  1  0.000000  0.000000  0.007766  1
  Bi  Bi16  1  0.166917  0.333834  0.734124  1
  Bi  Bi17  1  0.166917  0.833083  0.734124  1
  Bi  Bi18  1  0.666166  0.833083  0.734124  1
  Pb  Pb19  1  0.833320  0.666639  0.233458  1
  Pb  Pb20  1  0.833320  0.166680  0.233458  1
  Pb  Pb21  1  0.333361  0.166680  0.233458  1
  Pb  Pb22  1  0.333333  0.666667  0.258153  1
  Pb  Pb23  1  0.666667  0.333333  0.758748  1
