# generated using pymatgen
data_NdEr(Be12Cu)2
_symmetry_space_group_name_H-M   'P 1'
_cell_length_a   7.30234162
_cell_length_b   7.35568307
_cell_length_c   7.28588220
_cell_angle_alpha   59.83116552
_cell_angle_beta   59.82691210
_cell_angle_gamma   59.60972492
_symmetry_Int_Tables_number   1
_chemical_formula_structural   NdEr(Be12Cu)2
_chemical_formula_sum   'Nd1 Er1 Be24 Cu2'
_cell_volume   275.19115626
_cell_formula_units_Z   1
loop_
 _symmetry_equiv_pos_site_id
 _symmetry_equiv_pos_as_xyz
  1  'x, y, z'
loop_
 _atom_site_type_symbol
 _atom_site_label
 _atom_site_symmetry_multiplicity
 _atom_site_fract_x
 _atom_site_fract_y
 _atom_site_fract_z
 _atom_site_occupancy
  Nd  Nd0  1  0.252677  0.247323  0.252677  1
  Er  Er1  1  0.747154  0.752846  0.747154  1
  Be  Be2  1  0.500073  0.499927  0.500073  1
  Be  Be3  1  0.000017  0.999983  0.000017  1
  Be  Be4  1  0.566314  0.790870  0.436129  1
  Be  Be5  1  0.436129  0.206688  0.566314  1
  Be  Be6  1  0.290536  0.935282  0.711644  1
  Be  Be7  1  0.711644  0.062537  0.290536  1
  Be  Be8  1  0.930602  0.278719  0.068039  1
  Be  Be9  1  0.068039  0.722640  0.930602  1
  Be  Be10  1  0.207709  0.797962  0.558673  1
  Be  Be11  1  0.790776  0.199944  0.443043  1
  Be  Be12  1  0.443043  0.566236  0.790776  1
  Be  Be13  1  0.558673  0.435658  0.207709  1
  Be  Be14  1  0.713033  0.286284  0.935336  1
  Be  Be15  1  0.288546  0.714926  0.063092  1
  Be  Be16  1  0.063092  0.933435  0.288546  1
  Be  Be17  1  0.935336  0.065348  0.713033  1
  Be  Be18  1  0.566833  0.205984  0.790441  1
  Be  Be19  1  0.434530  0.792025  0.207823  1
  Be  Be20  1  0.790441  0.436742  0.566833  1
  Be  Be21  1  0.207823  0.565622  0.434530  1
  Be  Be22  1  0.935462  0.713841  0.290808  1
  Be  Be23  1  0.062430  0.287725  0.711358  1
  Be  Be24  1  0.290808  0.059888  0.935462  1
  Be  Be25  1  0.711358  0.938488  0.062430  1
  Cu  Cu26  1  0.801216  0.558964  0.195706  1
  Cu  Cu27  1  0.195706  0.444115  0.801216  1
