# generated using pymatgen
data_TaSi(BW2)2
_symmetry_space_group_name_H-M   'P 1'
_cell_length_a   7.07455939
_cell_length_b   7.07455996
_cell_length_c   7.08407982
_cell_angle_alpha   128.90296321
_cell_angle_beta   128.90296988
_cell_angle_gamma   75.06656477
_symmetry_Int_Tables_number   1
_chemical_formula_structural   TaSi(BW2)2
_chemical_formula_sum   'Ta2 Si2 B4 W8'
_cell_volume   209.18111637
_cell_formula_units_Z   2
loop_
 _symmetry_equiv_pos_site_id
 _symmetry_equiv_pos_as_xyz
  1  'x, y, z'
loop_
 _atom_site_type_symbol
 _atom_site_label
 _atom_site_symmetry_multiplicity
 _atom_site_fract_x
 _atom_site_fract_y
 _atom_site_fract_z
 _atom_site_occupancy
  Ta  Ta0  1  0.696027  0.519851  0.500000  1
  Ta  Ta1  1  0.980149  0.803973  0.500000  1
  Si  Si2  1  0.247629  0.252371  0.000000  1
  Si  Si3  1  0.747629  0.752371  0.000000  1
  B  B4  1  0.130919  0.627327  0.758244  1
  B  B5  1  0.872673  0.369081  0.241756  1
  B  B6  1  0.622808  0.877192  0.500000  1
  B  B7  1  0.376812  0.123188  0.500000  1
  W  W8  1  0.999730  0.999641  0.999370  1
  W  W9  1  0.500359  0.500270  0.000630  1
  W  W10  1  0.801654  0.303108  0.823600  1
  W  W11  1  0.196892  0.698346  0.176400  1
  W  W12  1  0.478054  0.979508  0.176400  1
  W  W13  1  0.302137  0.473966  0.500000  1
  W  W14  1  0.026034  0.197863  0.500000  1
  W  W15  1  0.520492  0.021946  0.823600  1
