# generated using pymatgen
data_Y6Tm4(SnBi)3
_symmetry_space_group_name_H-M   'P 1'
_cell_length_a   9.02269235
_cell_length_b   9.03675891
_cell_length_c   6.45408000
_cell_angle_alpha   90.00000000
_cell_angle_beta   90.00000000
_cell_angle_gamma   119.88409205
_symmetry_Int_Tables_number   1
_chemical_formula_structural   Y6Tm4(SnBi)3
_chemical_formula_sum   'Y6 Tm4 Sn3 Bi3'
_cell_volume   456.26786104
_cell_formula_units_Z   1
loop_
 _symmetry_equiv_pos_site_id
 _symmetry_equiv_pos_as_xyz
  1  'x, y, z'
loop_
 _atom_site_type_symbol
 _atom_site_label
 _atom_site_symmetry_multiplicity
 _atom_site_fract_x
 _atom_site_fract_y
 _atom_site_fract_z
 _atom_site_occupancy
  Y  Y0  1  0.758342  0.752493  0.250000  1
  Y  Y1  1  0.005885  0.246983  0.250000  1
  Y  Y2  1  0.763888  0.006302  0.750000  1
  Y  Y3  1  0.237488  0.999642  0.250000  1
  Y  Y4  1  0.999793  0.754971  0.750000  1
  Y  Y5  1  0.239546  0.245319  0.750000  1
  Tm  Tm6  1  0.324721  0.658156  0.498675  1
  Tm  Tm7  1  0.672465  0.338477  0.498652  1
  Tm  Tm8  1  0.324721  0.658156  0.001325  1
  Tm  Tm9  1  0.672465  0.338477  0.001348  1
  Sn  Sn10  1  0.996858  0.393416  0.750000  1
  Sn  Sn11  1  0.393350  0.390402  0.250000  1
  Sn  Sn12  1  0.001691  0.607708  0.250000  1
  Bi  Bi13  1  0.608110  0.610847  0.750000  1
  Bi  Bi14  1  0.392413  0.000251  0.750000  1
  Bi  Bi15  1  0.608263  0.998401  0.250000  1
