# generated using pymatgen
data_Ba2Cu2PPt6
_symmetry_space_group_name_H-M   'P 1'
_cell_length_a   9.50849126
_cell_length_b   9.50848964
_cell_length_c   4.18212400
_cell_angle_alpha   90.00000000
_cell_angle_beta   90.00000000
_cell_angle_gamma   146.19898790
_symmetry_Int_Tables_number   1
_chemical_formula_structural   Ba2Cu2PPt6
_chemical_formula_sum   'Ba2 Cu2 P1 Pt6'
_cell_volume   210.34740155
_cell_formula_units_Z   1
loop_
 _symmetry_equiv_pos_site_id
 _symmetry_equiv_pos_as_xyz
  1  'x, y, z'
loop_
 _atom_site_type_symbol
 _atom_site_label
 _atom_site_symmetry_multiplicity
 _atom_site_fract_x
 _atom_site_fract_y
 _atom_site_fract_z
 _atom_site_occupancy
  Ba  Ba0  1  0.620744  0.374285  0.500000  1
  Ba  Ba1  1  0.374285  0.620744  0.500000  1
  Cu  Cu2  1  0.197027  0.791875  0.500000  1
  Cu  Cu3  1  0.791875  0.197027  0.500000  1
  P  P4  1  0.207110  0.207110  0.000000  1
  Pt  Pt5  1  0.114991  0.885725  0.000000  1
  Pt  Pt6  1  0.885725  0.114991  0.000000  1
  Pt  Pt7  1  0.495951  0.995042  0.000000  1
  Pt  Pt8  1  0.995042  0.495951  0.000000  1
  Pt  Pt9  1  0.003433  0.003433  0.500000  1
  Pt  Pt10  1  0.627417  0.627417  0.000000  1
