# generated using pymatgen
data_CrFe5W6C
_symmetry_space_group_name_H-M   'P 1'
_cell_length_a   7.74581446
_cell_length_b   7.74581459
_cell_length_c   7.78707600
_cell_angle_alpha   59.82362100
_cell_angle_beta   59.82362047
_cell_angle_gamma   59.62214012
_symmetry_Int_Tables_number   1
_chemical_formula_structural   CrFe5W6C
_chemical_formula_sum   'Cr2 Fe10 W12 C2'
_cell_volume   328.53501763
_cell_formula_units_Z   2
loop_
 _symmetry_equiv_pos_site_id
 _symmetry_equiv_pos_as_xyz
  1  'x, y, z'
loop_
 _atom_site_type_symbol
 _atom_site_label
 _atom_site_symmetry_multiplicity
 _atom_site_fract_x
 _atom_site_fract_y
 _atom_site_fract_z
 _atom_site_occupancy
  Cr  Cr0  1  0.125000  0.625000  0.125000  1
  Cr  Cr1  1  0.625000  0.125000  0.125000  1
  Fe  Fe2  1  0.921475  0.235267  0.921629  1
  Fe  Fe3  1  0.328525  0.014733  0.328371  1
  Fe  Fe4  1  0.328201  0.328201  0.328661  1
  Fe  Fe5  1  0.014733  0.328525  0.328371  1
  Fe  Fe6  1  0.921799  0.921799  0.235065  1
  Fe  Fe7  1  0.235267  0.921475  0.921629  1
  Fe  Fe8  1  0.328201  0.328201  0.014935  1
  Fe  Fe9  1  0.125000  0.125000  0.625000  1
  Fe  Fe10  1  0.921799  0.921799  0.921339  1
  Fe  Fe11  1  0.125000  0.125000  0.125000  1
  W  W12  1  0.302663  0.699072  0.695210  1
  W  W13  1  0.301147  0.301147  0.698853  1
  W  W14  1  0.550928  0.947337  0.554790  1
  W  W15  1  0.947337  0.550928  0.554790  1
  W  W16  1  0.550928  0.947337  0.946945  1
  W  W17  1  0.699072  0.302663  0.303055  1
  W  W18  1  0.947337  0.550928  0.946945  1
  W  W19  1  0.302663  0.699072  0.303055  1
  W  W20  1  0.553699  0.553699  0.946301  1
  W  W21  1  0.699072  0.302663  0.695210  1
  W  W22  1  0.696301  0.696301  0.303699  1
  W  W23  1  0.948853  0.948853  0.551147  1
  C  C24  1  0.751092  0.751092  0.748908  1
  C  C25  1  0.498908  0.498908  0.501092  1
