# generated using pymatgen
data_PrNd3(PPt3)8
_symmetry_space_group_name_H-M   'P 1'
_cell_length_a   8.55740700
_cell_length_b   8.55740700
_cell_length_c   8.55740700
_cell_angle_alpha   89.99742891
_cell_angle_beta   90.00257109
_cell_angle_gamma   90.00257109
_symmetry_Int_Tables_number   1
_chemical_formula_structural   PrNd3(PPt3)8
_chemical_formula_sum   'Pr1 Nd3 P8 Pt24'
_cell_volume   626.65219237
_cell_formula_units_Z   1
loop_
 _symmetry_equiv_pos_site_id
 _symmetry_equiv_pos_as_xyz
  1  'x, y, z'
loop_
 _atom_site_type_symbol
 _atom_site_label
 _atom_site_symmetry_multiplicity
 _atom_site_fract_x
 _atom_site_fract_y
 _atom_site_fract_z
 _atom_site_occupancy
  Pr  Pr0  1  0.500000  0.500000  0.000000  1
  Nd  Nd1  1  0.500000  0.000000  0.500000  1
  Nd  Nd2  1  0.000000  0.500000  0.500000  1
  Nd  Nd3  1  0.000000  0.000000  0.000000  1
  P  P4  1  0.805329  0.305330  0.194722  1
  P  P5  1  0.194663  0.805337  0.305337  1
  P  P6  1  0.694670  0.694722  0.694671  1
  P  P7  1  0.305278  0.194671  0.805330  1
  P  P8  1  0.194671  0.694670  0.805278  1
  P  P9  1  0.805337  0.194663  0.694663  1
  P  P10  1  0.305330  0.305278  0.305329  1
  P  P11  1  0.694722  0.805329  0.194670  1
  Pt  Pt12  1  0.422577  0.843442  0.158581  1
  Pt  Pt13  1  0.577405  0.343027  0.341912  1
  Pt  Pt14  1  0.077359  0.156766  0.658409  1
  Pt  Pt15  1  0.922623  0.656822  0.841565  1
  Pt  Pt16  1  0.158088  0.422595  0.843027  1
  Pt  Pt17  1  0.341419  0.577423  0.343442  1
  Pt  Pt18  1  0.658435  0.077377  0.156822  1
  Pt  Pt19  1  0.841591  0.922641  0.656766  1
  Pt  Pt20  1  0.843234  0.158409  0.422641  1
  Pt  Pt21  1  0.343178  0.341565  0.577377  1
  Pt  Pt22  1  0.156558  0.658581  0.077423  1
  Pt  Pt23  1  0.656973  0.841912  0.922595  1
  Pt  Pt24  1  0.577423  0.156558  0.841419  1
  Pt  Pt25  1  0.422595  0.656973  0.658088  1
  Pt  Pt26  1  0.922641  0.843234  0.341591  1
  Pt  Pt27  1  0.077377  0.343178  0.158435  1
  Pt  Pt28  1  0.841912  0.577405  0.156973  1
  Pt  Pt29  1  0.658581  0.422577  0.656558  1
  Pt  Pt30  1  0.341565  0.922623  0.843178  1
  Pt  Pt31  1  0.158409  0.077359  0.343234  1
  Pt  Pt32  1  0.156766  0.841591  0.577359  1
  Pt  Pt33  1  0.656822  0.658435  0.422623  1
  Pt  Pt34  1  0.843442  0.341419  0.922577  1
  Pt  Pt35  1  0.343027  0.158088  0.077405  1
