# generated using pymatgen
data_Er12TmTh3(MgNi)4
_symmetry_space_group_name_H-M   'P 1'
_cell_length_a   9.54956122
_cell_length_b   9.55965610
_cell_length_c   9.57379000
_cell_angle_alpha   59.95107281
_cell_angle_beta   59.91602889
_cell_angle_gamma   59.88235310
_symmetry_Int_Tables_number   1
_chemical_formula_structural   Er12TmTh3(MgNi)4
_chemical_formula_sum   'Er12 Tm1 Th3 Mg4 Ni4'
_cell_volume   616.83744091
_cell_formula_units_Z   1
loop_
 _symmetry_equiv_pos_site_id
 _symmetry_equiv_pos_as_xyz
  1  'x, y, z'
loop_
 _atom_site_type_symbol
 _atom_site_label
 _atom_site_symmetry_multiplicity
 _atom_site_fract_x
 _atom_site_fract_y
 _atom_site_fract_z
 _atom_site_occupancy
  Er  Er0  1  0.206915  0.598646  0.597220  1
  Er  Er1  1  0.063611  0.436970  0.437205  1
  Er  Er2  1  0.437613  0.063626  0.062509  1
  Er  Er3  1  0.437613  0.063626  0.436252  1
  Er  Er4  1  0.063611  0.436970  0.062214  1
  Er  Er5  1  0.439005  0.438081  0.061457  1
  Er  Er6  1  0.063325  0.062983  0.436846  1
  Er  Er7  1  0.184656  0.818479  0.816758  1
  Er  Er8  1  0.815361  0.184780  0.182958  1
  Er  Er9  1  0.815361  0.184780  0.816899  1
  Er  Er10  1  0.184656  0.818479  0.180107  1
  Er  Er11  1  0.816493  0.816989  0.183258  1
  Tm  Tm12  1  0.183440  0.183997  0.816282  1
  Th  Th13  1  0.591439  0.597593  0.598246  1
  Th  Th14  1  0.591439  0.597593  0.212722  1
  Th  Th15  1  0.591448  0.208400  0.600076  1
  Mg  Mg16  1  0.832488  0.827619  0.830088  1
  Mg  Mg17  1  0.832488  0.827619  0.509804  1
  Mg  Mg18  1  0.832180  0.509953  0.828933  1
  Mg  Mg19  1  0.509036  0.828835  0.831064  1
  Ni  Ni20  1  0.396647  0.389644  0.391419  1
  Ni  Ni21  1  0.396647  0.389644  0.822291  1
  Ni  Ni22  1  0.394106  0.823314  0.391291  1
  Ni  Ni23  1  0.820415  0.391381  0.394103  1
