# generated using pymatgen
data_IrSF34
_symmetry_space_group_name_H-M   'P 1'
_cell_length_a   8.71695041
_cell_length_b   8.54491130
_cell_length_c   10.08903338
_cell_angle_alpha   79.87621634
_cell_angle_beta   86.70622446
_cell_angle_gamma   66.21981603
_symmetry_Int_Tables_number   1
_chemical_formula_structural   IrSF34
_chemical_formula_sum   'Ir1 S1 F34'
_cell_volume   676.90328561
_cell_formula_units_Z   1
loop_
 _symmetry_equiv_pos_site_id
 _symmetry_equiv_pos_as_xyz
  1  'x, y, z'
loop_
 _atom_site_type_symbol
 _atom_site_label
 _atom_site_symmetry_multiplicity
 _atom_site_fract_x
 _atom_site_fract_y
 _atom_site_fract_z
 _atom_site_occupancy
  Ir  Ir0  1  0.132195  0.749430  0.242258  1
  S  S1  1  0.863994  0.248507  0.759569  1
  F  F2  1  0.621429  0.202149  0.475969  1
  F  F3  1  0.388934  0.786414  0.530510  1
  F  F4  1  0.827716  0.701915  0.712359  1
  F  F5  1  0.174062  0.298537  0.277969  1
  F  F6  1  0.091922  0.746396  0.863957  1
  F  F7  1  0.907679  0.248086  0.133474  1
  F  F8  1  0.560035  0.143416  0.374697  1
  F  F9  1  0.437651  0.862830  0.626830  1
  F  F10  1  0.675515  0.318183  0.704630  1
  F  F11  1  0.352303  0.667045  0.309416  1
  F  F12  1  0.919205  0.093882  0.674684  1
  F  F13  1  0.062506  0.926255  0.347092  1
  F  F14  1  0.905493  0.367085  0.634580  1
  F  F15  1  0.083313  0.606024  0.385967  1
  F  F16  1  0.856141  0.821016  0.606392  1
  F  F17  1  0.154955  0.184011  0.392514  1
  F  F18  1  0.808960  0.403590  0.844542  1
  F  F19  1  0.198731  0.571056  0.138626  1
  F  F20  1  0.215432  0.689286  0.764455  1
  F  F21  1  0.786540  0.312710  0.232944  1
  F  F22  1  0.913628  0.831654  0.172494  1
  F  F23  1  0.051584  0.179067  0.815565  1
  F  F24  1  0.821574  0.129688  0.884537  1
  F  F25  1  0.182917  0.893760  0.099811  1
  F  F26  1  0.499218  0.589270  0.986547  1
  F  F27  1  0.511233  0.415271  0.007273  1
  F  F28  1  0.449350  0.094525  0.866008  1
  F  F29  1  0.545586  0.911044  0.134336  1
  F  F30  1  0.286463  0.266772  0.602790  1
  F  F31  1  0.712433  0.732656  0.399032  1
  F  F32  1  0.259072  0.403096  0.677247  1
  F  F33  1  0.742115  0.595671  0.324818  1
  F  F34  1  0.560466  0.931490  0.832401  1
  F  F35  1  0.439653  0.078216  0.163709  1
