# generated using pymatgen
data_U3PaBi2Sb3
_symmetry_space_group_name_H-M   'P 1'
_cell_length_a   9.51840700
_cell_length_b   9.51840739
_cell_length_c   6.28497600
_cell_angle_alpha   90.00000000
_cell_angle_beta   90.00000000
_cell_angle_gamma   119.99999518
_symmetry_Int_Tables_number   1
_chemical_formula_structural   U3PaBi2Sb3
_chemical_formula_sum   'U6 Pa2 Bi4 Sb6'
_cell_volume   493.13160320
_cell_formula_units_Z   2
loop_
 _symmetry_equiv_pos_site_id
 _symmetry_equiv_pos_as_xyz
  1  'x, y, z'
loop_
 _atom_site_type_symbol
 _atom_site_label
 _atom_site_symmetry_multiplicity
 _atom_site_fract_x
 _atom_site_fract_y
 _atom_site_fract_z
 _atom_site_occupancy
  U  U0  1  0.000000  0.619846  0.250000  1
  U  U1  1  0.000000  0.380154  0.750000  1
  U  U2  1  0.380154  0.000000  0.750000  1
  U  U3  1  0.380154  0.380154  0.250000  1
  U  U4  1  0.619846  0.000000  0.250000  1
  U  U5  1  0.619846  0.619846  0.750000  1
  Pa  Pa6  1  0.000000  0.000000  0.000000  1
  Pa  Pa7  1  0.000000  0.000000  0.500000  1
  Bi  Bi8  1  0.666667  0.333333  0.000000  1
  Bi  Bi9  1  0.333333  0.666667  0.500000  1
  Bi  Bi10  1  0.666667  0.333333  0.500000  1
  Bi  Bi11  1  0.333333  0.666667  0.000000  1
  Sb  Sb12  1  0.717902  0.000000  0.750000  1
  Sb  Sb13  1  0.282098  0.282098  0.750000  1
  Sb  Sb14  1  0.000000  0.717902  0.750000  1
  Sb  Sb15  1  0.282098  0.000000  0.250000  1
  Sb  Sb16  1  0.717902  0.717902  0.250000  1
  Sb  Sb17  1  0.000000  0.282098  0.250000  1
