# generated using pymatgen
data_KSr(IrCl6)2
_symmetry_space_group_name_H-M   'P 1'
_cell_length_a   6.32527306
_cell_length_b   6.32527585
_cell_length_c   10.94586200
_cell_angle_alpha   83.82967280
_cell_angle_beta   83.82965185
_cell_angle_gamma   79.38056302
_symmetry_Int_Tables_number   1
_chemical_formula_structural   KSr(IrCl6)2
_chemical_formula_sum   'K1 Sr1 Ir2 Cl12'
_cell_volume   426.21385355
_cell_formula_units_Z   1
loop_
 _symmetry_equiv_pos_site_id
 _symmetry_equiv_pos_as_xyz
  1  'x, y, z'
loop_
 _atom_site_type_symbol
 _atom_site_label
 _atom_site_symmetry_multiplicity
 _atom_site_fract_x
 _atom_site_fract_y
 _atom_site_fract_z
 _atom_site_occupancy
  K  K0  1  0.995348  0.004652  0.750000  1
  Sr  Sr1  1  0.983815  0.016185  0.250000  1
  Ir  Ir2  1  0.486049  0.982336  0.493118  1
  Ir  Ir3  1  0.017664  0.513951  0.006882  1
  Cl  Cl4  1  0.346603  0.684557  0.576257  1
  Cl  Cl5  1  0.633458  0.281968  0.407996  1
  Cl  Cl6  1  0.315443  0.653397  0.923743  1
  Cl  Cl7  1  0.718032  0.366542  0.092004  1
  Cl  Cl8  1  0.497609  0.085557  0.689871  1
  Cl  Cl9  1  0.471540  0.889457  0.291259  1
  Cl  Cl10  1  0.914443  0.502391  0.810129  1
  Cl  Cl11  1  0.110543  0.528460  0.208741  1
  Cl  Cl12  1  0.809863  0.857676  0.018888  1
  Cl  Cl13  1  0.221185  0.163920  0.007516  1
  Cl  Cl14  1  0.142324  0.190137  0.481112  1
  Cl  Cl15  1  0.836080  0.778815  0.492484  1
