# generated using pymatgen
data_La2TbTm3(IrO7)2
_symmetry_space_group_name_H-M   'P 1'
_cell_length_a   6.44882562
_cell_length_b   6.45691898
_cell_length_c   7.49047600
_cell_angle_alpha   90.00000000
_cell_angle_beta   90.00000000
_cell_angle_gamma   109.36002806
_symmetry_Int_Tables_number   1
_chemical_formula_structural   La2TbTm3(IrO7)2
_chemical_formula_sum   'La2 Tb1 Tm3 Ir2 O14'
_cell_volume   294.26336044
_cell_formula_units_Z   1
loop_
 _symmetry_equiv_pos_site_id
 _symmetry_equiv_pos_as_xyz
  1  'x, y, z'
loop_
 _atom_site_type_symbol
 _atom_site_label
 _atom_site_symmetry_multiplicity
 _atom_site_fract_x
 _atom_site_fract_y
 _atom_site_fract_z
 _atom_site_occupancy
  La  La0  1  0.996978  0.998687  0.501373  1
  La  La1  1  0.996978  0.998687  0.998627  1
  Tb  Tb2  1  0.063106  0.515713  0.250000  1
  Tm  Tm3  1  0.512355  0.057434  0.250000  1
  Tm  Tm4  1  0.940534  0.487668  0.750000  1
  Tm  Tm5  1  0.486464  0.941325  0.750000  1
  Ir  Ir6  1  0.499414  0.498440  0.501521  1
  Ir  Ir7  1  0.499414  0.498440  0.998479  1
  O  O8  1  0.444610  0.179361  0.534134  1
  O  O9  1  0.820861  0.559337  0.469605  1
  O  O10  1  0.444610  0.179361  0.965866  1
  O  O11  1  0.820861  0.559337  0.030395  1
  O  O12  1  0.552516  0.818635  0.466876  1
  O  O13  1  0.180050  0.438717  0.537704  1
  O  O14  1  0.552516  0.818635  0.033124  1
  O  O15  1  0.180050  0.438717  0.962296  1
  O  O16  1  0.161111  0.881945  0.250000  1
  O  O17  1  0.126298  0.837230  0.750000  1
  O  O18  1  0.835707  0.126827  0.750000  1
  O  O19  1  0.871232  0.159244  0.250000  1
  O  O20  1  0.415461  0.407943  0.250000  1
  O  O21  1  0.598877  0.598312  0.750000  1
