# generated using pymatgen
data_Cs3AsSO3
_symmetry_space_group_name_H-M   'P 1'
_cell_length_a   6.52278100
_cell_length_b   7.17694027
_cell_length_c   9.62923803
_cell_angle_alpha   79.81324460
_cell_angle_beta   90.00000000
_cell_angle_gamma   90.00000000
_symmetry_Int_Tables_number   1
_chemical_formula_structural   Cs3AsSO3
_chemical_formula_sum   'Cs6 As2 S2 O6'
_cell_volume   443.67353726
_cell_formula_units_Z   2
loop_
 _symmetry_equiv_pos_site_id
 _symmetry_equiv_pos_as_xyz
  1  'x, y, z'
loop_
 _atom_site_type_symbol
 _atom_site_label
 _atom_site_symmetry_multiplicity
 _atom_site_fract_x
 _atom_site_fract_y
 _atom_site_fract_z
 _atom_site_occupancy
  Cs  Cs0  1  0.750000  0.689260  0.471037  1
  Cs  Cs1  1  0.250000  0.250945  0.004069  1
  Cs  Cs2  1  0.250000  0.310740  0.528963  1
  Cs  Cs3  1  0.750000  0.749055  0.995931  1
  Cs  Cs4  1  0.250000  0.768314  0.737813  1
  Cs  Cs5  1  0.750000  0.231686  0.262187  1
  As  As6  1  0.750000  0.307129  0.788274  1
  As  As7  1  0.250000  0.692871  0.211726  1
  S  S8  1  0.750000  0.080761  0.656644  1
  S  S9  1  0.250000  0.919239  0.343356  1
  O  O10  1  0.250000  0.793035  0.035065  1
  O  O11  1  0.750000  0.206965  0.964935  1
  O  O12  1  0.965962  0.446060  0.747390  1
  O  O13  1  0.034038  0.553940  0.252610  1
  O  O14  1  0.534038  0.446060  0.747390  1
  O  O15  1  0.465962  0.553940  0.252610  1
