# generated using pymatgen
data_Tm3ZrAl16(SiRh3)2
_symmetry_space_group_name_H-M   'P 1'
_cell_length_a   7.50533705
_cell_length_b   7.48980706
_cell_length_c   9.28757700
_cell_angle_alpha   90.00000000
_cell_angle_beta   90.00000000
_cell_angle_gamma   119.50176371
_symmetry_Int_Tables_number   1
_chemical_formula_structural   Tm3ZrAl16(SiRh3)2
_chemical_formula_sum   'Tm3 Zr1 Al16 Si2 Rh6'
_cell_volume   454.39387623
_cell_formula_units_Z   1
loop_
 _symmetry_equiv_pos_site_id
 _symmetry_equiv_pos_as_xyz
  1  'x, y, z'
loop_
 _atom_site_type_symbol
 _atom_site_label
 _atom_site_symmetry_multiplicity
 _atom_site_fract_x
 _atom_site_fract_y
 _atom_site_fract_z
 _atom_site_occupancy
  Tm  Tm0  1  0.006025  0.322800  0.750000  1
  Tm  Tm1  1  0.675824  0.994189  0.250000  1
  Tm  Tm2  1  0.324536  0.006446  0.750000  1
  Zr  Zr3  1  0.992993  0.675357  0.250000  1
  Al  Al4  1  0.000156  0.338812  0.079217  1
  Al  Al5  1  0.000386  0.664033  0.927429  1
  Al  Al6  1  0.000386  0.664033  0.572571  1
  Al  Al7  1  0.334029  0.998696  0.419930  1
  Al  Al8  1  0.000156  0.338812  0.420783  1
  Al  Al9  1  0.663310  0.998865  0.576667  1
  Al  Al10  1  0.663310  0.998865  0.923333  1
  Al  Al11  1  0.334029  0.998696  0.080070  1
  Al  Al12  1  0.335375  0.335419  0.554488  1
  Al  Al13  1  0.667786  0.665616  0.440577  1
  Al  Al14  1  0.667786  0.665616  0.059423  1
  Al  Al15  1  0.335375  0.335419  0.945512  1
  Al  Al16  1  0.332210  0.551328  0.250000  1
  Al  Al17  1  0.665513  0.451769  0.750000  1
  Al  Al18  1  0.555150  0.338544  0.250000  1
  Al  Al19  1  0.448420  0.662738  0.750000  1
  Si  Si20  1  0.123942  0.122533  0.250000  1
  Si  Si21  1  0.870956  0.869283  0.750000  1
  Rh  Rh22  1  0.672675  0.327922  0.000601  1
  Rh  Rh23  1  0.328897  0.673095  0.001110  1
  Rh  Rh24  1  0.328897  0.673095  0.498890  1
  Rh  Rh25  1  0.672675  0.327922  0.499399  1
  Rh  Rh26  1  0.999602  0.000048  0.000902  1
  Rh  Rh27  1  0.999602  0.000048  0.499098  1
