# generated using pymatgen
data_La2SiPtCl
_symmetry_space_group_name_H-M   'P 1'
_cell_length_a   4.28600800
_cell_length_b   4.28600767
_cell_length_c   16.51631000
_cell_angle_alpha   90.00000000
_cell_angle_beta   90.00000000
_cell_angle_gamma   119.99998715
_symmetry_Int_Tables_number   1
_chemical_formula_structural   La2SiPtCl
_chemical_formula_sum   'La4 Si2 Pt2 Cl2'
_cell_volume   262.75418045
_cell_formula_units_Z   2
loop_
 _symmetry_equiv_pos_site_id
 _symmetry_equiv_pos_as_xyz
  1  'x, y, z'
loop_
 _atom_site_type_symbol
 _atom_site_label
 _atom_site_symmetry_multiplicity
 _atom_site_fract_x
 _atom_site_fract_y
 _atom_site_fract_z
 _atom_site_occupancy
  La  La0  1  0.000000  0.000000  0.114089  1
  La  La1  1  0.000000  0.000000  0.614089  1
  La  La2  1  0.000000  0.000000  0.882738  1
  La  La3  1  0.000000  0.000000  0.382738  1
  Si  Si4  1  0.666667  0.333333  0.989822  1
  Si  Si5  1  0.333333  0.666667  0.489822  1
  Pt  Pt6  1  0.333333  0.666667  0.011522  1
  Pt  Pt7  1  0.666667  0.333333  0.511522  1
  Cl  Cl8  1  0.666667  0.333333  0.251829  1
  Cl  Cl9  1  0.333333  0.666667  0.751829  1
