# generated using pymatgen
data_Dy4Al4OsPt3
_symmetry_space_group_name_H-M   'P 1'
_cell_length_a   4.35998400
_cell_length_b   6.86102481
_cell_length_c   7.90046411
_cell_angle_alpha   89.75775132
_cell_angle_beta   90.00000000
_cell_angle_gamma   90.00000000
_symmetry_Int_Tables_number   1
_chemical_formula_structural   Dy4Al4OsPt3
_chemical_formula_sum   'Dy4 Al4 Os1 Pt3'
_cell_volume   236.33204233
_cell_formula_units_Z   1
loop_
 _symmetry_equiv_pos_site_id
 _symmetry_equiv_pos_as_xyz
  1  'x, y, z'
loop_
 _atom_site_type_symbol
 _atom_site_label
 _atom_site_symmetry_multiplicity
 _atom_site_fract_x
 _atom_site_fract_y
 _atom_site_fract_z
 _atom_site_occupancy
  Dy  Dy0  1  0.250000  0.470726  0.181288  1
  Dy  Dy1  1  0.750000  0.533283  0.814270  1
  Dy  Dy2  1  0.750000  0.021732  0.678818  1
  Dy  Dy3  1  0.250000  0.966903  0.322332  1
  Al  Al4  1  0.250000  0.856979  0.936184  1
  Al  Al5  1  0.750000  0.141125  0.061515  1
  Al  Al6  1  0.750000  0.644950  0.440448  1
  Al  Al7  1  0.250000  0.361411  0.562642  1
  Os  Os8  1  0.250000  0.733396  0.621069  1
  Pt  Pt9  1  0.750000  0.269639  0.378878  1
  Pt  Pt10  1  0.750000  0.769127  0.119504  1
  Pt  Pt11  1  0.250000  0.230730  0.883053  1
