# generated using pymatgen
data_PrU9O20
_symmetry_space_group_name_H-M   'P 1'
_cell_length_a   6.66422396
_cell_length_b   7.69619703
_cell_length_c   8.60451700
_cell_angle_alpha   102.98115386
_cell_angle_beta   97.41572518
_cell_angle_gamma   106.75162074
_symmetry_Int_Tables_number   1
_chemical_formula_structural   PrU9O20
_chemical_formula_sum   'Pr1 U9 O20'
_cell_volume   402.80987720
_cell_formula_units_Z   1
loop_
 _symmetry_equiv_pos_site_id
 _symmetry_equiv_pos_as_xyz
  1  'x, y, z'
loop_
 _atom_site_type_symbol
 _atom_site_label
 _atom_site_symmetry_multiplicity
 _atom_site_fract_x
 _atom_site_fract_y
 _atom_site_fract_z
 _atom_site_occupancy
  Pr  Pr0  1  0.000000  0.000000  0.000000  1
  U  U1  1  0.000000  0.500000  0.000000  1
  U  U2  1  0.400051  0.799457  0.800634  1
  U  U3  1  0.399548  0.300162  0.799930  1
  U  U4  1  0.798728  0.100058  0.599338  1
  U  U5  1  0.799649  0.599355  0.598940  1
  U  U6  1  0.200351  0.400645  0.401060  1
  U  U7  1  0.201272  0.899942  0.400662  1
  U  U8  1  0.600452  0.699838  0.200070  1
  U  U9  1  0.599949  0.200543  0.199366  1
  O  O10  1  0.362020  0.078683  0.946089  1
  O  O11  1  0.352496  0.574461  0.950887  1
  O  O12  1  0.050360  0.233726  0.844457  1
  O  O13  1  0.052806  0.714022  0.843660  1
  O  O14  1  0.446410  0.522027  0.649244  1
  O  O15  1  0.447227  0.025395  0.647280  1
  O  O16  1  0.744619  0.373832  0.749672  1
  O  O17  1  0.738799  0.869943  0.741078  1
  O  O18  1  0.150596  0.674729  0.546981  1
  O  O19  1  0.148238  0.174157  0.549137  1
  O  O20  1  0.849404  0.325271  0.453019  1
  O  O21  1  0.553590  0.477973  0.350756  1
  O  O22  1  0.552773  0.974605  0.352720  1
  O  O23  1  0.851762  0.825843  0.450863  1
  O  O24  1  0.261201  0.130057  0.258922  1
  O  O25  1  0.255381  0.626168  0.250328  1
  O  O26  1  0.647504  0.425539  0.049113  1
  O  O27  1  0.637980  0.921317  0.053911  1
  O  O28  1  0.947194  0.285978  0.156340  1
  O  O29  1  0.949640  0.766274  0.155543  1
