# generated using pymatgen
data_Hf6Zr4Zn2Sn5Sb
_symmetry_space_group_name_H-M   'P 1'
_cell_length_a   8.65469300
_cell_length_b   8.66003544
_cell_length_c   5.85729400
_cell_angle_alpha   90.00000000
_cell_angle_beta   90.00000000
_cell_angle_gamma   119.97959877
_symmetry_Int_Tables_number   1
_chemical_formula_structural   Hf6Zr4Zn2Sn5Sb
_chemical_formula_sum   'Hf6 Zr4 Zn2 Sn5 Sb1'
_cell_volume   380.26664740
_cell_formula_units_Z   1
loop_
 _symmetry_equiv_pos_site_id
 _symmetry_equiv_pos_as_xyz
  1  'x, y, z'
loop_
 _atom_site_type_symbol
 _atom_site_label
 _atom_site_symmetry_multiplicity
 _atom_site_fract_x
 _atom_site_fract_y
 _atom_site_fract_z
 _atom_site_occupancy
  Hf  Hf0  1  0.999858  0.731048  0.750000  1
  Hf  Hf1  1  0.268812  0.268952  0.750000  1
  Hf  Hf2  1  0.333511  0.667009  0.500599  1
  Hf  Hf3  1  0.666502  0.332991  0.999401  1
  Hf  Hf4  1  0.666502  0.332991  0.500599  1
  Hf  Hf5  1  0.333511  0.667009  0.999401  1
  Zr  Zr6  1  0.732107  0.733042  0.250000  1
  Zr  Zr7  1  0.730912  0.000000  0.750000  1
  Zr  Zr8  1  0.999067  0.266958  0.250000  1
  Zr  Zr9  1  0.268675  0.000000  0.250000  1
  Zn  Zn10  1  0.001779  0.000000  0.997179  1
  Zn  Zn11  1  0.001779  0.000000  0.502821  1
  Sn  Sn12  1  0.382789  0.000000  0.750000  1
  Sn  Sn13  1  0.384990  0.385344  0.250000  1
  Sn  Sn14  1  0.999646  0.614656  0.250000  1
  Sn  Sn15  1  0.001161  0.386776  0.750000  1
  Sn  Sn16  1  0.614385  0.613224  0.750000  1
  Sb  Sb17  1  0.614013  0.000000  0.250000  1
