# generated using pymatgen
data_Pr4Ga4Pd3Ru
_symmetry_space_group_name_H-M   'P 1'
_cell_length_a   4.54535300
_cell_length_b   7.19646245
_cell_length_c   7.82843347
_cell_angle_alpha   89.96005800
_cell_angle_beta   90.00000000
_cell_angle_gamma   90.00000000
_symmetry_Int_Tables_number   1
_chemical_formula_structural   Pr4Ga4Pd3Ru
_chemical_formula_sum   'Pr4 Ga4 Pd3 Ru1'
_cell_volume   256.07161451
_cell_formula_units_Z   1
loop_
 _symmetry_equiv_pos_site_id
 _symmetry_equiv_pos_as_xyz
  1  'x, y, z'
loop_
 _atom_site_type_symbol
 _atom_site_label
 _atom_site_symmetry_multiplicity
 _atom_site_fract_x
 _atom_site_fract_y
 _atom_site_fract_z
 _atom_site_occupancy
  Pr  Pr0  1  0.250000  0.030428  0.685410  1
  Pr  Pr1  1  0.250000  0.526938  0.810050  1
  Pr  Pr2  1  0.750000  0.981815  0.305803  1
  Pr  Pr3  1  0.750000  0.474985  0.198525  1
  Ga  Ga4  1  0.250000  0.169677  0.077441  1
  Ga  Ga5  1  0.250000  0.655414  0.427887  1
  Ga  Ga6  1  0.750000  0.836683  0.925457  1
  Ga  Ga7  1  0.750000  0.330181  0.571039  1
  Pd  Pd8  1  0.250000  0.790018  0.102763  1
  Pd  Pd9  1  0.750000  0.711279  0.601791  1
  Pd  Pd10  1  0.750000  0.212940  0.896717  1
  Ru  Ru11  1  0.250000  0.279644  0.397118  1
