# generated using pymatgen
data_CsSm6(CBr6)2
_symmetry_space_group_name_H-M   'P 1'
_cell_length_a   9.08504349
_cell_length_b   9.06006090
_cell_length_c   9.59310100
_cell_angle_alpha   71.86564152
_cell_angle_beta   70.50837864
_cell_angle_gamma   72.42906938
_symmetry_Int_Tables_number   1
_chemical_formula_structural   CsSm6(CBr6)2
_chemical_formula_sum   'Cs1 Sm6 C2 Br12'
_cell_volume   689.89277580
_cell_formula_units_Z   1
loop_
 _symmetry_equiv_pos_site_id
 _symmetry_equiv_pos_as_xyz
  1  'x, y, z'
loop_
 _atom_site_type_symbol
 _atom_site_label
 _atom_site_symmetry_multiplicity
 _atom_site_fract_x
 _atom_site_fract_y
 _atom_site_fract_z
 _atom_site_occupancy
  Cs  Cs0  1  0.000000  0.500001  0.999999  1
  Sm  Sm1  1  0.476749  0.116881  0.180700  1
  Sm  Sm2  1  0.781559  0.032188  0.405708  1
  Sm  Sm3  1  0.594862  0.720702  0.475729  1
  Sm  Sm4  1  0.405138  0.279299  0.524271  1
  Sm  Sm5  1  0.218441  0.967812  0.594292  1
  Sm  Sm6  1  0.523251  0.883119  0.819299  1
  C  C7  1  0.493864  0.026045  0.424010  1
  C  C8  1  0.506137  0.973955  0.575988  1
  Br  Br9  1  0.799852  0.160058  0.081599  1
  Br  Br10  1  0.587179  0.782822  0.143097  1
  Br  Br11  1  0.351065  0.434243  0.222981  1
  Br  Br12  1  0.137440  0.071106  0.294149  1
  Br  Br13  1  0.925749  0.720626  0.353957  1
  Br  Br14  1  0.716001  0.365445  0.429495  1
  Br  Br15  1  0.283999  0.634555  0.570504  1
  Br  Br16  1  0.074251  0.279374  0.646043  1
  Br  Br17  1  0.862561  0.928892  0.705852  1
  Br  Br18  1  0.648937  0.565757  0.777022  1
  Br  Br19  1  0.412823  0.217177  0.856903  1
  Br  Br20  1  0.200147  0.839941  0.918401  1
