# generated using pymatgen
data_La9Nd7Cd4IrPd3
_symmetry_space_group_name_H-M   'P 1'
_cell_length_a   10.13781709
_cell_length_b   10.09477508
_cell_length_c   10.09654800
_cell_angle_alpha   59.99419012
_cell_angle_beta   60.13457009
_cell_angle_gamma   60.32664803
_symmetry_Int_Tables_number   1
_chemical_formula_structural   La9Nd7Cd4IrPd3
_chemical_formula_sum   'La9 Nd7 Cd4 Ir1 Pd3'
_cell_volume   733.13239210
_cell_formula_units_Z   1
loop_
 _symmetry_equiv_pos_site_id
 _symmetry_equiv_pos_as_xyz
  1  'x, y, z'
loop_
 _atom_site_type_symbol
 _atom_site_label
 _atom_site_symmetry_multiplicity
 _atom_site_fract_x
 _atom_site_fract_y
 _atom_site_fract_z
 _atom_site_occupancy
  La  La0  1  0.352360  0.347299  0.347161  1
  La  La1  1  0.352360  0.347299  0.953179  1
  La  La2  1  0.355136  0.950863  0.347001  1
  La  La3  1  0.939400  0.354698  0.352951  1
  La  La4  1  0.804370  0.189549  0.191740  1
  La  La5  1  0.195056  0.806169  0.805895  1
  La  La6  1  0.195056  0.806169  0.192879  1
  La  La7  1  0.804370  0.189549  0.814341  1
  La  La8  1  0.196525  0.192251  0.805611  1
  Nd  Nd9  1  0.804644  0.811511  0.191922  1
  Nd  Nd10  1  0.936611  0.565776  0.565651  1
  Nd  Nd11  1  0.568660  0.935145  0.934008  1
  Nd  Nd12  1  0.568660  0.935145  0.562187  1
  Nd  Nd13  1  0.936611  0.565776  0.931962  1
  Nd  Nd14  1  0.568479  0.562366  0.934577  1
  Nd  Nd15  1  0.935958  0.932755  0.565643  1
  Cd  Cd16  1  0.579807  0.581847  0.580687  1
  Cd  Cd17  1  0.579807  0.581847  0.257658  1
  Cd  Cd18  1  0.579380  0.257434  0.581592  1
  Cd  Cd19  1  0.258713  0.580325  0.580480  1
  Ir  Ir20  1  0.571440  0.144646  0.141957  1
  Pd  Pd21  1  0.138655  0.144855  0.145073  1
  Pd  Pd22  1  0.138655  0.144855  0.571416  1
  Pd  Pd23  1  0.139284  0.571867  0.144424  1
