# generated using pymatgen
data_Yb3(Si4P7)2
_symmetry_space_group_name_H-M   'P 1'
_cell_length_a   13.53349600
_cell_length_b   6.25772224
_cell_length_c   12.21674800
_cell_angle_alpha   89.04280430
_cell_angle_beta   90.00000000
_cell_angle_gamma   90.00000000
_symmetry_Int_Tables_number   1
_chemical_formula_structural   Yb3(Si4P7)2
_chemical_formula_sum   'Yb6 Si16 P28'
_cell_volume   1034.47807023
_cell_formula_units_Z   2
loop_
 _symmetry_equiv_pos_site_id
 _symmetry_equiv_pos_as_xyz
  1  'x, y, z'
loop_
 _atom_site_type_symbol
 _atom_site_label
 _atom_site_symmetry_multiplicity
 _atom_site_fract_x
 _atom_site_fract_y
 _atom_site_fract_z
 _atom_site_occupancy
  Yb  Yb0  1  0.500000  0.500000  0.500000  1
  Yb  Yb1  1  0.000000  0.000000  0.500000  1
  Yb  Yb2  1  0.342943  0.322234  0.169302  1
  Yb  Yb3  1  0.842943  0.177766  0.830698  1
  Yb  Yb4  1  0.657057  0.677766  0.830698  1
  Yb  Yb5  1  0.157057  0.822234  0.169302  1
  Si  Si6  1  0.687282  0.038261  0.584271  1
  Si  Si7  1  0.187282  0.461739  0.415729  1
  Si  Si8  1  0.312718  0.961739  0.415729  1
  Si  Si9  1  0.812718  0.538261  0.584271  1
  Si  Si10  1  0.686317  0.043388  0.389497  1
  Si  Si11  1  0.186317  0.456612  0.610503  1
  Si  Si12  1  0.313683  0.956612  0.610503  1
  Si  Si13  1  0.813683  0.543388  0.389497  1
  Si  Si14  1  0.687569  0.382882  0.149920  1
  Si  Si15  1  0.187569  0.117118  0.850080  1
  Si  Si16  1  0.312431  0.617118  0.850080  1
  Si  Si17  1  0.812431  0.882882  0.149920  1
  Si  Si18  1  0.954250  0.382835  0.152932  1
  Si  Si19  1  0.454250  0.117165  0.847068  1
  Si  Si20  1  0.045750  0.617165  0.847068  1
  Si  Si21  1  0.545750  0.882835  0.152932  1
  P  P22  1  0.952828  0.371804  0.338451  1
  P  P23  1  0.452828  0.128196  0.661549  1
  P  P24  1  0.047172  0.628196  0.661549  1
  P  P25  1  0.547172  0.871804  0.338451  1
  P  P26  1  0.551971  0.224669  0.081488  1
  P  P27  1  0.051971  0.275331  0.918512  1
  P  P28  1  0.448029  0.775331  0.918512  1
  P  P29  1  0.948029  0.724669  0.081488  1
  P  P30  1  0.946759  0.357192  0.641243  1
  P  P31  1  0.446759  0.142808  0.358757  1
  P  P32  1  0.053241  0.642808  0.358757  1
  P  P33  1  0.553241  0.857192  0.641243  1
  P  P34  1  0.105897  0.287173  0.091399  1
  P  P35  1  0.605897  0.212827  0.908601  1
  P  P36  1  0.894103  0.712827  0.908601  1
  P  P37  1  0.394103  0.787173  0.091399  1
  P  P38  1  0.821109  0.217144  0.074382  1
  P  P39  1  0.321109  0.282856  0.925618  1
  P  P40  1  0.178891  0.782856  0.925618  1
  P  P41  1  0.678891  0.717144  0.074382  1
  P  P42  1  0.671517  0.389814  0.333455  1
  P  P43  1  0.171517  0.110186  0.666545  1
  P  P44  1  0.328483  0.610186  0.666545  1
  P  P45  1  0.828483  0.889814  0.333455  1
  P  P46  1  0.677372  0.372570  0.647842  1
  P  P47  1  0.177372  0.127430  0.352158  1
  P  P48  1  0.322628  0.627430  0.352158  1
  P  P49  1  0.822628  0.872570  0.647842  1
