# generated using pymatgen
data_Eu2Ga9Ir2Pt
_symmetry_space_group_name_H-M   'P 1'
_cell_length_a   7.66686266
_cell_length_b   7.66686247
_cell_length_c   9.72520000
_cell_angle_alpha   90.00000000
_cell_angle_beta   90.00000000
_cell_angle_gamma   119.76603457
_symmetry_Int_Tables_number   1
_chemical_formula_structural   Eu2Ga9Ir2Pt
_chemical_formula_sum   'Eu4 Ga18 Ir4 Pt2'
_cell_volume   496.23066424
_cell_formula_units_Z   2
loop_
 _symmetry_equiv_pos_site_id
 _symmetry_equiv_pos_as_xyz
  1  'x, y, z'
loop_
 _atom_site_type_symbol
 _atom_site_label
 _atom_site_symmetry_multiplicity
 _atom_site_fract_x
 _atom_site_fract_y
 _atom_site_fract_z
 _atom_site_occupancy
  Eu  Eu0  1  0.664756  0.993749  0.250000  1
  Eu  Eu1  1  0.006251  0.335244  0.750000  1
  Eu  Eu2  1  0.001260  0.670464  0.250000  1
  Eu  Eu3  1  0.329536  0.998740  0.750000  1
  Ga  Ga4  1  0.669914  0.004343  0.923639  1
  Ga  Ga5  1  0.125796  0.127941  0.250000  1
  Ga  Ga6  1  0.995657  0.330086  0.423639  1
  Ga  Ga7  1  0.332985  0.329363  0.560855  1
  Ga  Ga8  1  0.337716  0.537442  0.250000  1
  Ga  Ga9  1  0.462558  0.662284  0.750000  1
  Ga  Ga10  1  0.872059  0.874204  0.750000  1
  Ga  Ga11  1  0.670637  0.667015  0.060855  1
  Ga  Ga12  1  0.670637  0.667015  0.439145  1
  Ga  Ga13  1  0.993730  0.665806  0.576852  1
  Ga  Ga14  1  0.993730  0.665806  0.923148  1
  Ga  Ga15  1  0.334194  0.006270  0.423148  1
  Ga  Ga16  1  0.660288  0.451475  0.750000  1
  Ga  Ga17  1  0.548525  0.339712  0.250000  1
  Ga  Ga18  1  0.332985  0.329363  0.939145  1
  Ga  Ga19  1  0.334194  0.006270  0.076852  1
  Ga  Ga20  1  0.669914  0.004343  0.576361  1
  Ga  Ga21  1  0.995657  0.330086  0.076361  1
  Ir  Ir22  1  0.669247  0.330753  0.500000  1
  Ir  Ir23  1  0.999488  0.000512  0.000000  1
  Ir  Ir24  1  0.999488  0.000512  0.500000  1
  Ir  Ir25  1  0.669247  0.330753  0.000000  1
  Pt  Pt26  1  0.329776  0.670224  0.500000  1
  Pt  Pt27  1  0.329776  0.670224  0.000000  1
