# generated using pymatgen
data_Rb4(RhO2)3
_symmetry_space_group_name_H-M   'P 1'
_cell_length_a   5.98848196
_cell_length_b   5.98848166
_cell_length_c   8.12786361
_cell_angle_alpha   87.83835930
_cell_angle_beta   87.83835483
_cell_angle_gamma   65.39651756
_symmetry_Int_Tables_number   1
_chemical_formula_structural   Rb4(RhO2)3
_chemical_formula_sum   'Rb4 Rh3 O6'
_cell_volume   264.75110267
_cell_formula_units_Z   1
loop_
 _symmetry_equiv_pos_site_id
 _symmetry_equiv_pos_as_xyz
  1  'x, y, z'
loop_
 _atom_site_type_symbol
 _atom_site_label
 _atom_site_symmetry_multiplicity
 _atom_site_fract_x
 _atom_site_fract_y
 _atom_site_fract_z
 _atom_site_occupancy
  Rb  Rb0  1  0.681319  0.681319  0.619297  1
  Rb  Rb1  1  0.318681  0.318681  0.380703  1
  Rb  Rb2  1  0.649848  0.649848  0.109542  1
  Rb  Rb3  1  0.350152  0.350152  0.890458  1
  Rh  Rh4  1  0.000000  0.000000  0.000000  1
  Rh  Rh5  1  0.966538  0.966538  0.319754  1
  Rh  Rh6  1  0.033462  0.033462  0.680246  1
  O  O7  1  0.114330  0.705497  0.151641  1
  O  O8  1  0.705497  0.114330  0.151641  1
  O  O9  1  0.885670  0.294503  0.848359  1
  O  O10  1  0.294503  0.885670  0.848359  1
  O  O11  1  0.200386  0.799614  0.500000  1
  O  O12  1  0.799614  0.200386  0.500000  1
