# generated using pymatgen
data_CeNd7Zn3Si12Ag
_symmetry_space_group_name_H-M   'P 1'
_cell_length_a   8.22936300
_cell_length_b   8.22922382
_cell_length_c   8.48652500
_cell_angle_alpha   89.99854071
_cell_angle_beta   90.00187435
_cell_angle_gamma   120.00024897
_symmetry_Int_Tables_number   1
_chemical_formula_structural   CeNd7Zn3Si12Ag
_chemical_formula_sum   'Ce1 Nd7 Zn3 Si12 Ag1'
_cell_volume   497.71935648
_cell_formula_units_Z   1
loop_
 _symmetry_equiv_pos_site_id
 _symmetry_equiv_pos_as_xyz
  1  'x, y, z'
loop_
 _atom_site_type_symbol
 _atom_site_label
 _atom_site_symmetry_multiplicity
 _atom_site_fract_x
 _atom_site_fract_y
 _atom_site_fract_z
 _atom_site_occupancy
  Ce  Ce0  1  0.000000  0.000000  0.749481  1
  Nd  Nd1  1  0.000000  0.000001  0.250604  1
  Nd  Nd2  1  0.498299  0.501702  0.748431  1
  Nd  Nd3  1  0.498293  0.996593  0.748434  1
  Nd  Nd4  1  0.003406  0.501707  0.748434  1
  Nd  Nd5  1  0.498963  0.501036  0.251649  1
  Nd  Nd6  1  0.002077  0.501035  0.251651  1
  Nd  Nd7  1  0.498964  0.997922  0.251651  1
  Zn  Zn8  1  0.666666  0.333332  0.498703  1
  Zn  Zn9  1  0.333336  0.666665  0.498048  1
  Zn  Zn10  1  0.333336  0.666665  0.003382  1
  Si  Si11  1  0.837040  0.162961  0.998647  1
  Si  Si12  1  0.837038  0.674071  0.998653  1
  Si  Si13  1  0.325930  0.162964  0.998652  1
  Si  Si14  1  0.834627  0.165374  0.502556  1
  Si  Si15  1  0.834623  0.669249  0.502551  1
  Si  Si16  1  0.330751  0.165378  0.502552  1
  Si  Si17  1  0.165745  0.834254  0.500913  1
  Si  Si18  1  0.668497  0.834253  0.500909  1
  Si  Si19  1  0.165746  0.331503  0.500908  1
  Si  Si20  1  0.165240  0.834760  0.998031  1
  Si  Si21  1  0.669513  0.834757  0.998024  1
  Si  Si22  1  0.165243  0.330487  0.998024  1
  Ag  Ag23  1  0.666667  0.333333  0.999112  1
