# generated using pymatgen
data_La4YCo2
_symmetry_space_group_name_H-M   'P 1'
_cell_length_a   9.11644266
_cell_length_b   9.11644335
_cell_length_c   7.02009255
_cell_angle_alpha   86.01409470
_cell_angle_beta   86.01408972
_cell_angle_gamma   42.44908851
_symmetry_Int_Tables_number   1
_chemical_formula_structural   La4YCo2
_chemical_formula_sum   'La8 Y2 Co4'
_cell_volume   392.68533176
_cell_formula_units_Z   2
loop_
 _symmetry_equiv_pos_site_id
 _symmetry_equiv_pos_as_xyz
  1  'x, y, z'
loop_
 _atom_site_type_symbol
 _atom_site_label
 _atom_site_symmetry_multiplicity
 _atom_site_fract_x
 _atom_site_fract_y
 _atom_site_fract_z
 _atom_site_occupancy
  La  La0  1  0.015216  0.797967  0.896775  1
  La  La1  1  0.202033  0.984784  0.603225  1
  La  La2  1  0.984784  0.202033  0.103225  1
  La  La3  1  0.797967  0.015216  0.396775  1
  La  La4  1  0.363182  0.219335  0.833870  1
  La  La5  1  0.780665  0.636818  0.666130  1
  La  La6  1  0.636818  0.780665  0.166130  1
  La  La7  1  0.219335  0.363182  0.333870  1
  Y  Y8  1  0.568975  0.431025  0.750000  1
  Y  Y9  1  0.431025  0.568975  0.250000  1
  Co  Co10  1  0.180300  0.604050  0.579766  1
  Co  Co11  1  0.395950  0.819700  0.920234  1
  Co  Co12  1  0.819700  0.395950  0.420234  1
  Co  Co13  1  0.604050  0.180300  0.079766  1
