# generated using pymatgen
data_LiYb3HoFeC8
_symmetry_space_group_name_H-M   'P 1'
_cell_length_a   6.77283035
_cell_length_b   6.72424601
_cell_length_c   6.74448077
_cell_angle_alpha   134.47152798
_cell_angle_beta   111.35823866
_cell_angle_gamma   86.52629114
_symmetry_Int_Tables_number   1
_chemical_formula_structural   LiYb3HoFeC8
_chemical_formula_sum   'Li1 Yb3 Ho1 Fe1 C8'
_cell_volume   195.19177235
_cell_formula_units_Z   1
loop_
 _symmetry_equiv_pos_site_id
 _symmetry_equiv_pos_as_xyz
  1  'x, y, z'
loop_
 _atom_site_type_symbol
 _atom_site_label
 _atom_site_symmetry_multiplicity
 _atom_site_fract_x
 _atom_site_fract_y
 _atom_site_fract_z
 _atom_site_occupancy
  Li  Li0  1  0.001622  0.249745  0.244153  1
  Yb  Yb1  1  0.800120  0.641327  0.149792  1
  Yb  Yb2  1  0.517414  0.862665  0.669018  1
  Yb  Yb3  1  0.494172  0.153188  0.352920  1
  Ho  Ho4  1  0.201708  0.351414  0.840269  1
  Fe  Fe5  1  0.993460  0.737641  0.743801  1
  C  C6  1  0.812017  0.141938  0.688801  1
  C  C7  1  0.205145  0.887959  0.345135  1
  C  C8  1  0.450972  0.613369  0.820206  1
  C  C9  1  0.532232  0.375665  0.159511  1
  C  C10  1  0.912537  0.009776  0.753989  1
  C  C11  1  0.091908  0.847102  0.108568  1
  C  C12  1  0.255873  0.647491  0.742241  1
  C  C13  1  0.730820  0.480720  0.381597  1
