# generated using pymatgen
data_CeSm4U(Ni3Sb4)2
_symmetry_space_group_name_H-M   'P 1'
_cell_length_a   8.23394528
_cell_length_b   8.23394605
_cell_length_c   8.23394579
_cell_angle_alpha   109.33441128
_cell_angle_beta   109.33441107
_cell_angle_gamma   109.74518888
_symmetry_Int_Tables_number   1
_chemical_formula_structural   CeSm4U(Ni3Sb4)2
_chemical_formula_sum   'Ce1 Sm4 U1 Ni6 Sb8'
_cell_volume   429.72898469
_cell_formula_units_Z   1
loop_
 _symmetry_equiv_pos_site_id
 _symmetry_equiv_pos_as_xyz
  1  'x, y, z'
loop_
 _atom_site_type_symbol
 _atom_site_label
 _atom_site_symmetry_multiplicity
 _atom_site_fract_x
 _atom_site_fract_y
 _atom_site_fract_z
 _atom_site_occupancy
  Ce  Ce0  1  0.125000  0.875000  0.250000  1
  Sm  Sm1  1  0.873882  0.250068  0.122150  1
  Sm  Sm2  1  0.627919  0.751733  0.377850  1
  Sm  Sm3  1  0.248267  0.126118  0.876186  1
  Sm  Sm4  1  0.749932  0.372081  0.623814  1
  U  U5  1  0.375000  0.625000  0.750000  1
  Ni  Ni6  1  0.375734  0.267690  0.632153  1
  Ni  Ni7  1  0.135538  0.743581  0.867847  1
  Ni  Ni8  1  0.256419  0.624266  0.391956  1
  Ni  Ni9  1  0.732310  0.864462  0.108044  1
  Ni  Ni10  1  0.625000  0.375000  0.250000  1
  Ni  Ni11  1  0.875000  0.125000  0.750000  1
  Sb  Sb12  1  0.654916  0.500720  0.000927  1
  Sb  Sb13  1  0.498544  0.999600  0.656521  1
  Sb  Sb14  1  0.999793  0.653989  0.499073  1
  Sb  Sb15  1  0.843078  0.842023  0.843479  1
  Sb  Sb16  1  0.499280  0.000207  0.154196  1
  Sb  Sb17  1  0.157977  0.501456  0.001056  1
  Sb  Sb18  1  0.000400  0.156922  0.498944  1
  Sb  Sb19  1  0.346011  0.345084  0.345804  1
