# generated using pymatgen
data_Nd5Er3(Si3Rh)4
_symmetry_space_group_name_H-M   'P 1'
_cell_length_a   8.24306400
_cell_length_b   8.24306328
_cell_length_c   8.15311800
_cell_angle_alpha   90.00000000
_cell_angle_beta   90.00000000
_cell_angle_gamma   120.00000288
_symmetry_Int_Tables_number   1
_chemical_formula_structural   Nd5Er3(Si3Rh)4
_chemical_formula_sum   'Nd5 Er3 Si12 Rh4'
_cell_volume   479.76841434
_cell_formula_units_Z   1
loop_
 _symmetry_equiv_pos_site_id
 _symmetry_equiv_pos_as_xyz
  1  'x, y, z'
loop_
 _atom_site_type_symbol
 _atom_site_label
 _atom_site_symmetry_multiplicity
 _atom_site_fract_x
 _atom_site_fract_y
 _atom_site_fract_z
 _atom_site_occupancy
  Nd  Nd0  1  0.000000  0.000000  0.250000  1
  Nd  Nd1  1  0.000000  0.000000  0.750000  1
  Nd  Nd2  1  0.499196  0.500804  0.250000  1
  Nd  Nd3  1  0.499196  0.998391  0.250000  1
  Nd  Nd4  1  0.001609  0.500804  0.250000  1
  Er  Er5  1  0.504793  0.495207  0.750000  1
  Er  Er6  1  0.990415  0.495207  0.750000  1
  Er  Er7  1  0.504793  0.009585  0.750000  1
  Si  Si8  1  0.833703  0.166297  0.505160  1
  Si  Si9  1  0.833703  0.667407  0.505160  1
  Si  Si10  1  0.332593  0.166297  0.505160  1
  Si  Si11  1  0.833703  0.166297  0.994840  1
  Si  Si12  1  0.833703  0.667407  0.994840  1
  Si  Si13  1  0.332593  0.166297  0.994840  1
  Si  Si14  1  0.168340  0.831660  0.994246  1
  Si  Si15  1  0.663321  0.831660  0.994246  1
  Si  Si16  1  0.168340  0.336679  0.994246  1
  Si  Si17  1  0.168340  0.831660  0.505754  1
  Si  Si18  1  0.663321  0.831660  0.505754  1
  Si  Si19  1  0.168340  0.336679  0.505754  1
  Rh  Rh20  1  0.666667  0.333333  0.516919  1
  Rh  Rh21  1  0.666667  0.333333  0.983081  1
  Rh  Rh22  1  0.333333  0.666667  0.955045  1
  Rh  Rh23  1  0.333333  0.666667  0.544955  1
