# generated using pymatgen
data_SrYRh2O7
_symmetry_space_group_name_H-M   'P 1'
_cell_length_a   7.33232022
_cell_length_b   7.34789641
_cell_length_c   7.34789805
_cell_angle_alpha   59.71826671
_cell_angle_beta   60.07010133
_cell_angle_gamma   60.07010065
_symmetry_Int_Tables_number   1
_chemical_formula_structural   SrYRh2O7
_chemical_formula_sum   'Sr2 Y2 Rh4 O14'
_cell_volume   279.62548311
_cell_formula_units_Z   2
loop_
 _symmetry_equiv_pos_site_id
 _symmetry_equiv_pos_as_xyz
  1  'x, y, z'
loop_
 _atom_site_type_symbol
 _atom_site_label
 _atom_site_symmetry_multiplicity
 _atom_site_fract_x
 _atom_site_fract_y
 _atom_site_fract_z
 _atom_site_occupancy
  Sr  Sr0  1  0.125000  0.625000  0.125000  1
  Sr  Sr1  1  0.125000  0.125000  0.625000  1
  Y  Y2  1  0.625000  0.125000  0.125000  1
  Y  Y3  1  0.125000  0.125000  0.125000  1
  Rh  Rh4  1  0.625000  0.625000  0.625000  1
  Rh  Rh5  1  0.125000  0.625000  0.625000  1
  Rh  Rh6  1  0.625000  0.625000  0.125000  1
  Rh  Rh7  1  0.625000  0.125000  0.625000  1
  O  O8  1  0.302003  0.697997  0.697997  1
  O  O9  1  0.547312  0.952688  0.952688  1
  O  O10  1  0.690850  0.713723  0.296485  1
  O  O11  1  0.298943  0.296485  0.713723  1
  O  O12  1  0.983452  0.016548  0.016548  1
  O  O13  1  0.298943  0.713723  0.296485  1
  O  O14  1  0.690850  0.296485  0.713723  1
  O  O15  1  0.951057  0.536277  0.953515  1
  O  O16  1  0.559150  0.536277  0.953515  1
  O  O17  1  0.951057  0.953515  0.536277  1
  O  O18  1  0.266548  0.233452  0.233452  1
  O  O19  1  0.559150  0.953515  0.536277  1
  O  O20  1  0.702688  0.297312  0.297312  1
  O  O21  1  0.947997  0.552003  0.552003  1
