# generated using pymatgen
data_MnBe8VRu2
_symmetry_space_group_name_H-M   'P 1'
_cell_length_a   4.30206300
_cell_length_b   4.30206338
_cell_length_c   7.02638700
_cell_angle_alpha   90.00000000
_cell_angle_beta   90.00000000
_cell_angle_gamma   120.00000475
_symmetry_Int_Tables_number   1
_chemical_formula_structural   MnBe8VRu2
_chemical_formula_sum   'Mn1 Be8 V1 Ru2'
_cell_volume   112.62018793
_cell_formula_units_Z   1
loop_
 _symmetry_equiv_pos_site_id
 _symmetry_equiv_pos_as_xyz
  1  'x, y, z'
loop_
 _atom_site_type_symbol
 _atom_site_label
 _atom_site_symmetry_multiplicity
 _atom_site_fract_x
 _atom_site_fract_y
 _atom_site_fract_z
 _atom_site_occupancy
  Mn  Mn0  1  0.333333  0.666667  0.436266  1
  Be  Be1  1  0.000000  0.000000  0.001211  1
  Be  Be2  1  0.000000  0.000000  0.499130  1
  Be  Be3  1  0.831074  0.662146  0.252120  1
  Be  Be4  1  0.169143  0.830857  0.747061  1
  Be  Be5  1  0.661712  0.830857  0.747061  1
  Be  Be6  1  0.337854  0.168926  0.252120  1
  Be  Be7  1  0.831074  0.168926  0.252120  1
  Be  Be8  1  0.169143  0.338288  0.747061  1
  V  V9  1  0.666667  0.333333  0.937381  1
  Ru  Ru10  1  0.333333  0.666667  0.058674  1
  Ru  Ru11  1  0.666667  0.333333  0.569791  1
