# generated using pymatgen
data_LuTh4MgSi4
_symmetry_space_group_name_H-M   'P 1'
_cell_length_a   7.44826600
_cell_length_b   7.44826600
_cell_length_c   4.33953700
_cell_angle_alpha   90.00000000
_cell_angle_beta   90.00000000
_cell_angle_gamma   90.00000000
_symmetry_Int_Tables_number   1
_chemical_formula_structural   LuTh4MgSi4
_chemical_formula_sum   'Lu1 Th4 Mg1 Si4'
_cell_volume   240.74304651
_cell_formula_units_Z   1
loop_
 _symmetry_equiv_pos_site_id
 _symmetry_equiv_pos_as_xyz
  1  'x, y, z'
loop_
 _atom_site_type_symbol
 _atom_site_label
 _atom_site_symmetry_multiplicity
 _atom_site_fract_x
 _atom_site_fract_y
 _atom_site_fract_z
 _atom_site_occupancy
  Lu  Lu0  1  0.000000  0.000000  0.000000  1
  Th  Th1  1  0.672747  0.186863  0.500000  1
  Th  Th2  1  0.327253  0.813137  0.500000  1
  Th  Th3  1  0.186863  0.327253  0.500000  1
  Th  Th4  1  0.813137  0.672747  0.500000  1
  Mg  Mg5  1  0.500000  0.500000  0.000000  1
  Si  Si6  1  0.109103  0.624235  0.000000  1
  Si  Si7  1  0.890897  0.375765  0.000000  1
  Si  Si8  1  0.624235  0.890897  0.000000  1
  Si  Si9  1  0.375765  0.109103  0.000000  1
