# generated using pymatgen
data_YTmNi2(SnH)2
_symmetry_space_group_name_H-M   'P 1'
_cell_length_a   4.22428500
_cell_length_b   7.07003306
_cell_length_c   8.27908707
_cell_angle_alpha   90.01475398
_cell_angle_beta   90.00000000
_cell_angle_gamma   90.00000000
_symmetry_Int_Tables_number   1
_chemical_formula_structural   YTmNi2(SnH)2
_chemical_formula_sum   'Y2 Tm2 Ni4 Sn4 H4'
_cell_volume   247.26183682
_cell_formula_units_Z   2
loop_
 _symmetry_equiv_pos_site_id
 _symmetry_equiv_pos_as_xyz
  1  'x, y, z'
loop_
 _atom_site_type_symbol
 _atom_site_label
 _atom_site_symmetry_multiplicity
 _atom_site_fract_x
 _atom_site_fract_y
 _atom_site_fract_z
 _atom_site_occupancy
  Y  Y0  1  0.750000  0.516157  0.813628  1
  Y  Y1  1  0.250000  0.483843  0.186372  1
  Tm  Tm2  1  0.250000  0.983695  0.314956  1
  Tm  Tm3  1  0.750000  0.016305  0.685044  1
  Ni  Ni4  1  0.750000  0.269282  0.393341  1
  Ni  Ni5  1  0.250000  0.730718  0.606659  1
  Ni  Ni6  1  0.250000  0.224350  0.889445  1
  Ni  Ni7  1  0.750000  0.775650  0.110555  1
  Sn  Sn8  1  0.750000  0.155286  0.071813  1
  Sn  Sn9  1  0.250000  0.844714  0.928187  1
  Sn  Sn10  1  0.250000  0.342927  0.570841  1
  Sn  Sn11  1  0.750000  0.657073  0.429159  1
  H  H12  1  0.250000  0.953092  0.577345  1
  H  H13  1  0.750000  0.046908  0.422655  1
  H  H14  1  0.750000  0.552469  0.078915  1
  H  H15  1  0.250000  0.447531  0.921085  1
