# generated using pymatgen
data_La2Mg3P12Ru19
_symmetry_space_group_name_H-M   'P 1'
_cell_length_a   12.47256800
_cell_length_b   12.47256823
_cell_length_c   4.00453100
_cell_angle_alpha   90.00000000
_cell_angle_beta   90.00000000
_cell_angle_gamma   119.99999940
_symmetry_Int_Tables_number   1
_chemical_formula_structural   La2Mg3P12Ru19
_chemical_formula_sum   'La2 Mg3 P12 Ru19'
_cell_volume   539.50324715
_cell_formula_units_Z   1
loop_
 _symmetry_equiv_pos_site_id
 _symmetry_equiv_pos_as_xyz
  1  'x, y, z'
loop_
 _atom_site_type_symbol
 _atom_site_label
 _atom_site_symmetry_multiplicity
 _atom_site_fract_x
 _atom_site_fract_y
 _atom_site_fract_z
 _atom_site_occupancy
  La  La0  1  0.333333  0.666667  0.000000  1
  La  La1  1  0.666667  0.333333  0.000000  1
  Mg  Mg2  1  0.186825  0.186825  0.500000  1
  Mg  Mg3  1  0.813175  0.000000  0.500000  1
  Mg  Mg4  1  0.000000  0.813175  0.500000  1
  P  P5  1  0.820515  0.820515  0.000000  1
  P  P6  1  0.179485  0.000000  0.000000  1
  P  P7  1  0.000000  0.179485  0.000000  1
  P  P8  1  0.168138  0.467880  0.500000  1
  P  P9  1  0.532120  0.700257  0.500000  1
  P  P10  1  0.299743  0.831862  0.500000  1
  P  P11  1  0.700257  0.532120  0.500000  1
  P  P12  1  0.831862  0.299743  0.500000  1
  P  P13  1  0.467880  0.168138  0.500000  1
  P  P14  1  0.386891  0.386891  0.000000  1
  P  P15  1  0.613109  0.000000  0.000000  1
  P  P16  1  0.000000  0.613109  0.000000  1
  Ru  Ru17  1  0.566733  0.566733  0.000000  1
  Ru  Ru18  1  0.433267  0.000000  0.000000  1
  Ru  Ru19  1  0.000000  0.433267  0.000000  1
  Ru  Ru20  1  0.729011  0.729011  0.500000  1
  Ru  Ru21  1  0.270989  0.000000  0.500000  1
  Ru  Ru22  1  0.000000  0.270989  0.500000  1
  Ru  Ru23  1  0.188075  0.360757  0.000000  1
  Ru  Ru24  1  0.639243  0.827319  0.000000  1
  Ru  Ru25  1  0.172681  0.811925  0.000000  1
  Ru  Ru26  1  0.827319  0.639243  0.000000  1
  Ru  Ru27  1  0.811925  0.172681  0.000000  1
  Ru  Ru28  1  0.360757  0.188075  0.000000  1
  Ru  Ru29  1  0.369508  0.493561  0.500000  1
  Ru  Ru30  1  0.506439  0.875948  0.500000  1
  Ru  Ru31  1  0.124052  0.630492  0.500000  1
  Ru  Ru32  1  0.875948  0.506439  0.500000  1
  Ru  Ru33  1  0.630492  0.124052  0.500000  1
  Ru  Ru34  1  0.493561  0.369508  0.500000  1
  Ru  Ru35  1  0.000000  0.000000  0.000000  1
