# generated using pymatgen
data_La9Nd7(CdTc)4
_symmetry_space_group_name_H-M   'P 1'
_cell_length_a   10.00183871
_cell_length_b   10.00183830
_cell_length_c   9.97005300
_cell_angle_alpha   60.10507994
_cell_angle_beta   60.10508129
_cell_angle_gamma   60.62841580
_symmetry_Int_Tables_number   1
_chemical_formula_structural   La9Nd7(CdTc)4
_chemical_formula_sum   'La9 Nd7 Cd4 Tc4'
_cell_volume   709.67077761
_cell_formula_units_Z   1
loop_
 _symmetry_equiv_pos_site_id
 _symmetry_equiv_pos_as_xyz
  1  'x, y, z'
loop_
 _atom_site_type_symbol
 _atom_site_label
 _atom_site_symmetry_multiplicity
 _atom_site_fract_x
 _atom_site_fract_y
 _atom_site_fract_z
 _atom_site_occupancy
  La  La0  1  0.346152  0.346152  0.345673  1
  La  La1  1  0.346152  0.346152  0.962022  1
  La  La2  1  0.345987  0.965635  0.344189  1
  La  La3  1  0.965635  0.345987  0.344189  1
  La  La4  1  0.809610  0.187655  0.189980  1
  La  La5  1  0.187655  0.809610  0.812756  1
  La  La6  1  0.187655  0.809610  0.189980  1
  La  La7  1  0.809610  0.187655  0.812756  1
  La  La8  1  0.189107  0.189107  0.810893  1
  Nd  Nd9  1  0.807603  0.807603  0.192397  1
  Nd  Nd10  1  0.936968  0.561956  0.561602  1
  Nd  Nd11  1  0.561956  0.936968  0.939474  1
  Nd  Nd12  1  0.561956  0.936968  0.561602  1
  Nd  Nd13  1  0.936968  0.561956  0.939474  1
  Nd  Nd14  1  0.560976  0.560976  0.939024  1
  Nd  Nd15  1  0.940690  0.940690  0.559310  1
  Cd  Cd16  1  0.580057  0.580057  0.577188  1
  Cd  Cd17  1  0.580057  0.580057  0.262696  1
  Cd  Cd18  1  0.579326  0.263238  0.578718  1
  Cd  Cd19  1  0.263238  0.579326  0.578718  1
  Tc  Tc20  1  0.129994  0.129994  0.135910  1
  Tc  Tc21  1  0.129994  0.129994  0.604101  1
  Tc  Tc22  1  0.143752  0.598900  0.128674  1
  Tc  Tc23  1  0.598900  0.143752  0.128674  1
