# generated using pymatgen
data_Ti4SiP3Ir4
_symmetry_space_group_name_H-M   'P 1'
_cell_length_a   3.76740400
_cell_length_b   6.29840817
_cell_length_c   7.20398560
_cell_angle_alpha   89.90378301
_cell_angle_beta   90.00000000
_cell_angle_gamma   90.00000000
_symmetry_Int_Tables_number   1
_chemical_formula_structural   Ti4SiP3Ir4
_chemical_formula_sum   'Ti4 Si1 P3 Ir4'
_cell_volume   170.94059837
_cell_formula_units_Z   1
loop_
 _symmetry_equiv_pos_site_id
 _symmetry_equiv_pos_as_xyz
  1  'x, y, z'
loop_
 _atom_site_type_symbol
 _atom_site_label
 _atom_site_symmetry_multiplicity
 _atom_site_fract_x
 _atom_site_fract_y
 _atom_site_fract_z
 _atom_site_occupancy
  Ti  Ti0  1  0.250000  0.028740  0.825395  1
  Ti  Ti1  1  0.250000  0.525083  0.671549  1
  Ti  Ti2  1  0.750000  0.974474  0.176365  1
  Ti  Ti3  1  0.750000  0.474244  0.327409  1
  Si  Si4  1  0.750000  0.736306  0.876436  1
  P  P5  1  0.250000  0.758990  0.377228  1
  P  P6  1  0.250000  0.261869  0.122813  1
  P  P7  1  0.750000  0.240824  0.623608  1
  Ir  Ir8  1  0.250000  0.149988  0.435490  1
  Ir  Ir9  1  0.250000  0.646232  0.066619  1
  Ir  Ir10  1  0.750000  0.854213  0.560941  1
  Ir  Ir11  1  0.750000  0.349038  0.936147  1
