# generated using pymatgen
data_Al2Ni11Te4
_symmetry_space_group_name_H-M   'P 1'
_cell_length_a   3.69731900
_cell_length_b   3.69731900
_cell_length_c   19.00398800
_cell_angle_alpha   90.00000000
_cell_angle_beta   90.00000000
_cell_angle_gamma   90.00000000
_symmetry_Int_Tables_number   1
_chemical_formula_structural   Al2Ni11Te4
_chemical_formula_sum   'Al2 Ni11 Te4'
_cell_volume   259.78770460
_cell_formula_units_Z   1
loop_
 _symmetry_equiv_pos_site_id
 _symmetry_equiv_pos_as_xyz
  1  'x, y, z'
loop_
 _atom_site_type_symbol
 _atom_site_label
 _atom_site_symmetry_multiplicity
 _atom_site_fract_x
 _atom_site_fract_y
 _atom_site_fract_z
 _atom_site_occupancy
  Al  Al0  1  0.000000  0.000000  0.000144  1
  Al  Al1  1  0.500000  0.500000  0.500522  1
  Ni  Ni2  1  0.000000  0.500000  0.412133  1
  Ni  Ni3  1  0.500000  0.000000  0.911312  1
  Ni  Ni4  1  0.500000  0.000000  0.412133  1
  Ni  Ni5  1  0.000000  0.500000  0.911312  1
  Ni  Ni6  1  0.500000  0.000000  0.089246  1
  Ni  Ni7  1  0.000000  0.500000  0.589317  1
  Ni  Ni8  1  0.000000  0.500000  0.089246  1
  Ni  Ni9  1  0.500000  0.000000  0.589317  1
  Ni  Ni10  1  0.500000  0.500000  0.000216  1
  Ni  Ni11  1  0.000000  0.000000  0.501148  1
  Ni  Ni12  1  0.500000  0.500000  0.309233  1
  Te  Te13  1  0.000000  0.000000  0.317291  1
  Te  Te14  1  0.500000  0.500000  0.822716  1
  Te  Te15  1  0.500000  0.500000  0.176856  1
  Te  Te16  1  0.000000  0.000000  0.677457  1
