# generated using pymatgen
data_HoLuReB6
_symmetry_space_group_name_H-M   'P 1'
_cell_length_a   3.64128800
_cell_length_b   9.09412200
_cell_length_c   11.47490100
_cell_angle_alpha   90.00000000
_cell_angle_beta   90.00000000
_cell_angle_gamma   90.00000000
_symmetry_Int_Tables_number   1
_chemical_formula_structural   HoLuReB6
_chemical_formula_sum   'Ho4 Lu4 Re4 B24'
_cell_volume   379.98351280
_cell_formula_units_Z   4
loop_
 _symmetry_equiv_pos_site_id
 _symmetry_equiv_pos_as_xyz
  1  'x, y, z'
loop_
 _atom_site_type_symbol
 _atom_site_label
 _atom_site_symmetry_multiplicity
 _atom_site_fract_x
 _atom_site_fract_y
 _atom_site_fract_z
 _atom_site_occupancy
  Ho  Ho0  1  0.000000  0.323275  0.413811  1
  Ho  Ho1  1  0.000000  0.676725  0.586189  1
  Ho  Ho2  1  0.000000  0.823275  0.086189  1
  Ho  Ho3  1  0.000000  0.176725  0.913811  1
  Lu  Lu4  1  0.000000  0.944026  0.370682  1
  Lu  Lu5  1  0.000000  0.055974  0.629318  1
  Lu  Lu6  1  0.000000  0.444026  0.129318  1
  Lu  Lu7  1  0.000000  0.555974  0.870682  1
  Re  Re8  1  0.000000  0.639738  0.320303  1
  Re  Re9  1  0.000000  0.360262  0.679697  1
  Re  Re10  1  0.000000  0.139738  0.179697  1
  Re  Re11  1  0.000000  0.860262  0.820303  1
  B  B12  1  0.500000  0.553739  0.432830  1
  B  B13  1  0.500000  0.446261  0.567170  1
  B  B14  1  0.500000  0.053739  0.067170  1
  B  B15  1  0.500000  0.946261  0.932830  1
  B  B16  1  0.500000  0.750854  0.418788  1
  B  B17  1  0.500000  0.249146  0.581212  1
  B  B18  1  0.500000  0.250854  0.081212  1
  B  B19  1  0.500000  0.749146  0.918788  1
  B  B20  1  0.500000  0.793613  0.265672  1
  B  B21  1  0.500000  0.206387  0.734328  1
  B  B22  1  0.500000  0.293613  0.234328  1
  B  B23  1  0.500000  0.706387  0.765672  1
  B  B24  1  0.500000  0.630550  0.184966  1
  B  B25  1  0.500000  0.369450  0.815034  1
  B  B26  1  0.500000  0.130550  0.315034  1
  B  B27  1  0.500000  0.869450  0.684966  1
  B  B28  1  0.500000  0.981922  0.212617  1
  B  B29  1  0.500000  0.018078  0.787383  1
  B  B30  1  0.500000  0.481922  0.287383  1
  B  B31  1  0.500000  0.518078  0.712617  1
  B  B32  1  0.500000  0.598591  0.027463  1
  B  B33  1  0.500000  0.401409  0.972537  1
  B  B34  1  0.500000  0.098591  0.472537  1
  B  B35  1  0.500000  0.901409  0.527463  1
