# generated using pymatgen
data_Rb3Np(O2F)2
_symmetry_space_group_name_H-M   'P 1'
_cell_length_a   6.63406084
_cell_length_b   6.60564959
_cell_length_c   11.97791592
_cell_angle_alpha   91.48018404
_cell_angle_beta   106.07700088
_cell_angle_gamma   120.14238552
_symmetry_Int_Tables_number   1
_chemical_formula_structural   Rb3Np(O2F)2
_chemical_formula_sum   'Rb6 Np2 O8 F4'
_cell_volume   427.49638463
_cell_formula_units_Z   2
loop_
 _symmetry_equiv_pos_site_id
 _symmetry_equiv_pos_as_xyz
  1  'x, y, z'
loop_
 _atom_site_type_symbol
 _atom_site_label
 _atom_site_symmetry_multiplicity
 _atom_site_fract_x
 _atom_site_fract_y
 _atom_site_fract_z
 _atom_site_occupancy
  Rb  Rb0  1  0.232392  0.856777  0.118534  1
  Rb  Rb1  1  0.000777  0.250000  0.250000  1
  Rb  Rb2  1  0.757082  0.643223  0.381466  1
  Rb  Rb3  1  0.242918  0.356777  0.618534  1
  Rb  Rb4  1  0.999224  0.750000  0.750000  1
  Rb  Rb5  1  0.767608  0.143223  0.881466  1
  Np  Np6  1  0.500000  0.500000  0.000000  1
  Np  Np7  1  0.499999  0.000000  0.499999  1
  O  O8  1  0.748002  0.830823  0.051974  1
  O  O9  1  0.732575  0.421080  0.086024  1
  O  O10  1  0.725472  0.078920  0.413976  1
  O  O11  1  0.365204  0.669177  0.448026  1
  O  O12  1  0.634796  0.330823  0.551975  1
  O  O13  1  0.274529  0.921081  0.586023  1
  O  O14  1  0.267425  0.578920  0.913976  1
  O  O15  1  0.251998  0.169177  0.948025  1
  F  F16  1  0.382098  0.513330  0.164517  1
  F  F17  1  0.204250  0.986670  0.335482  1
  F  F18  1  0.795750  0.013330  0.664518  1
  F  F19  1  0.617902  0.486670  0.835482  1
