# generated using pymatgen
data_Ho4AgPd
_symmetry_space_group_name_H-M   'P 1'
_cell_length_a   9.55598322
_cell_length_b   9.55598269
_cell_length_c   9.55598200
_cell_angle_alpha   59.99999546
_cell_angle_beta   59.99999730
_cell_angle_gamma   60.00000036
_symmetry_Int_Tables_number   1
_chemical_formula_structural   Ho4AgPd
_chemical_formula_sum   'Ho16 Ag4 Pd4'
_cell_volume   617.03675637
_cell_formula_units_Z   4
loop_
 _symmetry_equiv_pos_site_id
 _symmetry_equiv_pos_as_xyz
  1  'x, y, z'
loop_
 _atom_site_type_symbol
 _atom_site_label
 _atom_site_symmetry_multiplicity
 _atom_site_fract_x
 _atom_site_fract_y
 _atom_site_fract_z
 _atom_site_occupancy
  Ho  Ho0  1  0.356989  0.356989  0.356989  1
  Ho  Ho1  1  0.356989  0.356989  0.929033  1
  Ho  Ho2  1  0.356989  0.929033  0.356989  1
  Ho  Ho3  1  0.929033  0.356989  0.356989  1
  Ho  Ho4  1  0.811101  0.188899  0.188899  1
  Ho  Ho5  1  0.188899  0.811101  0.811101  1
  Ho  Ho6  1  0.188899  0.811101  0.188899  1
  Ho  Ho7  1  0.811101  0.188899  0.811101  1
  Ho  Ho8  1  0.188899  0.188899  0.811101  1
  Ho  Ho9  1  0.811101  0.811101  0.188899  1
  Ho  Ho10  1  0.933765  0.566235  0.566235  1
  Ho  Ho11  1  0.566235  0.933765  0.933765  1
  Ho  Ho12  1  0.566235  0.933765  0.566235  1
  Ho  Ho13  1  0.933765  0.566235  0.933765  1
  Ho  Ho14  1  0.566235  0.566235  0.933765  1
  Ho  Ho15  1  0.933765  0.933765  0.566235  1
  Ag  Ag16  1  0.583190  0.583190  0.583190  1
  Ag  Ag17  1  0.583190  0.583190  0.250429  1
  Ag  Ag18  1  0.583190  0.250429  0.583190  1
  Ag  Ag19  1  0.250429  0.583190  0.583190  1
  Pd  Pd20  1  0.145341  0.145341  0.145341  1
  Pd  Pd21  1  0.145341  0.145341  0.563976  1
  Pd  Pd22  1  0.145341  0.563976  0.145341  1
  Pd  Pd23  1  0.563976  0.145341  0.145341  1
