# generated using pymatgen
data_ZrSc(Ga3Rh)3
_symmetry_space_group_name_H-M   'P 1'
_cell_length_a   7.47309674
_cell_length_b   7.47585090
_cell_length_c   9.37525500
_cell_angle_alpha   90.00000000
_cell_angle_beta   90.00000000
_cell_angle_gamma   119.95493505
_symmetry_Int_Tables_number   1
_chemical_formula_structural   ZrSc(Ga3Rh)3
_chemical_formula_sum   'Zr2 Sc2 Ga18 Rh6'
_cell_volume   453.80783737
_cell_formula_units_Z   2
loop_
 _symmetry_equiv_pos_site_id
 _symmetry_equiv_pos_as_xyz
  1  'x, y, z'
loop_
 _atom_site_type_symbol
 _atom_site_label
 _atom_site_symmetry_multiplicity
 _atom_site_fract_x
 _atom_site_fract_y
 _atom_site_fract_z
 _atom_site_occupancy
  Zr  Zr0  1  0.670086  0.996271  0.250000  1
  Zr  Zr1  1  0.329914  0.003729  0.750000  1
  Sc  Sc2  1  0.995302  0.668636  0.250000  1
  Sc  Sc3  1  0.004698  0.331364  0.750000  1
  Ga  Ga4  1  0.329709  0.330512  0.572640  1
  Ga  Ga5  1  0.670290  0.669489  0.427360  1
  Ga  Ga6  1  0.670290  0.669489  0.072640  1
  Ga  Ga7  1  0.329709  0.330512  0.927360  1
  Ga  Ga8  1  0.337526  0.552247  0.250000  1
  Ga  Ga9  1  0.662474  0.447753  0.750000  1
  Ga  Ga10  1  0.550323  0.336833  0.250000  1
  Ga  Ga11  1  0.449677  0.663167  0.750000  1
  Ga  Ga12  1  0.996863  0.334920  0.082316  1
  Ga  Ga13  1  0.003137  0.665080  0.917684  1
  Ga  Ga14  1  0.003137  0.665080  0.582316  1
  Ga  Ga15  1  0.333444  0.995645  0.417824  1
  Ga  Ga16  1  0.996863  0.334920  0.417684  1
  Ga  Ga17  1  0.666556  0.004355  0.582176  1
  Ga  Ga18  1  0.666556  0.004355  0.917824  1
  Ga  Ga19  1  0.333444  0.995645  0.082176  1
  Ga  Ga20  1  0.123366  0.123359  0.250000  1
  Ga  Ga21  1  0.876634  0.876641  0.750000  1
  Rh  Rh22  1  0.000000  0.000000  0.000000  1
  Rh  Rh23  1  0.000000  0.000000  0.500000  1
  Rh  Rh24  1  0.670743  0.327228  0.000315  1
  Rh  Rh25  1  0.329257  0.672772  0.999685  1
  Rh  Rh26  1  0.329257  0.672772  0.500315  1
  Rh  Rh27  1  0.670743  0.327228  0.499685  1
