# generated using pymatgen
data_Tm3Mg2AlSi2Rh
_symmetry_space_group_name_H-M   'P 1'
_cell_length_a   7.08439720
_cell_length_b   7.01710285
_cell_length_c   4.18797500
_cell_angle_alpha   90.00000000
_cell_angle_beta   90.00000000
_cell_angle_gamma   119.68627770
_symmetry_Int_Tables_number   1
_chemical_formula_structural   Tm3Mg2AlSi2Rh
_chemical_formula_sum   'Tm3 Mg2 Al1 Si2 Rh1'
_cell_volume   180.86715984
_cell_formula_units_Z   1
loop_
 _symmetry_equiv_pos_site_id
 _symmetry_equiv_pos_as_xyz
  1  'x, y, z'
loop_
 _atom_site_type_symbol
 _atom_site_label
 _atom_site_symmetry_multiplicity
 _atom_site_fract_x
 _atom_site_fract_y
 _atom_site_fract_z
 _atom_site_occupancy
  Tm  Tm0  1  0.413719  0.000454  0.000000  1
  Tm  Tm1  1  0.000000  0.422317  0.000000  1
  Tm  Tm2  1  0.586281  0.586735  0.000000  1
  Mg  Mg3  1  0.759950  0.000734  0.500000  1
  Mg  Mg4  1  0.240050  0.240785  0.500000  1
  Al  Al5  1  0.000000  0.759359  0.500000  1
  Si  Si6  1  0.674168  0.345196  0.500000  1
  Si  Si7  1  0.325831  0.671028  0.500000  1
  Rh  Rh8  1  0.000000  0.973394  0.000000  1
