# generated using pymatgen
data_Ho5Co2Os
_symmetry_space_group_name_H-M   'P 1'
_cell_length_a   7.08193757
_cell_length_b   7.08193732
_cell_length_c   8.62658396
_cell_angle_alpha   114.23447644
_cell_angle_beta   114.23447390
_cell_angle_gamma   90.00000226
_symmetry_Int_Tables_number   1
_chemical_formula_structural   Ho5Co2Os
_chemical_formula_sum   'Ho10 Co4 Os2'
_cell_volume   352.29643133
_cell_formula_units_Z   2
loop_
 _symmetry_equiv_pos_site_id
 _symmetry_equiv_pos_as_xyz
  1  'x, y, z'
loop_
 _atom_site_type_symbol
 _atom_site_label
 _atom_site_symmetry_multiplicity
 _atom_site_fract_x
 _atom_site_fract_y
 _atom_site_fract_z
 _atom_site_occupancy
  Ho  Ho0  1  0.000000  0.000000  0.000000  1
  Ho  Ho1  1  0.500000  0.500000  0.000000  1
  Ho  Ho2  1  0.463712  0.321687  0.285399  1
  Ho  Ho3  1  0.963713  0.463712  0.285399  1
  Ho  Ho4  1  0.321687  0.821686  0.285399  1
  Ho  Ho5  1  0.821686  0.963713  0.285399  1
  Ho  Ho6  1  0.178313  0.036288  0.714600  1
  Ho  Ho7  1  0.678312  0.178313  0.714600  1
  Ho  Ho8  1  0.036288  0.536287  0.714600  1
  Ho  Ho9  1  0.536287  0.678312  0.714600  1
  Co  Co10  1  0.612008  0.112008  0.000000  1
  Co  Co11  1  0.112008  0.387993  0.000000  1
  Co  Co12  1  0.887992  0.612008  0.000000  1
  Co  Co13  1  0.387993  0.887992  0.000000  1
  Os  Os14  1  0.250000  0.250000  0.500000  1
  Os  Os15  1  0.750000  0.750000  0.500000  1
