# generated using pymatgen
data_LiTiH6Ru
_symmetry_space_group_name_H-M   'P 1'
_cell_length_a   6.45097100
_cell_length_b   6.45097100
_cell_length_c   6.45097100
_cell_angle_alpha   90.00000000
_cell_angle_beta   90.00000000
_cell_angle_gamma   90.00000000
_symmetry_Int_Tables_number   1
_chemical_formula_structural   LiTiH6Ru
_chemical_formula_sum   'Li4 Ti4 H24 Ru4'
_cell_volume   268.45733133
_cell_formula_units_Z   4
loop_
 _symmetry_equiv_pos_site_id
 _symmetry_equiv_pos_as_xyz
  1  'x, y, z'
loop_
 _atom_site_type_symbol
 _atom_site_label
 _atom_site_symmetry_multiplicity
 _atom_site_fract_x
 _atom_site_fract_y
 _atom_site_fract_z
 _atom_site_occupancy
  Li  Li0  1  0.000000  0.000000  0.500000  1
  Li  Li1  1  0.000000  0.500000  0.000000  1
  Li  Li2  1  0.500000  0.000000  0.000000  1
  Li  Li3  1  0.000000  0.000000  0.000000  1
  Ti  Ti4  1  0.500000  0.500000  0.500000  1
  Ti  Ti5  1  0.000000  0.500000  0.500000  1
  Ti  Ti6  1  0.500000  0.000000  0.500000  1
  Ti  Ti7  1  0.500000  0.500000  0.000000  1
  H  H8  1  0.750461  0.750461  0.524844  1
  H  H9  1  0.249539  0.249539  0.524844  1
  H  H10  1  0.000414  0.744380  0.744380  1
  H  H11  1  0.255620  0.999586  0.744380  1
  H  H12  1  0.744380  0.000414  0.744380  1
  H  H13  1  0.999586  0.255620  0.744380  1
  H  H14  1  0.750461  0.524844  0.750461  1
  H  H15  1  0.524844  0.750461  0.750461  1
  H  H16  1  0.475156  0.249539  0.750461  1
  H  H17  1  0.249539  0.475156  0.750461  1
  H  H18  1  0.255620  0.744380  0.999586  1
  H  H19  1  0.744380  0.255620  0.999586  1
  H  H20  1  0.744380  0.744380  0.000414  1
  H  H21  1  0.255620  0.255620  0.000414  1
  H  H22  1  0.249539  0.524844  0.249539  1
  H  H23  1  0.475156  0.750461  0.249539  1
  H  H24  1  0.524844  0.249539  0.249539  1
  H  H25  1  0.750461  0.475156  0.249539  1
  H  H26  1  0.999586  0.744380  0.255620  1
  H  H27  1  0.744380  0.999586  0.255620  1
  H  H28  1  0.255620  0.000414  0.255620  1
  H  H29  1  0.000414  0.255620  0.255620  1
  H  H30  1  0.249539  0.750461  0.475156  1
  H  H31  1  0.750461  0.249539  0.475156  1
  Ru  Ru32  1  0.260782  0.739218  0.739218  1
  Ru  Ru33  1  0.739218  0.260782  0.739218  1
  Ru  Ru34  1  0.739218  0.739218  0.260782  1
  Ru  Ru35  1  0.260782  0.260782  0.260782  1
