# generated using pymatgen
data_HoNb6Sn5Bi
_symmetry_space_group_name_H-M   'P 1'
_cell_length_a   5.83254700
_cell_length_b   5.83254736
_cell_length_c   9.61365800
_cell_angle_alpha   90.00000000
_cell_angle_beta   90.00000000
_cell_angle_gamma   120.00000362
_symmetry_Int_Tables_number   1
_chemical_formula_structural   HoNb6Sn5Bi
_chemical_formula_sum   'Ho1 Nb6 Sn5 Bi1'
_cell_volume   283.22775202
_cell_formula_units_Z   1
loop_
 _symmetry_equiv_pos_site_id
 _symmetry_equiv_pos_as_xyz
  1  'x, y, z'
loop_
 _atom_site_type_symbol
 _atom_site_label
 _atom_site_symmetry_multiplicity
 _atom_site_fract_x
 _atom_site_fract_y
 _atom_site_fract_z
 _atom_site_occupancy
  Ho  Ho0  1  0.000000  0.000000  0.993415  1
  Nb  Nb1  1  0.000000  0.500000  0.754808  1
  Nb  Nb2  1  0.500000  0.500000  0.754808  1
  Nb  Nb3  1  0.500000  0.000000  0.754808  1
  Nb  Nb4  1  0.000000  0.500000  0.251821  1
  Nb  Nb5  1  0.500000  0.500000  0.251821  1
  Nb  Nb6  1  0.500000  0.000000  0.251821  1
  Sn  Sn7  1  0.666667  0.333333  0.501962  1
  Sn  Sn8  1  0.333333  0.666667  0.501962  1
  Sn  Sn9  1  0.666667  0.333333  0.002811  1
  Sn  Sn10  1  0.333333  0.666667  0.002811  1
  Sn  Sn11  1  0.000000  0.000000  0.325136  1
  Bi  Bi12  1  0.000000  0.000000  0.652016  1
