# generated using pymatgen
data_TbDyMn8(CoP3)2
_symmetry_space_group_name_H-M   'P 1'
_cell_length_a   3.60334000
_cell_length_b   10.54282300
_cell_length_c   12.17260400
_cell_angle_alpha   90.00000000
_cell_angle_beta   90.00000000
_cell_angle_gamma   90.00000000
_symmetry_Int_Tables_number   1
_chemical_formula_structural   TbDyMn8(CoP3)2
_chemical_formula_sum   'Tb2 Dy2 Mn16 Co4 P12'
_cell_volume   462.42962817
_cell_formula_units_Z   2
loop_
 _symmetry_equiv_pos_site_id
 _symmetry_equiv_pos_as_xyz
  1  'x, y, z'
loop_
 _atom_site_type_symbol
 _atom_site_label
 _atom_site_symmetry_multiplicity
 _atom_site_fract_x
 _atom_site_fract_y
 _atom_site_fract_z
 _atom_site_occupancy
  Tb  Tb0  1  0.750000  0.415740  0.292157  1
  Tb  Tb1  1  0.750000  0.084260  0.792157  1
  Dy  Dy2  1  0.250000  0.584242  0.707846  1
  Dy  Dy3  1  0.250000  0.915758  0.207846  1
  Mn  Mn4  1  0.250000  0.712118  0.988219  1
  Mn  Mn5  1  0.250000  0.787882  0.488219  1
  Mn  Mn6  1  0.750000  0.287909  0.011776  1
  Mn  Mn7  1  0.750000  0.212091  0.511776  1
  Mn  Mn8  1  0.250000  0.407156  0.493029  1
  Mn  Mn9  1  0.250000  0.092844  0.993029  1
  Mn  Mn10  1  0.750000  0.592891  0.507200  1
  Mn  Mn11  1  0.750000  0.907109  0.007200  1
  Mn  Mn12  1  0.250000  0.216397  0.176261  1
  Mn  Mn13  1  0.250000  0.283603  0.676261  1
  Mn  Mn14  1  0.750000  0.783344  0.823692  1
  Mn  Mn15  1  0.750000  0.716656  0.323692  1
  Mn  Mn16  1  0.250000  0.878226  0.697658  1
  Mn  Mn17  1  0.250000  0.621774  0.197658  1
  Mn  Mn18  1  0.750000  0.121455  0.302303  1
  Mn  Mn19  1  0.750000  0.378545  0.802303  1
  Co  Co20  1  0.250000  0.464719  0.933876  1
  Co  Co21  1  0.250000  0.035281  0.433876  1
  Co  Co22  1  0.750000  0.535367  0.065992  1
  Co  Co23  1  0.750000  0.964633  0.565992  1
  P  P24  1  0.250000  0.420356  0.111377  1
  P  P25  1  0.250000  0.079644  0.611377  1
  P  P26  1  0.750000  0.579684  0.888343  1
  P  P27  1  0.750000  0.920316  0.388343  1
  P  P28  1  0.250000  0.266955  0.872066  1
  P  P29  1  0.250000  0.233045  0.372066  1
  P  P30  1  0.750000  0.733387  0.128056  1
  P  P31  1  0.750000  0.766613  0.628056  1
  P  P32  1  0.250000  0.593647  0.386778  1
  P  P33  1  0.250000  0.906353  0.886778  1
  P  P34  1  0.750000  0.406650  0.613372  1
  P  P35  1  0.750000  0.093350  0.113372  1
