# generated using pymatgen
data_Pr11In9Ru4
_symmetry_space_group_name_H-M   'P 1'
_cell_length_a   13.35772036
_cell_length_b   13.34774798
_cell_length_c   3.94361500
_cell_angle_alpha   90.00000000
_cell_angle_beta   90.00000000
_cell_angle_gamma   112.28376820
_symmetry_Int_Tables_number   1
_chemical_formula_structural   Pr11In9Ru4
_chemical_formula_sum   'Pr11 In9 Ru4'
_cell_volume   650.61711125
_cell_formula_units_Z   1
loop_
 _symmetry_equiv_pos_site_id
 _symmetry_equiv_pos_as_xyz
  1  'x, y, z'
loop_
 _atom_site_type_symbol
 _atom_site_label
 _atom_site_symmetry_multiplicity
 _atom_site_fract_x
 _atom_site_fract_y
 _atom_site_fract_z
 _atom_site_occupancy
  Pr  Pr0  1  0.500000  0.500000  0.500000  1
  Pr  Pr1  1  0.812252  0.812285  0.500000  1
  Pr  Pr2  1  0.187748  0.187715  0.500000  1
  Pr  Pr3  1  0.581901  0.918269  0.500000  1
  Pr  Pr4  1  0.418099  0.081731  0.500000  1
  Pr  Pr5  1  0.918302  0.581974  0.500000  1
  Pr  Pr6  1  0.081698  0.418026  0.500000  1
  Pr  Pr7  1  0.125242  0.874858  0.500000  1
  Pr  Pr8  1  0.874758  0.125142  0.500000  1
  Pr  Pr9  1  0.338301  0.661767  0.500000  1
  Pr  Pr10  1  0.661699  0.338233  0.500000  1
  In  In11  1  0.337959  0.867407  0.000000  1
  In  In12  1  0.662041  0.132593  0.000000  1
  In  In13  1  0.867369  0.337913  0.000000  1
  In  In14  1  0.132631  0.662087  0.000000  1
  In  In15  1  0.578585  0.720284  0.000000  1
  In  In16  1  0.421415  0.279716  0.000000  1
  In  In17  1  0.720304  0.578643  0.000000  1
  In  In18  1  0.279696  0.421357  0.000000  1
  In  In19  1  0.000000  0.000000  0.000000  1
  Ru  Ru20  1  0.749732  0.945166  0.000000  1
  Ru  Ru21  1  0.250268  0.054834  0.000000  1
  Ru  Ru22  1  0.945162  0.749648  0.000000  1
  Ru  Ru23  1  0.054838  0.250352  0.000000  1
