# generated using pymatgen
data_La20CoGe8Rh3
_symmetry_space_group_name_H-M   'P 1'
_cell_length_a   8.17809212
_cell_length_b   8.97145500
_cell_length_c   12.61455619
_cell_angle_alpha   90.00000000
_cell_angle_beta   90.01985148
_cell_angle_gamma   90.00000000
_symmetry_Int_Tables_number   1
_chemical_formula_structural   La20CoGe8Rh3
_chemical_formula_sum   'La20 Co1 Ge8 Rh3'
_cell_volume   925.52217997
_cell_formula_units_Z   1
loop_
 _symmetry_equiv_pos_site_id
 _symmetry_equiv_pos_as_xyz
  1  'x, y, z'
loop_
 _atom_site_type_symbol
 _atom_site_label
 _atom_site_symmetry_multiplicity
 _atom_site_fract_x
 _atom_site_fract_y
 _atom_site_fract_z
 _atom_site_occupancy
  La  La0  1  0.678110  0.475939  0.071497  1
  La  La1  1  0.181991  0.534925  0.425392  1
  La  La2  1  0.321409  0.961858  0.926623  1
  La  La3  1  0.818424  0.034173  0.574366  1
  La  La4  1  0.321409  0.538142  0.926623  1
  La  La5  1  0.818424  0.465827  0.574366  1
  La  La6  1  0.678110  0.024061  0.071497  1
  La  La7  1  0.181991  0.965075  0.425392  1
  La  La8  1  0.953648  0.750000  0.000145  1
  La  La9  1  0.458332  0.250000  0.499963  1
  La  La10  1  0.042538  0.250000  0.999913  1
  La  La11  1  0.540963  0.750000  0.500476  1
  La  La12  1  0.356383  0.750000  0.202275  1
  La  La13  1  0.852875  0.250000  0.294615  1
  La  La14  1  0.646254  0.250000  0.795633  1
  La  La15  1  0.146887  0.750000  0.704981  1
  La  La16  1  0.832711  0.750000  0.284244  1
  La  La17  1  0.332298  0.250000  0.215705  1
  La  La18  1  0.168085  0.250000  0.716590  1
  La  La19  1  0.666574  0.750000  0.788468  1
  Co  Co20  1  0.580898  0.750000  0.016912  1
  Ge  Ge21  1  0.562101  0.495062  0.328648  1
  Ge  Ge22  1  0.061860  0.504714  0.171329  1
  Ge  Ge23  1  0.437801  0.995173  0.671235  1
  Ge  Ge24  1  0.937687  0.004922  0.828798  1
  Ge  Ge25  1  0.437801  0.504827  0.671235  1
  Ge  Ge26  1  0.937687  0.495078  0.828798  1
  Ge  Ge27  1  0.562101  0.004938  0.328648  1
  Ge  Ge28  1  0.061860  0.995286  0.171329  1
  Rh  Rh29  1  0.078460  0.250000  0.484119  1
  Rh  Rh30  1  0.421925  0.250000  0.984267  1
  Rh  Rh31  1  0.922400  0.750000  0.515918  1
