# generated using pymatgen
data_Tb2YbSm4RuI12
_symmetry_space_group_name_H-M   'P 1'
_cell_length_a   9.99550575
_cell_length_b   9.90801665
_cell_length_c   9.90953958
_cell_angle_alpha   106.71605784
_cell_angle_beta   107.32979622
_cell_angle_gamma   107.21432294
_symmetry_Int_Tables_number   1
_chemical_formula_structural   Tb2YbSm4RuI12
_chemical_formula_sum   'Tb2 Yb1 Sm4 Ru1 I12'
_cell_volume   815.35557630
_cell_formula_units_Z   1
loop_
 _symmetry_equiv_pos_site_id
 _symmetry_equiv_pos_as_xyz
  1  'x, y, z'
loop_
 _atom_site_type_symbol
 _atom_site_label
 _atom_site_symmetry_multiplicity
 _atom_site_fract_x
 _atom_site_fract_y
 _atom_site_fract_z
 _atom_site_occupancy
  Tb  Tb0  1  0.023527  0.096761  0.294830  1
  Tb  Tb1  1  0.302650  0.026099  0.097592  1
  Yb  Yb2  1  0.499893  0.499489  0.500144  1
  Sm  Sm3  1  0.904778  0.703931  0.975275  1
  Sm  Sm4  1  0.975899  0.902475  0.700988  1
  Sm  Sm5  1  0.692909  0.974331  0.902701  1
  Sm  Sm6  1  0.097442  0.296806  0.025416  1
  Ru  Ru7  1  0.000241  0.000326  0.999804  1
  I  I8  1  0.619018  0.844397  0.540916  1
  I  I9  1  0.540933  0.616550  0.843977  1
  I  I10  1  0.842763  0.539255  0.618170  1
  I  I11  1  0.375966  0.152290  0.454180  1
  I  I12  1  0.459654  0.379075  0.156192  1
  I  I13  1  0.155323  0.456297  0.381863  1
  I  I14  1  0.683667  0.075031  0.229660  1
  I  I15  1  0.228537  0.686410  0.075490  1
  I  I16  1  0.074138  0.225853  0.679984  1
  I  I17  1  0.319591  0.927177  0.777570  1
  I  I18  1  0.775494  0.318834  0.926379  1
  I  I19  1  0.927577  0.778615  0.318867  1
