# generated using pymatgen
data_Ba6Dy4TeWO18
_symmetry_space_group_name_H-M   'P 1'
_cell_length_a   6.10709000
_cell_length_b   6.10708856
_cell_length_c   14.87995200
_cell_angle_alpha   90.00000000
_cell_angle_beta   90.00000000
_cell_angle_gamma   119.99999696
_symmetry_Int_Tables_number   1
_chemical_formula_structural   Ba6Dy4TeWO18
_chemical_formula_sum   'Ba6 Dy4 Te1 W1 O18'
_cell_volume   480.61875429
_cell_formula_units_Z   1
loop_
 _symmetry_equiv_pos_site_id
 _symmetry_equiv_pos_as_xyz
  1  'x, y, z'
loop_
 _atom_site_type_symbol
 _atom_site_label
 _atom_site_symmetry_multiplicity
 _atom_site_fract_x
 _atom_site_fract_y
 _atom_site_fract_z
 _atom_site_occupancy
  Ba  Ba0  1  0.333333  0.666667  0.090499  1
  Ba  Ba1  1  0.666667  0.333333  0.909501  1
  Ba  Ba2  1  0.333333  0.666667  0.590332  1
  Ba  Ba3  1  0.666667  0.333333  0.409668  1
  Ba  Ba4  1  0.000000  0.000000  0.250126  1
  Ba  Ba5  1  0.000000  0.000000  0.749874  1
  Dy  Dy6  1  0.333333  0.666667  0.833308  1
  Dy  Dy7  1  0.666667  0.333333  0.166692  1
  Dy  Dy8  1  0.333333  0.666667  0.333683  1
  Dy  Dy9  1  0.666667  0.333333  0.666317  1
  Te  Te10  1  0.000000  0.000000  0.500000  1
  W  W11  1  0.000000  0.000000  0.000000  1
  O  O12  1  0.885803  0.696730  0.575399  1
  O  O13  1  0.000979  0.548728  0.249988  1
  O  O14  1  0.189551  0.303171  0.924772  1
  O  O15  1  0.886379  0.189551  0.075228  1
  O  O16  1  0.810926  0.114197  0.575399  1
  O  O17  1  0.810449  0.696829  0.075228  1
  O  O18  1  0.696730  0.810926  0.424601  1
  O  O19  1  0.452251  0.000979  0.750012  1
  O  O20  1  0.548728  0.547749  0.750012  1
  O  O21  1  0.303270  0.189074  0.575399  1
  O  O22  1  0.114197  0.303270  0.424601  1
  O  O23  1  0.189074  0.885803  0.424601  1
  O  O24  1  0.303171  0.113621  0.075228  1
  O  O25  1  0.547749  0.999021  0.249988  1
  O  O26  1  0.451272  0.452251  0.249988  1
  O  O27  1  0.999021  0.451272  0.750012  1
  O  O28  1  0.113621  0.810449  0.924772  1
  O  O29  1  0.696829  0.886379  0.924772  1
