# generated using pymatgen
data_CsSc6(CBr6)2
_symmetry_space_group_name_H-M   'P 1'
_cell_length_a   8.57680111
_cell_length_b   8.66068174
_cell_length_c   8.98448903
_cell_angle_alpha   73.18272462
_cell_angle_beta   72.35839696
_cell_angle_gamma   73.49502595
_symmetry_Int_Tables_number   1
_chemical_formula_structural   CsSc6(CBr6)2
_chemical_formula_sum   'Cs1 Sc6 C2 Br12'
_cell_volume   594.51051718
_cell_formula_units_Z   1
loop_
 _symmetry_equiv_pos_site_id
 _symmetry_equiv_pos_as_xyz
  1  'x, y, z'
loop_
 _atom_site_type_symbol
 _atom_site_label
 _atom_site_symmetry_multiplicity
 _atom_site_fract_x
 _atom_site_fract_y
 _atom_site_fract_z
 _atom_site_occupancy
  Cs  Cs0  1  0.999994  0.499989  0.999994  1
  Sc  Sc1  1  0.468994  0.110134  0.188483  1
  Sc  Sc2  1  0.765963  0.031489  0.410561  1
  Sc  Sc3  1  0.586630  0.740211  0.478915  1
  Sc  Sc4  1  0.413372  0.259796  0.521091  1
  Sc  Sc5  1  0.234044  0.968504  0.589440  1
  Sc  Sc6  1  0.530995  0.889879  0.811517  1
  C  C7  1  0.490792  0.025174  0.420634  1
  C  C8  1  0.509207  0.974832  0.579360  1
  Br  Br9  1  0.786488  0.146872  0.089921  1
  Br  Br10  1  0.571965  0.793156  0.138034  1
  Br  Br11  1  0.356445  0.419495  0.225935  1
  Br  Br12  1  0.135091  0.065784  0.301173  1
  Br  Br13  1  0.907104  0.728117  0.360768  1
  Br  Br14  1  0.704800  0.351933  0.437780  1
  Br  Br15  1  0.295207  0.648059  0.562223  1
  Br  Br16  1  0.092897  0.271873  0.639236  1
  Br  Br17  1  0.864911  0.934209  0.698833  1
  Br  Br18  1  0.643552  0.580511  0.774067  1
  Br  Br19  1  0.428045  0.206859  0.861951  1
  Br  Br20  1  0.213511  0.853126  0.910083  1
