# generated using pymatgen
data_Hf18FeCuRe8
_symmetry_space_group_name_H-M   'P 1'
_cell_length_a   8.52924500
_cell_length_b   8.59245179
_cell_length_c   8.59245107
_cell_angle_alpha   119.99793291
_cell_angle_beta   90.00000000
_cell_angle_gamma   90.00000000
_symmetry_Int_Tables_number   1
_chemical_formula_structural   Hf18FeCuRe8
_chemical_formula_sum   'Hf18 Fe1 Cu1 Re8'
_cell_volume   545.36145365
_cell_formula_units_Z   1
loop_
 _symmetry_equiv_pos_site_id
 _symmetry_equiv_pos_as_xyz
  1  'x, y, z'
loop_
 _atom_site_type_symbol
 _atom_site_label
 _atom_site_symmetry_multiplicity
 _atom_site_fract_x
 _atom_site_fract_y
 _atom_site_fract_z
 _atom_site_occupancy
  Hf  Hf0  1  0.553432  0.804472  0.608950  1
  Hf  Hf1  1  0.553459  0.804456  0.195544  1
  Hf  Hf2  1  0.553432  0.391050  0.195528  1
  Hf  Hf3  1  0.441743  0.200520  0.401036  1
  Hf  Hf4  1  0.441710  0.200537  0.799463  1
  Hf  Hf5  1  0.441743  0.598964  0.799480  1
  Hf  Hf6  1  0.058257  0.200520  0.401036  1
  Hf  Hf7  1  0.058290  0.200537  0.799463  1
  Hf  Hf8  1  0.058257  0.598964  0.799480  1
  Hf  Hf9  1  0.946568  0.804472  0.608950  1
  Hf  Hf10  1  0.946541  0.804456  0.195544  1
  Hf  Hf11  1  0.946568  0.391050  0.195528  1
  Hf  Hf12  1  0.750000  0.458790  0.917624  1
  Hf  Hf13  1  0.750000  0.458793  0.541207  1
  Hf  Hf14  1  0.750000  0.082376  0.541209  1
  Hf  Hf15  1  0.250000  0.540485  0.080927  1
  Hf  Hf16  1  0.250000  0.540469  0.459531  1
  Hf  Hf17  1  0.250000  0.919073  0.459514  1
  Fe  Fe18  1  0.250000  0.333374  0.666626  1
  Cu  Cu19  1  0.750000  0.666624  0.333376  1
  Re  Re20  1  0.750000  0.110863  0.221744  1
  Re  Re21  1  0.750000  0.110871  0.889129  1
  Re  Re22  1  0.750000  0.778256  0.889137  1
  Re  Re23  1  0.250000  0.889858  0.779673  1
  Re  Re24  1  0.250000  0.889842  0.110158  1
  Re  Re25  1  0.250000  0.220327  0.110142  1
  Re  Re26  1  0.500402  0.999999  0.000001  1
  Re  Re27  1  0.999598  0.999999  0.000001  1
