# generated using pymatgen
data_Dy17Ho3(IrPt5)2
_symmetry_space_group_name_H-M   'P 1'
_cell_length_a   11.03525200
_cell_length_b   11.03577900
_cell_length_c   6.41108800
_cell_angle_alpha   90.00000000
_cell_angle_beta   90.00000000
_cell_angle_gamma   89.99887854
_symmetry_Int_Tables_number   1
_chemical_formula_structural   Dy17Ho3(IrPt5)2
_chemical_formula_sum   'Dy17 Ho3 Ir2 Pt10'
_cell_volume   780.75898002
_cell_formula_units_Z   1
loop_
 _symmetry_equiv_pos_site_id
 _symmetry_equiv_pos_as_xyz
  1  'x, y, z'
loop_
 _atom_site_type_symbol
 _atom_site_label
 _atom_site_symmetry_multiplicity
 _atom_site_fract_x
 _atom_site_fract_y
 _atom_site_fract_z
 _atom_site_occupancy
  Dy  Dy0  1  0.292350  0.088701  0.376350  1
  Dy  Dy1  1  0.292344  0.911325  0.876372  1
  Dy  Dy2  1  0.707656  0.088675  0.876372  1
  Dy  Dy3  1  0.707650  0.911299  0.376350  1
  Dy  Dy4  1  0.588706  0.792497  0.876303  1
  Dy  Dy5  1  0.588785  0.207424  0.376226  1
  Dy  Dy6  1  0.411215  0.792576  0.376226  1
  Dy  Dy7  1  0.411294  0.207503  0.876303  1
  Dy  Dy8  1  0.204849  0.411842  0.624170  1
  Dy  Dy9  1  0.204948  0.588073  0.124071  1
  Dy  Dy10  1  0.795052  0.411927  0.124071  1
  Dy  Dy11  1  0.795151  0.588158  0.624170  1
  Dy  Dy12  1  0.911932  0.705142  0.124023  1
  Dy  Dy13  1  0.911898  0.294883  0.624005  1
  Dy  Dy14  1  0.088102  0.705117  0.624005  1
  Dy  Dy15  1  0.088068  0.294858  0.124023  1
  Dy  Dy16  1  0.500000  0.500000  0.501029  1
  Ho  Ho17  1  0.000000  0.000000  0.501025  1
  Ho  Ho18  1  0.000000  0.000000  0.001019  1
  Ho  Ho19  1  0.500000  0.500000  0.001030  1
  Ir  Ir20  1  0.000000  0.500000  0.879012  1
  Ir  Ir21  1  0.000000  0.500000  0.378966  1
  Pt  Pt22  1  0.846313  0.152233  0.250156  1
  Pt  Pt23  1  0.846337  0.847763  0.750231  1
  Pt  Pt24  1  0.153663  0.152237  0.750231  1
  Pt  Pt25  1  0.153687  0.847767  0.250156  1
  Pt  Pt26  1  0.652575  0.345935  0.750702  1
  Pt  Pt27  1  0.652589  0.654014  0.249631  1
  Pt  Pt28  1  0.347411  0.345986  0.249631  1
  Pt  Pt29  1  0.347425  0.654065  0.750702  1
  Pt  Pt30  1  0.500000  0.000000  0.116740  1
  Pt  Pt31  1  0.500000  0.000000  0.616702  1
