# generated using pymatgen
data_Sr3Li7Al5
_symmetry_space_group_name_H-M   'P 1'
_cell_length_a   9.82584551
_cell_length_b   9.82584329
_cell_length_c   7.97186063
_cell_angle_alpha   89.39868873
_cell_angle_beta   90.60130900
_cell_angle_gamma   118.94802075
_symmetry_Int_Tables_number   1
_chemical_formula_structural   Sr3Li7Al5
_chemical_formula_sum   'Sr6 Li14 Al10'
_cell_volume   673.44890162
_cell_formula_units_Z   2
loop_
 _symmetry_equiv_pos_site_id
 _symmetry_equiv_pos_as_xyz
  1  'x, y, z'
loop_
 _atom_site_type_symbol
 _atom_site_label
 _atom_site_symmetry_multiplicity
 _atom_site_fract_x
 _atom_site_fract_y
 _atom_site_fract_z
 _atom_site_occupancy
  Sr  Sr0  1  0.520801  0.043373  0.245423  1
  Sr  Sr1  1  0.479199  0.956627  0.754577  1
  Sr  Sr2  1  0.956627  0.479199  0.245423  1
  Sr  Sr3  1  0.043373  0.520801  0.754577  1
  Sr  Sr4  1  0.527739  0.472261  0.247646  1
  Sr  Sr5  1  0.472261  0.527739  0.752354  1
  Li  Li6  1  0.000000  0.000000  0.000000  1
  Li  Li7  1  0.000000  0.000000  0.500000  1
  Li  Li8  1  0.838749  0.161251  0.574223  1
  Li  Li9  1  0.161251  0.838749  0.425777  1
  Li  Li10  1  0.893005  0.788202  0.249251  1
  Li  Li11  1  0.106995  0.211798  0.750749  1
  Li  Li12  1  0.211798  0.106995  0.249251  1
  Li  Li13  1  0.788202  0.893005  0.750749  1
  Li  Li14  1  0.893212  0.106788  0.254975  1
  Li  Li15  1  0.106788  0.893212  0.745025  1
  Li  Li16  1  0.332483  0.667517  0.075168  1
  Li  Li17  1  0.667517  0.332483  0.924832  1
  Li  Li18  1  0.661140  0.338860  0.579437  1
  Li  Li19  1  0.338860  0.661140  0.420563  1
  Al  Al20  1  0.163090  0.323730  0.067887  1
  Al  Al21  1  0.836910  0.676270  0.932113  1
  Al  Al22  1  0.676270  0.836910  0.067887  1
  Al  Al23  1  0.829620  0.672881  0.570329  1
  Al  Al24  1  0.323730  0.163090  0.932113  1
  Al  Al25  1  0.170380  0.327119  0.429671  1
  Al  Al26  1  0.161626  0.838374  0.062413  1
  Al  Al27  1  0.327119  0.170380  0.570329  1
  Al  Al28  1  0.838374  0.161626  0.937587  1
  Al  Al29  1  0.672881  0.829620  0.429671  1
