# generated using pymatgen
data_LaDyZn5Si
_symmetry_space_group_name_H-M   'P 1'
_cell_length_a   8.28376756
_cell_length_b   8.28376857
_cell_length_c   8.80986100
_cell_angle_alpha   90.00000000
_cell_angle_beta   90.00000000
_cell_angle_gamma   149.32073844
_symmetry_Int_Tables_number   1
_chemical_formula_structural   LaDyZn5Si
_chemical_formula_sum   'La2 Dy2 Zn10 Si2'
_cell_volume   308.45535797
_cell_formula_units_Z   2
loop_
 _symmetry_equiv_pos_site_id
 _symmetry_equiv_pos_as_xyz
  1  'x, y, z'
loop_
 _atom_site_type_symbol
 _atom_site_label
 _atom_site_symmetry_multiplicity
 _atom_site_fract_x
 _atom_site_fract_y
 _atom_site_fract_z
 _atom_site_occupancy
  La  La0  1  0.000000  0.000000  0.500000  1
  La  La1  1  0.000000  0.000000  0.000000  1
  Dy  Dy2  1  0.201525  0.798475  0.250000  1
  Dy  Dy3  1  0.798475  0.201525  0.750000  1
  Zn  Zn4  1  0.812203  0.187797  0.391408  1
  Zn  Zn5  1  0.187797  0.812203  0.608592  1
  Zn  Zn6  1  0.812203  0.187797  0.108592  1
  Zn  Zn7  1  0.187797  0.812203  0.891408  1
  Zn  Zn8  1  0.653692  0.346308  0.474643  1
  Zn  Zn9  1  0.346308  0.653692  0.525357  1
  Zn  Zn10  1  0.653692  0.346308  0.025357  1
  Zn  Zn11  1  0.346308  0.653692  0.974643  1
  Zn  Zn12  1  0.402138  0.597862  0.250000  1
  Zn  Zn13  1  0.597862  0.402138  0.750000  1
  Si  Si14  1  0.559701  0.440299  0.250000  1
  Si  Si15  1  0.440299  0.559701  0.750000  1
