# generated using pymatgen
data_CaTa2P2O11
_symmetry_space_group_name_H-M   'P 1'
_cell_length_a   9.33263501
_cell_length_b   9.33263502
_cell_length_c   5.27648509
_cell_angle_alpha   87.08750058
_cell_angle_beta   87.08749499
_cell_angle_gamma   71.77952000
_symmetry_Int_Tables_number   1
_chemical_formula_structural   CaTa2P2O11
_chemical_formula_sum   'Ca2 Ta4 P4 O22'
_cell_volume   435.66953280
_cell_formula_units_Z   2
loop_
 _symmetry_equiv_pos_site_id
 _symmetry_equiv_pos_as_xyz
  1  'x, y, z'
loop_
 _atom_site_type_symbol
 _atom_site_label
 _atom_site_symmetry_multiplicity
 _atom_site_fract_x
 _atom_site_fract_y
 _atom_site_fract_z
 _atom_site_occupancy
  Ca  Ca0  1  0.605515  0.394485  0.250000  1
  Ca  Ca1  1  0.394485  0.605515  0.750000  1
  Ta  Ta2  1  0.004236  0.245533  0.265954  1
  Ta  Ta3  1  0.245533  0.004236  0.765954  1
  Ta  Ta4  1  0.754467  0.995764  0.234046  1
  Ta  Ta5  1  0.995764  0.754467  0.734046  1
  P  P6  1  0.184223  0.520190  0.243131  1
  P  P7  1  0.815777  0.479810  0.756869  1
  P  P8  1  0.479810  0.815777  0.256869  1
  P  P9  1  0.520190  0.184223  0.743131  1
  O  O10  1  0.625860  0.076850  0.549366  1
  O  O11  1  0.090922  0.136865  0.568771  1
  O  O12  1  0.076850  0.625860  0.049366  1
  O  O13  1  0.835420  0.403812  0.495093  1
  O  O14  1  0.834633  0.165367  0.250000  1
  O  O15  1  0.403812  0.835420  0.995093  1
  O  O16  1  0.596188  0.164580  0.004907  1
  O  O17  1  0.374003  0.138535  0.784663  1
  O  O18  1  0.909078  0.863135  0.431229  1
  O  O19  1  0.136865  0.090922  0.068771  1
  O  O20  1  0.923150  0.374140  0.950634  1
  O  O21  1  0.514964  0.653863  0.363660  1
  O  O22  1  0.346137  0.485036  0.136340  1
  O  O23  1  0.861465  0.625997  0.715337  1
  O  O24  1  0.165367  0.834633  0.750000  1
  O  O25  1  0.863135  0.909078  0.931229  1
  O  O26  1  0.164580  0.596188  0.504907  1
  O  O27  1  0.625997  0.861465  0.215337  1
  O  O28  1  0.653863  0.514964  0.863660  1
  O  O29  1  0.374140  0.923150  0.450634  1
  O  O30  1  0.485036  0.346137  0.636340  1
  O  O31  1  0.138535  0.374003  0.284663  1
