# generated using pymatgen
data_Y6Ta(Fe3Co8)2
_symmetry_space_group_name_H-M   'P 1'
_cell_length_a   8.38191727
_cell_length_b   8.38375404
_cell_length_c   8.38259000
_cell_angle_alpha   59.99985813
_cell_angle_beta   60.00009182
_cell_angle_gamma   59.99380414
_symmetry_Int_Tables_number   1
_chemical_formula_structural   Y6Ta(Fe3Co8)2
_chemical_formula_sum   'Y6 Ta1 Fe6 Co16'
_cell_volume   416.50922177
_cell_formula_units_Z   1
loop_
 _symmetry_equiv_pos_site_id
 _symmetry_equiv_pos_as_xyz
  1  'x, y, z'
loop_
 _atom_site_type_symbol
 _atom_site_label
 _atom_site_symmetry_multiplicity
 _atom_site_fract_x
 _atom_site_fract_y
 _atom_site_fract_z
 _atom_site_occupancy
  Y  Y0  1  0.711613  0.711705  0.288325  1
  Y  Y1  1  0.288378  0.711682  0.288303  1
  Y  Y2  1  0.711636  0.288334  0.288347  1
  Y  Y3  1  0.288387  0.288295  0.711675  1
  Y  Y4  1  0.711622  0.288318  0.711697  1
  Y  Y5  1  0.288364  0.711666  0.711653  1
  Ta  Ta6  1  0.000000  0.000000  0.000000  1
  Fe  Fe7  1  0.000000  0.000000  0.500000  1
  Fe  Fe8  1  0.500000  0.000000  0.500000  1
  Fe  Fe9  1  0.000000  0.500000  0.500000  1
  Fe  Fe10  1  0.500000  0.500000  0.000000  1
  Fe  Fe11  1  0.000000  0.500000  0.000000  1
  Fe  Fe12  1  0.500000  0.000000  0.000000  1
  Co  Co13  1  0.875348  0.875307  0.374003  1
  Co  Co14  1  0.875371  0.373948  0.875366  1
  Co  Co15  1  0.373966  0.875334  0.875375  1
  Co  Co16  1  0.875315  0.875270  0.875359  1
  Co  Co17  1  0.124652  0.124693  0.625997  1
  Co  Co18  1  0.124629  0.626052  0.124634  1
  Co  Co19  1  0.626034  0.124666  0.124625  1
  Co  Co20  1  0.124685  0.124730  0.124641  1
  Co  Co21  1  0.676870  0.676910  0.969341  1
  Co  Co22  1  0.676794  0.969436  0.676911  1
  Co  Co23  1  0.969421  0.676823  0.676894  1
  Co  Co24  1  0.676853  0.676874  0.676891  1
  Co  Co25  1  0.323130  0.323090  0.030659  1
  Co  Co26  1  0.323206  0.030564  0.323089  1
  Co  Co27  1  0.030579  0.323177  0.323106  1
  Co  Co28  1  0.323147  0.323126  0.323109  1
