# generated using pymatgen
data_TbCeRh2Pb
_symmetry_space_group_name_H-M   'P 1'
_cell_length_a   7.87772900
_cell_length_b   7.73176600
_cell_length_c   3.66255200
_cell_angle_alpha   90.00000000
_cell_angle_beta   90.00000000
_cell_angle_gamma   90.00000000
_symmetry_Int_Tables_number   1
_chemical_formula_structural   TbCeRh2Pb
_chemical_formula_sum   'Tb2 Ce2 Rh4 Pb2'
_cell_volume   223.08149064
_cell_formula_units_Z   2
loop_
 _symmetry_equiv_pos_site_id
 _symmetry_equiv_pos_as_xyz
  1  'x, y, z'
loop_
 _atom_site_type_symbol
 _atom_site_label
 _atom_site_symmetry_multiplicity
 _atom_site_fract_x
 _atom_site_fract_y
 _atom_site_fract_z
 _atom_site_occupancy
  Tb  Tb0  1  0.330889  0.170139  0.499999  1
  Tb  Tb1  1  0.830889  0.329860  0.499999  1
  Ce  Ce2  1  0.176653  0.665256  0.499999  1
  Ce  Ce3  1  0.676653  0.834743  0.499999  1
  Rh  Rh4  1  0.626260  0.107296  0.000000  1
  Rh  Rh5  1  0.126261  0.392704  0.000000  1
  Rh  Rh6  1  0.858921  0.648565  0.000000  1
  Rh  Rh7  1  0.358921  0.851434  0.000000  1
  Pb  Pb8  1  0.007275  0.007363  0.000000  1
  Pb  Pb9  1  0.507275  0.492637  0.000000  1
