# generated using pymatgen
data_HoErFe7
_symmetry_space_group_name_H-M   'P 1'
_cell_length_a   5.05363677
_cell_length_b   5.05363462
_cell_length_c   12.25966074
_cell_angle_alpha   78.10561112
_cell_angle_beta   78.10560284
_cell_angle_gamma   59.99999364
_symmetry_Int_Tables_number   1
_chemical_formula_structural   HoErFe7
_chemical_formula_sum   'Ho2 Er2 Fe14'
_cell_volume   263.36341108
_cell_formula_units_Z   2
loop_
 _symmetry_equiv_pos_site_id
 _symmetry_equiv_pos_as_xyz
  1  'x, y, z'
loop_
 _atom_site_type_symbol
 _atom_site_label
 _atom_site_symmetry_multiplicity
 _atom_site_fract_x
 _atom_site_fract_y
 _atom_site_fract_z
 _atom_site_occupancy
  Ho  Ho0  1  0.947804  0.947804  0.156587  1
  Ho  Ho1  1  0.052196  0.052196  0.843413  1
  Er  Er2  1  0.850459  0.850459  0.448625  1
  Er  Er3  1  0.149541  0.149541  0.551375  1
  Fe  Fe4  1  0.500000  0.500000  0.500000  1
  Fe  Fe5  1  0.721471  0.721471  0.835588  1
  Fe  Fe6  1  0.278529  0.278529  0.164412  1
  Fe  Fe7  1  0.612338  0.612338  0.162986  1
  Fe  Fe8  1  0.387662  0.387662  0.837014  1
  Fe  Fe9  1  0.000000  0.500000  0.000000  1
  Fe  Fe10  1  0.500000  0.000000  0.000000  1
  Fe  Fe11  1  0.500000  0.500000  0.000000  1
  Fe  Fe12  1  0.390236  0.390236  0.328993  1
  Fe  Fe13  1  0.890534  0.390236  0.328993  1
  Fe  Fe14  1  0.390236  0.890534  0.328993  1
  Fe  Fe15  1  0.609764  0.609764  0.671007  1
  Fe  Fe16  1  0.109466  0.609764  0.671007  1
  Fe  Fe17  1  0.609764  0.109466  0.671007  1
