# generated using pymatgen
data_Cs2AcY(SiSe4)2
_symmetry_space_group_name_H-M   'P 1'
_cell_length_a   7.14715749
_cell_length_b   6.80880095
_cell_length_c   9.89560900
_cell_angle_alpha   72.06553570
_cell_angle_beta   90.05662113
_cell_angle_gamma   90.18849482
_symmetry_Int_Tables_number   1
_chemical_formula_structural   Cs2AcY(SiSe4)2
_chemical_formula_sum   'Cs2 Ac1 Y1 Si2 Se8'
_cell_volume   458.15410528
_cell_formula_units_Z   1
loop_
 _symmetry_equiv_pos_site_id
 _symmetry_equiv_pos_as_xyz
  1  'x, y, z'
loop_
 _atom_site_type_symbol
 _atom_site_label
 _atom_site_symmetry_multiplicity
 _atom_site_fract_x
 _atom_site_fract_y
 _atom_site_fract_z
 _atom_site_occupancy
  Cs  Cs0  1  0.978111  0.733130  0.063525  1
  Cs  Cs1  1  0.478016  0.261893  0.936404  1
  Ac  Ac2  1  0.493324  0.227505  0.454053  1
  Y  Y3  1  0.001072  0.769831  0.547628  1
  Si  Si4  1  0.459848  0.787098  0.331579  1
  Si  Si5  1  0.961979  0.213310  0.668495  1
  Se  Se6  1  0.466674  0.603280  0.175476  1
  Se  Se7  1  0.216901  0.019835  0.284756  1
  Se  Se8  1  0.737396  0.969341  0.308141  1
  Se  Se9  1  0.917883  0.423114  0.440524  1
  Se  Se10  1  0.400478  0.603278  0.564408  1
  Se  Se11  1  0.220643  0.004693  0.701906  1
  Se  Se12  1  0.734079  0.962290  0.714171  1
  Se  Se13  1  0.967598  0.421403  0.808934  1
