# generated using pymatgen
data_Ta3Nb3Co15Si7Ni
_symmetry_space_group_name_H-M   'P 1'
_cell_length_a   7.91738964
_cell_length_b   7.91417156
_cell_length_c   7.91549236
_cell_angle_alpha   60.02430550
_cell_angle_beta   59.96117943
_cell_angle_gamma   59.99799012
_symmetry_Int_Tables_number   1
_chemical_formula_structural   Ta3Nb3Co15Si7Ni
_chemical_formula_sum   'Ta3 Nb3 Co15 Si7 Ni1'
_cell_volume   350.66781387
_cell_formula_units_Z   1
loop_
 _symmetry_equiv_pos_site_id
 _symmetry_equiv_pos_as_xyz
  1  'x, y, z'
loop_
 _atom_site_type_symbol
 _atom_site_label
 _atom_site_symmetry_multiplicity
 _atom_site_fract_x
 _atom_site_fract_y
 _atom_site_fract_z
 _atom_site_occupancy
  Ta  Ta0  1  0.797688  0.796033  0.203140  1
  Ta  Ta1  1  0.795785  0.200244  0.796173  1
  Ta  Ta2  1  0.203429  0.795342  0.203960  1
  Nb  Nb3  1  0.797551  0.198393  0.206220  1
  Nb  Nb4  1  0.201835  0.796785  0.799112  1
  Nb  Nb5  1  0.206565  0.199119  0.797177  1
  Co  Co6  1  0.163736  0.168150  0.502718  1
  Co  Co7  1  0.504018  0.166678  0.163897  1
  Co  Co8  1  0.165283  0.166668  0.165461  1
  Co  Co9  1  0.498528  0.834268  0.834349  1
  Co  Co10  1  0.832726  0.835641  0.834325  1
  Co  Co11  1  0.834257  0.834203  0.497136  1
  Co  Co12  1  0.165384  0.502015  0.167013  1
  Co  Co13  1  0.619112  0.144796  0.618765  1
  Co  Co14  1  0.382563  0.380546  0.856031  1
  Co  Co15  1  0.856102  0.381591  0.381887  1
  Co  Co16  1  0.381088  0.381990  0.380900  1
  Co  Co17  1  0.145073  0.618739  0.617358  1
  Co  Co18  1  0.619382  0.617824  0.617757  1
  Co  Co19  1  0.618009  0.619096  0.145038  1
  Co  Co20  1  0.381238  0.858080  0.379658  1
  Si  Si21  1  0.499609  0.500704  0.499837  1
  Si  Si22  1  0.499406  0.998979  0.499459  1
  Si  Si23  1  0.999461  0.500684  0.999558  1
  Si  Si24  1  0.001894  0.998868  0.499680  1
  Si  Si25  1  0.499477  0.998950  0.002115  1
  Si  Si26  1  0.999501  0.500694  0.500176  1
  Si  Si27  1  0.499951  0.500608  0.999716  1
  Ni  Ni28  1  0.831348  0.504316  0.831382  1
