# generated using pymatgen
data_Mn6Fe11Si6Ru
_symmetry_space_group_name_H-M   'P 1'
_cell_length_a   3.97984201
_cell_length_b   5.61736100
_cell_length_c   11.93726703
_cell_angle_alpha   90.00358549
_cell_angle_beta   89.99257549
_cell_angle_gamma   90.00091979
_symmetry_Int_Tables_number   1
_chemical_formula_structural   Mn6Fe11Si6Ru
_chemical_formula_sum   'Mn6 Fe11 Si6 Ru1'
_cell_volume   266.87203737
_cell_formula_units_Z   1
loop_
 _symmetry_equiv_pos_site_id
 _symmetry_equiv_pos_as_xyz
  1  'x, y, z'
loop_
 _atom_site_type_symbol
 _atom_site_label
 _atom_site_symmetry_multiplicity
 _atom_site_fract_x
 _atom_site_fract_y
 _atom_site_fract_z
 _atom_site_occupancy
  Mn  Mn0  1  0.000011  0.006770  0.005283  1
  Mn  Mn1  1  0.499701  0.501273  0.167456  1
  Mn  Mn2  1  0.999669  0.997166  0.333284  1
  Mn  Mn3  1  0.500010  0.501385  0.499176  1
  Mn  Mn4  1  0.000297  0.006680  0.661438  1
  Mn  Mn5  1  0.500333  0.485353  0.833350  1
  Fe  Fe6  1  0.500018  0.250231  0.002726  1
  Fe  Fe7  1  0.500050  0.749614  0.001226  1
  Fe  Fe8  1  0.999673  0.250667  0.171001  1
  Fe  Fe9  1  0.999693  0.749657  0.167579  1
  Fe  Fe10  1  0.499665  0.249605  0.333401  1
  Fe  Fe11  1  0.499659  0.750865  0.333301  1
  Fe  Fe12  1  0.999981  0.250638  0.495645  1
  Fe  Fe13  1  0.000034  0.749672  0.498929  1
  Fe  Fe14  1  0.500330  0.250312  0.663848  1
  Fe  Fe15  1  0.500331  0.749584  0.665549  1
  Fe  Fe16  1  0.000307  0.249284  0.833375  1
  Si  Si17  1  0.000008  0.494546  0.005002  1
  Si  Si18  1  0.499653  0.999326  0.167412  1
  Si  Si19  1  0.999636  0.502074  0.333238  1
  Si  Si20  1  0.500020  0.999223  0.499259  1
  Si  Si21  1  0.000339  0.494639  0.661756  1
  Si  Si22  1  0.500316  0.011448  0.833300  1
  Ru  Ru23  1  0.000268  0.749988  0.833468  1
