# generated using pymatgen
data_AcLaNi7Ir3
_symmetry_space_group_name_H-M   'P 1'
_cell_length_a   4.06237300
_cell_length_b   5.17781520
_cell_length_c   8.97260726
_cell_angle_alpha   91.78944982
_cell_angle_beta   90.00000000
_cell_angle_gamma   90.00000000
_symmetry_Int_Tables_number   1
_chemical_formula_structural   AcLaNi7Ir3
_chemical_formula_sum   'Ac1 La1 Ni7 Ir3'
_cell_volume   188.63972600
_cell_formula_units_Z   1
loop_
 _symmetry_equiv_pos_site_id
 _symmetry_equiv_pos_as_xyz
  1  'x, y, z'
loop_
 _atom_site_type_symbol
 _atom_site_label
 _atom_site_symmetry_multiplicity
 _atom_site_fract_x
 _atom_site_fract_y
 _atom_site_fract_z
 _atom_site_occupancy
  Ac  Ac0  1  0.000000  0.500000  0.500000  1
  La  La1  1  0.000000  0.000000  0.000000  1
  Ni  Ni2  1  0.000000  0.985849  0.325152  1
  Ni  Ni3  1  0.000000  0.492877  0.843086  1
  Ni  Ni4  1  0.000000  0.507123  0.156914  1
  Ni  Ni5  1  0.000000  0.014151  0.674848  1
  Ni  Ni6  1  0.500000  0.500000  0.000000  1
  Ni  Ni7  1  0.500000  0.747916  0.245325  1
  Ni  Ni8  1  0.500000  0.252084  0.754675  1
  Ir  Ir9  1  0.500000  0.000000  0.500000  1
  Ir  Ir10  1  0.500000  0.252996  0.244429  1
  Ir  Ir11  1  0.500000  0.747004  0.755571  1
