# generated using pymatgen
data_Ho5ScTc2
_symmetry_space_group_name_H-M   'P 1'
_cell_length_a   6.19689100
_cell_length_b   7.27532000
_cell_length_c   9.08409100
_cell_angle_alpha   90.00000000
_cell_angle_beta   90.00000000
_cell_angle_gamma   90.00000000
_symmetry_Int_Tables_number   1
_chemical_formula_structural   Ho5ScTc2
_chemical_formula_sum   'Ho10 Sc2 Tc4'
_cell_volume   409.55047461
_cell_formula_units_Z   2
loop_
 _symmetry_equiv_pos_site_id
 _symmetry_equiv_pos_as_xyz
  1  'x, y, z'
loop_
 _atom_site_type_symbol
 _atom_site_label
 _atom_site_symmetry_multiplicity
 _atom_site_fract_x
 _atom_site_fract_y
 _atom_site_fract_z
 _atom_site_occupancy
  Ho  Ho0  1  0.340303  0.676668  0.065552  1
  Ho  Ho1  1  0.159697  0.176668  0.434448  1
  Ho  Ho2  1  0.661790  0.322580  0.557926  1
  Ho  Ho3  1  0.838210  0.822580  0.942074  1
  Ho  Ho4  1  0.661790  0.322580  0.942074  1
  Ho  Ho5  1  0.838210  0.822580  0.557926  1
  Ho  Ho6  1  0.340303  0.676668  0.434448  1
  Ho  Ho7  1  0.159697  0.176668  0.065552  1
  Ho  Ho8  1  0.126390  0.460099  0.750000  1
  Ho  Ho9  1  0.373610  0.960099  0.750000  1
  Sc  Sc10  1  0.869019  0.546156  0.250000  1
  Sc  Sc11  1  0.630981  0.046156  0.250000  1
  Tc  Tc12  1  0.023657  0.881846  0.250000  1
  Tc  Tc13  1  0.476343  0.381846  0.250000  1
  Tc  Tc14  1  0.958984  0.113403  0.750000  1
  Tc  Tc15  1  0.541016  0.613403  0.750000  1
