# generated using pymatgen
data_DyEr7Re2(B12Ir)2
_symmetry_space_group_name_H-M   'P 1'
_cell_length_a   3.64876900
_cell_length_b   9.11657316
_cell_length_c   11.50174601
_cell_angle_alpha   90.32266307
_cell_angle_beta   90.00000000
_cell_angle_gamma   90.00000000
_symmetry_Int_Tables_number   1
_chemical_formula_structural   DyEr7Re2(B12Ir)2
_chemical_formula_sum   'Dy1 Er7 Re2 B24 Ir2'
_cell_volume   382.59111266
_cell_formula_units_Z   1
loop_
 _symmetry_equiv_pos_site_id
 _symmetry_equiv_pos_as_xyz
  1  'x, y, z'
loop_
 _atom_site_type_symbol
 _atom_site_label
 _atom_site_symmetry_multiplicity
 _atom_site_fract_x
 _atom_site_fract_y
 _atom_site_fract_z
 _atom_site_occupancy
  Dy  Dy0  1  0.000000  0.317104  0.409878  1
  Er  Er1  1  0.000000  0.683369  0.590313  1
  Er  Er2  1  0.000000  0.826416  0.082139  1
  Er  Er3  1  0.000000  0.173563  0.917839  1
  Er  Er4  1  0.000000  0.945852  0.372325  1
  Er  Er5  1  0.000000  0.053864  0.627722  1
  Er  Er6  1  0.000000  0.441657  0.125707  1
  Er  Er7  1  0.000000  0.558406  0.874233  1
  Re  Re8  1  0.000000  0.137879  0.179552  1
  Re  Re9  1  0.000000  0.861878  0.820205  1
  B  B10  1  0.500000  0.554221  0.434156  1
  B  B11  1  0.500000  0.446218  0.566092  1
  B  B12  1  0.500000  0.053014  0.067022  1
  B  B13  1  0.500000  0.946951  0.932921  1
  B  B14  1  0.500000  0.749431  0.421523  1
  B  B15  1  0.500000  0.250497  0.578896  1
  B  B16  1  0.500000  0.247894  0.080365  1
  B  B17  1  0.500000  0.752094  0.919556  1
  B  B18  1  0.500000  0.790958  0.265989  1
  B  B19  1  0.500000  0.209054  0.734057  1
  B  B20  1  0.500000  0.292254  0.234075  1
  B  B21  1  0.500000  0.707568  0.765596  1
  B  B22  1  0.500000  0.631667  0.183881  1
  B  B23  1  0.500000  0.368391  0.816116  1
  B  B24  1  0.500000  0.131080  0.314732  1
  B  B25  1  0.500000  0.868603  0.685067  1
  B  B26  1  0.500000  0.982075  0.213096  1
  B  B27  1  0.500000  0.017816  0.786869  1
  B  B28  1  0.500000  0.482337  0.287105  1
  B  B29  1  0.500000  0.518079  0.712740  1
  B  B30  1  0.500000  0.606838  0.029936  1
  B  B31  1  0.500000  0.393185  0.970036  1
  B  B32  1  0.500000  0.106775  0.470980  1
  B  B33  1  0.500000  0.892661  0.529162  1
  Ir  Ir34  1  0.000000  0.636777  0.322153  1
  Ir  Ir35  1  0.000000  0.363575  0.677966  1
