# generated using pymatgen
data_Li4AcSm3Si8
_symmetry_space_group_name_H-M   'P 1'
_cell_length_a   3.89070000
_cell_length_b   7.75940625
_cell_length_c   10.56637431
_cell_angle_alpha   89.64468754
_cell_angle_beta   90.00000000
_cell_angle_gamma   90.00000000
_symmetry_Int_Tables_number   1
_chemical_formula_structural   Li4AcSm3Si8
_chemical_formula_sum   'Li4 Ac1 Sm3 Si8'
_cell_volume   318.98765495
_cell_formula_units_Z   1
loop_
 _symmetry_equiv_pos_site_id
 _symmetry_equiv_pos_as_xyz
  1  'x, y, z'
loop_
 _atom_site_type_symbol
 _atom_site_label
 _atom_site_symmetry_multiplicity
 _atom_site_fract_x
 _atom_site_fract_y
 _atom_site_fract_z
 _atom_site_occupancy
  Li  Li0  1  0.250000  0.997567  0.390993  1
  Li  Li1  1  0.750000  0.006390  0.612721  1
  Li  Li2  1  0.250000  0.492650  0.106205  1
  Li  Li3  1  0.750000  0.506486  0.891909  1
  Ac  Ac4  1  0.750000  0.358422  0.364256  1
  Sm  Sm5  1  0.250000  0.132710  0.864585  1
  Sm  Sm6  1  0.750000  0.862116  0.132447  1
  Sm  Sm7  1  0.250000  0.638411  0.637328  1
  Si  Si8  1  0.750000  0.264141  0.062662  1
  Si  Si9  1  0.250000  0.728359  0.928901  1
  Si  Si10  1  0.750000  0.782849  0.429410  1
  Si  Si11  1  0.250000  0.225230  0.581719  1
  Si  Si12  1  0.750000  0.836728  0.821365  1
  Si  Si13  1  0.250000  0.154970  0.168980  1
  Si  Si14  1  0.750000  0.337697  0.685704  1
  Si  Si15  1  0.250000  0.675273  0.320815  1
