# generated using pymatgen
data_Ho5Tm3Re3B24Rh
_symmetry_space_group_name_H-M   'P 1'
_cell_length_a   3.65719700
_cell_length_b   9.12484586
_cell_length_c   11.50411400
_cell_angle_alpha   90.15968769
_cell_angle_beta   90.00000000
_cell_angle_gamma   90.00000000
_symmetry_Int_Tables_number   1
_chemical_formula_structural   Ho5Tm3Re3B24Rh
_chemical_formula_sum   'Ho5 Tm3 Re3 B24 Rh1'
_cell_volume   383.90642626
_cell_formula_units_Z   1
loop_
 _symmetry_equiv_pos_site_id
 _symmetry_equiv_pos_as_xyz
  1  'x, y, z'
loop_
 _atom_site_type_symbol
 _atom_site_label
 _atom_site_symmetry_multiplicity
 _atom_site_fract_x
 _atom_site_fract_y
 _atom_site_fract_z
 _atom_site_occupancy
  Ho  Ho0  1  0.000000  0.318193  0.415591  1
  Ho  Ho1  1  0.000000  0.678359  0.591364  1
  Ho  Ho2  1  0.000000  0.826796  0.081250  1
  Ho  Ho3  1  0.000000  0.177878  0.912668  1
  Ho  Ho4  1  0.000000  0.943216  0.370274  1
  Tm  Tm5  1  0.000000  0.055983  0.629229  1
  Tm  Tm6  1  0.000000  0.441386  0.128588  1
  Tm  Tm7  1  0.000000  0.556652  0.871669  1
  Re  Re8  1  0.000000  0.362324  0.678263  1
  Re  Re9  1  0.000000  0.139304  0.179886  1
  Re  Re10  1  0.000000  0.861289  0.820546  1
  B  B11  1  0.500000  0.553812  0.433785  1
  B  B12  1  0.500000  0.446523  0.566648  1
  B  B13  1  0.500000  0.053694  0.066397  1
  B  B14  1  0.500000  0.947155  0.932575  1
  B  B15  1  0.500000  0.748858  0.420308  1
  B  B16  1  0.500000  0.249865  0.580980  1
  B  B17  1  0.500000  0.250254  0.081211  1
  B  B18  1  0.500000  0.750994  0.918923  1
  B  B19  1  0.500000  0.790850  0.264787  1
  B  B20  1  0.500000  0.208012  0.734187  1
  B  B21  1  0.500000  0.292594  0.235234  1
  B  B22  1  0.500000  0.707696  0.765837  1
  B  B23  1  0.500000  0.631250  0.183612  1
  B  B24  1  0.500000  0.369851  0.814623  1
  B  B25  1  0.500000  0.130872  0.315038  1
  B  B26  1  0.500000  0.868874  0.685117  1
  B  B27  1  0.500000  0.982812  0.211786  1
  B  B28  1  0.500000  0.017850  0.786698  1
  B  B29  1  0.500000  0.482693  0.287615  1
  B  B30  1  0.500000  0.518573  0.712752  1
  B  B31  1  0.500000  0.602746  0.029014  1
  B  B32  1  0.500000  0.398658  0.972419  1
  B  B33  1  0.500000  0.101299  0.471819  1
  B  B34  1  0.500000  0.895738  0.528615  1
  Rh  Rh35  1  0.000000  0.637095  0.320695  1
