# generated using pymatgen
data_Yb7Zr(Ge4Mo3)4
_symmetry_space_group_name_H-M   'P 1'
_cell_length_a   6.83500166
_cell_length_b   7.00988491
_cell_length_c   13.19791870
_cell_angle_alpha   90.16930303
_cell_angle_beta   90.08511206
_cell_angle_gamma   90.09083561
_symmetry_Int_Tables_number   1
_chemical_formula_structural   Yb7Zr(Ge4Mo3)4
_chemical_formula_sum   'Yb7 Zr1 Ge16 Mo12'
_cell_volume   632.34201245
_cell_formula_units_Z   1
loop_
 _symmetry_equiv_pos_site_id
 _symmetry_equiv_pos_as_xyz
  1  'x, y, z'
loop_
 _atom_site_type_symbol
 _atom_site_label
 _atom_site_symmetry_multiplicity
 _atom_site_fract_x
 _atom_site_fract_y
 _atom_site_fract_z
 _atom_site_occupancy
  Yb  Yb0  1  0.492188  0.670784  0.589169  1
  Yb  Yb1  1  0.991845  0.829628  0.910867  1
  Yb  Yb2  1  0.507563  0.329148  0.089822  1
  Yb  Yb3  1  0.007264  0.172416  0.409452  1
  Yb  Yb4  1  0.506088  0.327911  0.410729  1
  Yb  Yb5  1  0.007251  0.172283  0.089670  1
  Yb  Yb6  1  0.491814  0.670387  0.910465  1
  Zr  Zr7  1  0.991025  0.823220  0.594439  1
  Ge  Ge8  1  0.674004  0.955866  0.455868  1
  Ge  Ge9  1  0.170576  0.544581  0.045326  1
  Ge  Ge10  1  0.329707  0.045343  0.953616  1
  Ge  Ge11  1  0.829262  0.455114  0.545022  1
  Ge  Ge12  1  0.322426  0.042162  0.545460  1
  Ge  Ge13  1  0.829455  0.454442  0.953571  1
  Ge  Ge14  1  0.669801  0.955189  0.045685  1
  Ge  Ge15  1  0.171165  0.546830  0.456467  1
  Ge  Ge16  1  0.468303  0.375958  0.747793  1
  Ge  Ge17  1  0.966641  0.122283  0.749146  1
  Ge  Ge18  1  0.533779  0.620240  0.250593  1
  Ge  Ge19  1  0.033228  0.882225  0.249242  1
  Ge  Ge20  1  0.689073  0.849888  0.751092  1
  Ge  Ge21  1  0.192027  0.648854  0.751022  1
  Ge  Ge22  1  0.309057  0.148326  0.250028  1
  Ge  Ge23  1  0.808294  0.354022  0.250405  1
  Mo  Mo24  1  0.666561  0.154580  0.627165  1
  Mo  Mo25  1  0.163085  0.339280  0.869164  1
  Mo  Mo26  1  0.338049  0.837729  0.129178  1
  Mo  Mo27  1  0.841579  0.666084  0.373696  1
  Mo  Mo28  1  0.337886  0.837410  0.371257  1
  Mo  Mo29  1  0.838549  0.662859  0.129825  1
  Mo  Mo30  1  0.662533  0.161002  0.870224  1
  Mo  Mo31  1  0.163493  0.340702  0.627275  1
  Mo  Mo32  1  0.838465  0.490073  0.747188  1
  Mo  Mo33  1  0.335760  0.010903  0.748031  1
  Mo  Mo34  1  0.161001  0.515830  0.250903  1
  Mo  Mo35  1  0.661197  0.986446  0.251145  1
