# generated using pymatgen
data_Tb10Os3Pt
_symmetry_space_group_name_H-M   'P 1'
_cell_length_a   6.46413317
_cell_length_b   7.35363429
_cell_length_c   8.55217989
_cell_angle_alpha   96.72593979
_cell_angle_beta   112.47147407
_cell_angle_gamma   90.14346446
_symmetry_Int_Tables_number   1
_chemical_formula_structural   Tb10Os3Pt
_chemical_formula_sum   'Tb10 Os3 Pt1'
_cell_volume   372.57854294
_cell_formula_units_Z   1
loop_
 _symmetry_equiv_pos_site_id
 _symmetry_equiv_pos_as_xyz
  1  'x, y, z'
loop_
 _atom_site_type_symbol
 _atom_site_label
 _atom_site_symmetry_multiplicity
 _atom_site_fract_x
 _atom_site_fract_y
 _atom_site_fract_z
 _atom_site_occupancy
  Tb  Tb0  1  0.977058  0.922471  0.181360  1
  Tb  Tb1  1  0.791541  0.584251  0.811221  1
  Tb  Tb2  1  0.022568  0.084328  0.815866  1
  Tb  Tb3  1  0.212056  0.413256  0.181684  1
  Tb  Tb4  1  0.639821  0.820055  0.439385  1
  Tb  Tb5  1  0.213795  0.683807  0.568526  1
  Tb  Tb6  1  0.354209  0.184565  0.563587  1
  Tb  Tb7  1  0.792764  0.312094  0.440536  1
  Tb  Tb8  1  0.421971  0.751794  0.998929  1
  Tb  Tb9  1  0.571448  0.244425  0.995399  1
  Os  Os10  1  0.606482  0.922783  0.782303  1
  Os  Os11  1  0.175620  0.425727  0.780758  1
  Os  Os12  1  0.397691  0.075846  0.218854  1
  Pt  Pt13  1  0.822976  0.574597  0.221593  1
