# generated using pymatgen
data_Ho3ErGa2SiGe
_symmetry_space_group_name_H-M   'P 1'
_cell_length_a   3.96036700
_cell_length_b   4.29196200
_cell_length_c   10.69381800
_cell_angle_alpha   90.00000000
_cell_angle_beta   90.00000000
_cell_angle_gamma   90.00000000
_symmetry_Int_Tables_number   1
_chemical_formula_structural   Ho3ErGa2SiGe
_chemical_formula_sum   'Ho3 Er1 Ga2 Si1 Ge1'
_cell_volume   181.77078791
_cell_formula_units_Z   1
loop_
 _symmetry_equiv_pos_site_id
 _symmetry_equiv_pos_as_xyz
  1  'x, y, z'
loop_
 _atom_site_type_symbol
 _atom_site_label
 _atom_site_symmetry_multiplicity
 _atom_site_fract_x
 _atom_site_fract_y
 _atom_site_fract_z
 _atom_site_occupancy
  Ho  Ho0  1  0.000000  0.000000  0.141595  1
  Ho  Ho1  1  0.500000  0.500000  0.360689  1
  Ho  Ho2  1  0.500000  0.000000  0.860329  1
  Er  Er3  1  0.000000  0.500000  0.636833  1
  Ga  Ga4  1  0.500000  0.500000  0.080159  1
  Ga  Ga5  1  0.500000  0.000000  0.577720  1
  Si  Si6  1  0.000000  0.000000  0.423459  1
  Ge  Ge7  1  0.000000  0.500000  0.919215  1
