# generated using pymatgen
data_Ho2ErTm7(In2Ni)4
_symmetry_space_group_name_H-M   'P 1'
_cell_length_a   3.55069900
_cell_length_b   7.94724903
_cell_length_c   17.79095706
_cell_angle_alpha   89.99039992
_cell_angle_beta   90.00000000
_cell_angle_gamma   90.00000000
_symmetry_Int_Tables_number   1
_chemical_formula_structural   Ho2ErTm7(In2Ni)4
_chemical_formula_sum   'Ho2 Er1 Tm7 In8 Ni4'
_cell_volume   502.03036406
_cell_formula_units_Z   1
loop_
 _symmetry_equiv_pos_site_id
 _symmetry_equiv_pos_as_xyz
  1  'x, y, z'
loop_
 _atom_site_type_symbol
 _atom_site_label
 _atom_site_symmetry_multiplicity
 _atom_site_fract_x
 _atom_site_fract_y
 _atom_site_fract_z
 _atom_site_occupancy
  Ho  Ho0  1  0.000000  0.500014  0.499995  1
  Ho  Ho1  1  0.000000  0.000009  0.999998  1
  Er  Er2  1  0.000000  0.745905  0.278155  1
  Tm  Tm3  1  0.000000  0.254057  0.721851  1
  Tm  Tm4  1  0.000000  0.754068  0.778146  1
  Tm  Tm5  1  0.000000  0.245930  0.221853  1
  Tm  Tm6  1  0.000000  0.617270  0.088218  1
  Tm  Tm7  1  0.000000  0.382713  0.911753  1
  Tm  Tm8  1  0.000000  0.882704  0.588247  1
  Tm  Tm9  1  0.000000  0.117315  0.411775  1
  In  In10  1  0.500000  0.704345  0.930545  1
  In  In11  1  0.500000  0.295633  0.069443  1
  In  In12  1  0.500000  0.795668  0.430609  1
  In  In13  1  0.500000  0.204340  0.569458  1
  In  In14  1  0.500000  0.573469  0.652349  1
  In  In15  1  0.500000  0.426454  0.347671  1
  In  In16  1  0.500000  0.926605  0.152299  1
  In  In17  1  0.500000  0.073458  0.847652  1
  Ni  Ni18  1  0.500000  0.524485  0.195416  1
  Ni  Ni19  1  0.500000  0.475400  0.804547  1
  Ni  Ni20  1  0.500000  0.975402  0.695460  1
  Ni  Ni21  1  0.500000  0.024755  0.304558  1
