# generated using pymatgen
data_Er2Lu3SiBi2
_symmetry_space_group_name_H-M   'P 1'
_cell_length_a   11.85974000
_cell_length_b   9.04488200
_cell_length_c   7.94491100
_cell_angle_alpha   90.00000000
_cell_angle_beta   90.00000000
_cell_angle_gamma   90.00000000
_symmetry_Int_Tables_number   1
_chemical_formula_structural   Er2Lu3SiBi2
_chemical_formula_sum   'Er8 Lu12 Si4 Bi8'
_cell_volume   852.25019659
_cell_formula_units_Z   4
loop_
 _symmetry_equiv_pos_site_id
 _symmetry_equiv_pos_as_xyz
  1  'x, y, z'
loop_
 _atom_site_type_symbol
 _atom_site_label
 _atom_site_symmetry_multiplicity
 _atom_site_fract_x
 _atom_site_fract_y
 _atom_site_fract_z
 _atom_site_occupancy
  Er  Er0  1  0.211007  0.750000  0.165799  1
  Er  Er1  1  0.711007  0.750000  0.334201  1
  Er  Er2  1  0.788993  0.250000  0.834201  1
  Er  Er3  1  0.288993  0.250000  0.665799  1
  Er  Er4  1  0.294082  0.750000  0.639634  1
  Er  Er5  1  0.794082  0.750000  0.860366  1
  Er  Er6  1  0.705918  0.250000  0.360366  1
  Er  Er7  1  0.205918  0.250000  0.139634  1
  Lu  Lu8  1  0.061082  0.555436  0.821294  1
  Lu  Lu9  1  0.561082  0.944564  0.678706  1
  Lu  Lu10  1  0.938918  0.055436  0.178706  1
  Lu  Lu11  1  0.438918  0.444564  0.321294  1
  Lu  Lu12  1  0.938918  0.444564  0.178706  1
  Lu  Lu13  1  0.438918  0.055436  0.321294  1
  Lu  Lu14  1  0.061082  0.944564  0.821294  1
  Lu  Lu15  1  0.561082  0.555436  0.678706  1
  Lu  Lu16  1  0.001061  0.750000  0.460762  1
  Lu  Lu17  1  0.501061  0.750000  0.039238  1
  Lu  Lu18  1  0.998939  0.250000  0.539238  1
  Lu  Lu19  1  0.498939  0.250000  0.960762  1
  Si  Si20  1  0.476262  0.750000  0.409054  1
  Si  Si21  1  0.976262  0.750000  0.090946  1
  Si  Si22  1  0.523738  0.250000  0.590946  1
  Si  Si23  1  0.023738  0.250000  0.909054  1
  Bi  Bi24  1  0.325758  0.510589  0.933821  1
  Bi  Bi25  1  0.825758  0.989411  0.566179  1
  Bi  Bi26  1  0.674242  0.010589  0.066179  1
  Bi  Bi27  1  0.174242  0.489411  0.433821  1
  Bi  Bi28  1  0.674242  0.489411  0.066179  1
  Bi  Bi29  1  0.174242  0.010589  0.433821  1
  Bi  Bi30  1  0.325758  0.989411  0.933821  1
  Bi  Bi31  1  0.825758  0.510589  0.566179  1
