# generated using pymatgen
data_Nb2Ni20SnB6
_symmetry_space_group_name_H-M   'P 1'
_cell_length_a   7.49840320
_cell_length_b   7.49840256
_cell_length_c   7.49840300
_cell_angle_alpha   60.00000247
_cell_angle_beta   60.00000527
_cell_angle_gamma   59.99999816
_symmetry_Int_Tables_number   1
_chemical_formula_structural   Nb2Ni20SnB6
_chemical_formula_sum   'Nb2 Ni20 Sn1 B6'
_cell_volume   298.12015658
_cell_formula_units_Z   1
loop_
 _symmetry_equiv_pos_site_id
 _symmetry_equiv_pos_as_xyz
  1  'x, y, z'
loop_
 _atom_site_type_symbol
 _atom_site_label
 _atom_site_symmetry_multiplicity
 _atom_site_fract_x
 _atom_site_fract_y
 _atom_site_fract_z
 _atom_site_occupancy
  Nb  Nb0  1  0.750000  0.750000  0.750000  1
  Nb  Nb1  1  0.000000  0.000000  0.000000  1
  Ni  Ni2  1  0.385950  0.385950  0.385950  1
  Ni  Ni3  1  0.615697  0.615697  0.615697  1
  Ni  Ni4  1  0.385950  0.385950  0.842150  1
  Ni  Ni5  1  0.385950  0.842150  0.385950  1
  Ni  Ni6  1  0.615697  0.615697  0.152909  1
  Ni  Ni7  1  0.615697  0.152909  0.615697  1
  Ni  Ni8  1  0.842150  0.385950  0.385950  1
  Ni  Ni9  1  0.152909  0.615697  0.615697  1
  Ni  Ni10  1  0.344423  0.997126  0.997126  1
  Ni  Ni11  1  0.661325  0.997126  0.997126  1
  Ni  Ni12  1  0.997126  0.344423  0.661325  1
  Ni  Ni13  1  0.997126  0.661325  0.344423  1
  Ni  Ni14  1  0.997126  0.344423  0.997126  1
  Ni  Ni15  1  0.661325  0.997126  0.344423  1
  Ni  Ni16  1  0.997126  0.661325  0.997126  1
  Ni  Ni17  1  0.344423  0.997126  0.661325  1
  Ni  Ni18  1  0.997126  0.997126  0.344423  1
  Ni  Ni19  1  0.997126  0.997126  0.661325  1
  Ni  Ni20  1  0.661325  0.344423  0.997126  1
  Ni  Ni21  1  0.344423  0.661325  0.997126  1
  Sn  Sn22  1  0.250000  0.250000  0.250000  1
  B  B23  1  0.731027  0.268973  0.268973  1
  B  B24  1  0.268973  0.731027  0.731027  1
  B  B25  1  0.268973  0.731027  0.268973  1
  B  B26  1  0.731027  0.268973  0.731027  1
  B  B27  1  0.268973  0.268973  0.731027  1
  B  B28  1  0.731027  0.731027  0.268973  1
