# generated using pymatgen
data_HoEr7(CoHg)2
_symmetry_space_group_name_H-M   'P 1'
_cell_length_a   9.38430366
_cell_length_b   9.38430473
_cell_length_c   9.38656600
_cell_angle_alpha   59.99202869
_cell_angle_beta   59.99202492
_cell_angle_gamma   59.97499135
_symmetry_Int_Tables_number   1
_chemical_formula_structural   HoEr7(CoHg)2
_chemical_formula_sum   'Ho2 Er14 Co4 Hg4'
_cell_volume   584.33434704
_cell_formula_units_Z   2
loop_
 _symmetry_equiv_pos_site_id
 _symmetry_equiv_pos_as_xyz
  1  'x, y, z'
loop_
 _atom_site_type_symbol
 _atom_site_label
 _atom_site_symmetry_multiplicity
 _atom_site_fract_x
 _atom_site_fract_y
 _atom_site_fract_z
 _atom_site_occupancy
  Ho  Ho0  1  0.598228  0.598228  0.598397  1
  Ho  Ho1  1  0.598228  0.598228  0.205149  1
  Er  Er2  1  0.598171  0.205174  0.598328  1
  Er  Er3  1  0.205174  0.598171  0.598328  1
  Er  Er4  1  0.061441  0.438738  0.438758  1
  Er  Er5  1  0.438738  0.061441  0.061063  1
  Er  Er6  1  0.438738  0.061441  0.438758  1
  Er  Er7  1  0.061441  0.438738  0.061063  1
  Er  Er8  1  0.438598  0.438598  0.061402  1
  Er  Er9  1  0.061194  0.061194  0.438806  1
  Er  Er10  1  0.188270  0.811703  0.811634  1
  Er  Er11  1  0.811703  0.188270  0.188393  1
  Er  Er12  1  0.811703  0.188270  0.811634  1
  Er  Er13  1  0.188270  0.811703  0.188393  1
  Er  Er14  1  0.811887  0.811887  0.188113  1
  Er  Er15  1  0.188447  0.188447  0.811553  1
  Co  Co16  1  0.391083  0.391083  0.391803  1
  Co  Co17  1  0.391083  0.391083  0.826034  1
  Co  Co18  1  0.390683  0.826447  0.391436  1
  Co  Co19  1  0.826447  0.390683  0.391436  1
  Hg  Hg20  1  0.833930  0.833930  0.833628  1
  Hg  Hg21  1  0.833930  0.833930  0.498513  1
  Hg  Hg22  1  0.834128  0.498491  0.833691  1
  Hg  Hg23  1  0.498491  0.834128  0.833691  1
