# generated using pymatgen
data_NaPrSiSe4
_symmetry_space_group_name_H-M   'P 1'
_cell_length_a   6.83751057
_cell_length_b   7.08325100
_cell_length_c   8.42130416
_cell_angle_alpha   90.00000000
_cell_angle_beta   106.37634812
_cell_angle_gamma   90.00000000
_symmetry_Int_Tables_number   1
_chemical_formula_structural   NaPrSiSe4
_chemical_formula_sum   'Na2 Pr2 Si2 Se8'
_cell_volume   391.31229293
_cell_formula_units_Z   2
loop_
 _symmetry_equiv_pos_site_id
 _symmetry_equiv_pos_as_xyz
  1  'x, y, z'
loop_
 _atom_site_type_symbol
 _atom_site_label
 _atom_site_symmetry_multiplicity
 _atom_site_fract_x
 _atom_site_fract_y
 _atom_site_fract_z
 _atom_site_occupancy
  Na  Na0  1  0.246385  0.977183  0.060175  1
  Na  Na1  1  0.753614  0.477184  0.939824  1
  Pr  Pr2  1  0.775106  0.506440  0.447053  1
  Pr  Pr3  1  0.224894  0.006439  0.552948  1
  Si  Si4  1  0.229600  0.543454  0.310118  1
  Si  Si5  1  0.770399  0.043455  0.689881  1
  Se  Se6  1  0.432012  0.567967  0.140180  1
  Se  Se7  1  0.978775  0.770843  0.250125  1
  Se  Se8  1  0.035283  0.272434  0.267854  1
  Se  Se9  1  0.588078  0.094681  0.419572  1
  Se  Se10  1  0.411921  0.594680  0.580427  1
  Se  Se11  1  0.964718  0.772434  0.732147  1
  Se  Se12  1  0.021224  0.270842  0.749875  1
  Se  Se13  1  0.567988  0.067967  0.859819  1
