# generated using pymatgen
data_Ti3Be2Si10Mo17
_symmetry_space_group_name_H-M   'P 1'
_cell_length_a   4.85510084
_cell_length_b   7.25491417
_cell_length_c   13.71453309
_cell_angle_alpha   89.98775723
_cell_angle_beta   89.99970767
_cell_angle_gamma   109.56299774
_symmetry_Int_Tables_number   1
_chemical_formula_structural   Ti3Be2Si10Mo17
_chemical_formula_sum   'Ti3 Be2 Si10 Mo17'
_cell_volume   455.18580308
_cell_formula_units_Z   1
loop_
 _symmetry_equiv_pos_site_id
 _symmetry_equiv_pos_as_xyz
  1  'x, y, z'
loop_
 _atom_site_type_symbol
 _atom_site_label
 _atom_site_symmetry_multiplicity
 _atom_site_fract_x
 _atom_site_fract_y
 _atom_site_fract_z
 _atom_site_occupancy
  Ti  Ti0  1  0.999716  0.500144  0.749906  1
  Ti  Ti1  1  0.999726  0.499593  0.250073  1
  Ti  Ti2  1  0.498240  0.500114  0.749868  1
  Be  Be3  1  0.250226  0.000967  0.000174  1
  Be  Be4  1  0.749445  0.999090  0.499788  1
  Si  Si5  1  0.749698  0.999125  0.999983  1
  Si  Si6  1  0.250341  0.000868  0.500003  1
  Si  Si7  1  0.750912  0.499927  0.081884  1
  Si  Si8  1  0.247440  0.500002  0.581888  1
  Si  Si9  1  0.751120  0.500204  0.418210  1
  Si  Si10  1  0.247422  0.499855  0.918004  1
  Si  Si11  1  0.420065  0.836314  0.250164  1
  Si  Si12  1  0.917108  0.834480  0.749916  1
  Si  Si13  1  0.084526  0.163687  0.250024  1
  Si  Si14  1  0.582689  0.165376  0.749934  1
  Mo  Mo15  1  0.925873  0.851023  0.351235  1
  Mo  Mo16  1  0.421621  0.850346  0.850756  1
  Mo  Mo17  1  0.574914  0.149022  0.148893  1
  Mo  Mo18  1  0.070234  0.149445  0.649269  1
  Mo  Mo19  1  0.149533  0.295969  0.074544  1
  Mo  Mo20  1  0.650851  0.296227  0.574429  1
  Mo  Mo21  1  0.354186  0.703817  0.425567  1
  Mo  Mo22  1  0.853925  0.703452  0.925462  1
  Mo  Mo23  1  0.348110  0.704393  0.074632  1
  Mo  Mo24  1  0.847654  0.703856  0.574488  1
  Mo  Mo25  1  0.143149  0.295815  0.425392  1
  Mo  Mo26  1  0.644601  0.296480  0.925483  1
  Mo  Mo27  1  0.581005  0.149476  0.351354  1
  Mo  Mo28  1  0.075857  0.149214  0.850785  1
  Mo  Mo29  1  0.931471  0.850697  0.148795  1
  Mo  Mo30  1  0.427450  0.850552  0.649100  1
  Mo  Mo31  1  0.500884  0.500471  0.249996  1
