# generated using pymatgen
data_GdEr15(Ga3Ir)2
_symmetry_space_group_name_H-M   'P 1'
_cell_length_a   9.98323100
_cell_length_b   9.98323291
_cell_length_c   6.98307600
_cell_angle_alpha   90.00000000
_cell_angle_beta   90.00000000
_cell_angle_gamma   120.00000360
_symmetry_Int_Tables_number   1
_chemical_formula_structural   GdEr15(Ga3Ir)2
_chemical_formula_sum   'Gd1 Er15 Ga6 Ir2'
_cell_volume   602.72569772
_cell_formula_units_Z   1
loop_
 _symmetry_equiv_pos_site_id
 _symmetry_equiv_pos_as_xyz
  1  'x, y, z'
loop_
 _atom_site_type_symbol
 _atom_site_label
 _atom_site_symmetry_multiplicity
 _atom_site_fract_x
 _atom_site_fract_y
 _atom_site_fract_z
 _atom_site_occupancy
  Gd  Gd0  1  0.000000  0.000000  0.268460  1
  Er  Er1  1  0.000000  0.000000  0.767052  1
  Er  Er2  1  0.171707  0.828293  0.989468  1
  Er  Er3  1  0.828288  0.171712  0.491811  1
  Er  Er4  1  0.171707  0.343416  0.989468  1
  Er  Er5  1  0.656584  0.828293  0.989468  1
  Er  Er6  1  0.343426  0.171712  0.491811  1
  Er  Er7  1  0.828288  0.656574  0.491811  1
  Er  Er8  1  0.333333  0.666667  0.664242  1
  Er  Er9  1  0.666667  0.333333  0.163102  1
  Er  Er10  1  0.465401  0.534599  0.295372  1
  Er  Er11  1  0.534615  0.465385  0.795227  1
  Er  Er12  1  0.465401  0.930802  0.295372  1
  Er  Er13  1  0.069198  0.534599  0.295372  1
  Er  Er14  1  0.930774  0.465385  0.795227  1
  Er  Er15  1  0.534615  0.069226  0.795227  1
  Ga  Ga16  1  0.163816  0.836184  0.543960  1
  Ga  Ga17  1  0.835934  0.164066  0.040506  1
  Ga  Ga18  1  0.163816  0.327633  0.543960  1
  Ga  Ga19  1  0.672367  0.836184  0.543960  1
  Ga  Ga20  1  0.328134  0.164066  0.040506  1
  Ga  Ga21  1  0.835934  0.671866  0.040506  1
  Ir  Ir22  1  0.333333  0.666667  0.057642  1
  Ir  Ir23  1  0.666667  0.333333  0.556596  1
