# generated using pymatgen
data_Pr4Ga23Pt2Au
_symmetry_space_group_name_H-M   'P 1'
_cell_length_a   6.14320000
_cell_length_b   6.14320000
_cell_length_c   15.74507700
_cell_angle_alpha   90.00000000
_cell_angle_beta   90.00000000
_cell_angle_gamma   90.00000000
_symmetry_Int_Tables_number   1
_chemical_formula_structural   Pr4Ga23Pt2Au
_chemical_formula_sum   'Pr4 Ga23 Pt2 Au1'
_cell_volume   594.20198464
_cell_formula_units_Z   1
loop_
 _symmetry_equiv_pos_site_id
 _symmetry_equiv_pos_as_xyz
  1  'x, y, z'
loop_
 _atom_site_type_symbol
 _atom_site_label
 _atom_site_symmetry_multiplicity
 _atom_site_fract_x
 _atom_site_fract_y
 _atom_site_fract_z
 _atom_site_occupancy
  Pr  Pr0  1  0.750000  0.250000  0.246664  1
  Pr  Pr1  1  0.250000  0.750000  0.246664  1
  Pr  Pr2  1  0.250000  0.750000  0.754449  1
  Pr  Pr3  1  0.750000  0.250000  0.754449  1
  Ga  Ga4  1  0.750000  0.750000  0.185580  1
  Ga  Ga5  1  0.750000  0.750000  0.812709  1
  Ga  Ga6  1  0.250000  0.250000  0.812718  1
  Ga  Ga7  1  0.250000  0.250000  0.344564  1
  Ga  Ga8  1  0.750000  0.750000  0.343942  1
  Ga  Ga9  1  0.750000  0.750000  0.656110  1
  Ga  Ga10  1  0.250000  0.250000  0.655139  1
  Ga  Ga11  1  0.501280  0.998864  0.911309  1
  Ga  Ga12  1  0.998864  0.998720  0.911309  1
  Ga  Ga13  1  0.501136  0.501280  0.911309  1
  Ga  Ga14  1  0.998720  0.501136  0.911309  1
  Ga  Ga15  1  0.499230  0.000746  0.089412  1
  Ga  Ga16  1  0.000746  0.000770  0.089412  1
  Ga  Ga17  1  0.499254  0.499230  0.089412  1
  Ga  Ga18  1  0.000770  0.499254  0.089412  1
  Ga  Ga19  1  0.578207  0.079021  0.431558  1
  Ga  Ga20  1  0.079021  0.921793  0.431558  1
  Ga  Ga21  1  0.420979  0.578207  0.431558  1
  Ga  Ga22  1  0.921793  0.420979  0.431558  1
  Ga  Ga23  1  0.420586  0.918001  0.568978  1
  Ga  Ga24  1  0.918001  0.079414  0.568978  1
  Ga  Ga25  1  0.581999  0.420586  0.568978  1
  Ga  Ga26  1  0.079414  0.581999  0.568978  1
  Pt  Pt27  1  0.750000  0.250000  0.998444  1
  Pt  Pt28  1  0.250000  0.750000  0.998444  1
  Au  Au29  1  0.250000  0.250000  0.185095  1
