# generated using pymatgen
data_CeLu(SnRh)2
_symmetry_space_group_name_H-M   'P 1'
_cell_length_a   7.56622700
_cell_length_b   7.56622706
_cell_length_c   7.73767900
_cell_angle_alpha   90.00000000
_cell_angle_beta   90.00000000
_cell_angle_gamma   119.99999769
_symmetry_Int_Tables_number   1
_chemical_formula_structural   CeLu(SnRh)2
_chemical_formula_sum   'Ce3 Lu3 Sn6 Rh6'
_cell_volume   383.61898139
_cell_formula_units_Z   3
loop_
 _symmetry_equiv_pos_site_id
 _symmetry_equiv_pos_as_xyz
  1  'x, y, z'
loop_
 _atom_site_type_symbol
 _atom_site_label
 _atom_site_symmetry_multiplicity
 _atom_site_fract_x
 _atom_site_fract_y
 _atom_site_fract_z
 _atom_site_occupancy
  Ce  Ce0  1  0.589483  0.999481  0.250000  1
  Ce  Ce1  1  0.409998  0.410517  0.250000  1
  Ce  Ce2  1  0.000519  0.590002  0.250000  1
  Lu  Lu3  1  0.595581  0.000152  0.750000  1
  Lu  Lu4  1  0.404570  0.404419  0.750000  1
  Lu  Lu5  1  0.999848  0.595430  0.750000  1
  Sn  Sn6  1  0.260733  0.000073  0.992660  1
  Sn  Sn7  1  0.739340  0.739267  0.507340  1
  Sn  Sn8  1  0.999927  0.260660  0.507340  1
  Sn  Sn9  1  0.999927  0.260660  0.992660  1
  Sn  Sn10  1  0.739340  0.739267  0.992660  1
  Sn  Sn11  1  0.260733  0.000073  0.507340  1
  Rh  Rh12  1  0.666667  0.333333  0.997260  1
  Rh  Rh13  1  0.666667  0.333333  0.502740  1
  Rh  Rh14  1  0.333333  0.666667  0.994908  1
  Rh  Rh15  1  0.333333  0.666667  0.505092  1
  Rh  Rh16  1  0.000000  0.000000  0.750000  1
  Rh  Rh17  1  0.000000  0.000000  0.250000  1
