# generated using pymatgen
data_ErTm4IrOs
_symmetry_space_group_name_H-M   'P 1'
_cell_length_a   6.34998345
_cell_length_b   7.28160207
_cell_length_c   8.31115604
_cell_angle_alpha   96.68803013
_cell_angle_beta   112.45858494
_cell_angle_gamma   89.99999915
_symmetry_Int_Tables_number   1
_chemical_formula_structural   ErTm4IrOs
_chemical_formula_sum   'Er2 Tm8 Ir2 Os2'
_cell_volume   352.31403725
_cell_formula_units_Z   2
loop_
 _symmetry_equiv_pos_site_id
 _symmetry_equiv_pos_as_xyz
  1  'x, y, z'
loop_
 _atom_site_type_symbol
 _atom_site_label
 _atom_site_symmetry_multiplicity
 _atom_site_fract_x
 _atom_site_fract_y
 _atom_site_fract_z
 _atom_site_occupancy
  Er  Er0  1  0.969397  0.916061  0.178889  1
  Er  Er1  1  0.790507  0.583939  0.821111  1
  Tm  Tm2  1  0.026257  0.081982  0.816652  1
  Tm  Tm3  1  0.209607  0.418018  0.183348  1
  Tm  Tm4  1  0.652745  0.818007  0.440262  1
  Tm  Tm5  1  0.212485  0.681993  0.559738  1
  Tm  Tm6  1  0.350310  0.178656  0.561687  1
  Tm  Tm7  1  0.788623  0.321344  0.438313  1
  Tm  Tm8  1  0.422585  0.750000  0.000000  1
  Tm  Tm9  1  0.578531  0.250000  0.000000  1
  Ir  Ir10  1  0.173706  0.423123  0.780030  1
  Ir  Ir11  1  0.393675  0.076877  0.219970  1
  Os  Os12  1  0.824457  0.574885  0.217344  1
  Os  Os13  1  0.607113  0.925115  0.782656  1
