# generated using pymatgen
data_RbTeP2
_symmetry_space_group_name_H-M   'P 1'
_cell_length_a   6.66041600
_cell_length_b   7.46617552
_cell_length_c   10.38280043
_cell_angle_alpha   90.47500040
_cell_angle_beta   90.00000000
_cell_angle_gamma   90.00000000
_symmetry_Int_Tables_number   1
_chemical_formula_structural   RbTeP2
_chemical_formula_sum   'Rb4 Te4 P8'
_cell_volume   516.29644260
_cell_formula_units_Z   4
loop_
 _symmetry_equiv_pos_site_id
 _symmetry_equiv_pos_as_xyz
  1  'x, y, z'
loop_
 _atom_site_type_symbol
 _atom_site_label
 _atom_site_symmetry_multiplicity
 _atom_site_fract_x
 _atom_site_fract_y
 _atom_site_fract_z
 _atom_site_occupancy
  Rb  Rb0  1  0.250000  0.023491  0.390508  1
  Rb  Rb1  1  0.750000  0.976509  0.609492  1
  Rb  Rb2  1  0.250000  0.228640  0.011238  1
  Rb  Rb3  1  0.750000  0.771360  0.988762  1
  Te  Te4  1  0.250000  0.697434  0.114748  1
  Te  Te5  1  0.750000  0.302566  0.885252  1
  Te  Te6  1  0.250000  0.823762  0.738782  1
  Te  Te7  1  0.750000  0.176238  0.261218  1
  P  P8  1  0.494946  0.397669  0.577930  1
  P  P9  1  0.994946  0.602331  0.422070  1
  P  P10  1  0.505054  0.602331  0.422070  1
  P  P11  1  0.005054  0.397669  0.577930  1
  P  P12  1  0.250000  0.492862  0.303230  1
  P  P13  1  0.750000  0.507138  0.696770  1
  P  P14  1  0.250000  0.490880  0.710567  1
  P  P15  1  0.750000  0.509120  0.289433  1
