# generated using pymatgen
data_Nd6NiBr10
_symmetry_space_group_name_H-M   'P 1'
_cell_length_a   7.58402029
_cell_length_b   9.46135631
_cell_length_c   9.48028188
_cell_angle_alpha   108.58779084
_cell_angle_beta   97.07348573
_cell_angle_gamma   105.97514391
_symmetry_Int_Tables_number   1
_chemical_formula_structural   Nd6NiBr10
_chemical_formula_sum   'Nd6 Ni1 Br10'
_cell_volume   603.04750006
_cell_formula_units_Z   1
loop_
 _symmetry_equiv_pos_site_id
 _symmetry_equiv_pos_as_xyz
  1  'x, y, z'
loop_
 _atom_site_type_symbol
 _atom_site_label
 _atom_site_symmetry_multiplicity
 _atom_site_fract_x
 _atom_site_fract_y
 _atom_site_fract_z
 _atom_site_occupancy
  Nd  Nd0  1  0.874361  0.954872  0.246695  1
  Nd  Nd1  1  0.125639  0.045128  0.753305  1
  Nd  Nd2  1  0.028696  0.700524  0.904795  1
  Nd  Nd3  1  0.971304  0.299476  0.095205  1
  Nd  Nd4  1  0.638594  0.863272  0.819603  1
  Nd  Nd5  1  0.361406  0.136728  0.180397  1
  Ni  Ni6  1  0.000000  0.000000  0.000000  1
  Br  Br7  1  0.642361  0.541664  0.726755  1
  Br  Br8  1  0.357639  0.458336  0.273245  1
  Br  Br9  1  0.744422  0.915326  0.543149  1
  Br  Br10  1  0.255578  0.084674  0.456851  1
  Br  Br11  1  0.913583  0.633652  0.174841  1
  Br  Br12  1  0.086417  0.366348  0.825159  1
  Br  Br13  1  0.548450  0.177636  0.915114  1
  Br  Br14  1  0.451550  0.822364  0.084886  1
  Br  Br15  1  0.209455  0.740531  0.650093  1
  Br  Br16  1  0.790545  0.259469  0.349907  1
