# generated using pymatgen
data_Li4La3YSi8
_symmetry_space_group_name_H-M   'P 1'
_cell_length_a   3.89379000
_cell_length_b   7.77831242
_cell_length_c   10.60964438
_cell_angle_alpha   89.94395452
_cell_angle_beta   90.00000000
_cell_angle_gamma   90.00000000
_symmetry_Int_Tables_number   1
_chemical_formula_structural   Li4La3YSi8
_chemical_formula_sum   'Li4 La3 Y1 Si8'
_cell_volume   321.33536688
_cell_formula_units_Z   1
loop_
 _symmetry_equiv_pos_site_id
 _symmetry_equiv_pos_as_xyz
  1  'x, y, z'
loop_
 _atom_site_type_symbol
 _atom_site_label
 _atom_site_symmetry_multiplicity
 _atom_site_fract_x
 _atom_site_fract_y
 _atom_site_fract_z
 _atom_site_occupancy
  Li  Li0  1  0.250000  0.994793  0.389617  1
  Li  Li1  1  0.750000  0.002962  0.611522  1
  Li  Li2  1  0.250000  0.496292  0.106396  1
  Li  Li3  1  0.750000  0.508493  0.890607  1
  La  La4  1  0.750000  0.862785  0.134406  1
  La  La5  1  0.250000  0.637899  0.636454  1
  La  La6  1  0.750000  0.359084  0.365768  1
  Y  Y7  1  0.250000  0.133282  0.865917  1
  Si  Si8  1  0.750000  0.273270  0.064984  1
  Si  Si9  1  0.250000  0.735900  0.928291  1
  Si  Si10  1  0.750000  0.773204  0.427822  1
  Si  Si11  1  0.250000  0.219808  0.578652  1
  Si  Si12  1  0.750000  0.841860  0.821608  1
  Si  Si13  1  0.250000  0.165687  0.171551  1
  Si  Si14  1  0.750000  0.330402  0.683885  1
  Si  Si15  1  0.250000  0.664277  0.322520  1
