# generated using pymatgen
data_Rb8Mn3FeBr16
_symmetry_space_group_name_H-M   'P 1'
_cell_length_a   7.80182000
_cell_length_b   9.93899586
_cell_length_c   13.90686948
_cell_angle_alpha   90.35738784
_cell_angle_beta   90.00000000
_cell_angle_gamma   90.00000000
_symmetry_Int_Tables_number   1
_chemical_formula_structural   Rb8Mn3FeBr16
_chemical_formula_sum   'Rb8 Mn3 Fe1 Br16'
_cell_volume   1078.34906434
_cell_formula_units_Z   1
loop_
 _symmetry_equiv_pos_site_id
 _symmetry_equiv_pos_as_xyz
  1  'x, y, z'
loop_
 _atom_site_type_symbol
 _atom_site_label
 _atom_site_symmetry_multiplicity
 _atom_site_fract_x
 _atom_site_fract_y
 _atom_site_fract_z
 _atom_site_occupancy
  Rb  Rb0  1  0.250000  0.621196  0.575757  1
  Rb  Rb1  1  0.750000  0.378236  0.421323  1
  Rb  Rb2  1  0.250000  0.123158  0.924977  1
  Rb  Rb3  1  0.750000  0.877068  0.075444  1
  Rb  Rb4  1  0.250000  0.983271  0.325812  1
  Rb  Rb5  1  0.750000  0.018022  0.674112  1
  Rb  Rb6  1  0.250000  0.482462  0.173137  1
  Rb  Rb7  1  0.750000  0.517033  0.826608  1
  Mn  Mn8  1  0.250000  0.723469  0.923582  1
  Mn  Mn9  1  0.250000  0.222976  0.576037  1
  Mn  Mn10  1  0.750000  0.776994  0.424192  1
  Fe  Fe11  1  0.750000  0.275333  0.076903  1
  Br  Br12  1  0.993432  0.322866  0.654274  1
  Br  Br13  1  0.493691  0.677535  0.345235  1
  Br  Br14  1  0.506661  0.824089  0.846616  1
  Br  Br15  1  0.000103  0.176833  0.154415  1
  Br  Br16  1  0.993339  0.824089  0.846616  1
  Br  Br17  1  0.006309  0.677535  0.345235  1
  Br  Br18  1  0.499897  0.176833  0.154415  1
  Br  Br19  1  0.506568  0.322866  0.654274  1
  Br  Br20  1  0.750000  0.519044  0.081962  1
  Br  Br21  1  0.250000  0.475026  0.916572  1
  Br  Br22  1  0.750000  0.025718  0.417267  1
  Br  Br23  1  0.250000  0.974201  0.582428  1
  Br  Br24  1  0.750000  0.186894  0.911592  1
  Br  Br25  1  0.250000  0.817279  0.091253  1
  Br  Br26  1  0.750000  0.683047  0.590682  1
  Br  Br27  1  0.250000  0.316928  0.409282  1
