# generated using pymatgen
data_Dy2Ho3Cr3(Co4P3)4
_symmetry_space_group_name_H-M   'P 1'
_cell_length_a   11.99319900
_cell_length_b   11.99319824
_cell_length_c   3.66731300
_cell_angle_alpha   90.00000000
_cell_angle_beta   90.00000000
_cell_angle_gamma   119.99999381
_symmetry_Int_Tables_number   1
_chemical_formula_structural   Dy2Ho3Cr3(Co4P3)4
_chemical_formula_sum   'Dy2 Ho3 Cr3 Co16 P12'
_cell_volume   456.82376535
_cell_formula_units_Z   1
loop_
 _symmetry_equiv_pos_site_id
 _symmetry_equiv_pos_as_xyz
  1  'x, y, z'
loop_
 _atom_site_type_symbol
 _atom_site_label
 _atom_site_symmetry_multiplicity
 _atom_site_fract_x
 _atom_site_fract_y
 _atom_site_fract_z
 _atom_site_occupancy
  Dy  Dy0  1  0.666667  0.333333  0.000000  1
  Dy  Dy1  1  0.333333  0.666667  0.000000  1
  Ho  Ho2  1  0.187257  0.187257  0.500000  1
  Ho  Ho3  1  0.812743  0.000000  0.500000  1
  Ho  Ho4  1  0.000000  0.812743  0.500000  1
  Cr  Cr5  1  0.554128  0.554128  0.000000  1
  Cr  Cr6  1  0.445872  0.000000  0.000000  1
  Cr  Cr7  1  0.000000  0.445872  0.000000  1
  Co  Co8  1  0.823100  0.199856  0.000000  1
  Co  Co9  1  0.800144  0.623245  0.000000  1
  Co  Co10  1  0.376755  0.176900  0.000000  1
  Co  Co11  1  0.199856  0.823100  0.000000  1
  Co  Co12  1  0.623245  0.800144  0.000000  1
  Co  Co13  1  0.176900  0.376755  0.000000  1
  Co  Co14  1  0.644215  0.125962  0.500000  1
  Co  Co15  1  0.874038  0.518253  0.500000  1
  Co  Co16  1  0.481747  0.355785  0.500000  1
  Co  Co17  1  0.125962  0.644215  0.500000  1
  Co  Co18  1  0.518253  0.874038  0.500000  1
  Co  Co19  1  0.355785  0.481747  0.500000  1
  Co  Co20  1  0.717711  0.717711  0.500000  1
  Co  Co21  1  0.282289  0.000000  0.500000  1
  Co  Co22  1  0.000000  0.282289  0.500000  1
  Co  Co23  1  0.000000  0.000000  0.000000  1
  P  P24  1  0.366560  0.366560  0.000000  1
  P  P25  1  0.633440  0.000000  0.000000  1
  P  P26  1  0.000000  0.633440  0.000000  1
  P  P27  1  0.837537  0.317436  0.500000  1
  P  P28  1  0.682564  0.520101  0.500000  1
  P  P29  1  0.479899  0.162463  0.500000  1
  P  P30  1  0.317436  0.837537  0.500000  1
  P  P31  1  0.520101  0.682564  0.500000  1
  P  P32  1  0.162463  0.479899  0.500000  1
  P  P33  1  0.820996  0.820996  0.000000  1
  P  P34  1  0.179004  0.000000  0.000000  1
  P  P35  1  0.000000  0.179004  0.000000  1
