# generated using pymatgen
data_Er2WCl12
_symmetry_space_group_name_H-M   'P 1'
_cell_length_a   6.92682955
_cell_length_b   6.92699061
_cell_length_c   12.94610515
_cell_angle_alpha   90.01954727
_cell_angle_beta   89.96599993
_cell_angle_gamma   120.05178502
_symmetry_Int_Tables_number   1
_chemical_formula_structural   Er2WCl12
_chemical_formula_sum   'Er2 W1 Cl12'
_cell_volume   537.67757552
_cell_formula_units_Z   1
loop_
 _symmetry_equiv_pos_site_id
 _symmetry_equiv_pos_as_xyz
  1  'x, y, z'
loop_
 _atom_site_type_symbol
 _atom_site_label
 _atom_site_symmetry_multiplicity
 _atom_site_fract_x
 _atom_site_fract_y
 _atom_site_fract_z
 _atom_site_occupancy
  Er  Er0  1  0.666640  0.333484  0.999907  1
  Er  Er1  1  0.333522  0.666609  0.999793  1
  W  W2  1  0.999942  0.999975  0.500108  1
  Cl  Cl3  1  0.620191  0.000193  0.115465  1
  Cl  Cl4  1  0.379422  0.379567  0.115527  1
  Cl  Cl5  1  0.000189  0.620487  0.115419  1
  Cl  Cl6  1  0.271932  0.271982  0.603402  1
  Cl  Cl7  1  0.999788  0.728026  0.603408  1
  Cl  Cl8  1  0.727891  0.999827  0.603465  1
  Cl  Cl9  1  0.000074  0.271743  0.396860  1
  Cl  Cl10  1  0.271815  0.000095  0.396799  1
  Cl  Cl11  1  0.728072  0.728086  0.396880  1
  Cl  Cl12  1  0.379594  0.999893  0.884356  1
  Cl  Cl13  1  0.620967  0.620744  0.884216  1
  Cl  Cl14  1  0.999959  0.379290  0.884397  1
