# generated using pymatgen
data_EuGa3(SO4)6
_symmetry_space_group_name_H-M   'P 1'
_cell_length_a   8.29457467
_cell_length_b   8.29457464
_cell_length_c   8.89771100
_cell_angle_alpha   62.21809801
_cell_angle_beta   117.78190970
_cell_angle_gamma   119.99999721
_symmetry_Int_Tables_number   1
_chemical_formula_structural   EuGa3(SO4)6
_chemical_formula_sum   'Eu1 Ga3 S6 O24'
_cell_volume   446.81303787
_cell_formula_units_Z   1
loop_
 _symmetry_equiv_pos_site_id
 _symmetry_equiv_pos_as_xyz
  1  'x, y, z'
loop_
 _atom_site_type_symbol
 _atom_site_label
 _atom_site_symmetry_multiplicity
 _atom_site_fract_x
 _atom_site_fract_y
 _atom_site_fract_z
 _atom_site_occupancy
  Eu  Eu0  1  0.358649  0.641351  0.075946  1
  Ga  Ga1  1  0.146035  0.853965  0.438106  1
  Ga  Ga2  1  0.858077  0.141923  0.574230  1
  Ga  Ga3  1  0.650908  0.349092  0.952724  1
  S  S4  1  0.462132  0.217364  0.256256  1
  S  S5  1  0.011489  0.537868  0.256256  1
  S  S6  1  0.782636  0.988511  0.256256  1
  S  S7  1  0.253535  0.054338  0.742081  1
  S  S8  1  0.945662  0.457119  0.742081  1
  S  S9  1  0.542882  0.746465  0.742081  1
  O  O10  1  0.796828  0.167652  0.099055  1
  O  O11  1  0.469879  0.203171  0.099055  1
  O  O12  1  0.832348  0.530121  0.099055  1
  O  O13  1  0.514673  0.423036  0.236230  1
  O  O14  1  0.144590  0.485326  0.236230  1
  O  O15  1  0.576965  0.855410  0.236230  1
  O  O16  1  0.259615  0.103057  0.265595  1
  O  O17  1  0.109038  0.740386  0.265595  1
  O  O18  1  0.896943  0.890962  0.265595  1
  O  O19  1  0.593174  0.133525  0.422862  1
  O  O20  1  0.963214  0.406826  0.422862  1
  O  O21  1  0.866475  0.036787  0.422862  1
  O  O22  1  0.228212  0.026495  0.578049  1
  O  O23  1  0.973504  0.623668  0.578049  1
  O  O24  1  0.376332  0.771788  0.578049  1
  O  O25  1  0.129597  0.158061  0.706402  1
  O  O26  1  0.841939  0.265134  0.706402  1
  O  O27  1  0.734865  0.870403  0.706402  1
  O  O28  1  0.461850  0.179766  0.799498  1
  O  O29  1  0.820234  0.482587  0.799498  1
  O  O30  1  0.517414  0.538150  0.799498  1
  O  O31  1  0.135408  0.459466  0.880305  1
  O  O32  1  0.540534  0.795637  0.880305  1
  O  O33  1  0.204364  0.864592  0.880305  1
