# generated using pymatgen
data_YbPrOsC2
_symmetry_space_group_name_H-M   'P 1'
_cell_length_a   5.25596200
_cell_length_b   6.45876600
_cell_length_c   10.49864400
_cell_angle_alpha   90.00000000
_cell_angle_beta   90.00000000
_cell_angle_gamma   90.00000000
_symmetry_Int_Tables_number   1
_chemical_formula_structural   YbPrOsC2
_chemical_formula_sum   'Yb4 Pr4 Os4 C8'
_cell_volume   356.39776879
_cell_formula_units_Z   4
loop_
 _symmetry_equiv_pos_site_id
 _symmetry_equiv_pos_as_xyz
  1  'x, y, z'
loop_
 _atom_site_type_symbol
 _atom_site_label
 _atom_site_symmetry_multiplicity
 _atom_site_fract_x
 _atom_site_fract_y
 _atom_site_fract_z
 _atom_site_occupancy
  Yb  Yb0  1  0.250000  0.528677  0.228148  1
  Yb  Yb1  1  0.750000  0.471323  0.771852  1
  Yb  Yb2  1  0.750000  0.971323  0.728148  1
  Yb  Yb3  1  0.250000  0.028677  0.271852  1
  Pr  Pr4  1  0.250000  0.704215  0.552002  1
  Pr  Pr5  1  0.750000  0.295785  0.447998  1
  Pr  Pr6  1  0.750000  0.795785  0.052002  1
  Pr  Pr7  1  0.250000  0.204215  0.947998  1
  Os  Os8  1  0.250000  0.730474  0.853370  1
  Os  Os9  1  0.750000  0.269526  0.146630  1
  Os  Os10  1  0.750000  0.769526  0.353370  1
  Os  Os11  1  0.250000  0.230474  0.646630  1
  C  C12  1  0.250000  0.473004  0.754502  1
  C  C13  1  0.750000  0.526996  0.245498  1
  C  C14  1  0.750000  0.026996  0.254502  1
  C  C15  1  0.250000  0.973004  0.745498  1
  C  C16  1  0.250000  0.796935  0.029999  1
  C  C17  1  0.750000  0.203065  0.970001  1
  C  C18  1  0.750000  0.703065  0.529999  1
  C  C19  1  0.250000  0.296935  0.470001  1
