# generated using pymatgen
data_Sc2Re2B4Ru3
_symmetry_space_group_name_H-M   'P 1'
_cell_length_a   3.04099700
_cell_length_b   8.55070812
_cell_length_c   10.03796776
_cell_angle_alpha   89.99287352
_cell_angle_beta   90.00000000
_cell_angle_gamma   90.00000000
_symmetry_Int_Tables_number   1
_chemical_formula_structural   Sc2Re2B4Ru3
_chemical_formula_sum   'Sc4 Re4 B8 Ru6'
_cell_volume   261.01403885
_cell_formula_units_Z   2
loop_
 _symmetry_equiv_pos_site_id
 _symmetry_equiv_pos_as_xyz
  1  'x, y, z'
loop_
 _atom_site_type_symbol
 _atom_site_label
 _atom_site_symmetry_multiplicity
 _atom_site_fract_x
 _atom_site_fract_y
 _atom_site_fract_z
 _atom_site_occupancy
  Sc  Sc0  1  0.500000  0.842446  0.181313  1
  Sc  Sc1  1  0.500000  0.157554  0.818687  1
  Sc  Sc2  1  0.500000  0.657614  0.681102  1
  Sc  Sc3  1  0.500000  0.342386  0.318898  1
  Re  Re4  1  0.000000  0.660132  0.953149  1
  Re  Re5  1  0.000000  0.339868  0.046851  1
  Re  Re6  1  0.000000  0.839870  0.453029  1
  Re  Re7  1  0.000000  0.160130  0.546971  1
  B  B8  1  0.500000  0.964466  0.588663  1
  B  B9  1  0.500000  0.035534  0.411337  1
  B  B10  1  0.500000  0.848169  0.901413  1
  B  B11  1  0.500000  0.151831  0.098587  1
  B  B12  1  0.500000  0.651832  0.401345  1
  B  B13  1  0.500000  0.348168  0.598655  1
  B  B14  1  0.500000  0.464709  0.911299  1
  B  B15  1  0.500000  0.535291  0.088701  1
  Ru  Ru16  1  0.000000  0.000000  0.000000  1
  Ru  Ru17  1  0.000000  0.403830  0.760146  1
  Ru  Ru18  1  0.000000  0.596170  0.239854  1
  Ru  Ru19  1  0.000000  0.500000  0.500000  1
  Ru  Ru20  1  0.000000  0.903716  0.739901  1
  Ru  Ru21  1  0.000000  0.096284  0.260099  1
