# generated using pymatgen
data_SmHoAl3(Fe7C)2
_symmetry_space_group_name_H-M   'P 1'
_cell_length_a   6.49004394
_cell_length_b   6.49004330
_cell_length_c   6.49638822
_cell_angle_alpha   83.80287342
_cell_angle_beta   83.80286052
_cell_angle_gamma   84.17140877
_symmetry_Int_Tables_number   1
_chemical_formula_structural   SmHoAl3(Fe7C)2
_chemical_formula_sum   'Sm1 Ho1 Al3 Fe14 C2'
_cell_volume   269.32243058
_cell_formula_units_Z   1
loop_
 _symmetry_equiv_pos_site_id
 _symmetry_equiv_pos_as_xyz
  1  'x, y, z'
loop_
 _atom_site_type_symbol
 _atom_site_label
 _atom_site_symmetry_multiplicity
 _atom_site_fract_x
 _atom_site_fract_y
 _atom_site_fract_z
 _atom_site_occupancy
  Sm  Sm0  1  0.657132  0.657132  0.658874  1
  Ho  Ho1  1  0.341187  0.341187  0.340216  1
  Al  Al2  1  0.654938  0.654938  0.150088  1
  Al  Al3  1  0.343201  0.343201  0.852746  1
  Al  Al4  1  0.000107  0.000107  0.500041  1
  Fe  Fe5  1  0.655147  0.145116  0.662852  1
  Fe  Fe6  1  0.145116  0.655147  0.662852  1
  Fe  Fe7  1  0.344143  0.856586  0.336697  1
  Fe  Fe8  1  0.856586  0.344143  0.336697  1
  Fe  Fe9  1  0.096139  0.096139  0.092569  1
  Fe  Fe10  1  0.904988  0.904988  0.907922  1
  Fe  Fe11  1  0.000064  0.499195  0.999789  1
  Fe  Fe12  1  0.499195  0.000064  0.999789  1
  Fe  Fe13  1  0.716739  0.282942  0.000741  1
  Fe  Fe14  1  0.288180  0.996598  0.716670  1
  Fe  Fe15  1  0.005610  0.710358  0.283133  1
  Fe  Fe16  1  0.710358  0.005610  0.283133  1
  Fe  Fe17  1  0.996598  0.288180  0.716670  1
  Fe  Fe18  1  0.282942  0.716739  0.000741  1
  C  C19  1  0.497709  0.003921  0.498890  1
  C  C20  1  0.003921  0.497709  0.498890  1
