# generated using pymatgen
data_Er5Tm(Sc2Sb3)2
_symmetry_space_group_name_H-M   'P 1'
_cell_length_a   8.74415444
_cell_length_b   8.74895983
_cell_length_c   6.07432200
_cell_angle_alpha   90.00000000
_cell_angle_beta   90.00000000
_cell_angle_gamma   120.01816962
_symmetry_Int_Tables_number   1
_chemical_formula_structural   Er5Tm(Sc2Sb3)2
_chemical_formula_sum   'Er5 Tm1 Sc4 Sb6'
_cell_volume   402.36772759
_cell_formula_units_Z   1
loop_
 _symmetry_equiv_pos_site_id
 _symmetry_equiv_pos_as_xyz
  1  'x, y, z'
loop_
 _atom_site_type_symbol
 _atom_site_label
 _atom_site_symmetry_multiplicity
 _atom_site_fract_x
 _atom_site_fract_y
 _atom_site_fract_z
 _atom_site_occupancy
  Er  Er0  1  0.000000  0.245570  0.250000  1
  Er  Er1  1  0.754629  0.754545  0.250000  1
  Er  Er2  1  0.754584  0.999943  0.750000  1
  Er  Er3  1  0.245416  0.245359  0.750000  1
  Er  Er4  1  0.245371  0.999916  0.250000  1
  Tm  Tm5  1  0.000000  0.754537  0.750000  1
  Sc  Sc6  1  0.333354  0.666678  0.499999  1
  Sc  Sc7  1  0.666646  0.333323  0.000001  1
  Sc  Sc8  1  0.666646  0.333323  0.499999  1
  Sc  Sc9  1  0.333354  0.666678  0.000001  1
  Sb  Sb10  1  0.393995  0.999718  0.750000  1
  Sb  Sb11  1  0.394352  0.394355  0.250000  1
  Sb  Sb12  1  0.000000  0.605644  0.250000  1
  Sb  Sb13  1  0.000000  0.394685  0.750000  1
  Sb  Sb14  1  0.606005  0.605723  0.750000  1
  Sb  Sb15  1  0.605648  0.000003  0.250000  1
