# generated using pymatgen
data_YEr15(InRu)4
_symmetry_space_group_name_H-M   'P 1'
_cell_length_a   9.57276093
_cell_length_b   9.57276139
_cell_length_c   9.58976800
_cell_angle_alpha   59.94122129
_cell_angle_beta   59.94121968
_cell_angle_gamma   59.82817362
_symmetry_Int_Tables_number   1
_chemical_formula_structural   YEr15(InRu)4
_chemical_formula_sum   'Y1 Er15 In4 Ru4'
_cell_volume   620.03326312
_cell_formula_units_Z   1
loop_
 _symmetry_equiv_pos_site_id
 _symmetry_equiv_pos_as_xyz
  1  'x, y, z'
loop_
 _atom_site_type_symbol
 _atom_site_label
 _atom_site_symmetry_multiplicity
 _atom_site_fract_x
 _atom_site_fract_y
 _atom_site_fract_z
 _atom_site_occupancy
  Y  Y0  1  0.059263  0.059263  0.440737  1
  Er  Er1  1  0.650632  0.046357  0.651507  1
  Er  Er2  1  0.191149  0.809353  0.190424  1
  Er  Er3  1  0.441772  0.058961  0.441442  1
  Er  Er4  1  0.190962  0.190962  0.809038  1
  Er  Er5  1  0.650937  0.650937  0.652172  1
  Er  Er6  1  0.046357  0.650632  0.651507  1
  Er  Er7  1  0.441772  0.058961  0.057824  1
  Er  Er8  1  0.650937  0.650937  0.045955  1
  Er  Er9  1  0.191149  0.809353  0.809074  1
  Er  Er10  1  0.809353  0.191149  0.809074  1
  Er  Er11  1  0.809353  0.191149  0.190424  1
  Er  Er12  1  0.809155  0.809155  0.190845  1
  Er  Er13  1  0.058961  0.441772  0.441442  1
  Er  Er14  1  0.440398  0.440398  0.059602  1
  Er  Er15  1  0.058961  0.441772  0.057824  1
  In  In16  1  0.747575  0.418065  0.417180  1
  In  In17  1  0.417320  0.417320  0.748504  1
  In  In18  1  0.418065  0.747575  0.417180  1
  In  In19  1  0.417320  0.417320  0.416858  1
  Ru  Ru20  1  0.859119  0.859119  0.861282  1
  Ru  Ru21  1  0.421066  0.859309  0.859813  1
  Ru  Ru22  1  0.859119  0.859119  0.420481  1
  Ru  Ru23  1  0.859309  0.421066  0.859813  1
