# generated using pymatgen
data_Ca2PrY(Ru2O7)2
_symmetry_space_group_name_H-M   'P 1'
_cell_length_a   7.31685291
_cell_length_b   7.35229227
_cell_length_c   7.31685286
_cell_angle_alpha   59.76863286
_cell_angle_beta   59.61615211
_cell_angle_gamma   59.76863247
_symmetry_Int_Tables_number   1
_chemical_formula_structural   Ca2PrY(Ru2O7)2
_chemical_formula_sum   'Ca2 Pr1 Y1 Ru4 O14'
_cell_volume   276.54248409
_cell_formula_units_Z   1
loop_
 _symmetry_equiv_pos_site_id
 _symmetry_equiv_pos_as_xyz
  1  'x, y, z'
loop_
 _atom_site_type_symbol
 _atom_site_label
 _atom_site_symmetry_multiplicity
 _atom_site_fract_x
 _atom_site_fract_y
 _atom_site_fract_z
 _atom_site_occupancy
  Ca  Ca0  1  0.625000  0.625000  0.125000  1
  Ca  Ca1  1  0.125000  0.625000  0.625000  1
  Pr  Pr2  1  0.625000  0.125000  0.625000  1
  Y  Y3  1  0.625000  0.625000  0.625000  1
  Ru  Ru4  1  0.625000  0.125000  0.125000  1
  Ru  Ru5  1  0.125000  0.625000  0.125000  1
  Ru  Ru6  1  0.125000  0.125000  0.625000  1
  Ru  Ru7  1  0.125000  0.125000  0.125000  1
  O  O8  1  0.198672  0.201501  0.798851  1
  O  O9  1  0.192282  0.808360  0.192282  1
  O  O10  1  0.451149  0.048499  0.051328  1
  O  O11  1  0.201917  0.802682  0.801331  1
  O  O12  1  0.048083  0.447318  0.448669  1
  O  O13  1  0.801331  0.802682  0.201917  1
  O  O14  1  0.448669  0.447318  0.048083  1
  O  O15  1  0.501059  0.509972  0.501059  1
  O  O16  1  0.051328  0.048499  0.451149  1
  O  O17  1  0.453425  0.041316  0.453425  1
  O  O18  1  0.057718  0.441640  0.057718  1
  O  O19  1  0.748941  0.740028  0.748941  1
  O  O20  1  0.796575  0.208684  0.796575  1
  O  O21  1  0.798851  0.201501  0.198672  1
