# generated using pymatgen
data_Nd2YGa4Ni9Sn2
_symmetry_space_group_name_H-M   'P 1'
_cell_length_a   4.08587900
_cell_length_b   9.09741204
_cell_length_c   9.13398019
_cell_angle_alpha   119.86765523
_cell_angle_beta   90.00000000
_cell_angle_gamma   90.00000000
_symmetry_Int_Tables_number   1
_chemical_formula_structural   Nd2YGa4Ni9Sn2
_chemical_formula_sum   'Nd2 Y1 Ga4 Ni9 Sn2'
_cell_volume   294.42297192
_cell_formula_units_Z   1
loop_
 _symmetry_equiv_pos_site_id
 _symmetry_equiv_pos_as_xyz
  1  'x, y, z'
loop_
 _atom_site_type_symbol
 _atom_site_label
 _atom_site_symmetry_multiplicity
 _atom_site_fract_x
 _atom_site_fract_y
 _atom_site_fract_z
 _atom_site_occupancy
  Nd  Nd0  1  0.500000  0.336265  0.673243  1
  Nd  Nd1  1  0.500000  0.663024  0.326757  1
  Y  Y2  1  0.000000  0.991895  0.000000  1
  Ga  Ga3  1  0.500000  0.733805  0.000000  1
  Ga  Ga4  1  0.500000  0.259323  0.256073  1
  Ga  Ga5  1  0.500000  0.003250  0.743927  1
  Ga  Ga6  1  0.000000  0.472346  0.000000  1
  Ni  Ni7  1  0.000000  0.204339  0.360017  1
  Ni  Ni8  1  0.000000  0.172073  0.810410  1
  Ni  Ni9  1  0.000000  0.626683  0.841287  1
  Ni  Ni10  1  0.000000  0.844323  0.639983  1
  Ni  Ni11  1  0.000000  0.361662  0.189590  1
  Ni  Ni12  1  0.000000  0.785396  0.158713  1
  Ni  Ni13  1  0.500000  0.291113  0.000000  1
  Ni  Ni14  1  0.500000  0.723427  0.724446  1
  Ni  Ni15  1  0.500000  0.998982  0.275554  1
  Sn  Sn16  1  0.000000  0.529923  0.527850  1
  Sn  Sn17  1  0.000000  0.002073  0.472150  1
