# generated using pymatgen
data_NdEr2Ni2Ir7
_symmetry_space_group_name_H-M   'P 1'
_cell_length_a   8.99209113
_cell_length_b   8.99209147
_cell_length_c   8.99209146
_cell_angle_alpha   34.30120449
_cell_angle_beta   34.30120161
_cell_angle_gamma   34.30120849
_symmetry_Int_Tables_number   1
_chemical_formula_structural   NdEr2Ni2Ir7
_chemical_formula_sum   'Nd1 Er2 Ni2 Ir7'
_cell_volume   205.92851218
_cell_formula_units_Z   1
loop_
 _symmetry_equiv_pos_site_id
 _symmetry_equiv_pos_as_xyz
  1  'x, y, z'
loop_
 _atom_site_type_symbol
 _atom_site_label
 _atom_site_symmetry_multiplicity
 _atom_site_fract_x
 _atom_site_fract_y
 _atom_site_fract_z
 _atom_site_occupancy
  Nd  Nd0  1  0.000000  0.000000  0.000000  1
  Er  Er1  1  0.859612  0.859612  0.859612  1
  Er  Er2  1  0.140388  0.140388  0.140388  1
  Ni  Ni3  1  0.666502  0.666502  0.666502  1
  Ni  Ni4  1  0.333498  0.333498  0.333498  1
  Ir  Ir5  1  0.418055  0.921919  0.418055  1
  Ir  Ir6  1  0.418055  0.418055  0.921919  1
  Ir  Ir7  1  0.921919  0.418055  0.418055  1
  Ir  Ir8  1  0.581945  0.078081  0.581945  1
  Ir  Ir9  1  0.581945  0.581945  0.078081  1
  Ir  Ir10  1  0.078081  0.581945  0.581945  1
  Ir  Ir11  1  0.500000  0.500000  0.500000  1
