# generated using pymatgen
data_Sr4FeCo3(NiN3)2
_symmetry_space_group_name_H-M   'P 1'
_cell_length_a   6.51274775
_cell_length_b   6.49152320
_cell_length_c   6.26092893
_cell_angle_alpha   88.15779687
_cell_angle_beta   88.71274736
_cell_angle_gamma   117.58867800
_symmetry_Int_Tables_number   1
_chemical_formula_structural   Sr4FeCo3(NiN3)2
_chemical_formula_sum   'Sr4 Fe1 Co3 Ni2 N6'
_cell_volume   234.27019468
_cell_formula_units_Z   1
loop_
 _symmetry_equiv_pos_site_id
 _symmetry_equiv_pos_as_xyz
  1  'x, y, z'
loop_
 _atom_site_type_symbol
 _atom_site_label
 _atom_site_symmetry_multiplicity
 _atom_site_fract_x
 _atom_site_fract_y
 _atom_site_fract_z
 _atom_site_occupancy
  Sr  Sr0  1  0.830149  0.676130  0.898919  1
  Sr  Sr1  1  0.328018  0.169037  0.602540  1
  Sr  Sr2  1  0.171973  0.327432  0.102870  1
  Sr  Sr3  1  0.678374  0.830077  0.395414  1
  Fe  Fe4  1  0.162522  0.560039  0.597933  1
  Co  Co5  1  0.565113  0.165889  0.101305  1
  Co  Co6  1  0.435074  0.837434  0.901379  1
  Co  Co7  1  0.829764  0.429733  0.397533  1
  Ni  Ni8  1  0.807422  0.193331  0.749728  1
  Ni  Ni9  1  0.194031  0.808090  0.252752  1
  N  N10  1  0.405615  0.593605  0.746109  1
  N  N11  1  0.588810  0.412068  0.247960  1
  N  N12  1  0.012490  0.726073  0.503411  1
  N  N13  1  0.730398  0.014083  0.999982  1
  N  N14  1  0.991682  0.270098  0.500583  1
  N  N15  1  0.268568  0.986879  0.001581  1
