# generated using pymatgen
data_Tb3Dy17Ir11Ru
_symmetry_space_group_name_H-M   'P 1'
_cell_length_a   10.88636600
_cell_length_b   10.88561601
_cell_length_c   6.40560100
_cell_angle_alpha   89.99640729
_cell_angle_beta   90.00094251
_cell_angle_gamma   90.00225269
_symmetry_Int_Tables_number   1
_chemical_formula_structural   Tb3Dy17Ir11Ru
_chemical_formula_sum   'Tb3 Dy17 Ir11 Ru1'
_cell_volume   759.09446373
_cell_formula_units_Z   1
loop_
 _symmetry_equiv_pos_site_id
 _symmetry_equiv_pos_as_xyz
  1  'x, y, z'
loop_
 _atom_site_type_symbol
 _atom_site_label
 _atom_site_symmetry_multiplicity
 _atom_site_fract_x
 _atom_site_fract_y
 _atom_site_fract_z
 _atom_site_occupancy
  Tb  Tb0  1  0.292372  0.087517  0.377171  1
  Tb  Tb1  1  0.292605  0.912452  0.879964  1
  Tb  Tb2  1  0.707384  0.087497  0.879988  1
  Dy  Dy3  1  0.707509  0.912491  0.377313  1
  Dy  Dy4  1  0.587540  0.792646  0.880056  1
  Dy  Dy5  1  0.587489  0.207578  0.377312  1
  Dy  Dy6  1  0.412612  0.792383  0.377323  1
  Dy  Dy7  1  0.412510  0.207395  0.880047  1
  Dy  Dy8  1  0.208934  0.411568  0.621379  1
  Dy  Dy9  1  0.208925  0.588326  0.121132  1
  Dy  Dy10  1  0.791075  0.411679  0.121128  1
  Dy  Dy11  1  0.791063  0.588458  0.621354  1
  Dy  Dy12  1  0.911652  0.708930  0.121102  1
  Dy  Dy13  1  0.911589  0.291083  0.621291  1
  Dy  Dy14  1  0.088403  0.708917  0.621310  1
  Dy  Dy15  1  0.088301  0.291103  0.121044  1
  Dy  Dy16  1  0.999927  0.999967  0.499448  1
  Dy  Dy17  1  0.999985  0.999994  0.999466  1
  Dy  Dy18  1  0.499996  0.500000  0.999468  1
  Dy  Dy19  1  0.500012  0.500008  0.499477  1
  Ir  Ir20  1  0.847114  0.153764  0.250340  1
  Ir  Ir21  1  0.847196  0.846478  0.749786  1
  Ir  Ir22  1  0.152727  0.153573  0.750023  1
  Ir  Ir23  1  0.152843  0.846149  0.250285  1
  Ir  Ir24  1  0.653386  0.347285  0.749791  1
  Ir  Ir25  1  0.653711  0.652963  0.250089  1
  Ir  Ir26  1  0.346317  0.347172  0.250037  1
  Ir  Ir27  1  0.346618  0.652714  0.749787  1
  Ir  Ir28  1  0.500134  0.999951  0.623982  1
  Ir  Ir29  1  0.999998  0.499993  0.877048  1
  Ir  Ir30  1  0.000002  0.500003  0.377173  1
  Ru  Ru31  1  0.500071  0.999966  0.124889  1
