# generated using pymatgen
data_Y2Ga(SiRh2)6
_symmetry_space_group_name_H-M   'P 1'
_cell_length_a   9.78822200
_cell_length_b   9.78822258
_cell_length_c   3.85974500
_cell_angle_alpha   90.00000000
_cell_angle_beta   90.00000000
_cell_angle_gamma   120.00000481
_symmetry_Int_Tables_number   1
_chemical_formula_structural   Y2Ga(SiRh2)6
_chemical_formula_sum   'Y2 Ga1 Si6 Rh12'
_cell_volume   320.25570212
_cell_formula_units_Z   1
loop_
 _symmetry_equiv_pos_site_id
 _symmetry_equiv_pos_as_xyz
  1  'x, y, z'
loop_
 _atom_site_type_symbol
 _atom_site_label
 _atom_site_symmetry_multiplicity
 _atom_site_fract_x
 _atom_site_fract_y
 _atom_site_fract_z
 _atom_site_occupancy
  Y  Y0  1  0.333333  0.666667  0.750863  1
  Y  Y1  1  0.000000  0.000000  0.251103  1
  Ga  Ga2  1  0.666667  0.333333  0.580808  1
  Si  Si3  1  0.955197  0.221669  0.750592  1
  Si  Si4  1  0.778331  0.733528  0.750592  1
  Si  Si5  1  0.266472  0.044803  0.750592  1
  Si  Si6  1  0.377123  0.443901  0.251726  1
  Si  Si7  1  0.556099  0.933222  0.251726  1
  Si  Si8  1  0.066778  0.622877  0.251726  1
  Rh  Rh9  1  0.731804  0.952750  0.751959  1
  Rh  Rh10  1  0.047250  0.779054  0.751959  1
  Rh  Rh11  1  0.220946  0.268196  0.751959  1
  Rh  Rh12  1  0.605595  0.717730  0.250331  1
  Rh  Rh13  1  0.282270  0.887865  0.250331  1
  Rh  Rh14  1  0.112135  0.394405  0.250331  1
  Rh  Rh15  1  0.944527  0.459611  0.750105  1
  Rh  Rh16  1  0.540389  0.484916  0.750105  1
  Rh  Rh17  1  0.515084  0.055473  0.750105  1
  Rh  Rh18  1  0.402382  0.212834  0.252425  1
  Rh  Rh19  1  0.787166  0.189549  0.252425  1
  Rh  Rh20  1  0.810451  0.597618  0.252425  1
