# generated using pymatgen
data_CeSm3CS3
_symmetry_space_group_name_H-M   'P 1'
_cell_length_a   6.89663242
_cell_length_b   6.89663194
_cell_length_c   6.90541023
_cell_angle_alpha   79.76603041
_cell_angle_beta   79.76602988
_cell_angle_gamma   32.85877021
_symmetry_Int_Tables_number   1
_chemical_formula_structural   CeSm3CS3
_chemical_formula_sum   'Ce1 Sm3 C1 S3'
_cell_volume   175.12098995
_cell_formula_units_Z   1
loop_
 _symmetry_equiv_pos_site_id
 _symmetry_equiv_pos_as_xyz
  1  'x, y, z'
loop_
 _atom_site_type_symbol
 _atom_site_label
 _atom_site_symmetry_multiplicity
 _atom_site_fract_x
 _atom_site_fract_y
 _atom_site_fract_z
 _atom_site_occupancy
  Ce  Ce0  1  0.985003  0.985003  0.982490  1
  Sm  Sm1  1  0.764118  0.764118  0.766557  1
  Sm  Sm2  1  0.491627  0.491627  0.526707  1
  Sm  Sm3  1  0.256842  0.256842  0.222092  1
  C  C4  1  0.379032  0.379032  0.878538  1
  S  S5  1  0.130106  0.130106  0.621360  1
  S  S6  1  0.874145  0.874145  0.375716  1
  S  S7  1  0.619128  0.619128  0.126540  1
