# generated using pymatgen
data_Y3Ho2Bi2Rh
_symmetry_space_group_name_H-M   'P 1'
_cell_length_a   8.04531500
_cell_length_b   8.96881800
_cell_length_c   12.52475800
_cell_angle_alpha   90.00000000
_cell_angle_beta   90.00000000
_cell_angle_gamma   90.00000000
_symmetry_Int_Tables_number   1
_chemical_formula_structural   Y3Ho2Bi2Rh
_chemical_formula_sum   'Y12 Ho8 Bi8 Rh4'
_cell_volume   903.74853701
_cell_formula_units_Z   4
loop_
 _symmetry_equiv_pos_site_id
 _symmetry_equiv_pos_as_xyz
  1  'x, y, z'
loop_
 _atom_site_type_symbol
 _atom_site_label
 _atom_site_symmetry_multiplicity
 _atom_site_fract_x
 _atom_site_fract_y
 _atom_site_fract_z
 _atom_site_occupancy
  Y  Y0  1  0.344115  0.750000  0.705662  1
  Y  Y1  1  0.655885  0.250000  0.294338  1
  Y  Y2  1  0.844115  0.250000  0.794338  1
  Y  Y3  1  0.155885  0.750000  0.205662  1
  Y  Y4  1  0.877879  0.750000  0.805764  1
  Y  Y5  1  0.122121  0.250000  0.194236  1
  Y  Y6  1  0.377879  0.250000  0.694236  1
  Y  Y7  1  0.622121  0.750000  0.305764  1
  Y  Y8  1  0.046327  0.750000  0.498929  1
  Y  Y9  1  0.953673  0.250000  0.501071  1
  Y  Y10  1  0.546327  0.250000  0.001071  1
  Y  Y11  1  0.453673  0.750000  0.998929  1
  Ho  Ho12  1  0.677876  0.540972  0.565228  1
  Ho  Ho13  1  0.322124  0.459028  0.434772  1
  Ho  Ho14  1  0.177876  0.459028  0.934772  1
  Ho  Ho15  1  0.322124  0.040972  0.434772  1
  Ho  Ho16  1  0.822124  0.540972  0.065228  1
  Ho  Ho17  1  0.677876  0.959028  0.565228  1
  Ho  Ho18  1  0.822124  0.959028  0.065228  1
  Ho  Ho19  1  0.177876  0.040972  0.934772  1
  Bi  Bi20  1  0.571224  0.508948  0.826599  1
  Bi  Bi21  1  0.428776  0.491052  0.173401  1
  Bi  Bi22  1  0.071224  0.491052  0.673401  1
  Bi  Bi23  1  0.428776  0.008948  0.173401  1
  Bi  Bi24  1  0.928776  0.508948  0.326599  1
  Bi  Bi25  1  0.571224  0.991052  0.826599  1
  Bi  Bi26  1  0.928776  0.991052  0.326599  1
  Bi  Bi27  1  0.071224  0.008948  0.673401  1
  Rh  Rh28  1  0.067110  0.750000  0.990902  1
  Rh  Rh29  1  0.932890  0.250000  0.009098  1
  Rh  Rh30  1  0.567110  0.250000  0.509098  1
  Rh  Rh31  1  0.432890  0.750000  0.490902  1
