# generated using pymatgen
data_Dy4Ta3NbN8
_symmetry_space_group_name_H-M   'P 1'
_cell_length_a   3.25006100
_cell_length_b   5.67988863
_cell_length_c   11.00507549
_cell_angle_alpha   90.04412675
_cell_angle_beta   90.00000000
_cell_angle_gamma   90.00000000
_symmetry_Int_Tables_number   1
_chemical_formula_structural   Dy4Ta3NbN8
_chemical_formula_sum   'Dy4 Ta3 Nb1 N8'
_cell_volume   203.15346302
_cell_formula_units_Z   1
loop_
 _symmetry_equiv_pos_site_id
 _symmetry_equiv_pos_as_xyz
  1  'x, y, z'
loop_
 _atom_site_type_symbol
 _atom_site_label
 _atom_site_symmetry_multiplicity
 _atom_site_fract_x
 _atom_site_fract_y
 _atom_site_fract_z
 _atom_site_occupancy
  Dy  Dy0  1  0.250000  0.588877  0.862930  1
  Dy  Dy1  1  0.750000  0.412182  0.136950  1
  Dy  Dy2  1  0.750000  0.913157  0.364433  1
  Dy  Dy3  1  0.250000  0.088374  0.636596  1
  Ta  Ta4  1  0.250000  0.917705  0.112872  1
  Ta  Ta5  1  0.750000  0.082950  0.886734  1
  Ta  Ta6  1  0.750000  0.582333  0.611080  1
  Nb  Nb7  1  0.250000  0.416615  0.388357  1
  N  N8  1  0.250000  0.662656  0.242345  1
  N  N9  1  0.750000  0.338851  0.756796  1
  N  N10  1  0.750000  0.837461  0.743686  1
  N  N11  1  0.250000  0.159116  0.254211  1
  N  N12  1  0.250000  0.745458  0.506309  1
  N  N13  1  0.750000  0.254310  0.498143  1
  N  N14  1  0.750000  0.757298  0.003871  1
  N  N15  1  0.250000  0.242657  0.994687  1
