# generated using pymatgen
data_Lu3Si3Ni2
_symmetry_space_group_name_H-M   'P 1'
_cell_length_a   5.36758339
_cell_length_b   5.36758379
_cell_length_c   13.60461100
_cell_angle_alpha   90.00000000
_cell_angle_beta   90.00000000
_cell_angle_gamma   135.13488679
_symmetry_Int_Tables_number   1
_chemical_formula_structural   Lu3Si3Ni2
_chemical_formula_sum   'Lu6 Si6 Ni4'
_cell_volume   276.50559776
_cell_formula_units_Z   2
loop_
 _symmetry_equiv_pos_site_id
 _symmetry_equiv_pos_as_xyz
  1  'x, y, z'
loop_
 _atom_site_type_symbol
 _atom_site_label
 _atom_site_symmetry_multiplicity
 _atom_site_fract_x
 _atom_site_fract_y
 _atom_site_fract_z
 _atom_site_occupancy
  Lu  Lu0  1  0.632375  0.367625  0.250000  1
  Lu  Lu1  1  0.367625  0.632375  0.750000  1
  Lu  Lu2  1  0.912769  0.087231  0.109993  1
  Lu  Lu3  1  0.087231  0.912769  0.890007  1
  Lu  Lu4  1  0.087231  0.912769  0.609993  1
  Lu  Lu5  1  0.912769  0.087231  0.390007  1
  Si  Si6  1  0.333100  0.666900  0.250000  1
  Si  Si7  1  0.666900  0.333100  0.750000  1
  Si  Si8  1  0.618519  0.381481  0.038386  1
  Si  Si9  1  0.381481  0.618519  0.961614  1
  Si  Si10  1  0.381481  0.618519  0.538386  1
  Si  Si11  1  0.618519  0.381481  0.461614  1
  Ni  Ni12  1  0.795910  0.204090  0.596420  1
  Ni  Ni13  1  0.204090  0.795910  0.403580  1
  Ni  Ni14  1  0.204090  0.795910  0.096420  1
  Ni  Ni15  1  0.795910  0.204090  0.903580  1
