# generated using pymatgen
data_TbY11ZnCo2Ni2Sn
_symmetry_space_group_name_H-M   'P 1'
_cell_length_a   8.36308076
_cell_length_b   8.34364926
_cell_length_c   8.34365000
_cell_angle_alpha   111.89130224
_cell_angle_beta   109.25556247
_cell_angle_gamma   107.21233174
_symmetry_Int_Tables_number   1
_chemical_formula_structural   TbY11ZnCo2Ni2Sn
_chemical_formula_sum   'Tb1 Y11 Zn1 Co2 Ni2 Sn1'
_cell_volume   447.91985481
_cell_formula_units_Z   1
loop_
 _symmetry_equiv_pos_site_id
 _symmetry_equiv_pos_as_xyz
  1  'x, y, z'
loop_
 _atom_site_type_symbol
 _atom_site_label
 _atom_site_symmetry_multiplicity
 _atom_site_fract_x
 _atom_site_fract_y
 _atom_site_fract_z
 _atom_site_occupancy
  Tb  Tb0  1  0.427880  0.229483  0.198398  1
  Y  Y1  1  0.572084  0.770087  0.801997  1
  Y  Y2  1  0.033413  0.230750  0.802660  1
  Y  Y3  1  0.965715  0.768142  0.197576  1
  Y  Y4  1  0.181261  0.285074  0.465479  1
  Y  Y5  1  0.818856  0.714615  0.534510  1
  Y  Y6  1  0.181261  0.715782  0.896186  1
  Y  Y7  1  0.818856  0.284346  0.104241  1
  Y  Y8  1  0.320093  0.631338  0.310444  1
  Y  Y9  1  0.680585  0.369123  0.690021  1
  Y  Y10  1  0.320093  0.009649  0.688755  1
  Y  Y11  1  0.680585  0.990564  0.311463  1
  Zn  Zn12  1  0.000501  0.999453  0.001048  1
  Co  Co13  1  0.112528  0.613311  0.499217  1
  Co  Co14  1  0.888913  0.387327  0.501586  1
  Ni  Ni15  1  0.348260  0.000286  0.347975  1
  Ni  Ni16  1  0.649173  0.000417  0.648756  1
  Sn  Sn17  1  0.499944  0.500253  0.999691  1
