# generated using pymatgen
data_Tm3LuTh6(Bi3C)2
_symmetry_space_group_name_H-M   'P 1'
_cell_length_a   9.31794300
_cell_length_b   9.31794381
_cell_length_c   6.44184500
_cell_angle_alpha   90.00000000
_cell_angle_beta   90.00000000
_cell_angle_gamma   120.00000066
_symmetry_Int_Tables_number   1
_chemical_formula_structural   Tm3LuTh6(Bi3C)2
_chemical_formula_sum   'Tm3 Lu1 Th6 Bi6 C2'
_cell_volume   484.37423782
_cell_formula_units_Z   1
loop_
 _symmetry_equiv_pos_site_id
 _symmetry_equiv_pos_as_xyz
  1  'x, y, z'
loop_
 _atom_site_type_symbol
 _atom_site_label
 _atom_site_symmetry_multiplicity
 _atom_site_fract_x
 _atom_site_fract_y
 _atom_site_fract_z
 _atom_site_occupancy
  Tm  Tm0  1  0.333333  0.666667  0.000000  1
  Tm  Tm1  1  0.333333  0.666667  0.500000  1
  Tm  Tm2  1  0.666667  0.333333  0.500000  1
  Lu  Lu3  1  0.666667  0.333333  0.000000  1
  Th  Th4  1  0.779760  0.779753  0.749994  1
  Th  Th5  1  0.220247  0.000007  0.749994  1
  Th  Th6  1  0.999993  0.220240  0.749994  1
  Th  Th7  1  0.220247  0.220240  0.250006  1
  Th  Th8  1  0.779760  0.000007  0.250006  1
  Th  Th9  1  0.999993  0.779753  0.250006  1
  Bi  Bi10  1  0.406530  0.406481  0.750056  1
  Bi  Bi11  1  0.593519  0.000049  0.750056  1
  Bi  Bi12  1  0.999951  0.593470  0.750056  1
  Bi  Bi13  1  0.593519  0.593470  0.249944  1
  Bi  Bi14  1  0.406530  0.000049  0.249944  1
  Bi  Bi15  1  0.999951  0.406481  0.249944  1
  C  C16  1  0.000000  0.000000  0.000000  1
  C  C17  1  0.000000  0.000000  0.500000  1
