# generated using pymatgen
data_Yb3Ce(Ru2O7)2
_symmetry_space_group_name_H-M   'P 1'
_cell_length_a   7.26493675
_cell_length_b   7.21064640
_cell_length_c   7.26493700
_cell_angle_alpha   59.75062562
_cell_angle_beta   60.00000342
_cell_angle_gamma   59.75062978
_symmetry_Int_Tables_number   1
_chemical_formula_structural   Yb3Ce(Ru2O7)2
_chemical_formula_sum   'Yb3 Ce1 Ru4 O14'
_cell_volume   268.08690924
_cell_formula_units_Z   1
loop_
 _symmetry_equiv_pos_site_id
 _symmetry_equiv_pos_as_xyz
  1  'x, y, z'
loop_
 _atom_site_type_symbol
 _atom_site_label
 _atom_site_symmetry_multiplicity
 _atom_site_fract_x
 _atom_site_fract_y
 _atom_site_fract_z
 _atom_site_occupancy
  Yb  Yb0  1  0.125000  0.125000  0.125000  1
  Yb  Yb1  1  0.625000  0.125000  0.125000  1
  Yb  Yb2  1  0.125000  0.125000  0.625000  1
  Ce  Ce3  1  0.125000  0.625000  0.125000  1
  Ru  Ru4  1  0.625000  0.625000  0.625000  1
  Ru  Ru5  1  0.125000  0.625000  0.625000  1
  Ru  Ru6  1  0.625000  0.625000  0.125000  1
  Ru  Ru7  1  0.625000  0.125000  0.625000  1
  O  O8  1  0.005731  0.982808  0.005731  1
  O  O9  1  0.244269  0.267192  0.244269  1
  O  O10  1  0.298941  0.301074  0.699992  1
  O  O11  1  0.546306  0.545327  0.954183  1
  O  O12  1  0.699992  0.301074  0.699992  1
  O  O13  1  0.699992  0.301074  0.298941  1
  O  O14  1  0.295817  0.704673  0.703694  1
  O  O15  1  0.295817  0.704673  0.295817  1
  O  O16  1  0.703694  0.704673  0.295817  1
  O  O17  1  0.954183  0.545327  0.546306  1
  O  O18  1  0.550008  0.948926  0.951059  1
  O  O19  1  0.951059  0.948926  0.550008  1
  O  O20  1  0.954183  0.545327  0.954183  1
  O  O21  1  0.550008  0.948926  0.550008  1
