# generated using pymatgen
data_Tb3Dy3(TmAu2)2
_symmetry_space_group_name_H-M   'P 1'
_cell_length_a   4.92517200
_cell_length_b   7.15370847
_cell_length_c   8.93263164
_cell_angle_alpha   89.88490234
_cell_angle_beta   90.00000000
_cell_angle_gamma   90.00000000
_symmetry_Int_Tables_number   1
_chemical_formula_structural   Tb3Dy3(TmAu2)2
_chemical_formula_sum   'Tb3 Dy3 Tm2 Au4'
_cell_volume   314.72496123
_cell_formula_units_Z   1
loop_
 _symmetry_equiv_pos_site_id
 _symmetry_equiv_pos_as_xyz
  1  'x, y, z'
loop_
 _atom_site_type_symbol
 _atom_site_label
 _atom_site_symmetry_multiplicity
 _atom_site_fract_x
 _atom_site_fract_y
 _atom_site_fract_z
 _atom_site_occupancy
  Tb  Tb0  1  0.250000  0.985269  0.322731  1
  Tb  Tb1  1  0.750000  0.513817  0.823223  1
  Tb  Tb2  1  0.750000  0.013812  0.676813  1
  Dy  Dy3  1  0.250000  0.851841  0.921068  1
  Dy  Dy4  1  0.250000  0.352108  0.579236  1
  Dy  Dy5  1  0.250000  0.484945  0.176474  1
  Tm  Tm6  1  0.750000  0.148131  0.080060  1
  Tm  Tm7  1  0.750000  0.647657  0.419240  1
  Au  Au8  1  0.250000  0.255215  0.902318  1
  Au  Au9  1  0.250000  0.754864  0.599032  1
  Au  Au10  1  0.750000  0.745605  0.101772  1
  Au  Au11  1  0.750000  0.246738  0.398034  1
