# generated using pymatgen
data_Cs8Rb5Ti2(In3Sb5)2
_symmetry_space_group_name_H-M   'P 1'
_cell_length_a   10.36759390
_cell_length_b   10.23990591
_cell_length_c   14.59562984
_cell_angle_alpha   80.04428957
_cell_angle_beta   77.45720089
_cell_angle_gamma   63.65560175
_symmetry_Int_Tables_number   1
_chemical_formula_structural   Cs8Rb5Ti2(In3Sb5)2
_chemical_formula_sum   'Cs8 Rb5 Ti2 In6 Sb10'
_cell_volume   1350.25472181
_cell_formula_units_Z   1
loop_
 _symmetry_equiv_pos_site_id
 _symmetry_equiv_pos_as_xyz
  1  'x, y, z'
loop_
 _atom_site_type_symbol
 _atom_site_label
 _atom_site_symmetry_multiplicity
 _atom_site_fract_x
 _atom_site_fract_y
 _atom_site_fract_z
 _atom_site_occupancy
  Cs  Cs0  1  0.091936  0.785278  0.430241  1
  Cs  Cs1  1  0.908064  0.214722  0.569759  1
  Cs  Cs2  1  0.743193  0.695793  0.593477  1
  Cs  Cs3  1  0.256807  0.304207  0.406523  1
  Cs  Cs4  1  0.312137  0.931687  0.089610  1
  Cs  Cs5  1  0.687863  0.068313  0.910390  1
  Cs  Cs6  1  0.894848  0.855438  0.166650  1
  Cs  Cs7  1  0.105152  0.144562  0.833350  1
  Rb  Rb8  1  0.503068  0.859051  0.352567  1
  Rb  Rb9  1  0.496932  0.140949  0.647433  1
  Rb  Rb10  1  0.860743  0.587252  0.886027  1
  Rb  Rb11  1  0.139257  0.412748  0.113973  1
  Rb  Rb12  1  0.500000  0.500000  0.000000  1
  Ti  Ti13  1  0.381148  0.732289  0.773693  1
  Ti  Ti14  1  0.618852  0.267711  0.226307  1
  In  In15  1  0.037400  0.805771  0.708719  1
  In  In16  1  0.962600  0.194229  0.291281  1
  In  In17  1  0.595364  0.445542  0.410443  1
  In  In18  1  0.404636  0.554458  0.589557  1
  In  In19  1  0.723957  0.566075  0.164933  1
  In  In20  1  0.276043  0.433925  0.835067  1
  Sb  Sb21  1  0.431159  0.558283  0.251577  1
  Sb  Sb22  1  0.568841  0.441717  0.748423  1
  Sb  Sb23  1  0.135789  0.740769  0.899737  1
  Sb  Sb24  1  0.864211  0.259231  0.100263  1
  Sb  Sb25  1  0.703310  0.126452  0.396891  1
  Sb  Sb26  1  0.296690  0.873548  0.603109  1
  Sb  Sb27  1  0.855254  0.513684  0.349036  1
  Sb  Sb28  1  0.144746  0.486316  0.650964  1
  Sb  Sb29  1  0.507551  0.857796  0.839530  1
  Sb  Sb30  1  0.492449  0.142204  0.160470  1
