# generated using pymatgen
data_Tm5Ti3(Co4As3)4
_symmetry_space_group_name_H-M   'P 1'
_cell_length_a   12.52841900
_cell_length_b   12.52841964
_cell_length_c   3.77308600
_cell_angle_alpha   90.00000000
_cell_angle_beta   90.00000000
_cell_angle_gamma   120.00000622
_symmetry_Int_Tables_number   1
_chemical_formula_structural   Tm5Ti3(Co4As3)4
_chemical_formula_sum   'Tm5 Ti3 Co16 As12'
_cell_volume   512.88484906
_cell_formula_units_Z   1
loop_
 _symmetry_equiv_pos_site_id
 _symmetry_equiv_pos_as_xyz
  1  'x, y, z'
loop_
 _atom_site_type_symbol
 _atom_site_label
 _atom_site_symmetry_multiplicity
 _atom_site_fract_x
 _atom_site_fract_y
 _atom_site_fract_z
 _atom_site_occupancy
  Tm  Tm0  1  0.185736  0.185736  0.500000  1
  Tm  Tm1  1  0.814264  0.000000  0.500000  1
  Tm  Tm2  1  0.000000  0.814264  0.500000  1
  Tm  Tm3  1  0.333333  0.666667  0.000000  1
  Tm  Tm4  1  0.666667  0.333333  0.000000  1
  Ti  Ti5  1  0.563409  0.563409  0.000000  1
  Ti  Ti6  1  0.436591  0.000000  0.000000  1
  Ti  Ti7  1  0.000000  0.436591  0.000000  1
  Co  Co8  1  0.716829  0.716829  0.500000  1
  Co  Co9  1  0.283171  0.000000  0.500000  1
  Co  Co10  1  0.000000  0.283171  0.500000  1
  Co  Co11  1  0.177269  0.375651  0.000000  1
  Co  Co12  1  0.624349  0.801618  0.000000  1
  Co  Co13  1  0.198382  0.822731  0.000000  1
  Co  Co14  1  0.801618  0.624349  0.000000  1
  Co  Co15  1  0.822731  0.198382  0.000000  1
  Co  Co16  1  0.375651  0.177269  0.000000  1
  Co  Co17  1  0.355732  0.479926  0.500000  1
  Co  Co18  1  0.520074  0.875806  0.500000  1
  Co  Co19  1  0.124194  0.644268  0.500000  1
  Co  Co20  1  0.875806  0.520074  0.500000  1
  Co  Co21  1  0.644268  0.124194  0.500000  1
  Co  Co22  1  0.479926  0.355732  0.500000  1
  Co  Co23  1  0.000000  0.000000  0.000000  1
  As  As24  1  0.822443  0.822443  0.000000  1
  As  As25  1  0.177557  0.000000  0.000000  1
  As  As26  1  0.000000  0.177557  0.000000  1
  As  As27  1  0.169406  0.484028  0.500000  1
  As  As28  1  0.515972  0.685379  0.500000  1
  As  As29  1  0.314621  0.830594  0.500000  1
  As  As30  1  0.685379  0.515972  0.500000  1
  As  As31  1  0.830594  0.314621  0.500000  1
  As  As32  1  0.484028  0.169406  0.500000  1
  As  As33  1  0.358423  0.358423  0.000000  1
  As  As34  1  0.641577  0.000000  0.000000  1
  As  As35  1  0.000000  0.641577  0.000000  1
