# generated using pymatgen
data_Y8Co17Si10Ru
_symmetry_space_group_name_H-M   'P 1'
_cell_length_a   5.22881845
_cell_length_b   5.22881773
_cell_length_c   21.96236626
_cell_angle_alpha   89.91123870
_cell_angle_beta   90.08876141
_cell_angle_gamma   120.41749061
_symmetry_Int_Tables_number   1
_chemical_formula_structural   Y8Co17Si10Ru
_chemical_formula_sum   'Y8 Co17 Si10 Ru1'
_cell_volume   517.81387170
_cell_formula_units_Z   1
loop_
 _symmetry_equiv_pos_site_id
 _symmetry_equiv_pos_as_xyz
  1  'x, y, z'
loop_
 _atom_site_type_symbol
 _atom_site_label
 _atom_site_symmetry_multiplicity
 _atom_site_fract_x
 _atom_site_fract_y
 _atom_site_fract_z
 _atom_site_occupancy
  Y  Y0  1  0.331957  0.668043  0.529981  1
  Y  Y1  1  0.664618  0.335382  0.474042  1
  Y  Y2  1  0.666807  0.333193  0.027474  1
  Y  Y3  1  0.333518  0.666482  0.971723  1
  Y  Y4  1  0.333077  0.666923  0.675367  1
  Y  Y5  1  0.667805  0.332195  0.325729  1
  Y  Y6  1  0.667247  0.332753  0.174029  1
  Y  Y7  1  0.333438  0.666562  0.825978  1
  Co  Co8  1  0.166509  0.332476  0.087522  1
  Co  Co9  1  0.833480  0.667999  0.911756  1
  Co  Co10  1  0.667524  0.833491  0.087522  1
  Co  Co11  1  0.832440  0.668240  0.589968  1
  Co  Co12  1  0.332001  0.166520  0.911756  1
  Co  Co13  1  0.162619  0.331448  0.412078  1
  Co  Co14  1  0.166387  0.833613  0.087644  1
  Co  Co15  1  0.331760  0.167560  0.589968  1
  Co  Co16  1  0.834238  0.165762  0.910989  1
  Co  Co17  1  0.668552  0.837381  0.412078  1
  Co  Co18  1  0.833536  0.166464  0.590110  1
  Co  Co19  1  0.168569  0.333942  0.247685  1
  Co  Co20  1  0.832537  0.664677  0.750517  1
  Co  Co21  1  0.666058  0.831431  0.247685  1
  Co  Co22  1  0.335323  0.167463  0.750517  1
  Co  Co23  1  0.168038  0.831962  0.249575  1
  Co  Co24  1  0.832650  0.167350  0.750915  1
  Si  Si25  1  0.999435  0.000565  0.999632  1
  Si  Si26  1  0.997661  0.002339  0.502403  1
  Si  Si27  1  0.332783  0.667217  0.166912  1
  Si  Si28  1  0.665716  0.334284  0.832301  1
  Si  Si29  1  0.666719  0.333281  0.669059  1
  Si  Si30  1  0.342649  0.657351  0.329037  1
  Si  Si31  1  0.001255  0.998745  0.167751  1
  Si  Si32  1  0.001270  0.998730  0.831103  1
  Si  Si33  1  0.999965  0.000035  0.670185  1
  Si  Si34  1  0.993692  0.006308  0.328416  1
  Ru  Ru35  1  0.168170  0.831830  0.410589  1
