# generated using pymatgen
data_La8Zn3Si12Pd
_symmetry_space_group_name_H-M   'P 1'
_cell_length_a   8.27024400
_cell_length_b   8.27024502
_cell_length_c   8.87113700
_cell_angle_alpha   90.00000000
_cell_angle_beta   90.00000000
_cell_angle_gamma   120.00000392
_symmetry_Int_Tables_number   1
_chemical_formula_structural   La8Zn3Si12Pd
_chemical_formula_sum   'La8 Zn3 Si12 Pd1'
_cell_volume   525.46839526
_cell_formula_units_Z   1
loop_
 _symmetry_equiv_pos_site_id
 _symmetry_equiv_pos_as_xyz
  1  'x, y, z'
loop_
 _atom_site_type_symbol
 _atom_site_label
 _atom_site_symmetry_multiplicity
 _atom_site_fract_x
 _atom_site_fract_y
 _atom_site_fract_z
 _atom_site_occupancy
  La  La0  1  0.499902  0.500098  0.750398  1
  La  La1  1  0.500352  0.499648  0.249598  1
  La  La2  1  0.000195  0.500098  0.750398  1
  La  La3  1  0.999296  0.499648  0.249598  1
  La  La4  1  0.499902  0.999805  0.750398  1
  La  La5  1  0.500352  0.000704  0.249598  1
  La  La6  1  0.000000  0.000000  0.749681  1
  La  La7  1  0.000000  0.000000  0.250576  1
  Zn  Zn8  1  0.666667  0.333333  0.997081  1
  Zn  Zn9  1  0.333333  0.666667  0.002073  1
  Zn  Zn10  1  0.333333  0.666667  0.499007  1
  Si  Si11  1  0.833758  0.166242  0.000771  1
  Si  Si12  1  0.166043  0.833957  0.999493  1
  Si  Si13  1  0.332483  0.166242  0.000771  1
  Si  Si14  1  0.163357  0.836643  0.499673  1
  Si  Si15  1  0.667914  0.833957  0.999493  1
  Si  Si16  1  0.832724  0.167276  0.500498  1
  Si  Si17  1  0.833758  0.667517  0.000771  1
  Si  Si18  1  0.673287  0.836643  0.499673  1
  Si  Si19  1  0.166043  0.332086  0.999493  1
  Si  Si20  1  0.334553  0.167276  0.500498  1
  Si  Si21  1  0.163357  0.326713  0.499673  1
  Si  Si22  1  0.832724  0.665447  0.500498  1
  Pd  Pd23  1  0.666667  0.333333  0.500290  1
