# generated using pymatgen
data_Rb8Bi4TeP4W3O32
_symmetry_space_group_name_H-M   'P 1'
_cell_length_a   12.70456648
_cell_length_b   12.70456672
_cell_length_c   12.70456600
_cell_angle_alpha   147.19423521
_cell_angle_beta   120.19068955
_cell_angle_gamma   69.91635666
_symmetry_Int_Tables_number   1
_chemical_formula_structural   Rb8Bi4TeP4W3O32
_chemical_formula_sum   'Rb8 Bi4 Te1 P4 W3 O32'
_cell_volume   946.43450707
_cell_formula_units_Z   1
loop_
 _symmetry_equiv_pos_site_id
 _symmetry_equiv_pos_as_xyz
  1  'x, y, z'
loop_
 _atom_site_type_symbol
 _atom_site_label
 _atom_site_symmetry_multiplicity
 _atom_site_fract_x
 _atom_site_fract_y
 _atom_site_fract_z
 _atom_site_occupancy
  Rb  Rb0  1  0.238894  0.624249  0.547787  1
  Rb  Rb1  1  0.261280  0.809103  0.385881  1
  Rb  Rb2  1  0.923222  0.875398  0.114119  1
  Rb  Rb3  1  0.576462  0.691106  0.952213  1
  Rb  Rb4  1  0.761106  0.376051  0.452034  1
  Rb  Rb5  1  0.738924  0.191154  0.615250  1
  Rb  Rb6  1  0.075904  0.123674  0.884750  1
  Rb  Rb7  1  0.424017  0.309072  0.047966  1
  Bi  Bi8  1  0.167579  0.749419  0.916154  1
  Bi  Bi9  1  0.333265  0.251425  0.583846  1
  Bi  Bi10  1  0.832788  0.250063  0.082824  1
  Bi  Bi11  1  0.667239  0.749964  0.417176  1
  Te  Te12  1  0.086288  0.336288  0.750000  1
  P  P13  1  0.926618  0.750029  0.676686  1
  P  P14  1  0.573343  0.249932  0.823314  1
  P  P15  1  0.073397  0.249877  0.323128  1
  P  P16  1  0.426749  0.750270  0.176872  1
  W  W17  1  0.412796  0.162796  0.250000  1
  W  W18  1  0.912793  0.662793  0.250000  1
  W  W19  1  0.587152  0.837152  0.750000  1
  O  O20  1  0.941518  0.715736  0.775119  1
  O  O21  1  0.558361  0.333660  0.774041  1
  O  O22  1  0.059619  0.784320  0.725959  1
  O  O23  1  0.440617  0.166400  0.724881  1
  O  O24  1  0.058595  0.284319  0.224761  1
  O  O25  1  0.441646  0.666471  0.225839  1
  O  O26  1  0.940632  0.215807  0.274161  1
  O  O27  1  0.559559  0.833835  0.275239  1
  O  O28  1  0.100879  0.592827  0.922440  1
  O  O29  1  0.399131  0.317212  0.488792  1
  O  O30  1  0.328420  0.910339  0.011208  1
  O  O31  1  0.170388  0.178440  0.577560  1
  O  O32  1  0.898978  0.410491  0.082045  1
  O  O33  1  0.600980  0.683101  0.511587  1
  O  O34  1  0.671513  0.089393  0.988413  1
  O  O35  1  0.828446  0.816933  0.417955  1
  O  O36  1  0.359815  0.591829  0.931460  1
  O  O37  1  0.140859  0.072074  0.232186  1
  O  O38  1  0.339888  0.908674  0.267814  1
  O  O39  1  0.160370  0.428354  0.568540  1
  O  O40  1  0.640741  0.408610  0.068641  1
  O  O41  1  0.859512  0.928110  0.767866  1
  O  O42  1  0.660245  0.091645  0.732134  1
  O  O43  1  0.839969  0.572102  0.431359  1
  O  O44  1  0.922518  0.219931  0.566772  1
  O  O45  1  0.573531  0.147280  0.296514  1
  O  O46  1  0.350766  0.277017  0.203486  1
  O  O47  1  0.153159  0.355747  0.933228  1
  O  O48  1  0.073613  0.776937  0.426453  1
  O  O49  1  0.426361  0.852558  0.703489  1
  O  O50  1  0.649068  0.722873  0.796511  1
  O  O51  1  0.850484  0.647159  0.073547  1
