# generated using pymatgen
data_Er8Ga(PdPt7)3
_symmetry_space_group_name_H-M   'P 1'
_cell_length_a   8.32574601
_cell_length_b   8.32574601
_cell_length_c   8.32574601
_cell_angle_alpha   89.99622886
_cell_angle_beta   89.99622886
_cell_angle_gamma   90.00377114
_symmetry_Int_Tables_number   1
_chemical_formula_structural   Er8Ga(PdPt7)3
_chemical_formula_sum   'Er8 Ga1 Pd3 Pt21'
_cell_volume   577.12444614
_cell_formula_units_Z   1
loop_
 _symmetry_equiv_pos_site_id
 _symmetry_equiv_pos_as_xyz
  1  'x, y, z'
loop_
 _atom_site_type_symbol
 _atom_site_label
 _atom_site_symmetry_multiplicity
 _atom_site_fract_x
 _atom_site_fract_y
 _atom_site_fract_z
 _atom_site_occupancy
  Er  Er0  1  0.251229  0.251229  0.748771  1
  Er  Er1  1  0.252025  0.748304  0.251696  1
  Er  Er2  1  0.748304  0.252025  0.251696  1
  Er  Er3  1  0.748304  0.748304  0.747975  1
  Er  Er4  1  0.747815  0.747815  0.252185  1
  Er  Er5  1  0.748684  0.251594  0.748406  1
  Er  Er6  1  0.251594  0.748684  0.748406  1
  Er  Er7  1  0.251594  0.251594  0.251316  1
  Ga  Ga8  1  0.000453  0.000453  0.999547  1
  Pd  Pd9  1  0.999771  0.999771  0.291803  1
  Pd  Pd10  1  0.999771  0.708197  0.000229  1
  Pd  Pd11  1  0.708197  0.999771  0.000229  1
  Pt  Pt12  1  0.500033  0.500033  0.746924  1
  Pt  Pt13  1  0.500033  0.253076  0.499967  1
  Pt  Pt14  1  0.253076  0.500033  0.499967  1
  Pt  Pt15  1  0.500035  0.500035  0.253005  1
  Pt  Pt16  1  0.500035  0.746995  0.499965  1
  Pt  Pt17  1  0.746995  0.500035  0.499965  1
  Pt  Pt18  1  0.999656  0.999656  0.706566  1
  Pt  Pt19  1  0.999656  0.293434  0.000344  1
  Pt  Pt20  1  0.293434  0.999656  0.000344  1
  Pt  Pt21  1  0.999975  0.499983  0.739844  1
  Pt  Pt22  1  0.499983  0.260156  0.000025  1
  Pt  Pt23  1  0.260156  0.999975  0.500017  1
  Pt  Pt24  1  0.999975  0.260156  0.500017  1
  Pt  Pt25  1  0.499983  0.999975  0.739844  1
  Pt  Pt26  1  0.260156  0.499983  0.000025  1
  Pt  Pt27  1  0.999976  0.500013  0.260451  1
  Pt  Pt28  1  0.500013  0.739549  0.000024  1
  Pt  Pt29  1  0.999976  0.739549  0.499987  1
  Pt  Pt30  1  0.500013  0.999976  0.260451  1
  Pt  Pt31  1  0.739549  0.999976  0.499987  1
  Pt  Pt32  1  0.739549  0.500013  0.000024  1
