# generated using pymatgen
data_Rb16CeZrAs8
_symmetry_space_group_name_H-M   'P 1'
_cell_length_a   11.52590033
_cell_length_b   11.52590916
_cell_length_c   11.51163400
_cell_angle_alpha   60.04096747
_cell_angle_beta   60.04094216
_cell_angle_gamma   60.00904557
_symmetry_Int_Tables_number   1
_chemical_formula_structural   Rb16CeZrAs8
_chemical_formula_sum   'Rb16 Ce1 Zr1 As8'
_cell_volume   1082.10725710
_cell_formula_units_Z   1
loop_
 _symmetry_equiv_pos_site_id
 _symmetry_equiv_pos_as_xyz
  1  'x, y, z'
loop_
 _atom_site_type_symbol
 _atom_site_label
 _atom_site_symmetry_multiplicity
 _atom_site_fract_x
 _atom_site_fract_y
 _atom_site_fract_z
 _atom_site_occupancy
  Rb  Rb0  1  0.625190  0.124200  0.625308  1
  Rb  Rb1  1  0.625258  0.625259  0.124167  1
  Rb  Rb2  1  0.124197  0.625191  0.625308  1
  Rb  Rb3  1  0.625257  0.625253  0.625320  1
  Rb  Rb4  1  0.028527  0.028526  0.471479  1
  Rb  Rb5  1  0.780834  0.219205  0.219005  1
  Rb  Rb6  1  0.219209  0.780832  0.780960  1
  Rb  Rb7  1  0.780820  0.780815  0.219187  1
  Rb  Rb8  1  0.780837  0.219206  0.780961  1
  Rb  Rb9  1  0.219210  0.780831  0.219005  1
  Rb  Rb10  1  0.471343  0.028575  0.471292  1
  Rb  Rb11  1  0.471348  0.028580  0.028797  1
  Rb  Rb12  1  0.028576  0.471339  0.471289  1
  Rb  Rb13  1  0.028575  0.471346  0.028801  1
  Rb  Rb14  1  0.219184  0.219178  0.780821  1
  Rb  Rb15  1  0.471381  0.471383  0.028620  1
  Ce  Ce16  1  0.500272  0.500353  0.499636  1
  Zr  Zr17  1  0.749935  0.749901  0.750074  1
  As  As18  1  0.398366  0.804394  0.398627  1
  As  As19  1  0.846128  0.846125  0.461573  1
  As  As20  1  0.462092  0.846106  0.845907  1
  As  As21  1  0.846122  0.846123  0.846172  1
  As  As22  1  0.804384  0.398369  0.398629  1
  As  As23  1  0.398421  0.398418  0.398438  1
  As  As24  1  0.398426  0.398426  0.804706  1
  As  As25  1  0.846113  0.462070  0.845918  1
