# generated using pymatgen
data_Ti4SnS8
_symmetry_space_group_name_H-M   'P 1'
_cell_length_a   6.84323217
_cell_length_b   6.84323258
_cell_length_c   9.15134622
_cell_angle_alpha   56.43984059
_cell_angle_beta   56.43983969
_cell_angle_gamma   60.06562466
_symmetry_Int_Tables_number   1
_chemical_formula_structural   Ti4SnS8
_chemical_formula_sum   'Ti4 Sn1 S8'
_cell_volume   285.81291724
_cell_formula_units_Z   1
loop_
 _symmetry_equiv_pos_site_id
 _symmetry_equiv_pos_as_xyz
  1  'x, y, z'
loop_
 _atom_site_type_symbol
 _atom_site_label
 _atom_site_symmetry_multiplicity
 _atom_site_fract_x
 _atom_site_fract_y
 _atom_site_fract_z
 _atom_site_occupancy
  Ti  Ti0  1  0.758066  0.241934  0.000000  1
  Ti  Ti1  1  0.241934  0.758066  0.000000  1
  Ti  Ti2  1  0.241945  0.241945  0.010474  1
  Ti  Ti3  1  0.758055  0.758055  0.989526  1
  Sn  Sn4  1  0.500000  0.500000  0.500000  1
  S  S5  1  0.979721  0.483371  0.206476  1
  S  S6  1  0.483371  0.979721  0.206476  1
  S  S7  1  0.485876  0.485876  0.198475  1
  S  S8  1  0.978959  0.978959  0.208929  1
  S  S9  1  0.021041  0.021041  0.791071  1
  S  S10  1  0.514124  0.514124  0.801525  1
  S  S11  1  0.516629  0.020279  0.793524  1
  S  S12  1  0.020279  0.516629  0.793524  1
