# generated using pymatgen
data_Rb2Pr10Ni2Br17
_symmetry_space_group_name_H-M   'P 1'
_cell_length_a   9.55417530
_cell_length_b   11.25262891
_cell_length_c   11.25335200
_cell_angle_alpha   107.61355711
_cell_angle_beta   93.40043561
_cell_angle_gamma   93.40716139
_symmetry_Int_Tables_number   1
_chemical_formula_structural   Rb2Pr10Ni2Br17
_chemical_formula_sum   'Rb2 Pr10 Ni2 Br17'
_cell_volume   1147.28131361
_cell_formula_units_Z   1
loop_
 _symmetry_equiv_pos_site_id
 _symmetry_equiv_pos_as_xyz
  1  'x, y, z'
loop_
 _atom_site_type_symbol
 _atom_site_label
 _atom_site_symmetry_multiplicity
 _atom_site_fract_x
 _atom_site_fract_y
 _atom_site_fract_z
 _atom_site_occupancy
  Rb  Rb0  1  0.996908  0.795292  0.199303  1
  Rb  Rb1  1  0.996821  0.199102  0.795284  1
  Pr  Pr2  1  0.443576  0.161249  0.161100  1
  Pr  Pr3  1  0.574254  0.506216  0.197577  1
  Pr  Pr4  1  0.838284  0.288604  0.288499  1
  Pr  Pr5  1  0.311839  0.437721  0.437617  1
  Pr  Pr6  1  0.424116  0.802550  0.493463  1
  Pr  Pr7  1  0.574184  0.197745  0.506378  1
  Pr  Pr8  1  0.677948  0.559491  0.559491  1
  Pr  Pr9  1  0.166995  0.713967  0.714036  1
  Pr  Pr10  1  0.423989  0.493413  0.802220  1
  Pr  Pr11  1  0.562252  0.840487  0.840351  1
  Ni  Ni12  1  0.572617  0.350955  0.350889  1
  Ni  Ni13  1  0.424776  0.649247  0.648884  1
  Br  Br14  1  0.586550  0.687034  0.021250  1
  Br  Br15  1  0.723688  0.066644  0.066669  1
  Br  Br16  1  0.862888  0.451260  0.119360  1
  Br  Br17  1  0.142931  0.216912  0.216987  1
  Br  Br18  1  0.285248  0.606162  0.260415  1
  Br  Br19  1  0.415604  0.977946  0.312793  1
  Br  Br20  1  0.713014  0.740361  0.394188  1
  Br  Br21  1  0.862662  0.119700  0.451356  1
  Br  Br22  1  0.999411  0.501698  0.501783  1
  Br  Br23  1  0.137237  0.881030  0.549762  1
  Br  Br24  1  0.285360  0.260330  0.606159  1
  Br  Br25  1  0.586693  0.021178  0.687128  1
  Br  Br26  1  0.712919  0.394151  0.740479  1
  Br  Br27  1  0.858817  0.781504  0.781671  1
  Br  Br28  1  0.137046  0.549305  0.881069  1
  Br  Br29  1  0.285658  0.935966  0.936036  1
  Br  Br30  1  0.415719  0.312778  0.977805  1
