# generated using pymatgen
data_Ho20Sn11Sb5
_symmetry_space_group_name_H-M   'P 1'
_cell_length_a   8.08981393
_cell_length_b   8.12109574
_cell_length_c   15.32425313
_cell_angle_alpha   90.14794525
_cell_angle_beta   90.16405264
_cell_angle_gamma   89.84652421
_symmetry_Int_Tables_number   1
_chemical_formula_structural   Ho20Sn11Sb5
_chemical_formula_sum   'Ho20 Sn11 Sb5'
_cell_volume   1006.76405835
_cell_formula_units_Z   1
loop_
 _symmetry_equiv_pos_site_id
 _symmetry_equiv_pos_as_xyz
  1  'x, y, z'
loop_
 _atom_site_type_symbol
 _atom_site_label
 _atom_site_symmetry_multiplicity
 _atom_site_fract_x
 _atom_site_fract_y
 _atom_site_fract_z
 _atom_site_occupancy
  Ho  Ho0  1  0.378441  0.839493  0.879270  1
  Ho  Ho1  1  0.877531  0.660603  0.621945  1
  Ho  Ho2  1  0.622994  0.159671  0.378161  1
  Ho  Ho3  1  0.121482  0.339013  0.121692  1
  Ho  Ho4  1  0.622534  0.161173  0.120979  1
  Ho  Ho5  1  0.123730  0.338121  0.378340  1
  Ho  Ho6  1  0.375112  0.839133  0.621969  1
  Ho  Ho7  1  0.877321  0.660750  0.878298  1
  Ho  Ho8  1  0.543833  0.331719  0.894903  1
  Ho  Ho9  1  0.042320  0.172259  0.604213  1
  Ho  Ho10  1  0.457787  0.672760  0.395722  1
  Ho  Ho11  1  0.958207  0.825542  0.104626  1
  Ho  Ho12  1  0.462797  0.668921  0.104397  1
  Ho  Ho13  1  0.968533  0.824821  0.398332  1
  Ho  Ho14  1  0.531135  0.324784  0.601793  1
  Ho  Ho15  1  0.036184  0.177847  0.897147  1
  Ho  Ho16  1  0.207257  0.501042  0.747636  1
  Ho  Ho17  1  0.707378  0.000258  0.749583  1
  Ho  Ho18  1  0.792664  0.498906  0.248885  1
  Ho  Ho19  1  0.293034  0.000053  0.252158  1
  Sn  Sn20  1  0.217643  0.531863  0.543041  1
  Sn  Sn21  1  0.282766  0.031307  0.457108  1
  Sn  Sn22  1  0.780724  0.469722  0.042854  1
  Sn  Sn23  1  0.572555  0.624872  0.749920  1
  Sn  Sn24  1  0.072860  0.877007  0.751772  1
  Sn  Sn25  1  0.427108  0.375113  0.249545  1
  Sn  Sn26  1  0.927115  0.122901  0.249810  1
  Sn  Sn27  1  0.344286  0.146620  0.751717  1
  Sn  Sn28  1  0.843585  0.353797  0.749307  1
  Sn  Sn29  1  0.656726  0.853238  0.250009  1
  Sn  Sn30  1  0.155926  0.645712  0.249441  1
  Sb  Sb31  1  0.275418  0.025011  0.045088  1
  Sb  Sb32  1  0.777343  0.471832  0.455660  1
  Sb  Sb33  1  0.721831  0.972387  0.544428  1
  Sb  Sb34  1  0.221858  0.527775  0.955414  1
  Sb  Sb35  1  0.721982  0.973976  0.954834  1
