# generated using pymatgen
data_TbYB10Pt
_symmetry_space_group_name_H-M   'P 1'
_cell_length_a   4.17503300
_cell_length_b   5.69851500
_cell_length_c   11.38911701
_cell_angle_alpha   89.99545378
_cell_angle_beta   90.00000000
_cell_angle_gamma   90.00000000
_symmetry_Int_Tables_number   1
_chemical_formula_structural   TbYB10Pt
_chemical_formula_sum   'Tb2 Y2 B20 Pt2'
_cell_volume   270.96404201
_cell_formula_units_Z   2
loop_
 _symmetry_equiv_pos_site_id
 _symmetry_equiv_pos_as_xyz
  1  'x, y, z'
loop_
 _atom_site_type_symbol
 _atom_site_label
 _atom_site_symmetry_multiplicity
 _atom_site_fract_x
 _atom_site_fract_y
 _atom_site_fract_z
 _atom_site_occupancy
  Tb  Tb0  1  0.500000  0.315101  0.858739  1
  Tb  Tb1  1  0.500000  0.684899  0.141261  1
  Y  Y2  1  0.500000  0.184658  0.358714  1
  Y  Y3  1  0.500000  0.815342  0.641286  1
  B  B4  1  0.000000  0.383654  0.043992  1
  B  B5  1  0.000000  0.616346  0.956008  1
  B  B6  1  0.000000  0.116345  0.543972  1
  B  B7  1  0.000000  0.883655  0.456028  1
  B  B8  1  0.000000  0.359909  0.197883  1
  B  B9  1  0.000000  0.640091  0.802117  1
  B  B10  1  0.000000  0.140201  0.697902  1
  B  B11  1  0.000000  0.859799  0.302098  1
  B  B12  1  0.000000  0.052572  0.193627  1
  B  B13  1  0.000000  0.947428  0.806373  1
  B  B14  1  0.000000  0.447339  0.693672  1
  B  B15  1  0.000000  0.552661  0.306328  1
  B  B16  1  0.303102  0.218161  0.120697  1
  B  B17  1  0.696898  0.781839  0.879303  1
  B  B18  1  0.303102  0.781839  0.879303  1
  B  B19  1  0.696905  0.281783  0.620700  1
  B  B20  1  0.696898  0.218161  0.120697  1
  B  B21  1  0.303095  0.718217  0.379300  1
  B  B22  1  0.696905  0.718217  0.379300  1
  B  B23  1  0.303095  0.281783  0.620700  1
  Pt  Pt24  1  0.000000  0.000000  0.000000  1
  Pt  Pt25  1  0.000000  0.500000  0.500000  1
