# generated using pymatgen
data_DyU2Sn3IrRh2
_symmetry_space_group_name_H-M   'P 1'
_cell_length_a   7.47270726
_cell_length_b   7.34000763
_cell_length_c   3.99390300
_cell_angle_alpha   90.00000000
_cell_angle_beta   90.00000000
_cell_angle_gamma   119.19762963
_symmetry_Int_Tables_number   1
_chemical_formula_structural   DyU2Sn3IrRh2
_chemical_formula_sum   'Dy1 U2 Sn3 Ir1 Rh2'
_cell_volume   191.23065479
_cell_formula_units_Z   1
loop_
 _symmetry_equiv_pos_site_id
 _symmetry_equiv_pos_as_xyz
  1  'x, y, z'
loop_
 _atom_site_type_symbol
 _atom_site_label
 _atom_site_symmetry_multiplicity
 _atom_site_fract_x
 _atom_site_fract_y
 _atom_site_fract_z
 _atom_site_occupancy
  Dy  Dy0  1  0.998244  0.588229  0.500000  1
  U  U1  1  0.420370  0.414929  0.500000  1
  U  U2  1  0.584646  0.003067  0.500000  1
  Sn  Sn3  1  0.752170  0.747948  0.000000  1
  Sn  Sn4  1  0.244397  0.989829  0.000000  1
  Sn  Sn5  1  0.002874  0.263137  0.000000  1
  Ir  Ir6  1  0.647426  0.316715  0.000000  1
  Rh  Rh7  1  0.350941  0.668429  0.000000  1
  Rh  Rh8  1  0.998931  0.007716  0.500000  1
