# generated using pymatgen
data_DyTh7(Si3Pd)4
_symmetry_space_group_name_H-M   'P 1'
_cell_length_a   8.23366700
_cell_length_b   8.23360079
_cell_length_c   8.49210800
_cell_angle_alpha   90.00000000
_cell_angle_beta   90.00000000
_cell_angle_gamma   120.00038892
_symmetry_Int_Tables_number   1
_chemical_formula_structural   DyTh7(Si3Pd)4
_chemical_formula_sum   'Dy1 Th7 Si12 Pd4'
_cell_volume   498.57160763
_cell_formula_units_Z   1
loop_
 _symmetry_equiv_pos_site_id
 _symmetry_equiv_pos_as_xyz
  1  'x, y, z'
loop_
 _atom_site_type_symbol
 _atom_site_label
 _atom_site_symmetry_multiplicity
 _atom_site_fract_x
 _atom_site_fract_y
 _atom_site_fract_z
 _atom_site_occupancy
  Dy  Dy0  1  0.000001  0.000000  0.750000  1
  Th  Th1  1  0.500675  0.001347  0.250000  1
  Th  Th2  1  0.499450  0.998906  0.750000  1
  Th  Th3  1  0.998654  0.499327  0.250000  1
  Th  Th4  1  0.001097  0.500549  0.750000  1
  Th  Th5  1  0.500674  0.499325  0.250000  1
  Th  Th6  1  0.499453  0.500549  0.750000  1
  Th  Th7  1  0.999999  0.000000  0.250000  1
  Si  Si8  1  0.165539  0.331079  0.998068  1
  Si  Si9  1  0.834502  0.669004  0.996580  1
  Si  Si10  1  0.668921  0.834461  0.998067  1
  Si  Si11  1  0.834502  0.669004  0.503420  1
  Si  Si12  1  0.330995  0.165497  0.996580  1
  Si  Si13  1  0.165539  0.331079  0.501932  1
  Si  Si14  1  0.165545  0.834457  0.998074  1
  Si  Si15  1  0.330995  0.165497  0.503420  1
  Si  Si16  1  0.834496  0.165501  0.996585  1
  Si  Si17  1  0.668921  0.834461  0.501933  1
  Si  Si18  1  0.834496  0.165501  0.503415  1
  Si  Si19  1  0.165545  0.834457  0.501926  1
  Pd  Pd20  1  0.333332  0.666666  0.002756  1
  Pd  Pd21  1  0.666668  0.333334  0.999539  1
  Pd  Pd22  1  0.666668  0.333334  0.500461  1
  Pd  Pd23  1  0.333332  0.666666  0.497244  1
