# generated using pymatgen
data_Nd12NiPd2Ru
_symmetry_space_group_name_H-M   'P 1'
_cell_length_a   6.57408625
_cell_length_b   7.29742713
_cell_length_c   9.96826800
_cell_angle_alpha   90.00000000
_cell_angle_beta   90.00000000
_cell_angle_gamma   89.83027364
_symmetry_Int_Tables_number   1
_chemical_formula_structural   Nd12NiPd2Ru
_chemical_formula_sum   'Nd12 Ni1 Pd2 Ru1'
_cell_volume   478.21474725
_cell_formula_units_Z   1
loop_
 _symmetry_equiv_pos_site_id
 _symmetry_equiv_pos_as_xyz
  1  'x, y, z'
loop_
 _atom_site_type_symbol
 _atom_site_label
 _atom_site_symmetry_multiplicity
 _atom_site_fract_x
 _atom_site_fract_y
 _atom_site_fract_z
 _atom_site_occupancy
  Nd  Nd0  1  0.327370  0.685009  0.061480  1
  Nd  Nd1  1  0.163129  0.169456  0.434351  1
  Nd  Nd2  1  0.664088  0.328129  0.564358  1
  Nd  Nd3  1  0.825154  0.817910  0.937143  1
  Nd  Nd4  1  0.664088  0.328129  0.935642  1
  Nd  Nd5  1  0.825154  0.817910  0.562857  1
  Nd  Nd6  1  0.327370  0.685009  0.438520  1
  Nd  Nd7  1  0.163129  0.169456  0.065649  1
  Nd  Nd8  1  0.869764  0.536751  0.250000  1
  Nd  Nd9  1  0.646054  0.026631  0.250000  1
  Nd  Nd10  1  0.143574  0.472830  0.750000  1
  Nd  Nd11  1  0.370620  0.958989  0.750000  1
  Ni  Ni12  1  0.073412  0.883577  0.250000  1
  Pd  Pd13  1  0.428937  0.387689  0.250000  1
  Pd  Pd14  1  0.938223  0.115306  0.750000  1
  Ru  Ru15  1  0.569934  0.617220  0.750000  1
