# generated using pymatgen
data_CaPr5HoCoI12
_symmetry_space_group_name_H-M   'P 1'
_cell_length_a   9.90963425
_cell_length_b   10.06514775
_cell_length_c   10.02726414
_cell_angle_alpha   106.84172041
_cell_angle_beta   107.05342060
_cell_angle_gamma   106.98468952
_symmetry_Int_Tables_number   1
_chemical_formula_structural   CaPr5HoCoI12
_chemical_formula_sum   'Ca1 Pr5 Ho1 Co1 I12'
_cell_volume   833.83125448
_cell_formula_units_Z   1
loop_
 _symmetry_equiv_pos_site_id
 _symmetry_equiv_pos_as_xyz
  1  'x, y, z'
loop_
 _atom_site_type_symbol
 _atom_site_label
 _atom_site_symmetry_multiplicity
 _atom_site_fract_x
 _atom_site_fract_y
 _atom_site_fract_z
 _atom_site_occupancy
  Ca  Ca0  1  0.500503  0.500085  0.499587  1
  Pr  Pr1  1  0.025561  0.099762  0.305786  1
  Pr  Pr2  1  0.100487  0.304775  0.024781  1
  Pr  Pr3  1  0.289029  0.024382  0.092331  1
  Pr  Pr4  1  0.899516  0.694662  0.974136  1
  Pr  Pr5  1  0.710042  0.974309  0.902880  1
  Ho  Ho6  1  0.974318  0.903159  0.706748  1
  Co  Co7  1  0.999221  0.999513  0.999035  1
  I  I8  1  0.534910  0.616167  0.840022  1
  I  I9  1  0.464925  0.383903  0.159308  1
  I  I10  1  0.308367  0.924602  0.767735  1
  I  I11  1  0.385842  0.158767  0.461521  1
  I  I12  1  0.927505  0.774919  0.324786  1
  I  I13  1  0.678631  0.072582  0.224075  1
  I  I14  1  0.069658  0.214421  0.678531  1
  I  I15  1  0.770496  0.317945  0.925286  1
  I  I16  1  0.229435  0.681988  0.074396  1
  I  I17  1  0.848446  0.548817  0.617033  1
  I  I18  1  0.157223  0.462423  0.382906  1
  I  I19  1  0.625886  0.842821  0.539118  1
