# generated using pymatgen
data_Al2Sn2S5
_symmetry_space_group_name_H-M   'P 1'
_cell_length_a   6.37792500
_cell_length_b   10.99540200
_cell_length_c   12.62561900
_cell_angle_alpha   90.00000000
_cell_angle_beta   90.00000000
_cell_angle_gamma   90.00000000
_symmetry_Int_Tables_number   1
_chemical_formula_structural   Al2Sn2S5
_chemical_formula_sum   'Al8 Sn8 S20'
_cell_volume   885.40750656
_cell_formula_units_Z   4
loop_
 _symmetry_equiv_pos_site_id
 _symmetry_equiv_pos_as_xyz
  1  'x, y, z'
loop_
 _atom_site_type_symbol
 _atom_site_label
 _atom_site_symmetry_multiplicity
 _atom_site_fract_x
 _atom_site_fract_y
 _atom_site_fract_z
 _atom_site_occupancy
  Al  Al0  1  0.646673  0.114204  0.768617  1
  Al  Al1  1  0.353327  0.614204  0.231383  1
  Al  Al2  1  0.853327  0.114204  0.268617  1
  Al  Al3  1  0.146673  0.614204  0.731383  1
  Al  Al4  1  0.150660  0.281271  0.818977  1
  Al  Al5  1  0.849340  0.781271  0.181023  1
  Al  Al6  1  0.349340  0.281271  0.318977  1
  Al  Al7  1  0.650660  0.781271  0.681023  1
  Sn  Sn8  1  0.544365  0.480725  0.539760  1
  Sn  Sn9  1  0.455635  0.980725  0.460240  1
  Sn  Sn10  1  0.955635  0.480725  0.039760  1
  Sn  Sn11  1  0.044365  0.980725  0.960240  1
  Sn  Sn12  1  0.549753  0.257501  0.015230  1
  Sn  Sn13  1  0.450247  0.757501  0.984770  1
  Sn  Sn14  1  0.950247  0.257501  0.515230  1
  Sn  Sn15  1  0.049753  0.757501  0.484770  1
  S  S16  1  0.484428  0.965873  0.673201  1
  S  S17  1  0.515572  0.465873  0.326799  1
  S  S18  1  0.015572  0.965873  0.173201  1
  S  S19  1  0.984428  0.465873  0.826799  1
  S  S20  1  0.509726  0.798148  0.226260  1
  S  S21  1  0.490274  0.298148  0.773740  1
  S  S22  1  0.990274  0.798148  0.726260  1
  S  S23  1  0.009726  0.298148  0.273740  1
  S  S24  1  0.142012  0.537248  0.563067  1
  S  S25  1  0.857988  0.037248  0.436933  1
  S  S26  1  0.357988  0.537248  0.063067  1
  S  S27  1  0.642012  0.037248  0.936933  1
  S  S28  1  0.638571  0.723350  0.507493  1
  S  S29  1  0.361429  0.223350  0.492507  1
  S  S30  1  0.861429  0.723350  0.007493  1
  S  S31  1  0.138571  0.223350  0.992507  1
  S  S32  1  0.985614  0.142079  0.714806  1
  S  S33  1  0.014386  0.642079  0.285194  1
  S  S34  1  0.514386  0.142079  0.214806  1
  S  S35  1  0.485614  0.642079  0.785194  1
