# generated using pymatgen
data_La8Al(Si4Pt)3
_symmetry_space_group_name_H-M   'P 1'
_cell_length_a   8.30554500
_cell_length_b   8.30554478
_cell_length_c   8.85307500
_cell_angle_alpha   90.00000000
_cell_angle_beta   90.00000000
_cell_angle_gamma   119.99999688
_symmetry_Int_Tables_number   1
_chemical_formula_structural   La8Al(Si4Pt)3
_chemical_formula_sum   'La8 Al1 Si12 Pt3'
_cell_volume   528.88475484
_cell_formula_units_Z   1
loop_
 _symmetry_equiv_pos_site_id
 _symmetry_equiv_pos_as_xyz
  1  'x, y, z'
loop_
 _atom_site_type_symbol
 _atom_site_label
 _atom_site_symmetry_multiplicity
 _atom_site_fract_x
 _atom_site_fract_y
 _atom_site_fract_z
 _atom_site_occupancy
  La  La0  1  0.000000  0.000000  0.248604  1
  La  La1  1  0.000000  0.000000  0.751642  1
  La  La2  1  0.500990  0.499010  0.248360  1
  La  La3  1  0.500990  0.001982  0.248360  1
  La  La4  1  0.998018  0.499010  0.248360  1
  La  La5  1  0.499780  0.500220  0.751385  1
  La  La6  1  0.499780  0.999559  0.751385  1
  La  La7  1  0.000441  0.500220  0.751385  1
  Al  Al8  1  0.333333  0.666667  0.496760  1
  Si  Si9  1  0.162418  0.837582  0.500580  1
  Si  Si10  1  0.162418  0.324838  0.500580  1
  Si  Si11  1  0.675162  0.837582  0.500580  1
  Si  Si12  1  0.832401  0.167599  0.499517  1
  Si  Si13  1  0.832401  0.664800  0.499517  1
  Si  Si14  1  0.335200  0.167599  0.499517  1
  Si  Si15  1  0.834817  0.165183  0.000263  1
  Si  Si16  1  0.834817  0.669634  0.000263  1
  Si  Si17  1  0.330366  0.165183  0.000263  1
  Si  Si18  1  0.166138  0.833862  0.999575  1
  Si  Si19  1  0.166138  0.332276  0.999575  1
  Si  Si20  1  0.667724  0.833862  0.999575  1
  Pt  Pt21  1  0.666667  0.333333  0.503022  1
  Pt  Pt22  1  0.666667  0.333333  0.997588  1
  Pt  Pt23  1  0.333333  0.666667  0.003343  1
