# generated using pymatgen
data_Tb5Y3Sc12Si15Ru
_symmetry_space_group_name_H-M   'P 1'
_cell_length_a   7.08632782
_cell_length_b   7.45392002
_cell_length_c   13.96302922
_cell_angle_alpha   90.01307710
_cell_angle_beta   89.98432837
_cell_angle_gamma   90.16306817
_symmetry_Int_Tables_number   1
_chemical_formula_structural   Tb5Y3Sc12Si15Ru
_chemical_formula_sum   'Tb5 Y3 Sc12 Si15 Ru1'
_cell_volume   737.53702674
_cell_formula_units_Z   1
loop_
 _symmetry_equiv_pos_site_id
 _symmetry_equiv_pos_as_xyz
  1  'x, y, z'
loop_
 _atom_site_type_symbol
 _atom_site_label
 _atom_site_symmetry_multiplicity
 _atom_site_fract_x
 _atom_site_fract_y
 _atom_site_fract_z
 _atom_site_occupancy
  Tb  Tb0  1  0.990923  0.827020  0.595933  1
  Tb  Tb1  1  0.511155  0.323247  0.095985  1
  Tb  Tb2  1  0.011232  0.178308  0.404054  1
  Tb  Tb3  1  0.510987  0.323241  0.403967  1
  Tb  Tb4  1  0.489088  0.676101  0.595889  1
  Y  Y5  1  0.011138  0.178255  0.095961  1
  Y  Y6  1  0.991057  0.826349  0.904280  1
  Y  Y7  1  0.489200  0.676441  0.904142  1
  Sc  Sc8  1  0.157252  0.501012  0.749997  1
  Sc  Sc9  1  0.838335  0.495550  0.250055  1
  Sc  Sc10  1  0.339144  0.005056  0.250006  1
  Sc  Sc11  1  0.669484  0.999156  0.749992  1
  Sc  Sc12  1  0.316641  0.171858  0.628061  1
  Sc  Sc13  1  0.671996  0.825776  0.374072  1
  Sc  Sc14  1  0.171595  0.677902  0.374112  1
  Sc  Sc15  1  0.671868  0.825729  0.125876  1
  Sc  Sc16  1  0.837052  0.319867  0.627700  1
  Sc  Sc17  1  0.316282  0.171810  0.872036  1
  Sc  Sc18  1  0.837277  0.319632  0.872230  1
  Sc  Sc19  1  0.171735  0.677945  0.125829  1
  Si  Si20  1  0.968533  0.884203  0.249969  1
  Si  Si21  1  0.469091  0.615185  0.249942  1
  Si  Si22  1  0.529324  0.387441  0.750071  1
  Si  Si23  1  0.286519  0.868114  0.750156  1
  Si  Si24  1  0.713278  0.128390  0.249860  1
  Si  Si25  1  0.214013  0.372057  0.249941  1
  Si  Si26  1  0.779773  0.626327  0.750082  1
  Si  Si27  1  0.159184  0.468187  0.537365  1
  Si  Si28  1  0.844857  0.536151  0.461514  1
  Si  Si29  1  0.345095  0.965483  0.460257  1
  Si  Si30  1  0.844757  0.536146  0.038529  1
  Si  Si31  1  0.655231  0.034913  0.538808  1
  Si  Si32  1  0.159287  0.468252  0.962533  1
  Si  Si33  1  0.655541  0.034811  0.961067  1
  Si  Si34  1  0.344791  0.965331  0.039787  1
  Ru  Ru35  1  0.027288  0.108752  0.749941  1
