# generated using pymatgen
data_Pr2As7Rh12
_symmetry_space_group_name_H-M   'P 1'
_cell_length_a   10.02832200
_cell_length_b   10.02832334
_cell_length_c   3.98972900
_cell_angle_alpha   90.00000000
_cell_angle_beta   90.00000000
_cell_angle_gamma   120.00000878
_symmetry_Int_Tables_number   1
_chemical_formula_structural   Pr2As7Rh12
_chemical_formula_sum   'Pr2 As7 Rh12'
_cell_volume   347.48062126
_cell_formula_units_Z   1
loop_
 _symmetry_equiv_pos_site_id
 _symmetry_equiv_pos_as_xyz
  1  'x, y, z'
loop_
 _atom_site_type_symbol
 _atom_site_label
 _atom_site_symmetry_multiplicity
 _atom_site_fract_x
 _atom_site_fract_y
 _atom_site_fract_z
 _atom_site_occupancy
  Pr  Pr0  1  0.333333  0.666667  0.747057  1
  Pr  Pr1  1  0.666667  0.333333  0.252943  1
  As  As2  1  0.000000  0.000000  0.500000  1
  As  As3  1  0.884372  0.597017  0.752089  1
  As  As4  1  0.402983  0.287355  0.752089  1
  As  As5  1  0.712645  0.115628  0.752089  1
  As  As6  1  0.115628  0.402983  0.247911  1
  As  As7  1  0.597017  0.712645  0.247911  1
  As  As8  1  0.287355  0.884372  0.247911  1
  Rh  Rh9  1  0.618314  0.555868  0.750555  1
  Rh  Rh10  1  0.444132  0.062447  0.750555  1
  Rh  Rh11  1  0.937553  0.381686  0.750555  1
  Rh  Rh12  1  0.381686  0.444132  0.249445  1
  Rh  Rh13  1  0.555868  0.937553  0.249445  1
  Rh  Rh14  1  0.062447  0.618314  0.249445  1
  Rh  Rh15  1  0.114232  0.851623  0.751732  1
  Rh  Rh16  1  0.148377  0.262609  0.751732  1
  Rh  Rh17  1  0.737391  0.885768  0.751732  1
  Rh  Rh18  1  0.885768  0.148377  0.248268  1
  Rh  Rh19  1  0.851623  0.737391  0.248268  1
  Rh  Rh20  1  0.262609  0.114232  0.248268  1
