# generated using pymatgen
data_Li8Pr2Nd6SnBi7
_symmetry_space_group_name_H-M   'P 1'
_cell_length_a   9.83094404
_cell_length_b   9.83237069
_cell_length_c   7.42412500
_cell_angle_alpha   89.99999762
_cell_angle_beta   89.99755285
_cell_angle_gamma   120.00480002
_symmetry_Int_Tables_number   1
_chemical_formula_structural   Li8Pr2Nd6SnBi7
_chemical_formula_sum   'Li8 Pr2 Nd6 Sn1 Bi7'
_cell_volume   621.45311073
_cell_formula_units_Z   1
loop_
 _symmetry_equiv_pos_site_id
 _symmetry_equiv_pos_as_xyz
  1  'x, y, z'
loop_
 _atom_site_type_symbol
 _atom_site_label
 _atom_site_symmetry_multiplicity
 _atom_site_fract_x
 _atom_site_fract_y
 _atom_site_fract_z
 _atom_site_occupancy
  Li  Li0  1  0.167582  0.335396  0.277303  1
  Li  Li1  1  0.167582  0.832185  0.277303  1
  Li  Li2  1  0.664720  0.832359  0.277203  1
  Li  Li3  1  0.831343  0.662503  0.776461  1
  Li  Li4  1  0.831343  0.168840  0.776461  1
  Li  Li5  1  0.337470  0.168735  0.776573  1
  Li  Li6  1  0.333146  0.666574  0.682294  1
  Li  Li7  1  0.666779  0.333389  0.182793  1
  Pr  Pr8  1  0.512337  0.024636  0.496401  1
  Pr  Pr9  1  0.512337  0.487703  0.496401  1
  Nd  Nd10  1  0.975136  0.487569  0.496528  1
  Nd  Nd11  1  0.493653  0.987332  0.992354  1
  Nd  Nd12  1  0.493653  0.506319  0.992354  1
  Nd  Nd13  1  0.012660  0.506329  0.992304  1
  Nd  Nd14  1  0.000021  0.000011  0.502687  1
  Nd  Nd15  1  0.999969  0.999985  0.001523  1
  Sn  Sn16  1  0.667188  0.333594  0.762654  1
  Bi  Bi17  1  0.166188  0.333065  0.737611  1
  Bi  Bi18  1  0.166188  0.833124  0.737611  1
  Bi  Bi19  1  0.667188  0.833595  0.738058  1
  Bi  Bi20  1  0.834158  0.667426  0.236985  1
  Bi  Bi21  1  0.834158  0.166732  0.236985  1
  Bi  Bi22  1  0.332301  0.166151  0.236374  1
  Bi  Bi23  1  0.332900  0.666450  0.258757  1
