# generated using pymatgen
data_YbEr3Zn2(Co2B)6
_symmetry_space_group_name_H-M   'P 1'
_cell_length_a   5.06877748
_cell_length_b   5.06372240
_cell_length_c   12.61726000
_cell_angle_alpha   90.00000000
_cell_angle_beta   90.00000000
_cell_angle_gamma   120.04722425
_symmetry_Int_Tables_number   1
_chemical_formula_structural   YbEr3Zn2(Co2B)6
_chemical_formula_sum   'Yb1 Er3 Zn2 Co12 B6'
_cell_volume   280.32506962
_cell_formula_units_Z   1
loop_
 _symmetry_equiv_pos_site_id
 _symmetry_equiv_pos_as_xyz
  1  'x, y, z'
loop_
 _atom_site_type_symbol
 _atom_site_label
 _atom_site_symmetry_multiplicity
 _atom_site_fract_x
 _atom_site_fract_y
 _atom_site_fract_z
 _atom_site_occupancy
  Yb  Yb0  1  0.000000  0.000000  0.000000  1
  Er  Er1  1  0.000000  0.000000  0.500000  1
  Er  Er2  1  0.000000  0.000000  0.740532  1
  Er  Er3  1  0.000000  0.000000  0.259468  1
  Zn  Zn4  1  0.666790  0.333329  0.000000  1
  Zn  Zn5  1  0.333210  0.666671  0.000000  1
  Co  Co6  1  0.500000  0.500000  0.837181  1
  Co  Co7  1  0.500000  0.000000  0.837216  1
  Co  Co8  1  0.000000  0.500000  0.837193  1
  Co  Co9  1  0.500000  0.500000  0.162819  1
  Co  Co10  1  0.500000  0.000000  0.162784  1
  Co  Co11  1  0.000000  0.500000  0.162807  1
  Co  Co12  1  0.500000  0.500000  0.613109  1
  Co  Co13  1  0.500000  0.000000  0.613119  1
  Co  Co14  1  0.000000  0.500000  0.613100  1
  Co  Co15  1  0.500000  0.500000  0.386891  1
  Co  Co16  1  0.500000  0.000000  0.386881  1
  Co  Co17  1  0.000000  0.500000  0.386900  1
  B  B18  1  0.666561  0.333070  0.500000  1
  B  B19  1  0.333439  0.666930  0.500000  1
  B  B20  1  0.666679  0.333284  0.728982  1
  B  B21  1  0.333321  0.666716  0.728982  1
  B  B22  1  0.333321  0.666716  0.271018  1
  B  B23  1  0.666679  0.333284  0.271018  1
