# generated using pymatgen
data_Dy3YZn3Ga5Ag4
_symmetry_space_group_name_H-M   'P 1'
_cell_length_a   4.33270600
_cell_length_b   6.96131454
_cell_length_c   10.32526000
_cell_angle_alpha   90.02248599
_cell_angle_beta   90.00000000
_cell_angle_gamma   90.00000000
_symmetry_Int_Tables_number   1
_chemical_formula_structural   Dy3YZn3Ga5Ag4
_chemical_formula_sum   'Dy3 Y1 Zn3 Ga5 Ag4'
_cell_volume   311.42354256
_cell_formula_units_Z   1
loop_
 _symmetry_equiv_pos_site_id
 _symmetry_equiv_pos_as_xyz
  1  'x, y, z'
loop_
 _atom_site_type_symbol
 _atom_site_label
 _atom_site_symmetry_multiplicity
 _atom_site_fract_x
 _atom_site_fract_y
 _atom_site_fract_z
 _atom_site_occupancy
  Dy  Dy0  1  0.250000  0.781376  0.828637  1
  Dy  Dy1  1  0.750000  0.215624  0.169947  1
  Dy  Dy2  1  0.250000  0.282011  0.672832  1
  Y  Y3  1  0.750000  0.720478  0.328129  1
  Zn  Zn4  1  0.250000  0.923136  0.148394  1
  Zn  Zn5  1  0.750000  0.076977  0.850537  1
  Zn  Zn6  1  0.750000  0.578046  0.651155  1
  Ga  Ga7  1  0.250000  0.423832  0.347633  1
  Ga  Ga8  1  0.250000  0.702923  0.538734  1
  Ga  Ga9  1  0.750000  0.296921  0.466377  1
  Ga  Ga10  1  0.750000  0.798106  0.037340  1
  Ga  Ga11  1  0.250000  0.200408  0.962913  1
  Ag  Ag12  1  0.250000  0.540819  0.098034  1
  Ag  Ag13  1  0.750000  0.459317  0.900015  1
  Ag  Ag14  1  0.750000  0.959317  0.600430  1
  Ag  Ag15  1  0.250000  0.040712  0.398894  1
