# generated using pymatgen
data_HfZr16Si16Mo3
_symmetry_space_group_name_H-M   'P 1'
_cell_length_a   7.04908553
_cell_length_b   7.04862774
_cell_length_c   12.91520005
_cell_angle_alpha   90.12100320
_cell_angle_beta   89.90920032
_cell_angle_gamma   89.94679634
_symmetry_Int_Tables_number   1
_chemical_formula_structural   HfZr16Si16Mo3
_chemical_formula_sum   'Hf1 Zr16 Si16 Mo3'
_cell_volume   641.70701954
_cell_formula_units_Z   1
loop_
 _symmetry_equiv_pos_site_id
 _symmetry_equiv_pos_as_xyz
  1  'x, y, z'
loop_
 _atom_site_type_symbol
 _atom_site_label
 _atom_site_symmetry_multiplicity
 _atom_site_fract_x
 _atom_site_fract_y
 _atom_site_fract_z
 _atom_site_occupancy
  Hf  Hf0  1  0.994290  0.144772  0.622627  1
  Zr  Zr1  1  0.174892  0.174874  0.999803  1
  Zr  Zr2  1  0.496978  0.153428  0.530422  1
  Zr  Zr3  1  0.502939  0.848366  0.033171  1
  Zr  Zr4  1  0.653010  0.000818  0.284284  1
  Zr  Zr5  1  0.348088  0.996880  0.781499  1
  Zr  Zr6  1  0.848478  0.502657  0.966624  1
  Zr  Zr7  1  0.153254  0.497486  0.469840  1
  Zr  Zr8  1  0.000639  0.653915  0.715955  1
  Zr  Zr9  1  0.996871  0.348330  0.218211  1
  Zr  Zr10  1  0.497355  0.355881  0.127265  1
  Zr  Zr11  1  0.502393  0.644905  0.625708  1
  Zr  Zr12  1  0.854536  0.000201  0.872963  1
  Zr  Zr13  1  0.144910  0.995108  0.377760  1
  Zr  Zr14  1  0.645115  0.502525  0.374474  1
  Zr  Zr15  1  0.355971  0.497048  0.872443  1
  Zr  Zr16  1  0.000225  0.854435  0.126887  1
  Si  Si17  1  0.793455  0.146213  0.071081  1
  Si  Si18  1  0.201947  0.853949  0.572121  1
  Si  Si19  1  0.646935  0.702055  0.821102  1
  Si  Si20  1  0.352530  0.296547  0.322635  1
  Si  Si21  1  0.852984  0.202059  0.429141  1
  Si  Si22  1  0.146345  0.793301  0.928793  1
  Si  Si23  1  0.702245  0.647022  0.178889  1
  Si  Si24  1  0.295182  0.352358  0.676996  1
  Si  Si25  1  0.554476  0.201013  0.933155  1
  Si  Si26  1  0.453706  0.800635  0.434958  1
  Si  Si27  1  0.698403  0.952944  0.683084  1
  Si  Si28  1  0.304601  0.043534  0.187462  1
  Si  Si29  1  0.800586  0.452619  0.565412  1
  Si  Si30  1  0.201084  0.554529  0.066576  1
  Si  Si31  1  0.952735  0.697964  0.316728  1
  Si  Si32  1  0.043568  0.304263  0.811976  1
  Mo  Mo33  1  0.676883  0.325590  0.747351  1
  Mo  Mo34  1  0.326708  0.675918  0.252179  1
  Mo  Mo35  1  0.825677  0.825855  0.500428  1
