# generated using pymatgen
data_Ba3In2
_symmetry_space_group_name_H-M   'P 1'
_cell_length_a   6.82630169
_cell_length_b   6.82630155
_cell_length_c   9.70904600
_cell_angle_alpha   101.67498760
_cell_angle_beta   101.67498737
_cell_angle_gamma   86.76614374
_symmetry_Int_Tables_number   1
_chemical_formula_structural   Ba3In2
_chemical_formula_sum   'Ba6 In4'
_cell_volume   433.84294417
_cell_formula_units_Z   2
loop_
 _symmetry_equiv_pos_site_id
 _symmetry_equiv_pos_as_xyz
  1  'x, y, z'
loop_
 _atom_site_type_symbol
 _atom_site_label
 _atom_site_symmetry_multiplicity
 _atom_site_fract_x
 _atom_site_fract_y
 _atom_site_fract_z
 _atom_site_occupancy
  Ba  Ba0  1  0.255949  0.332416  0.026654  1
  Ba  Ba1  1  0.829546  0.170453  0.250000  1
  Ba  Ba2  1  0.667585  0.744051  0.473346  1
  Ba  Ba3  1  0.332416  0.255949  0.526654  1
  Ba  Ba4  1  0.170453  0.829546  0.750000  1
  Ba  Ba5  1  0.744051  0.667585  0.973345  1
  In  In6  1  0.309358  0.883721  0.160065  1
  In  In7  1  0.116280  0.690642  0.339936  1
  In  In8  1  0.883721  0.309358  0.660065  1
  In  In9  1  0.690642  0.116280  0.839935  1
