# generated using pymatgen
data_Dy4LuTlIn2Cl
_symmetry_space_group_name_H-M   'P 1'
_cell_length_a   9.08445209
_cell_length_b   9.08445129
_cell_length_c   6.66970419
_cell_angle_alpha   89.99562845
_cell_angle_beta   89.99562802
_cell_angle_gamma   119.97112604
_symmetry_Int_Tables_number   1
_chemical_formula_structural   Dy4LuTlIn2Cl
_chemical_formula_sum   'Dy8 Lu2 Tl2 In4 Cl2'
_cell_volume   476.82709427
_cell_formula_units_Z   2
loop_
 _symmetry_equiv_pos_site_id
 _symmetry_equiv_pos_as_xyz
  1  'x, y, z'
loop_
 _atom_site_type_symbol
 _atom_site_label
 _atom_site_symmetry_multiplicity
 _atom_site_fract_x
 _atom_site_fract_y
 _atom_site_fract_z
 _atom_site_occupancy
  Dy  Dy0  1  0.740957  0.741640  0.252461  1
  Dy  Dy1  1  0.999398  0.741203  0.747045  1
  Dy  Dy2  1  0.741306  0.000043  0.747502  1
  Dy  Dy3  1  0.258360  0.259043  0.747539  1
  Dy  Dy4  1  0.999957  0.258694  0.252498  1
  Dy  Dy5  1  0.258797  0.000602  0.252955  1
  Dy  Dy6  1  0.333814  0.666186  0.000000  1
  Dy  Dy7  1  0.666792  0.333208  0.000000  1
  Lu  Lu8  1  0.333882  0.666118  0.500000  1
  Lu  Lu9  1  0.666849  0.333151  0.500000  1
  Tl  Tl10  1  0.395443  0.000211  0.746261  1
  Tl  Tl11  1  0.999789  0.604557  0.253739  1
  In  In12  1  0.604264  0.000022  0.253304  1
  In  In13  1  0.999978  0.395736  0.746696  1
  In  In14  1  0.395447  0.395560  0.253685  1
  In  In15  1  0.604440  0.604553  0.746315  1
  Cl  Cl16  1  0.000211  0.999789  0.500000  1
  Cl  Cl17  1  0.000316  0.999684  0.000000  1
