# generated using pymatgen
data_CaTa2Be2Rh5
_symmetry_space_group_name_H-M   'P 1'
_cell_length_a   9.26429900
_cell_length_b   9.26991200
_cell_length_c   3.33555200
_cell_angle_alpha   90.00000000
_cell_angle_beta   90.00000000
_cell_angle_gamma   90.00000000
_symmetry_Int_Tables_number   1
_chemical_formula_structural   CaTa2Be2Rh5
_chemical_formula_sum   'Ca2 Ta4 Be4 Rh10'
_cell_volume   286.45465897
_cell_formula_units_Z   2
loop_
 _symmetry_equiv_pos_site_id
 _symmetry_equiv_pos_as_xyz
  1  'x, y, z'
loop_
 _atom_site_type_symbol
 _atom_site_label
 _atom_site_symmetry_multiplicity
 _atom_site_fract_x
 _atom_site_fract_y
 _atom_site_fract_z
 _atom_site_occupancy
  Ca  Ca0  1  0.675275  0.827059  0.000000  1
  Ca  Ca1  1  0.175275  0.672941  0.000000  1
  Ta  Ta2  1  0.826454  0.327988  0.000000  1
  Ta  Ta3  1  0.326454  0.172012  0.000000  1
  Ta  Ta4  1  0.999310  0.998584  0.000000  1
  Ta  Ta5  1  0.499310  0.501416  0.000000  1
  Be  Be6  1  0.618886  0.128711  0.000000  1
  Be  Be7  1  0.118886  0.371289  0.000000  1
  Be  Be8  1  0.878486  0.614207  0.000000  1
  Be  Be9  1  0.378486  0.885793  0.000000  1
  Rh  Rh10  1  0.071153  0.207234  0.500000  1
  Rh  Rh11  1  0.214416  0.944723  0.500000  1
  Rh  Rh12  1  0.790550  0.090107  0.500000  1
  Rh  Rh13  1  0.932052  0.785453  0.500000  1
  Rh  Rh14  1  0.432052  0.714547  0.500000  1
  Rh  Rh15  1  0.571153  0.292766  0.500000  1
  Rh  Rh16  1  0.714416  0.555277  0.500000  1
  Rh  Rh17  1  0.290550  0.409893  0.500000  1
  Rh  Rh18  1  0.493418  0.014832  0.500000  1
  Rh  Rh19  1  0.993418  0.485168  0.500000  1
