# generated using pymatgen
data_RbCr2(Sb6Pt)2
_symmetry_space_group_name_H-M   'P 1'
_cell_length_a   8.25478720
_cell_length_b   8.27987476
_cell_length_c   8.27987486
_cell_angle_alpha   109.60303502
_cell_angle_beta   109.36177327
_cell_angle_gamma   109.57169662
_symmetry_Int_Tables_number   1
_chemical_formula_structural   RbCr2(Sb6Pt)2
_chemical_formula_sum   'Rb1 Cr2 Sb12 Pt2'
_cell_volume   434.98037629
_cell_formula_units_Z   1
loop_
 _symmetry_equiv_pos_site_id
 _symmetry_equiv_pos_as_xyz
  1  'x, y, z'
loop_
 _atom_site_type_symbol
 _atom_site_label
 _atom_site_symmetry_multiplicity
 _atom_site_fract_x
 _atom_site_fract_y
 _atom_site_fract_z
 _atom_site_occupancy
  Rb  Rb0  1  0.000000  0.000000  0.000000  1
  Cr  Cr1  1  0.500000  0.000000  0.000000  1
  Cr  Cr2  1  0.500000  0.500000  0.500000  1
  Sb  Sb3  1  0.348104  0.188361  0.848969  1
  Sb  Sb4  1  0.651896  0.811639  0.151031  1
  Sb  Sb5  1  0.651896  0.500866  0.840256  1
  Sb  Sb6  1  0.348104  0.499134  0.159744  1
  Sb  Sb7  1  0.196017  0.847079  0.348938  1
  Sb  Sb8  1  0.803983  0.152921  0.651062  1
  Sb  Sb9  1  0.501039  0.840036  0.661002  1
  Sb  Sb10  1  0.498961  0.159964  0.338998  1
  Sb  Sb11  1  0.840307  0.340081  0.187358  1
  Sb  Sb12  1  0.159693  0.659919  0.812642  1
  Sb  Sb13  1  0.840307  0.652950  0.500227  1
  Sb  Sb14  1  0.159693  0.347050  0.499773  1
  Pt  Pt15  1  0.000000  0.000000  0.500000  1
  Pt  Pt16  1  0.000000  0.500000  0.000000  1
