# generated using pymatgen
data_ZnGa(CuPt2)2
_symmetry_space_group_name_H-M   'P 1'
_cell_length_a   4.03753700
_cell_length_b   7.04401500
_cell_length_c   12.09491000
_cell_angle_alpha   90.00000000
_cell_angle_beta   89.99949350
_cell_angle_gamma   90.00000000
_symmetry_Int_Tables_number   1
_chemical_formula_structural   ZnGa(CuPt2)2
_chemical_formula_sum   'Zn3 Ga3 Cu6 Pt12'
_cell_volume   343.98493941
_cell_formula_units_Z   3
loop_
 _symmetry_equiv_pos_site_id
 _symmetry_equiv_pos_as_xyz
  1  'x, y, z'
loop_
 _atom_site_type_symbol
 _atom_site_label
 _atom_site_symmetry_multiplicity
 _atom_site_fract_x
 _atom_site_fract_y
 _atom_site_fract_z
 _atom_site_occupancy
  Zn  Zn0  1  0.999995  0.000000  0.000612  1
  Zn  Zn1  1  0.500199  0.500000  0.166659  1
  Zn  Zn2  1  0.000177  0.000000  0.332728  1
  Ga  Ga3  1  0.499996  0.500000  0.498765  1
  Ga  Ga4  1  0.999817  0.000000  0.666658  1
  Ga  Ga5  1  0.499820  0.500000  0.834576  1
  Cu  Cu6  1  0.000000  0.500000  0.002137  1
  Cu  Cu7  1  0.500171  0.000000  0.166673  1
  Cu  Cu8  1  0.000165  0.500000  0.331193  1
  Cu  Cu9  1  0.499999  0.000000  0.497844  1
  Cu  Cu10  1  0.999835  0.500000  0.666674  1
  Cu  Cu11  1  0.499832  0.000000  0.835482  1
  Pt  Pt12  1  0.499994  0.251494  0.999115  1
  Pt  Pt13  1  0.499994  0.748506  0.999115  1
  Pt  Pt14  1  0.000159  0.249446  0.166668  1
  Pt  Pt15  1  0.000159  0.750554  0.166668  1
  Pt  Pt16  1  0.500150  0.251512  0.334219  1
  Pt  Pt17  1  0.500150  0.748489  0.334219  1
  Pt  Pt18  1  0.999995  0.251280  0.500978  1
  Pt  Pt19  1  0.999995  0.748720  0.500978  1
  Pt  Pt20  1  0.499850  0.249328  0.666666  1
  Pt  Pt21  1  0.499850  0.750673  0.666666  1
  Pt  Pt22  1  0.999847  0.251263  0.832354  1
  Pt  Pt23  1  0.999847  0.748737  0.832354  1
