# generated using pymatgen
data_Pr3Y5(CdPt)2
_symmetry_space_group_name_H-M   'P 1'
_cell_length_a   9.85413144
_cell_length_b   9.85413115
_cell_length_c   9.85413000
_cell_angle_alpha   59.99999714
_cell_angle_beta   59.99999813
_cell_angle_gamma   59.99999582
_symmetry_Int_Tables_number   1
_chemical_formula_structural   Pr3Y5(CdPt)2
_chemical_formula_sum   'Pr6 Y10 Cd4 Pt4'
_cell_volume   676.61239459
_cell_formula_units_Z   2
loop_
 _symmetry_equiv_pos_site_id
 _symmetry_equiv_pos_as_xyz
  1  'x, y, z'
loop_
 _atom_site_type_symbol
 _atom_site_label
 _atom_site_symmetry_multiplicity
 _atom_site_fract_x
 _atom_site_fract_y
 _atom_site_fract_z
 _atom_site_occupancy
  Pr  Pr0  1  0.937926  0.562074  0.562074  1
  Pr  Pr1  1  0.562074  0.937926  0.937926  1
  Pr  Pr2  1  0.562074  0.937926  0.562074  1
  Pr  Pr3  1  0.937926  0.562074  0.937926  1
  Pr  Pr4  1  0.562074  0.562074  0.937926  1
  Pr  Pr5  1  0.937926  0.937926  0.562074  1
  Y  Y6  1  0.350039  0.350039  0.350039  1
  Y  Y7  1  0.350039  0.350039  0.949883  1
  Y  Y8  1  0.350039  0.949883  0.350039  1
  Y  Y9  1  0.949883  0.350039  0.350039  1
  Y  Y10  1  0.810877  0.189123  0.189123  1
  Y  Y11  1  0.189123  0.810877  0.810877  1
  Y  Y12  1  0.189123  0.810877  0.189123  1
  Y  Y13  1  0.810877  0.189123  0.810877  1
  Y  Y14  1  0.189123  0.189123  0.810877  1
  Y  Y15  1  0.810877  0.810877  0.189123  1
  Cd  Cd16  1  0.579495  0.579495  0.579495  1
  Cd  Cd17  1  0.579495  0.579495  0.261513  1
  Cd  Cd18  1  0.579495  0.261513  0.579495  1
  Cd  Cd19  1  0.261513  0.579495  0.579495  1
  Pt  Pt20  1  0.142553  0.142553  0.142553  1
  Pt  Pt21  1  0.142553  0.142553  0.572340  1
  Pt  Pt22  1  0.142553  0.572340  0.142553  1
  Pt  Pt23  1  0.572340  0.142553  0.142553  1
