# generated using pymatgen
data_Sc12Co4RhPb
_symmetry_space_group_name_H-M   'P 1'
_cell_length_a   7.74997624
_cell_length_b   7.74997556
_cell_length_c   7.74997555
_cell_angle_alpha   110.97261892
_cell_angle_beta   111.27902972
_cell_angle_gamma   106.21055818
_symmetry_Int_Tables_number   1
_chemical_formula_structural   Sc12Co4RhPb
_chemical_formula_sum   'Sc12 Co4 Rh1 Pb1'
_cell_volume   357.45991286
_cell_formula_units_Z   1
loop_
 _symmetry_equiv_pos_site_id
 _symmetry_equiv_pos_as_xyz
  1  'x, y, z'
loop_
 _atom_site_type_symbol
 _atom_site_label
 _atom_site_symmetry_multiplicity
 _atom_site_fract_x
 _atom_site_fract_y
 _atom_site_fract_z
 _atom_site_occupancy
  Sc  Sc0  1  0.422410  0.221527  0.200882  1
  Sc  Sc1  1  0.577590  0.778473  0.799118  1
  Sc  Sc2  1  0.020645  0.221527  0.799118  1
  Sc  Sc3  1  0.979355  0.778473  0.200882  1
  Sc  Sc4  1  0.311520  0.614351  0.302830  1
  Sc  Sc5  1  0.688480  0.385649  0.697170  1
  Sc  Sc6  1  0.311520  0.008689  0.697170  1
  Sc  Sc7  1  0.688480  0.991311  0.302830  1
  Sc  Sc8  1  0.185506  0.279092  0.464599  1
  Sc  Sc9  1  0.814494  0.720907  0.535401  1
  Sc  Sc10  1  0.185506  0.720907  0.906413  1
  Sc  Sc11  1  0.814494  0.279092  0.093587  1
  Co  Co12  1  0.366846  0.000000  0.366846  1
  Co  Co13  1  0.633154  0.000000  0.633154  1
  Co  Co14  1  0.117480  0.617480  0.500000  1
  Co  Co15  1  0.882520  0.382520  0.500000  1
  Rh  Rh16  1  0.000000  0.000000  0.000000  1
  Pb  Pb17  1  0.500000  0.500000  0.000000  1
