# generated using pymatgen
data_AcLa(ZnGe)2
_symmetry_space_group_name_H-M   'P 1'
_cell_length_a   4.34179100
_cell_length_b   4.34179185
_cell_length_c   8.84680800
_cell_angle_alpha   90.00000000
_cell_angle_beta   90.00000000
_cell_angle_gamma   120.00000112
_symmetry_Int_Tables_number   1
_chemical_formula_structural   AcLa(ZnGe)2
_chemical_formula_sum   'Ac1 La1 Zn2 Ge2'
_cell_volume   144.42924541
_cell_formula_units_Z   1
loop_
 _symmetry_equiv_pos_site_id
 _symmetry_equiv_pos_as_xyz
  1  'x, y, z'
loop_
 _atom_site_type_symbol
 _atom_site_label
 _atom_site_symmetry_multiplicity
 _atom_site_fract_x
 _atom_site_fract_y
 _atom_site_fract_z
 _atom_site_occupancy
  Ac  Ac0  1  0.000000  0.000000  0.000000  1
  La  La1  1  0.000000  0.000000  0.500000  1
  Zn  Zn2  1  0.333333  0.666667  0.255529  1
  Zn  Zn3  1  0.666667  0.333333  0.744471  1
  Ge  Ge4  1  0.333333  0.666667  0.738842  1
  Ge  Ge5  1  0.666667  0.333333  0.261158  1
