# generated using pymatgen
data_Na2Sn(IrSe3)2
_symmetry_space_group_name_H-M   'P 1'
_cell_length_a   6.70174641
_cell_length_b   6.70174684
_cell_length_c   7.27882612
_cell_angle_alpha   81.43977626
_cell_angle_beta   81.43977952
_cell_angle_gamma   120.70835941
_symmetry_Int_Tables_number   1
_chemical_formula_structural   Na2Sn(IrSe3)2
_chemical_formula_sum   'Na2 Sn1 Ir2 Se6'
_cell_volume   268.04735425
_cell_formula_units_Z   1
loop_
 _symmetry_equiv_pos_site_id
 _symmetry_equiv_pos_as_xyz
  1  'x, y, z'
loop_
 _atom_site_type_symbol
 _atom_site_label
 _atom_site_symmetry_multiplicity
 _atom_site_fract_x
 _atom_site_fract_y
 _atom_site_fract_z
 _atom_site_occupancy
  Na  Na0  1  0.162837  0.837163  0.500000  1
  Na  Na1  1  0.837163  0.162837  0.500000  1
  Sn  Sn2  1  0.000000  0.000000  0.000000  1
  Ir  Ir3  1  0.332954  0.667046  0.000000  1
  Ir  Ir4  1  0.667046  0.332954  0.000000  1
  Se  Se5  1  0.938940  0.577049  0.194094  1
  Se  Se6  1  0.294100  0.294100  0.194820  1
  Se  Se7  1  0.577049  0.938940  0.194094  1
  Se  Se8  1  0.705900  0.705900  0.805180  1
  Se  Se9  1  0.061060  0.422951  0.805906  1
  Se  Se10  1  0.422951  0.061060  0.805906  1
