# generated using pymatgen
data_Y2Er10OsRu3
_symmetry_space_group_name_H-M   'P 1'
_cell_length_a   6.28742602
_cell_length_b   7.32976371
_cell_length_c   9.04414100
_cell_angle_alpha   90.00000000
_cell_angle_beta   90.00000000
_cell_angle_gamma   90.07811516
_symmetry_Int_Tables_number   1
_chemical_formula_structural   Y2Er10OsRu3
_chemical_formula_sum   'Y2 Er10 Os1 Ru3'
_cell_volume   416.80198989
_cell_formula_units_Z   1
loop_
 _symmetry_equiv_pos_site_id
 _symmetry_equiv_pos_as_xyz
  1  'x, y, z'
loop_
 _atom_site_type_symbol
 _atom_site_label
 _atom_site_symmetry_multiplicity
 _atom_site_fract_x
 _atom_site_fract_y
 _atom_site_fract_z
 _atom_site_occupancy
  Y  Y0  1  0.869020  0.540122  0.250000  1
  Y  Y1  1  0.631454  0.039815  0.250000  1
  Er  Er2  1  0.333857  0.675196  0.062133  1
  Er  Er3  1  0.167165  0.175641  0.436371  1
  Er  Er4  1  0.668024  0.324446  0.564489  1
  Er  Er5  1  0.831560  0.823812  0.934864  1
  Er  Er6  1  0.668024  0.324446  0.935511  1
  Er  Er7  1  0.831560  0.823812  0.565136  1
  Er  Er8  1  0.333857  0.675196  0.437867  1
  Er  Er9  1  0.167165  0.175641  0.063629  1
  Er  Er10  1  0.130678  0.459842  0.750000  1
  Er  Er11  1  0.367471  0.960912  0.750000  1
  Os  Os12  1  0.538741  0.616467  0.750000  1
  Ru  Ru13  1  0.041487  0.884435  0.250000  1
  Ru  Ru14  1  0.458455  0.384031  0.250000  1
  Ru  Ru15  1  0.961481  0.116184  0.750000  1
