# generated using pymatgen
data_Er2Be3Fe14C3
_symmetry_space_group_name_H-M   'P 1'
_cell_length_a   6.33493644
_cell_length_b   6.33493572
_cell_length_c   6.33493564
_cell_angle_alpha   83.44609770
_cell_angle_beta   83.44609338
_cell_angle_gamma   83.44610212
_symmetry_Int_Tables_number   1
_chemical_formula_structural   Er2Be3Fe14C3
_chemical_formula_sum   'Er2 Be3 Fe14 C3'
_cell_volume   249.59779986
_cell_formula_units_Z   1
loop_
 _symmetry_equiv_pos_site_id
 _symmetry_equiv_pos_as_xyz
  1  'x, y, z'
loop_
 _atom_site_type_symbol
 _atom_site_label
 _atom_site_symmetry_multiplicity
 _atom_site_fract_x
 _atom_site_fract_y
 _atom_site_fract_z
 _atom_site_occupancy
  Er  Er0  1  0.656336  0.656336  0.656336  1
  Er  Er1  1  0.343664  0.343664  0.343664  1
  Be  Be2  1  0.000000  0.000000  0.500000  1
  Be  Be3  1  0.500000  0.000000  0.000000  1
  Be  Be4  1  0.000000  0.500000  0.000000  1
  Fe  Fe5  1  0.719438  0.280562  0.000000  1
  Fe  Fe6  1  0.000000  0.719438  0.280562  1
  Fe  Fe7  1  0.280562  0.000000  0.719438  1
  Fe  Fe8  1  0.000000  0.280562  0.719438  1
  Fe  Fe9  1  0.719438  0.000000  0.280562  1
  Fe  Fe10  1  0.280562  0.719438  0.000000  1
  Fe  Fe11  1  0.339265  0.859589  0.339265  1
  Fe  Fe12  1  0.339265  0.339265  0.859589  1
  Fe  Fe13  1  0.859589  0.339265  0.339265  1
  Fe  Fe14  1  0.660735  0.140411  0.660735  1
  Fe  Fe15  1  0.660735  0.660735  0.140411  1
  Fe  Fe16  1  0.140411  0.660735  0.660735  1
  Fe  Fe17  1  0.901726  0.901726  0.901726  1
  Fe  Fe18  1  0.098274  0.098274  0.098274  1
  C  C19  1  0.500000  0.500000  0.000000  1
  C  C20  1  0.000000  0.500000  0.500000  1
  C  C21  1  0.500000  0.000000  0.500000  1
