# generated using pymatgen
data_Pr3Nd(WN3)4
_symmetry_space_group_name_H-M   'P 1'
_cell_length_a   7.44490710
_cell_length_b   7.44490821
_cell_length_c   6.38830431
_cell_angle_alpha   75.52722161
_cell_angle_beta   75.52721358
_cell_angle_gamma   83.93047119
_symmetry_Int_Tables_number   1
_chemical_formula_structural   Pr3Nd(WN3)4
_chemical_formula_sum   'Pr3 Nd1 W4 N12'
_cell_volume   331.61248215
_cell_formula_units_Z   1
loop_
 _symmetry_equiv_pos_site_id
 _symmetry_equiv_pos_as_xyz
  1  'x, y, z'
loop_
 _atom_site_type_symbol
 _atom_site_label
 _atom_site_symmetry_multiplicity
 _atom_site_fract_x
 _atom_site_fract_y
 _atom_site_fract_z
 _atom_site_occupancy
  Pr  Pr0  1  0.694540  0.305460  0.750000  1
  Pr  Pr1  1  0.091440  0.908560  0.750000  1
  Pr  Pr2  1  0.305635  0.694365  0.250000  1
  Nd  Nd3  1  0.907222  0.092778  0.250000  1
  W  W4  1  0.379545  0.201707  0.243178  1
  W  W5  1  0.620655  0.797836  0.755734  1
  W  W6  1  0.798293  0.620455  0.256822  1
  W  W7  1  0.202164  0.379345  0.744266  1
  N  N8  1  0.614789  0.116514  0.151250  1
  N  N9  1  0.363053  0.338106  0.473675  1
  N  N10  1  0.002403  0.225039  0.847760  1
  N  N11  1  0.385634  0.881915  0.849929  1
  N  N12  1  0.774961  0.997597  0.652240  1
  N  N13  1  0.118085  0.614366  0.650071  1
  N  N14  1  0.883486  0.385211  0.348750  1
  N  N15  1  0.635370  0.659018  0.527743  1
  N  N16  1  0.661894  0.636947  0.026325  1
  N  N17  1  0.340982  0.364630  0.972257  1
  N  N18  1  0.996408  0.776561  0.156277  1
  N  N19  1  0.223439  0.003592  0.343723  1
