# generated using pymatgen
data_Lu12InCo2Si2Hg
_symmetry_space_group_name_H-M   'P 1'
_cell_length_a   8.28263309
_cell_length_b   8.28263190
_cell_length_c   8.28263254
_cell_angle_alpha   113.58557836
_cell_angle_beta   110.93831901
_cell_angle_gamma   104.03525540
_symmetry_Int_Tables_number   1
_chemical_formula_structural   Lu12InCo2Si2Hg
_chemical_formula_sum   'Lu12 In1 Co2 Si2 Hg1'
_cell_volume   434.23199759
_cell_formula_units_Z   1
loop_
 _symmetry_equiv_pos_site_id
 _symmetry_equiv_pos_as_xyz
  1  'x, y, z'
loop_
 _atom_site_type_symbol
 _atom_site_label
 _atom_site_symmetry_multiplicity
 _atom_site_fract_x
 _atom_site_fract_y
 _atom_site_fract_z
 _atom_site_occupancy
  Lu  Lu0  1  0.441693  0.240162  0.201531  1
  Lu  Lu1  1  0.558307  0.759838  0.798469  1
  Lu  Lu2  1  0.038632  0.240162  0.798469  1
  Lu  Lu3  1  0.961368  0.759838  0.201531  1
  Lu  Lu4  1  0.186726  0.288348  0.475074  1
  Lu  Lu5  1  0.813274  0.711652  0.524926  1
  Lu  Lu6  1  0.186726  0.711652  0.898379  1
  Lu  Lu7  1  0.813274  0.288348  0.101621  1
  Lu  Lu8  1  0.305216  0.615010  0.309793  1
  Lu  Lu9  1  0.694784  0.384990  0.690207  1
  Lu  Lu10  1  0.305216  0.995422  0.690207  1
  Lu  Lu11  1  0.694784  0.004578  0.309793  1
  In  In12  1  0.500000  0.500000  0.000000  1
  Co  Co13  1  0.109920  0.609920  0.500000  1
  Co  Co14  1  0.890080  0.390080  0.500000  1
  Si  Si15  1  0.362619  0.000000  0.362619  1
  Si  Si16  1  0.637381  0.000000  0.637381  1
  Hg  Hg17  1  0.000000  0.000000  0.000000  1
