# generated using pymatgen
data_Sc16Cd4Co3P
_symmetry_space_group_name_H-M   'P 1'
_cell_length_a   9.03554451
_cell_length_b   9.03554543
_cell_length_c   9.03554429
_cell_angle_alpha   58.59561732
_cell_angle_beta   58.59561460
_cell_angle_gamma   58.59561597
_symmetry_Int_Tables_number   1
_chemical_formula_structural   Sc16Cd4Co3P
_chemical_formula_sum   'Sc16 Cd4 Co3 P1'
_cell_volume   504.86398528
_cell_formula_units_Z   1
loop_
 _symmetry_equiv_pos_site_id
 _symmetry_equiv_pos_as_xyz
  1  'x, y, z'
loop_
 _atom_site_type_symbol
 _atom_site_label
 _atom_site_symmetry_multiplicity
 _atom_site_fract_x
 _atom_site_fract_y
 _atom_site_fract_z
 _atom_site_occupancy
  Sc  Sc0  1  0.435685  0.435685  0.052397  1
  Sc  Sc1  1  0.595063  0.595063  0.595063  1
  Sc  Sc2  1  0.188279  0.812981  0.812981  1
  Sc  Sc3  1  0.061867  0.061867  0.436156  1
  Sc  Sc4  1  0.436156  0.061867  0.061867  1
  Sc  Sc5  1  0.812981  0.188279  0.812981  1
  Sc  Sc6  1  0.435685  0.052397  0.435685  1
  Sc  Sc7  1  0.602394  0.213165  0.602394  1
  Sc  Sc8  1  0.812981  0.812981  0.188279  1
  Sc  Sc9  1  0.213165  0.602394  0.602394  1
  Sc  Sc10  1  0.811995  0.187642  0.187642  1
  Sc  Sc11  1  0.052397  0.435685  0.435685  1
  Sc  Sc12  1  0.187642  0.811995  0.187642  1
  Sc  Sc13  1  0.602394  0.602394  0.213165  1
  Sc  Sc14  1  0.187642  0.187642  0.811995  1
  Sc  Sc15  1  0.061867  0.436156  0.061867  1
  Cd  Cd16  1  0.832516  0.832516  0.501095  1
  Cd  Cd17  1  0.832877  0.832877  0.832877  1
  Cd  Cd18  1  0.501095  0.832516  0.832516  1
  Cd  Cd19  1  0.832516  0.501095  0.832516  1
  Co  Co20  1  0.827201  0.393000  0.393000  1
  Co  Co21  1  0.393000  0.827201  0.393000  1
  Co  Co22  1  0.393000  0.393000  0.827201  1
  P  P23  1  0.389601  0.389601  0.389601  1
