# generated using pymatgen
data_Dy5In4PtRh
_symmetry_space_group_name_H-M   'P 1'
_cell_length_a   3.62418200
_cell_length_b   8.12295261
_cell_length_c   18.28388928
_cell_angle_alpha   90.12177299
_cell_angle_beta   90.00000000
_cell_angle_gamma   90.00000000
_symmetry_Int_Tables_number   1
_chemical_formula_structural   Dy5In4PtRh
_chemical_formula_sum   'Dy10 In8 Pt2 Rh2'
_cell_volume   538.25927266
_cell_formula_units_Z   2
loop_
 _symmetry_equiv_pos_site_id
 _symmetry_equiv_pos_as_xyz
  1  'x, y, z'
loop_
 _atom_site_type_symbol
 _atom_site_label
 _atom_site_symmetry_multiplicity
 _atom_site_fract_x
 _atom_site_fract_y
 _atom_site_fract_z
 _atom_site_occupancy
  Dy  Dy0  1  0.000000  0.115376  0.412090  1
  Dy  Dy1  1  0.000000  0.884624  0.587910  1
  Dy  Dy2  1  0.000000  0.382838  0.914321  1
  Dy  Dy3  1  0.000000  0.617162  0.085679  1
  Dy  Dy4  1  0.000000  0.239727  0.221517  1
  Dy  Dy5  1  0.000000  0.760273  0.778483  1
  Dy  Dy6  1  0.000000  0.249983  0.720430  1
  Dy  Dy7  1  0.000000  0.750017  0.279570  1
  Dy  Dy8  1  0.000000  0.000000  0.000000  1
  Dy  Dy9  1  0.000000  0.500000  0.500000  1
  In  In10  1  0.500000  0.423824  0.351431  1
  In  In11  1  0.500000  0.576176  0.648569  1
  In  In12  1  0.500000  0.072510  0.850106  1
  In  In13  1  0.500000  0.927490  0.149894  1
  In  In14  1  0.500000  0.292040  0.066713  1
  In  In15  1  0.500000  0.707960  0.933287  1
  In  In16  1  0.500000  0.206432  0.568129  1
  In  In17  1  0.500000  0.793568  0.431871  1
  Pt  Pt18  1  0.500000  0.476815  0.803157  1
  Pt  Pt19  1  0.500000  0.523185  0.196843  1
  Rh  Rh20  1  0.500000  0.022737  0.304579  1
  Rh  Rh21  1  0.500000  0.977263  0.695421  1
