# generated using pymatgen
data_Np2Zn21Au
_symmetry_space_group_name_H-M   'P 1'
_cell_length_a   8.28277325
_cell_length_b   8.27439726
_cell_length_c   8.27439707
_cell_angle_alpha   99.80491384
_cell_angle_beta   100.28381459
_cell_angle_gamma   130.56743584
_symmetry_Int_Tables_number   1
_chemical_formula_structural   Np2Zn21Au
_chemical_formula_sum   'Np2 Zn21 Au1'
_cell_volume   391.51105616
_cell_formula_units_Z   1
loop_
 _symmetry_equiv_pos_site_id
 _symmetry_equiv_pos_as_xyz
  1  'x, y, z'
loop_
 _atom_site_type_symbol
 _atom_site_label
 _atom_site_symmetry_multiplicity
 _atom_site_fract_x
 _atom_site_fract_y
 _atom_site_fract_z
 _atom_site_occupancy
  Np  Np0  1  0.250455  0.746299  0.504157  1
  Np  Np1  1  0.999545  0.003701  0.995843  1
  Zn  Zn2  1  0.417805  0.089683  0.910619  1
  Zn  Zn3  1  0.180163  0.506061  0.082486  1
  Zn  Zn4  1  0.499324  0.500337  0.998986  1
  Zn  Zn5  1  0.750676  0.249663  0.501014  1
  Zn  Zn6  1  0.625000  0.375000  0.750000  1
  Zn  Zn7  1  0.125000  0.375000  0.750000  1
  Zn  Zn8  1  0.625000  0.875000  0.250000  1
  Zn  Zn9  1  0.180163  0.097677  0.674104  1
  Zn  Zn10  1  0.755803  0.929582  0.584770  1
  Zn  Zn11  1  0.340949  0.167626  0.416239  1
  Zn  Zn12  1  0.417805  0.507186  0.328121  1
  Zn  Zn13  1  0.909051  0.825291  0.326676  1
  Zn  Zn14  1  0.494197  0.578967  0.673779  1
  Zn  Zn15  1  0.069837  0.243939  0.417514  1
  Zn  Zn16  1  0.832195  0.660317  0.589381  1
  Zn  Zn17  1  0.069837  0.652323  0.825896  1
  Zn  Zn18  1  0.494197  0.820418  0.915230  1
  Zn  Zn19  1  0.909051  0.582374  0.083761  1
  Zn  Zn20  1  0.832195  0.242814  0.171879  1
  Zn  Zn21  1  0.340949  0.924709  0.173324  1
  Zn  Zn22  1  0.755803  0.171033  0.826221  1
  Au  Au23  1  0.625000  0.375000  0.250000  1
