# generated using pymatgen
data_Pr2YHo3Ta2O14
_symmetry_space_group_name_H-M   'P 1'
_cell_length_a   6.50308085
_cell_length_b   6.50576350
_cell_length_c   7.62506100
_cell_angle_alpha   90.00000000
_cell_angle_beta   90.00000000
_cell_angle_gamma   109.34666539
_symmetry_Int_Tables_number   1
_chemical_formula_structural   Pr2YHo3Ta2O14
_chemical_formula_sum   'Pr2 Y1 Ho3 Ta2 O14'
_cell_volume   304.38071028
_cell_formula_units_Z   1
loop_
 _symmetry_equiv_pos_site_id
 _symmetry_equiv_pos_as_xyz
  1  'x, y, z'
loop_
 _atom_site_type_symbol
 _atom_site_label
 _atom_site_symmetry_multiplicity
 _atom_site_fract_x
 _atom_site_fract_y
 _atom_site_fract_z
 _atom_site_occupancy
  Pr  Pr0  1  0.500148  0.500027  0.499761  1
  Pr  Pr1  1  0.500148  0.500027  0.000239  1
  Y  Y2  1  0.999577  0.466552  0.750000  1
  Ho  Ho3  1  0.533220  0.000994  0.750000  1
  Ho  Ho4  1  0.000971  0.533324  0.250000  1
  Ho  Ho5  1  0.466796  0.998978  0.250000  1
  Ta  Ta6  1  0.999979  0.999941  0.499779  1
  Ta  Ta7  1  0.999979  0.999941  0.000221  1
  O  O8  1  0.679679  0.931837  0.467861  1
  O  O9  1  0.931134  0.680186  0.530962  1
  O  O10  1  0.679679  0.931837  0.032139  1
  O  O11  1  0.931134  0.680186  0.969038  1
  O  O12  1  0.320184  0.068204  0.532148  1
  O  O13  1  0.068568  0.320051  0.467125  1
  O  O14  1  0.320184  0.068204  0.967852  1
  O  O15  1  0.068568  0.320051  0.032875  1
  O  O16  1  0.936468  0.062662  0.750000  1
  O  O17  1  0.063673  0.936676  0.250000  1
  O  O18  1  0.363749  0.638472  0.750000  1
  O  O19  1  0.637844  0.362116  0.250000  1
  O  O20  1  0.642707  0.355263  0.750000  1
  O  O21  1  0.355613  0.644470  0.250000  1
