# generated using pymatgen
data_Cd3HgIr3RuO14
_symmetry_space_group_name_H-M   'P 1'
_cell_length_a   7.24018331
_cell_length_b   7.31073962
_cell_length_c   7.29869500
_cell_angle_alpha   60.05448019
_cell_angle_beta   59.73229884
_cell_angle_gamma   59.79708045
_symmetry_Int_Tables_number   1
_chemical_formula_structural   Cd3HgIr3RuO14
_chemical_formula_sum   'Cd3 Hg1 Ir3 Ru1 O14'
_cell_volume   272.31036672
_cell_formula_units_Z   1
loop_
 _symmetry_equiv_pos_site_id
 _symmetry_equiv_pos_as_xyz
  1  'x, y, z'
loop_
 _atom_site_type_symbol
 _atom_site_label
 _atom_site_symmetry_multiplicity
 _atom_site_fract_x
 _atom_site_fract_y
 _atom_site_fract_z
 _atom_site_occupancy
  Cd  Cd0  1  0.125000  0.625000  0.125000  1
  Cd  Cd1  1  0.125000  0.125000  0.625000  1
  Cd  Cd2  1  0.125000  0.125000  0.125000  1
  Hg  Hg3  1  0.625000  0.125000  0.125000  1
  Ir  Ir4  1  0.625000  0.625000  0.125000  1
  Ir  Ir5  1  0.125000  0.625000  0.625000  1
  Ir  Ir6  1  0.625000  0.625000  0.625000  1
  Ru  Ru7  1  0.625000  0.125000  0.625000  1
  O  O8  1  0.701260  0.694179  0.302280  1
  O  O9  1  0.951725  0.546683  0.551551  1
  O  O10  1  0.554256  0.942496  0.942745  1
  O  O11  1  0.945224  0.944453  0.555161  1
  O  O12  1  0.951725  0.546683  0.950041  1
  O  O13  1  0.554256  0.942496  0.560503  1
  O  O14  1  0.298275  0.703317  0.299959  1
  O  O15  1  0.298275  0.703317  0.698449  1
  O  O16  1  0.695744  0.307504  0.307255  1
  O  O17  1  0.695744  0.307504  0.689497  1
  O  O18  1  0.548740  0.555821  0.947720  1
  O  O19  1  0.304776  0.305547  0.694839  1
  O  O20  1  0.256129  0.245345  0.249263  1
  O  O21  1  0.993871  0.004655  0.000737  1
