# generated using pymatgen
data_Lu2Fe8Co4P7
_symmetry_space_group_name_H-M   'P 1'
_cell_length_a   8.92350646
_cell_length_b   8.94812627
_cell_length_c   3.59006200
_cell_angle_alpha   90.00000000
_cell_angle_beta   90.00000000
_cell_angle_gamma   119.84070267
_symmetry_Int_Tables_number   1
_chemical_formula_structural   Lu2Fe8Co4P7
_chemical_formula_sum   'Lu2 Fe8 Co4 P7'
_cell_volume   248.65380785
_cell_formula_units_Z   1
loop_
 _symmetry_equiv_pos_site_id
 _symmetry_equiv_pos_as_xyz
  1  'x, y, z'
loop_
 _atom_site_type_symbol
 _atom_site_label
 _atom_site_symmetry_multiplicity
 _atom_site_fract_x
 _atom_site_fract_y
 _atom_site_fract_z
 _atom_site_occupancy
  Lu  Lu0  1  0.999057  0.998406  0.000000  1
  Lu  Lu1  1  0.334403  0.667548  0.500000  1
  Fe  Fe2  1  0.053863  0.769629  0.500000  1
  Fe  Fe3  1  0.717235  0.946264  0.500000  1
  Fe  Fe4  1  0.895136  0.434551  0.500000  1
  Fe  Fe5  1  0.539601  0.106569  0.500000  1
  Fe  Fe6  1  0.563959  0.461860  0.500000  1
  Fe  Fe7  1  0.390651  0.213389  0.000000  1
  Fe  Fe8  1  0.786753  0.180287  0.000000  1
  Fe  Fe9  1  0.820301  0.605859  0.000000  1
  Co  Co10  1  0.604757  0.703919  0.000000  1
  Co  Co11  1  0.297284  0.901047  0.000000  1
  Co  Co12  1  0.100670  0.395520  0.000000  1
  Co  Co13  1  0.228222  0.282500  0.500000  1
  P  P14  1  0.262411  0.044161  0.500000  1
  P  P15  1  0.951866  0.215072  0.500000  1
  P  P16  1  0.784735  0.737448  0.500000  1
  P  P17  1  0.371683  0.446734  0.000000  1
  P  P18  1  0.556482  0.925782  0.000000  1
  P  P19  1  0.075961  0.630717  0.000000  1
  P  P20  1  0.664971  0.332739  0.000000  1
