# generated using pymatgen
data_Y3Pa(InPt2)2
_symmetry_space_group_name_H-M   'P 1'
_cell_length_a   7.82918707
_cell_length_b   7.82918628
_cell_length_c   3.66178700
_cell_angle_alpha   90.00000000
_cell_angle_beta   90.00000000
_cell_angle_gamma   91.70103911
_symmetry_Int_Tables_number   1
_chemical_formula_structural   Y3Pa(InPt2)2
_chemical_formula_sum   'Y3 Pa1 In2 Pt4'
_cell_volume   224.35458497
_cell_formula_units_Z   1
loop_
 _symmetry_equiv_pos_site_id
 _symmetry_equiv_pos_as_xyz
  1  'x, y, z'
loop_
 _atom_site_type_symbol
 _atom_site_label
 _atom_site_symmetry_multiplicity
 _atom_site_fract_x
 _atom_site_fract_y
 _atom_site_fract_z
 _atom_site_occupancy
  Y  Y0  1  0.325142  0.825142  0.500000  1
  Y  Y1  1  0.172311  0.330984  0.500000  1
  Y  Y2  1  0.830984  0.672311  0.500000  1
  Pa  Pa3  1  0.667390  0.167390  0.500000  1
  In  In4  1  0.500316  0.505613  0.000000  1
  In  In5  1  0.005613  0.000316  0.000000  1
  Pt  Pt6  1  0.121943  0.621943  0.000000  1
  Pt  Pt7  1  0.858538  0.358538  0.000000  1
  Pt  Pt8  1  0.635530  0.882235  0.000000  1
  Pt  Pt9  1  0.382235  0.135530  0.000000  1
