# generated using pymatgen
data_Th14Re4TcNi
_symmetry_space_group_name_H-M   'P 1'
_cell_length_a   9.98043463
_cell_length_b   10.00988278
_cell_length_c   6.32977219
_cell_angle_alpha   90.16665702
_cell_angle_beta   89.75462596
_cell_angle_gamma   119.70389072
_symmetry_Int_Tables_number   1
_chemical_formula_structural   Th14Re4TcNi
_chemical_formula_sum   'Th14 Re4 Tc1 Ni1'
_cell_volume   549.26398580
_cell_formula_units_Z   1
loop_
 _symmetry_equiv_pos_site_id
 _symmetry_equiv_pos_as_xyz
  1  'x, y, z'
loop_
 _atom_site_type_symbol
 _atom_site_label
 _atom_site_symmetry_multiplicity
 _atom_site_fract_x
 _atom_site_fract_y
 _atom_site_fract_z
 _atom_site_occupancy
  Th  Th0  1  0.331746  0.666359  0.033495  1
  Th  Th1  1  0.665092  0.333333  0.531011  1
  Th  Th2  1  0.127031  0.875396  0.247488  1
  Th  Th3  1  0.253302  0.126722  0.750368  1
  Th  Th4  1  0.873036  0.745207  0.755612  1
  Th  Th5  1  0.127374  0.250681  0.256726  1
  Th  Th6  1  0.752873  0.875364  0.257379  1
  Th  Th7  1  0.876171  0.125295  0.755514  1
  Th  Th8  1  0.536720  0.459479  0.045769  1
  Th  Th9  1  0.077592  0.543230  0.544610  1
  Th  Th10  1  0.459708  0.921545  0.544630  1
  Th  Th11  1  0.541844  0.078845  0.045205  1
  Th  Th12  1  0.919414  0.453854  0.045667  1
  Th  Th13  1  0.463096  0.544054  0.547635  1
  Re  Re14  1  0.812667  0.183284  0.303166  1
  Re  Re15  1  0.624782  0.817684  0.805009  1
  Re  Re16  1  0.185854  0.375719  0.799056  1
  Re  Re17  1  0.817622  0.629487  0.298985  1
  Tc  Tc18  1  0.366519  0.179890  0.293868  1
  Ni  Ni19  1  0.187556  0.814572  0.798808  1
