# generated using pymatgen
data_V3GaAuN
_symmetry_space_group_name_H-M   'P 1'
_cell_length_a   6.71806100
_cell_length_b   6.71806100
_cell_length_c   6.71806100
_cell_angle_alpha   90.00000000
_cell_angle_beta   90.00000000
_cell_angle_gamma   90.00000000
_symmetry_Int_Tables_number   1
_chemical_formula_structural   V3GaAuN
_chemical_formula_sum   'V12 Ga4 Au4 N4'
_cell_volume   303.20183738
_cell_formula_units_Z   4
loop_
 _symmetry_equiv_pos_site_id
 _symmetry_equiv_pos_as_xyz
  1  'x, y, z'
loop_
 _atom_site_type_symbol
 _atom_site_label
 _atom_site_symmetry_multiplicity
 _atom_site_fract_x
 _atom_site_fract_y
 _atom_site_fract_z
 _atom_site_occupancy
  V  V0  1  0.780597  0.961339  0.377169  1
  V  V1  1  0.719403  0.038661  0.877169  1
  V  V2  1  0.219403  0.461339  0.122831  1
  V  V3  1  0.280597  0.538661  0.622831  1
  V  V4  1  0.961339  0.377169  0.780597  1
  V  V5  1  0.038661  0.877169  0.719403  1
  V  V6  1  0.461339  0.122831  0.219403  1
  V  V7  1  0.538661  0.622831  0.280597  1
  V  V8  1  0.377169  0.780597  0.961339  1
  V  V9  1  0.877169  0.719403  0.038661  1
  V  V10  1  0.122831  0.219403  0.461339  1
  V  V11  1  0.622831  0.280597  0.538661  1
  Ga  Ga12  1  0.569576  0.430424  0.930424  1
  Ga  Ga13  1  0.430424  0.930424  0.569576  1
  Ga  Ga14  1  0.930424  0.569576  0.430424  1
  Ga  Ga15  1  0.069576  0.069576  0.069576  1
  Au  Au16  1  0.177733  0.822267  0.322267  1
  Au  Au17  1  0.322267  0.177733  0.822267  1
  Au  Au18  1  0.822267  0.322267  0.177733  1
  Au  Au19  1  0.677733  0.677733  0.677733  1
  N  N20  1  0.876065  0.123935  0.623935  1
  N  N21  1  0.623935  0.876065  0.123935  1
  N  N22  1  0.123935  0.623935  0.876065  1
  N  N23  1  0.376065  0.376065  0.376065  1
