# generated using pymatgen
data_Tb4Lu8Co5Pb
_symmetry_space_group_name_H-M   'P 1'
_cell_length_a   8.19186034
_cell_length_b   8.19186051
_cell_length_c   8.19186030
_cell_angle_alpha   111.34761017
_cell_angle_beta   110.53399198
_cell_angle_gamma   106.57150931
_symmetry_Int_Tables_number   1
_chemical_formula_structural   Tb4Lu8Co5Pb
_chemical_formula_sum   'Tb4 Lu8 Co5 Pb1'
_cell_volume   422.35034679
_cell_formula_units_Z   1
loop_
 _symmetry_equiv_pos_site_id
 _symmetry_equiv_pos_as_xyz
  1  'x, y, z'
loop_
 _atom_site_type_symbol
 _atom_site_label
 _atom_site_symmetry_multiplicity
 _atom_site_fract_x
 _atom_site_fract_y
 _atom_site_fract_z
 _atom_site_occupancy
  Tb  Tb0  1  0.595588  0.790128  0.805460  1
  Tb  Tb1  1  0.404412  0.209872  0.194540  1
  Tb  Tb2  1  0.984669  0.790128  0.194540  1
  Tb  Tb3  1  0.015331  0.209872  0.805460  1
  Lu  Lu4  1  0.816694  0.709115  0.525808  1
  Lu  Lu5  1  0.183306  0.290885  0.474192  1
  Lu  Lu6  1  0.183306  0.709115  0.892422  1
  Lu  Lu7  1  0.816694  0.290885  0.107578  1
  Lu  Lu8  1  0.686095  0.377789  0.691695  1
  Lu  Lu9  1  0.313905  0.622211  0.308305  1
  Lu  Lu10  1  0.686095  0.994400  0.308305  1
  Lu  Lu11  1  0.313905  0.005600  0.691695  1
  Co  Co12  1  0.622032  0.000000  0.622032  1
  Co  Co13  1  0.377968  0.000000  0.377968  1
  Co  Co14  1  0.112327  0.612327  0.500000  1
  Co  Co15  1  0.887673  0.387673  0.500000  1
  Co  Co16  1  0.000000  0.000000  0.000000  1
  Pb  Pb17  1  0.500000  0.500000  0.000000  1
