# generated using pymatgen
data_DyU(Sb2Au)2
_symmetry_space_group_name_H-M   'P 1'
_cell_length_a   4.41157800
_cell_length_b   4.41158900
_cell_length_c   9.83357100
_cell_angle_alpha   90.00000000
_cell_angle_beta   90.00000000
_cell_angle_gamma   90.00000000
_symmetry_Int_Tables_number   1
_chemical_formula_structural   DyU(Sb2Au)2
_chemical_formula_sum   'Dy1 U1 Sb4 Au2'
_cell_volume   191.38163710
_cell_formula_units_Z   1
loop_
 _symmetry_equiv_pos_site_id
 _symmetry_equiv_pos_as_xyz
  1  'x, y, z'
loop_
 _atom_site_type_symbol
 _atom_site_label
 _atom_site_symmetry_multiplicity
 _atom_site_fract_x
 _atom_site_fract_y
 _atom_site_fract_z
 _atom_site_occupancy
  Dy  Dy0  1  0.500000  0.000000  0.240278  1
  U  U1  1  0.000000  0.500000  0.748035  1
  Sb  Sb2  1  0.500000  0.000000  0.705789  1
  Sb  Sb3  1  0.000000  0.500000  0.312994  1
  Sb  Sb4  1  0.000000  0.000000  0.993119  1
  Sb  Sb5  1  0.500000  0.500000  0.993119  1
  Au  Au6  1  0.000000  0.000000  0.503333  1
  Au  Au7  1  0.500000  0.500000  0.503333  1
