# generated using pymatgen
data_Th6ZnCd22Re
_symmetry_space_group_name_H-M   'P 1'
_cell_length_a   10.12355269
_cell_length_b   10.12355322
_cell_length_c   10.12355300
_cell_angle_alpha   60.00000400
_cell_angle_beta   60.00000224
_cell_angle_gamma   60.00000325
_symmetry_Int_Tables_number   1
_chemical_formula_structural   Th6ZnCd22Re
_chemical_formula_sum   'Th6 Zn1 Cd22 Re1'
_cell_volume   733.64153694
_cell_formula_units_Z   1
loop_
 _symmetry_equiv_pos_site_id
 _symmetry_equiv_pos_as_xyz
  1  'x, y, z'
loop_
 _atom_site_type_symbol
 _atom_site_label
 _atom_site_symmetry_multiplicity
 _atom_site_fract_x
 _atom_site_fract_y
 _atom_site_fract_z
 _atom_site_occupancy
  Th  Th0  1  0.802667  0.802667  0.197333  1
  Th  Th1  1  0.197333  0.802667  0.197333  1
  Th  Th2  1  0.802667  0.197333  0.197333  1
  Th  Th3  1  0.197333  0.197333  0.802667  1
  Th  Th4  1  0.802667  0.197333  0.802667  1
  Th  Th5  1  0.197333  0.802667  0.802667  1
  Zn  Zn6  1  0.500000  0.500000  0.500000  1
  Cd  Cd7  1  0.831620  0.831620  0.505140  1
  Cd  Cd8  1  0.831620  0.505140  0.831620  1
  Cd  Cd9  1  0.505140  0.831620  0.831620  1
  Cd  Cd10  1  0.831620  0.831620  0.831620  1
  Cd  Cd11  1  0.168380  0.168380  0.494860  1
  Cd  Cd12  1  0.168380  0.494860  0.168380  1
  Cd  Cd13  1  0.494860  0.168380  0.168380  1
  Cd  Cd14  1  0.168380  0.168380  0.168380  1
  Cd  Cd15  1  0.618311  0.618311  0.145069  1
  Cd  Cd16  1  0.618311  0.145069  0.618311  1
  Cd  Cd17  1  0.145069  0.618311  0.618311  1
  Cd  Cd18  1  0.618311  0.618311  0.618311  1
  Cd  Cd19  1  0.381689  0.381689  0.854931  1
  Cd  Cd20  1  0.381689  0.854931  0.381689  1
  Cd  Cd21  1  0.854931  0.381689  0.381689  1
  Cd  Cd22  1  0.381689  0.381689  0.381689  1
  Cd  Cd23  1  0.000000  0.000000  0.500000  1
  Cd  Cd24  1  0.500000  0.000000  0.500000  1
  Cd  Cd25  1  0.000000  0.500000  0.500000  1
  Cd  Cd26  1  0.500000  0.500000  0.000000  1
  Cd  Cd27  1  0.000000  0.500000  0.000000  1
  Cd  Cd28  1  0.500000  0.000000  0.000000  1
  Re  Re29  1  0.000000  0.000000  0.000000  1
