# generated using pymatgen
data_Tb11Y5Cd3AgIr4
_symmetry_space_group_name_H-M   'P 1'
_cell_length_a   9.66373462
_cell_length_b   9.65462328
_cell_length_c   9.65462346
_cell_angle_alpha   60.04326659
_cell_angle_beta   60.06379148
_cell_angle_gamma   60.06380406
_symmetry_Int_Tables_number   1
_chemical_formula_structural   Tb11Y5Cd3AgIr4
_chemical_formula_sum   'Tb11 Y5 Cd3 Ag1 Ir4'
_cell_volume   637.76527670
_cell_formula_units_Z   1
loop_
 _symmetry_equiv_pos_site_id
 _symmetry_equiv_pos_as_xyz
  1  'x, y, z'
loop_
 _atom_site_type_symbol
 _atom_site_label
 _atom_site_symmetry_multiplicity
 _atom_site_fract_x
 _atom_site_fract_y
 _atom_site_fract_z
 _atom_site_occupancy
  Tb  Tb0  1  0.348712  0.348875  0.348875  1
  Tb  Tb1  1  0.349671  0.349726  0.952638  1
  Tb  Tb2  1  0.349671  0.952638  0.349726  1
  Tb  Tb3  1  0.952979  0.349556  0.349556  1
  Tb  Tb4  1  0.809602  0.189688  0.189688  1
  Tb  Tb5  1  0.187857  0.809659  0.809659  1
  Tb  Tb6  1  0.189384  0.809734  0.189671  1
  Tb  Tb7  1  0.809571  0.188006  0.809639  1
  Tb  Tb8  1  0.189384  0.189671  0.809734  1
  Tb  Tb9  1  0.809571  0.809639  0.188006  1
  Tb  Tb10  1  0.936928  0.561212  0.561212  1
  Y  Y11  1  0.561828  0.936624  0.936624  1
  Y  Y12  1  0.561677  0.936737  0.561509  1
  Y  Y13  1  0.936563  0.561807  0.936610  1
  Y  Y14  1  0.561677  0.561509  0.936737  1
  Y  Y15  1  0.936563  0.936610  0.561807  1
  Cd  Cd16  1  0.581387  0.581442  0.258592  1
  Cd  Cd17  1  0.581387  0.258592  0.581442  1
  Cd  Cd18  1  0.258711  0.581429  0.581429  1
  Ag  Ag19  1  0.582887  0.583079  0.583079  1
  Ir  Ir20  1  0.141834  0.141556  0.141556  1
  Ir  Ir21  1  0.143273  0.143111  0.575819  1
  Ir  Ir22  1  0.143273  0.575819  0.143111  1
  Ir  Ir23  1  0.575615  0.143285  0.143285  1
