# generated using pymatgen
data_Th10Sn6HgPb
_symmetry_space_group_name_H-M   'P 1'
_cell_length_a   9.67626613
_cell_length_b   9.67626478
_cell_length_c   6.64656900
_cell_angle_alpha   90.00931416
_cell_angle_beta   90.00931416
_cell_angle_gamma   120.05033725
_symmetry_Int_Tables_number   1
_chemical_formula_structural   Th10Sn6HgPb
_chemical_formula_sum   'Th10 Sn6 Hg1 Pb1'
_cell_volume   538.67046366
_cell_formula_units_Z   1
loop_
 _symmetry_equiv_pos_site_id
 _symmetry_equiv_pos_as_xyz
  1  'x, y, z'
loop_
 _atom_site_type_symbol
 _atom_site_label
 _atom_site_symmetry_multiplicity
 _atom_site_fract_x
 _atom_site_fract_y
 _atom_site_fract_z
 _atom_site_occupancy
  Th  Th0  1  0.003680  0.721681  0.748383  1
  Th  Th1  1  0.277555  0.277555  0.747644  1
  Th  Th2  1  0.330848  0.667282  0.498876  1
  Th  Th3  1  0.667282  0.330848  0.498876  1
  Th  Th4  1  0.720813  0.720813  0.251641  1
  Th  Th5  1  0.721681  0.003680  0.748383  1
  Th  Th6  1  0.999847  0.279691  0.251998  1
  Th  Th7  1  0.279691  0.999847  0.251998  1
  Th  Th8  1  0.331013  0.667269  0.000943  1
  Th  Th9  1  0.667269  0.331013  0.000943  1
  Sn  Sn10  1  0.000674  0.378652  0.750928  1
  Sn  Sn11  1  0.378652  0.000674  0.750928  1
  Sn  Sn12  1  0.622034  0.999395  0.249175  1
  Sn  Sn13  1  0.378029  0.378029  0.249179  1
  Sn  Sn14  1  0.999395  0.622034  0.249175  1
  Sn  Sn15  1  0.999323  0.999323  0.499862  1
  Hg  Hg16  1  0.999571  0.999571  0.000439  1
  Pb  Pb17  1  0.622644  0.622644  0.750629  1
