# generated using pymatgen
data_Zr9Re4Ir
_symmetry_space_group_name_H-M   'P 1'
_cell_length_a   8.73386300
_cell_length_b   8.73386305
_cell_length_c   8.66973800
_cell_angle_alpha   90.00000000
_cell_angle_beta   90.00000000
_cell_angle_gamma   120.00000360
_symmetry_Int_Tables_number   1
_chemical_formula_structural   Zr9Re4Ir
_chemical_formula_sum   'Zr18 Re8 Ir2'
_cell_volume   572.72922175
_cell_formula_units_Z   2
loop_
 _symmetry_equiv_pos_site_id
 _symmetry_equiv_pos_as_xyz
  1  'x, y, z'
loop_
 _atom_site_type_symbol
 _atom_site_label
 _atom_site_symmetry_multiplicity
 _atom_site_fract_x
 _atom_site_fract_y
 _atom_site_fract_z
 _atom_site_occupancy
  Zr  Zr0  1  0.195417  0.804583  0.445052  1
  Zr  Zr1  1  0.195417  0.390835  0.445052  1
  Zr  Zr2  1  0.609165  0.804583  0.445052  1
  Zr  Zr3  1  0.804583  0.195417  0.554948  1
  Zr  Zr4  1  0.804583  0.609165  0.554948  1
  Zr  Zr5  1  0.390835  0.195417  0.554948  1
  Zr  Zr6  1  0.804583  0.195417  0.945052  1
  Zr  Zr7  1  0.804583  0.609165  0.945052  1
  Zr  Zr8  1  0.390835  0.195417  0.945052  1
  Zr  Zr9  1  0.195417  0.804583  0.054948  1
  Zr  Zr10  1  0.195417  0.390835  0.054948  1
  Zr  Zr11  1  0.609165  0.804583  0.054948  1
  Zr  Zr12  1  0.542720  0.457280  0.250000  1
  Zr  Zr13  1  0.542720  0.085439  0.250000  1
  Zr  Zr14  1  0.914561  0.457280  0.250000  1
  Zr  Zr15  1  0.457280  0.542720  0.750000  1
  Zr  Zr16  1  0.457280  0.914561  0.750000  1
  Zr  Zr17  1  0.085439  0.542720  0.750000  1
  Re  Re18  1  0.892637  0.107363  0.250000  1
  Re  Re19  1  0.892637  0.785274  0.250000  1
  Re  Re20  1  0.214726  0.107363  0.250000  1
  Re  Re21  1  0.107363  0.892637  0.750000  1
  Re  Re22  1  0.107363  0.214726  0.750000  1
  Re  Re23  1  0.785274  0.892637  0.750000  1
  Re  Re24  1  0.000000  0.000000  0.500000  1
  Re  Re25  1  0.000000  0.000000  0.000000  1
  Ir  Ir26  1  0.333333  0.666667  0.250000  1
  Ir  Ir27  1  0.666667  0.333333  0.750000  1
