# generated using pymatgen
data_Ba4Gd7TmO16
_symmetry_space_group_name_H-M   'P 1'
_cell_length_a   3.52410000
_cell_length_b   10.58309634
_cell_length_c   12.31453791
_cell_angle_alpha   89.90877663
_cell_angle_beta   90.00000000
_cell_angle_gamma   90.00000000
_symmetry_Int_Tables_number   1
_chemical_formula_structural   Ba4Gd7TmO16
_chemical_formula_sum   'Ba4 Gd7 Tm1 O16'
_cell_volume   459.28106714
_cell_formula_units_Z   1
loop_
 _symmetry_equiv_pos_site_id
 _symmetry_equiv_pos_as_xyz
  1  'x, y, z'
loop_
 _atom_site_type_symbol
 _atom_site_label
 _atom_site_symmetry_multiplicity
 _atom_site_fract_x
 _atom_site_fract_y
 _atom_site_fract_z
 _atom_site_occupancy
  Ba  Ba0  1  0.750000  0.253616  0.851417  1
  Ba  Ba1  1  0.250000  0.746190  0.150263  1
  Ba  Ba2  1  0.750000  0.752130  0.646493  1
  Ba  Ba3  1  0.250000  0.247389  0.351608  1
  Gd  Gd4  1  0.750000  0.426184  0.608710  1
  Gd  Gd5  1  0.250000  0.074593  0.111698  1
  Gd  Gd6  1  0.750000  0.924567  0.888386  1
  Gd  Gd7  1  0.750000  0.920265  0.390615  1
  Gd  Gd8  1  0.250000  0.077960  0.609909  1
  Gd  Gd9  1  0.750000  0.423563  0.111944  1
  Gd  Gd10  1  0.250000  0.577936  0.890082  1
  Tm  Tm11  1  0.250000  0.572107  0.388311  1
  O  O12  1  0.250000  0.571607  0.569222  1
  O  O13  1  0.750000  0.432174  0.422562  1
  O  O14  1  0.250000  0.071519  0.925450  1
  O  O15  1  0.750000  0.928615  0.074987  1
  O  O16  1  0.250000  0.484890  0.219790  1
  O  O17  1  0.750000  0.519204  0.781571  1
  O  O18  1  0.250000  0.978892  0.282678  1
  O  O19  1  0.750000  0.018998  0.717369  1
  O  O20  1  0.250000  0.884015  0.519655  1
  O  O21  1  0.750000  0.117044  0.480238  1
  O  O22  1  0.250000  0.383486  0.982536  1
  O  O23  1  0.750000  0.617623  0.019408  1
  O  O24  1  0.750000  0.703782  0.342961  1
  O  O25  1  0.250000  0.291455  0.661471  1
  O  O26  1  0.750000  0.210164  0.164046  1
  O  O27  1  0.250000  0.790035  0.836621  1
