# generated using pymatgen
data_Ca2PrCd2HgPd3
_symmetry_space_group_name_H-M   'P 1'
_cell_length_a   7.66315994
_cell_length_b   7.74565337
_cell_length_c   4.10563700
_cell_angle_alpha   90.00000000
_cell_angle_beta   90.00000000
_cell_angle_gamma   120.35673660
_symmetry_Int_Tables_number   1
_chemical_formula_structural   Ca2PrCd2HgPd3
_chemical_formula_sum   'Ca2 Pr1 Cd2 Hg1 Pd3'
_cell_volume   210.28326539
_cell_formula_units_Z   1
loop_
 _symmetry_equiv_pos_site_id
 _symmetry_equiv_pos_as_xyz
  1  'x, y, z'
loop_
 _atom_site_type_symbol
 _atom_site_label
 _atom_site_symmetry_multiplicity
 _atom_site_fract_x
 _atom_site_fract_y
 _atom_site_fract_z
 _atom_site_occupancy
  Ca  Ca0  1  0.397836  0.400396  0.500000  1
  Ca  Ca1  1  0.602164  0.002560  0.500000  1
  Pr  Pr2  1  0.000000  0.593330  0.500000  1
  Cd  Cd3  1  0.736597  0.743003  0.000000  1
  Cd  Cd4  1  0.263403  0.006406  0.000000  1
  Hg  Hg5  1  0.000000  0.252505  0.000000  1
  Pd  Pd6  1  0.670018  0.341221  0.000000  1
  Pd  Pd7  1  0.329982  0.671205  0.000000  1
  Pd  Pd8  1  0.000000  0.989374  0.500000  1
