# generated using pymatgen
data_Ho4Tm6InSb5
_symmetry_space_group_name_H-M   'P 1'
_cell_length_a   8.88161924
_cell_length_b   8.88586170
_cell_length_c   6.31644700
_cell_angle_alpha   90.00000000
_cell_angle_beta   90.00000000
_cell_angle_gamma   119.92402860
_symmetry_Int_Tables_number   1
_chemical_formula_structural   Ho4Tm6InSb5
_chemical_formula_sum   'Ho4 Tm6 In1 Sb5'
_cell_volume   432.04317437
_cell_formula_units_Z   1
loop_
 _symmetry_equiv_pos_site_id
 _symmetry_equiv_pos_as_xyz
  1  'x, y, z'
loop_
 _atom_site_type_symbol
 _atom_site_label
 _atom_site_symmetry_multiplicity
 _atom_site_fract_x
 _atom_site_fract_y
 _atom_site_fract_z
 _atom_site_occupancy
  Ho  Ho0  1  0.753702  0.755961  0.250000  1
  Ho  Ho1  1  0.997368  0.244240  0.250000  1
  Ho  Ho2  1  0.246287  0.241991  0.750000  1
  Ho  Ho3  1  0.241859  0.999234  0.250000  1
  Tm  Tm4  1  0.333747  0.668980  0.000709  1
  Tm  Tm5  1  0.664508  0.330637  0.498910  1
  Tm  Tm6  1  0.664508  0.330637  0.001090  1
  Tm  Tm7  1  0.333747  0.668980  0.499291  1
  Tm  Tm8  1  0.756883  0.000243  0.750000  1
  Tm  Tm9  1  0.004950  0.759512  0.750000  1
  In  In10  1  0.395166  0.998937  0.750000  1
  Sb  Sb11  1  0.389068  0.390208  0.250000  1
  Sb  Sb12  1  0.997871  0.608651  0.250000  1
  Sb  Sb13  1  0.999829  0.390393  0.750000  1
  Sb  Sb14  1  0.612990  0.611648  0.750000  1
  Sb  Sb15  1  0.607519  0.999746  0.250000  1
