# generated using pymatgen
data_La7Pr9(TmIr3)4
_symmetry_space_group_name_H-M   'P 1'
_cell_length_a   11.28664411
_cell_length_b   11.29682193
_cell_length_c   6.53644183
_cell_angle_alpha   89.89373458
_cell_angle_beta   89.99308944
_cell_angle_gamma   90.09753690
_symmetry_Int_Tables_number   1
_chemical_formula_structural   La7Pr9(TmIr3)4
_chemical_formula_sum   'La7 Pr9 Tm4 Ir12'
_cell_volume   833.41465993
_cell_formula_units_Z   1
loop_
 _symmetry_equiv_pos_site_id
 _symmetry_equiv_pos_as_xyz
  1  'x, y, z'
loop_
 _atom_site_type_symbol
 _atom_site_label
 _atom_site_symmetry_multiplicity
 _atom_site_fract_x
 _atom_site_fract_y
 _atom_site_fract_z
 _atom_site_occupancy
  La  La0  1  0.287016  0.088998  0.383034  1
  La  La1  1  0.286998  0.912514  0.883325  1
  La  La2  1  0.712557  0.088551  0.883373  1
  La  La3  1  0.713483  0.911392  0.383104  1
  La  La4  1  0.588526  0.786556  0.882905  1
  La  La5  1  0.587669  0.213427  0.382962  1
  La  La6  1  0.411571  0.786361  0.382935  1
  Pr  Pr7  1  0.411574  0.213630  0.881423  1
  Pr  Pr8  1  0.211985  0.413429  0.618325  1
  Pr  Pr9  1  0.211675  0.586038  0.117988  1
  Pr  Pr10  1  0.788352  0.413678  0.117368  1
  Pr  Pr11  1  0.788332  0.586293  0.617380  1
  Pr  Pr12  1  0.913551  0.711612  0.117658  1
  Pr  Pr13  1  0.913573  0.288412  0.617609  1
  Pr  Pr14  1  0.086502  0.711643  0.617663  1
  Pr  Pr15  1  0.086790  0.288200  0.117182  1
  Tm  Tm16  1  0.999984  0.000051  0.500344  1
  Tm  Tm17  1  0.999949  0.000183  0.000349  1
  Tm  Tm18  1  0.499637  0.499340  0.000356  1
  Tm  Tm19  1  0.500097  0.499859  0.500921  1
  Ir  Ir20  1  0.852353  0.145963  0.248307  1
  Ir  Ir21  1  0.852524  0.853923  0.748613  1
  Ir  Ir22  1  0.147621  0.145962  0.747977  1
  Ir  Ir23  1  0.147790  0.854193  0.248403  1
  Ir  Ir24  1  0.645851  0.352250  0.748721  1
  Ir  Ir25  1  0.646052  0.647517  0.248131  1
  Ir  Ir26  1  0.353723  0.353296  0.250315  1
  Ir  Ir27  1  0.354045  0.647568  0.748664  1
  Ir  Ir28  1  0.499939  0.999962  0.118288  1
  Ir  Ir29  1  0.500301  0.999259  0.617014  1
  Ir  Ir30  1  0.000131  0.499868  0.884756  1
  Ir  Ir31  1  0.999851  0.500071  0.384607  1
