# generated using pymatgen
data_ErHf7Nb11Si16W
_symmetry_space_group_name_H-M   'P 1'
_cell_length_a   6.88564319
_cell_length_b   6.88846471
_cell_length_c   12.69961300
_cell_angle_alpha   89.99851946
_cell_angle_beta   89.94482311
_cell_angle_gamma   89.94915285
_symmetry_Int_Tables_number   1
_chemical_formula_structural   ErHf7Nb11Si16W
_chemical_formula_sum   'Er1 Hf7 Nb11 Si16 W1'
_cell_volume   602.36130649
_cell_formula_units_Z   1
loop_
 _symmetry_equiv_pos_site_id
 _symmetry_equiv_pos_as_xyz
  1  'x, y, z'
loop_
 _atom_site_type_symbol
 _atom_site_label
 _atom_site_symmetry_multiplicity
 _atom_site_fract_x
 _atom_site_fract_y
 _atom_site_fract_z
 _atom_site_occupancy
  Er  Er0  1  0.997113  0.660616  0.030669  1
  Hf  Hf1  1  0.339993  0.000146  0.470124  1
  Hf  Hf2  1  0.501628  0.840420  0.718251  1
  Hf  Hf3  1  0.498942  0.160677  0.221411  1
  Hf  Hf4  1  0.841231  0.502242  0.282884  1
  Hf  Hf5  1  0.160497  0.498650  0.779546  1
  Hf  Hf6  1  0.655840  0.003523  0.967340  1
  Hf  Hf7  1  0.999870  0.339112  0.530002  1
  Nb  Nb8  1  0.333137  0.327822  0.999717  1
  Nb  Nb9  1  0.169033  0.831861  0.251905  1
  Nb  Nb10  1  0.831963  0.168176  0.748493  1
  Nb  Nb11  1  0.669245  0.670283  0.500763  1
  Nb  Nb12  1  0.155032  0.002183  0.870974  1
  Nb  Nb13  1  0.497668  0.651390  0.124719  1
  Nb  Nb14  1  0.502343  0.348337  0.622923  1
  Nb  Nb15  1  0.653645  0.495046  0.873548  1
  Nb  Nb16  1  0.346419  0.504773  0.378562  1
  Nb  Nb17  1  0.847217  0.998893  0.374959  1
  Nb  Nb18  1  0.005156  0.152643  0.127314  1
  Si  Si19  1  0.206551  0.132079  0.675372  1
  Si  Si20  1  0.367847  0.706716  0.926119  1
  Si  Si21  1  0.634236  0.292048  0.426832  1
  Si  Si22  1  0.705645  0.360559  0.072606  1
  Si  Si23  1  0.287685  0.636575  0.574967  1
  Si  Si24  1  0.788930  0.868117  0.180167  1
  Si  Si25  1  0.135988  0.208615  0.324274  1
  Si  Si26  1  0.864493  0.793927  0.818737  1
  Si  Si27  1  0.301572  0.956530  0.063821  1
  Si  Si28  1  0.542553  0.800166  0.314572  1
  Si  Si29  1  0.456361  0.200735  0.811701  1
  Si  Si30  1  0.801043  0.544461  0.685015  1
  Si  Si31  1  0.202194  0.455550  0.188502  1
  Si  Si32  1  0.702535  0.042707  0.563715  1
  Si  Si33  1  0.957158  0.294210  0.935450  1
  Si  Si34  1  0.042910  0.703191  0.438526  1
  W  W35  1  0.996328  0.847021  0.625525  1
