# generated using pymatgen
data_Dy2B10Ir
_symmetry_space_group_name_H-M   'P 1'
_cell_length_a   4.17380500
_cell_length_b   5.68277400
_cell_length_c   11.34705800
_cell_angle_alpha   90.00000000
_cell_angle_beta   90.00000000
_cell_angle_gamma   90.00000000
_symmetry_Int_Tables_number   1
_chemical_formula_structural   Dy2B10Ir
_chemical_formula_sum   'Dy4 B20 Ir2'
_cell_volume   269.13849189
_cell_formula_units_Z   2
loop_
 _symmetry_equiv_pos_site_id
 _symmetry_equiv_pos_as_xyz
  1  'x, y, z'
loop_
 _atom_site_type_symbol
 _atom_site_label
 _atom_site_symmetry_multiplicity
 _atom_site_fract_x
 _atom_site_fract_y
 _atom_site_fract_z
 _atom_site_occupancy
  Dy  Dy0  1  0.500000  0.204076  0.366003  1
  Dy  Dy1  1  0.500000  0.795924  0.633997  1
  Dy  Dy2  1  0.500000  0.295924  0.866003  1
  Dy  Dy3  1  0.500000  0.704076  0.133997  1
  B  B4  1  0.000000  0.381566  0.042649  1
  B  B5  1  0.000000  0.618434  0.957351  1
  B  B6  1  0.000000  0.118434  0.542649  1
  B  B7  1  0.000000  0.881566  0.457351  1
  B  B8  1  0.000000  0.363538  0.197276  1
  B  B9  1  0.000000  0.636462  0.802724  1
  B  B10  1  0.000000  0.136462  0.697276  1
  B  B11  1  0.000000  0.863538  0.302724  1
  B  B12  1  0.000000  0.055431  0.193067  1
  B  B13  1  0.000000  0.944569  0.806933  1
  B  B14  1  0.000000  0.444569  0.693067  1
  B  B15  1  0.000000  0.555431  0.306933  1
  B  B16  1  0.301513  0.220308  0.119267  1
  B  B17  1  0.698487  0.779692  0.880733  1
  B  B18  1  0.301513  0.779692  0.880733  1
  B  B19  1  0.698487  0.279692  0.619267  1
  B  B20  1  0.698487  0.220308  0.119267  1
  B  B21  1  0.301513  0.720308  0.380733  1
  B  B22  1  0.698487  0.720308  0.380733  1
  B  B23  1  0.301513  0.279692  0.619267  1
  Ir  Ir24  1  0.000000  0.000000  0.000000  1
  Ir  Ir25  1  0.000000  0.500000  0.500000  1
