# generated using pymatgen
data_Nd3Ir8Pt
_symmetry_space_group_name_H-M   'P 1'
_cell_length_a   9.39233920
_cell_length_b   9.39233980
_cell_length_c   9.39234008
_cell_angle_alpha   33.36689453
_cell_angle_beta   33.36688698
_cell_angle_gamma   33.36689137
_symmetry_Int_Tables_number   1
_chemical_formula_structural   Nd3Ir8Pt
_chemical_formula_sum   'Nd3 Ir8 Pt1'
_cell_volume   223.17792368
_cell_formula_units_Z   1
loop_
 _symmetry_equiv_pos_site_id
 _symmetry_equiv_pos_as_xyz
  1  'x, y, z'
loop_
 _atom_site_type_symbol
 _atom_site_label
 _atom_site_symmetry_multiplicity
 _atom_site_fract_x
 _atom_site_fract_y
 _atom_site_fract_z
 _atom_site_occupancy
  Nd  Nd0  1  0.861215  0.861215  0.861215  1
  Nd  Nd1  1  0.138785  0.138785  0.138785  1
  Nd  Nd2  1  0.000000  0.000000  0.000000  1
  Ir  Ir3  1  0.419608  0.919127  0.419608  1
  Ir  Ir4  1  0.419608  0.419608  0.919127  1
  Ir  Ir5  1  0.919127  0.419608  0.419608  1
  Ir  Ir6  1  0.580392  0.080873  0.580392  1
  Ir  Ir7  1  0.580392  0.580392  0.080873  1
  Ir  Ir8  1  0.080873  0.580392  0.580392  1
  Ir  Ir9  1  0.667783  0.667783  0.667783  1
  Ir  Ir10  1  0.332217  0.332217  0.332217  1
  Pt  Pt11  1  0.500000  0.500000  0.500000  1
