# generated using pymatgen
data_Er3Sn3HgRuRh
_symmetry_space_group_name_H-M   'P 1'
_cell_length_a   7.70096000
_cell_length_b   7.70095951
_cell_length_c   3.86760900
_cell_angle_alpha   90.00000000
_cell_angle_beta   90.00000000
_cell_angle_gamma   119.99999353
_symmetry_Int_Tables_number   1
_chemical_formula_structural   Er3Sn3HgRuRh
_chemical_formula_sum   'Er3 Sn3 Hg1 Ru1 Rh1'
_cell_volume   198.63827244
_cell_formula_units_Z   1
loop_
 _symmetry_equiv_pos_site_id
 _symmetry_equiv_pos_as_xyz
  1  'x, y, z'
loop_
 _atom_site_type_symbol
 _atom_site_label
 _atom_site_symmetry_multiplicity
 _atom_site_fract_x
 _atom_site_fract_y
 _atom_site_fract_z
 _atom_site_occupancy
  Er  Er0  1  0.388349  0.411394  0.000000  1
  Er  Er1  1  0.023046  0.611651  0.000000  1
  Er  Er2  1  0.588606  0.976954  0.000000  1
  Sn  Sn3  1  0.741265  0.748500  0.500000  1
  Sn  Sn4  1  0.007234  0.258735  0.500000  1
  Sn  Sn5  1  0.251500  0.992766  0.500000  1
  Hg  Hg6  1  0.666667  0.333333  0.500000  1
  Ru  Ru7  1  0.000000  0.000000  0.000000  1
  Rh  Rh8  1  0.333333  0.666667  0.500000  1
