# generated using pymatgen
data_Cs(SnS2)3
_symmetry_space_group_name_H-M   'P 1'
_cell_length_a   6.53826968
_cell_length_b   6.53826982
_cell_length_c   9.10675916
_cell_angle_alpha   96.88607612
_cell_angle_beta   96.88607542
_cell_angle_gamma   120.63982434
_symmetry_Int_Tables_number   1
_chemical_formula_structural   Cs(SnS2)3
_chemical_formula_sum   'Cs1 Sn3 S6'
_cell_volume   324.98552085
_cell_formula_units_Z   1
loop_
 _symmetry_equiv_pos_site_id
 _symmetry_equiv_pos_as_xyz
  1  'x, y, z'
loop_
 _atom_site_type_symbol
 _atom_site_label
 _atom_site_symmetry_multiplicity
 _atom_site_fract_x
 _atom_site_fract_y
 _atom_site_fract_z
 _atom_site_occupancy
  Cs  Cs0  1  0.000000  0.000000  0.500000  1
  Sn  Sn1  1  0.834034  0.165966  0.000000  1
  Sn  Sn2  1  0.500000  0.500000  0.000000  1
  Sn  Sn3  1  0.165966  0.834034  0.000000  1
  S  S4  1  0.221597  0.221597  0.169306  1
  S  S5  1  0.890810  0.556063  0.168110  1
  S  S6  1  0.556063  0.890810  0.168110  1
  S  S7  1  0.443937  0.109190  0.831891  1
  S  S8  1  0.109190  0.443937  0.831891  1
  S  S9  1  0.778405  0.778405  0.830695  1
