# generated using pymatgen
data_DyPa3Ge6MoRh6
_symmetry_space_group_name_H-M   'P 1'
_cell_length_a   7.32661326
_cell_length_b   7.32661404
_cell_length_c   7.32661465
_cell_angle_alpha   109.61278997
_cell_angle_beta   109.61280264
_cell_angle_gamma   109.61280746
_symmetry_Int_Tables_number   1
_chemical_formula_structural   DyPa3Ge6MoRh6
_chemical_formula_sum   'Dy1 Pa3 Ge6 Mo1 Rh6'
_cell_volume   301.15527804
_cell_formula_units_Z   1
loop_
 _symmetry_equiv_pos_site_id
 _symmetry_equiv_pos_as_xyz
  1  'x, y, z'
loop_
 _atom_site_type_symbol
 _atom_site_label
 _atom_site_symmetry_multiplicity
 _atom_site_fract_x
 _atom_site_fract_y
 _atom_site_fract_z
 _atom_site_occupancy
  Dy  Dy0  1  0.500000  0.500000  0.500000  1
  Pa  Pa1  1  0.000000  0.000000  0.500000  1
  Pa  Pa2  1  0.000000  0.500000  0.000000  1
  Pa  Pa3  1  0.500000  0.000000  0.000000  1
  Ge  Ge4  1  0.681478  0.681478  0.994730  1
  Ge  Ge5  1  0.318522  0.005270  0.318522  1
  Ge  Ge6  1  0.005270  0.318522  0.318522  1
  Ge  Ge7  1  0.318522  0.318522  0.005270  1
  Ge  Ge8  1  0.681478  0.994730  0.681478  1
  Ge  Ge9  1  0.994730  0.681478  0.681478  1
  Mo  Mo10  1  0.000000  0.000000  0.000000  1
  Rh  Rh11  1  0.752848  0.247152  0.500000  1
  Rh  Rh12  1  0.752848  0.500000  0.247152  1
  Rh  Rh13  1  0.500000  0.247152  0.752848  1
  Rh  Rh14  1  0.247152  0.500000  0.752848  1
  Rh  Rh15  1  0.247152  0.752848  0.500000  1
  Rh  Rh16  1  0.500000  0.752848  0.247152  1
