# generated using pymatgen
data_YHoOs3Ru
_symmetry_space_group_name_H-M   'P 1'
_cell_length_a   5.28220217
_cell_length_b   5.28220146
_cell_length_c   8.99891300
_cell_angle_alpha   90.00001954
_cell_angle_beta   89.99998278
_cell_angle_gamma   120.00217033
_symmetry_Int_Tables_number   1
_chemical_formula_structural   YHoOs3Ru
_chemical_formula_sum   'Y2 Ho2 Os6 Ru2'
_cell_volume   217.44086453
_cell_formula_units_Z   2
loop_
 _symmetry_equiv_pos_site_id
 _symmetry_equiv_pos_as_xyz
  1  'x, y, z'
loop_
 _atom_site_type_symbol
 _atom_site_label
 _atom_site_symmetry_multiplicity
 _atom_site_fract_x
 _atom_site_fract_y
 _atom_site_fract_z
 _atom_site_occupancy
  Y  Y0  1  0.666677  0.333323  0.565651  1
  Y  Y1  1  0.333323  0.666677  0.434349  1
  Ho  Ho2  1  0.333325  0.666675  0.065188  1
  Ho  Ho3  1  0.666675  0.333325  0.934812  1
  Os  Os4  1  0.170565  0.341163  0.751357  1
  Os  Os5  1  0.170583  0.829417  0.751359  1
  Os  Os6  1  0.658837  0.829435  0.751357  1
  Os  Os7  1  0.829435  0.658837  0.248643  1
  Os  Os8  1  0.829417  0.170583  0.248641  1
  Os  Os9  1  0.341163  0.170565  0.248643  1
  Ru  Ru10  1  0.000000  0.000000  0.500000  1
  Ru  Ru11  1  0.000000  0.000000  0.000000  1
