# generated using pymatgen
data_Zr2Sc2TaNb3P4
_symmetry_space_group_name_H-M   'P 1'
_cell_length_a   3.56539800
_cell_length_b   6.94267697
_cell_length_c   8.35625117
_cell_angle_alpha   89.93935270
_cell_angle_beta   90.00000000
_cell_angle_gamma   90.00000000
_symmetry_Int_Tables_number   1
_chemical_formula_structural   Zr2Sc2TaNb3P4
_chemical_formula_sum   'Zr2 Sc2 Ta1 Nb3 P4'
_cell_volume   206.84556693
_cell_formula_units_Z   1
loop_
 _symmetry_equiv_pos_site_id
 _symmetry_equiv_pos_as_xyz
  1  'x, y, z'
loop_
 _atom_site_type_symbol
 _atom_site_label
 _atom_site_symmetry_multiplicity
 _atom_site_fract_x
 _atom_site_fract_y
 _atom_site_fract_z
 _atom_site_occupancy
  Zr  Zr0  1  0.250000  0.033035  0.666060  1
  Zr  Zr1  1  0.750000  0.467010  0.166115  1
  Sc  Sc2  1  0.250000  0.532602  0.833049  1
  Sc  Sc3  1  0.750000  0.967385  0.333364  1
  Ta  Ta4  1  0.750000  0.361873  0.558809  1
  Nb  Nb5  1  0.250000  0.138198  0.058499  1
  Nb  Nb6  1  0.750000  0.861184  0.940541  1
  Nb  Nb7  1  0.250000  0.638836  0.440644  1
  P  P8  1  0.750000  0.733202  0.644267  1
  P  P9  1  0.250000  0.765932  0.144080  1
  P  P10  1  0.750000  0.238302  0.856890  1
  P  P11  1  0.250000  0.262443  0.357679  1
