# generated using pymatgen
data_Nd7ErSe12
_symmetry_space_group_name_H-M   'P 1'
_cell_length_a   11.12914966
_cell_length_b   4.17260700
_cell_length_c   11.48252570
_cell_angle_alpha   90.00000000
_cell_angle_beta   89.96020556
_cell_angle_gamma   90.00000000
_symmetry_Int_Tables_number   1
_chemical_formula_structural   Nd7ErSe12
_chemical_formula_sum   'Nd7 Er1 Se12'
_cell_volume   533.22043699
_cell_formula_units_Z   1
loop_
 _symmetry_equiv_pos_site_id
 _symmetry_equiv_pos_as_xyz
  1  'x, y, z'
loop_
 _atom_site_type_symbol
 _atom_site_label
 _atom_site_symmetry_multiplicity
 _atom_site_fract_x
 _atom_site_fract_y
 _atom_site_fract_z
 _atom_site_occupancy
  Nd  Nd0  1  0.686125  0.499999  0.011170  1
  Nd  Nd1  1  0.004650  0.499999  0.191932  1
  Nd  Nd2  1  0.498785  0.000000  0.302541  1
  Nd  Nd3  1  0.187142  0.000000  0.488728  1
  Nd  Nd4  1  0.812746  0.499999  0.511685  1
  Nd  Nd5  1  0.496205  0.499999  0.695981  1
  Nd  Nd6  1  0.002348  0.000000  0.807992  1
  Er  Er7  1  0.313203  0.000000  0.989792  1
  Se  Se8  1  0.876432  0.000000  0.044005  1
  Se  Se9  1  0.438891  0.499999  0.114767  1
  Se  Se10  1  0.202322  0.000000  0.224465  1
  Se  Se11  1  0.696946  0.499999  0.270340  1
  Se  Se12  1  0.944859  0.000000  0.378133  1
  Se  Se13  1  0.374586  0.499999  0.455110  1
  Se  Se14  1  0.623764  0.000000  0.544721  1
  Se  Se15  1  0.056416  0.499999  0.621303  1
  Se  Se16  1  0.297914  0.000000  0.734102  1
  Se  Se17  1  0.801499  0.499999  0.772694  1
  Se  Se18  1  0.549848  0.000000  0.883667  1
  Se  Se19  1  0.135317  0.499999  0.956863  1
