# generated using pymatgen
data_Yb2BHN2
_symmetry_space_group_name_H-M   'P 1'
_cell_length_a   3.63715400
_cell_length_b   9.13691300
_cell_length_c   9.86006300
_cell_angle_alpha   90.00000000
_cell_angle_beta   90.00000000
_cell_angle_gamma   90.00000000
_symmetry_Int_Tables_number   1
_chemical_formula_structural   Yb2BHN2
_chemical_formula_sum   'Yb8 B4 H4 N8'
_cell_volume   327.67315994
_cell_formula_units_Z   4
loop_
 _symmetry_equiv_pos_site_id
 _symmetry_equiv_pos_as_xyz
  1  'x, y, z'
loop_
 _atom_site_type_symbol
 _atom_site_label
 _atom_site_symmetry_multiplicity
 _atom_site_fract_x
 _atom_site_fract_y
 _atom_site_fract_z
 _atom_site_occupancy
  Yb  Yb0  1  0.250000  0.678546  0.522457  1
  Yb  Yb1  1  0.750000  0.321454  0.477543  1
  Yb  Yb2  1  0.250000  0.178546  0.977543  1
  Yb  Yb3  1  0.750000  0.821454  0.022457  1
  Yb  Yb4  1  0.250000  0.525544  0.155265  1
  Yb  Yb5  1  0.750000  0.474456  0.844735  1
  Yb  Yb6  1  0.250000  0.025544  0.344735  1
  Yb  Yb7  1  0.750000  0.974456  0.655265  1
  B  B8  1  0.250000  0.733613  0.824030  1
  B  B9  1  0.750000  0.266387  0.175970  1
  B  B10  1  0.250000  0.233613  0.675970  1
  B  B11  1  0.750000  0.766387  0.324030  1
  H  H12  1  0.250000  0.958615  0.104519  1
  H  H13  1  0.750000  0.041385  0.895481  1
  H  H14  1  0.250000  0.458615  0.395481  1
  H  H15  1  0.750000  0.541385  0.604519  1
  N  N16  1  0.750000  0.678615  0.216679  1
  N  N17  1  0.250000  0.321385  0.783321  1
  N  N18  1  0.750000  0.178615  0.283321  1
  N  N19  1  0.250000  0.821385  0.716679  1
  N  N20  1  0.750000  0.848420  0.438386  1
  N  N21  1  0.250000  0.151580  0.561614  1
  N  N22  1  0.750000  0.348420  0.061614  1
  N  N23  1  0.250000  0.651580  0.938386  1
