# generated using pymatgen
data_Y2AsSe
_symmetry_space_group_name_H-M   'P 1'
_cell_length_a   7.13477272
_cell_length_b   7.13477226
_cell_length_c   7.13477181
_cell_angle_alpha   33.44301674
_cell_angle_beta   33.44302418
_cell_angle_gamma   33.44302296
_symmetry_Int_Tables_number   1
_chemical_formula_structural   Y2AsSe
_chemical_formula_sum   'Y2 As1 Se1'
_cell_volume   98.23682797
_cell_formula_units_Z   1
loop_
 _symmetry_equiv_pos_site_id
 _symmetry_equiv_pos_as_xyz
  1  'x, y, z'
loop_
 _atom_site_type_symbol
 _atom_site_label
 _atom_site_symmetry_multiplicity
 _atom_site_fract_x
 _atom_site_fract_y
 _atom_site_fract_z
 _atom_site_occupancy
  Y  Y0  1  0.254156  0.254156  0.254156  1
  Y  Y1  1  0.745844  0.745844  0.745844  1
  As  As2  1  0.000000  0.000000  0.000000  1
  Se  Se3  1  0.500000  0.500000  0.500000  1
