# generated using pymatgen
data_TaTi2V9Si10
_symmetry_space_group_name_H-M   'P 1'
_cell_length_a   4.86838545
_cell_length_b   7.57489789
_cell_length_c   9.20399609
_cell_angle_alpha   65.74626587
_cell_angle_beta   74.66446730
_cell_angle_gamma   90.00000417
_symmetry_Int_Tables_number   1
_chemical_formula_structural   TaTi2V9Si10
_chemical_formula_sum   'Ta1 Ti2 V9 Si10'
_cell_volume   296.15610970
_cell_formula_units_Z   1
loop_
 _symmetry_equiv_pos_site_id
 _symmetry_equiv_pos_as_xyz
  1  'x, y, z'
loop_
 _atom_site_type_symbol
 _atom_site_label
 _atom_site_symmetry_multiplicity
 _atom_site_fract_x
 _atom_site_fract_y
 _atom_site_fract_z
 _atom_site_occupancy
  Ta  Ta0  1  0.857985  0.742624  0.284032  1
  Ti  Ti1  1  0.642256  0.029098  0.715490  1
  Ti  Ti2  1  0.357492  0.972629  0.285015  1
  V  V3  1  0.439336  0.690871  0.621124  1
  V  V4  1  0.059619  0.311141  0.379305  1
  V  V5  1  0.561076  0.311141  0.379305  1
  V  V6  1  0.939539  0.690871  0.621124  1
  V  V7  1  0.435327  0.681860  0.129346  1
  V  V8  1  0.564606  0.318152  0.870790  1
  V  V9  1  0.935812  0.188645  0.128378  1
  V  V10  1  0.063865  0.809273  0.872270  1
  V  V11  1  0.142556  0.257288  0.714886  1
  Si  Si12  1  0.064742  0.473874  0.870517  1
  Si  Si13  1  0.937504  0.519174  0.124993  1
  Si  Si14  1  0.563071  0.649229  0.873856  1
  Si  Si15  1  0.436503  0.350168  0.126995  1
  Si  Si16  1  0.751380  0.002463  0.996717  1
  Si  Si17  1  0.251902  0.002463  0.996717  1
  Si  Si18  1  0.284480  0.578900  0.431041  1
  Si  Si19  1  0.712409  0.415546  0.575182  1
  Si  Si20  1  0.786133  0.992158  0.427733  1
  Si  Si21  1  0.212408  0.012432  0.575185  1
