# generated using pymatgen
data_HoEr3Tc5Os3
_symmetry_space_group_name_H-M   'P 1'
_cell_length_a   5.31031469
_cell_length_b   5.24346637
_cell_length_c   9.00394200
_cell_angle_alpha   90.00008939
_cell_angle_beta   89.99909488
_cell_angle_gamma   119.50436970
_symmetry_Int_Tables_number   1
_chemical_formula_structural   HoEr3Tc5Os3
_chemical_formula_sum   'Ho1 Er3 Tc5 Os3'
_cell_volume   218.19734840
_cell_formula_units_Z   1
loop_
 _symmetry_equiv_pos_site_id
 _symmetry_equiv_pos_as_xyz
  1  'x, y, z'
loop_
 _atom_site_type_symbol
 _atom_site_label
 _atom_site_symmetry_multiplicity
 _atom_site_fract_x
 _atom_site_fract_y
 _atom_site_fract_z
 _atom_site_occupancy
  Ho  Ho0  1  0.332264  0.665998  0.437208  1
  Er  Er1  1  0.669411  0.334802  0.564670  1
  Er  Er2  1  0.669408  0.334807  0.935403  1
  Er  Er3  1  0.332176  0.665963  0.062806  1
  Tc  Tc4  1  0.828305  0.171397  0.249766  1
  Tc  Tc5  1  0.827944  0.656135  0.249758  1
  Tc  Tc6  1  0.341629  0.171176  0.249760  1
  Tc  Tc7  1  0.169691  0.829641  0.750188  1
  Tc  Tc8  1  0.170094  0.340354  0.750192  1
  Os  Os9  1  0.002981  0.001547  0.500591  1
  Os  Os10  1  0.003026  0.001561  0.999458  1
  Os  Os11  1  0.653072  0.826617  0.750200  1
