# generated using pymatgen
data_U4Re7Ge6
_symmetry_space_group_name_H-M   'P 1'
_cell_length_a   7.25546267
_cell_length_b   7.25546215
_cell_length_c   7.25546200
_cell_angle_alpha   109.47121742
_cell_angle_beta   109.47121598
_cell_angle_gamma   109.47122673
_symmetry_Int_Tables_number   1
_chemical_formula_structural   U4Re7Ge6
_chemical_formula_sum   'U4 Re7 Ge6'
_cell_volume   294.01763736
_cell_formula_units_Z   1
loop_
 _symmetry_equiv_pos_site_id
 _symmetry_equiv_pos_as_xyz
  1  'x, y, z'
loop_
 _atom_site_type_symbol
 _atom_site_label
 _atom_site_symmetry_multiplicity
 _atom_site_fract_x
 _atom_site_fract_y
 _atom_site_fract_z
 _atom_site_occupancy
  U  U0  1  0.000000  0.000000  0.500000  1
  U  U1  1  0.000000  0.500000  0.000000  1
  U  U2  1  0.500000  0.000000  0.000000  1
  U  U3  1  0.500000  0.500000  0.500000  1
  Re  Re4  1  0.750000  0.250000  0.500000  1
  Re  Re5  1  0.750000  0.500000  0.250000  1
  Re  Re6  1  0.500000  0.250000  0.750000  1
  Re  Re7  1  0.250000  0.500000  0.750000  1
  Re  Re8  1  0.250000  0.750000  0.500000  1
  Re  Re9  1  0.500000  0.750000  0.250000  1
  Re  Re10  1  0.000000  0.000000  0.000000  1
  Ge  Ge11  1  0.692593  0.692593  0.000000  1
  Ge  Ge12  1  0.307407  0.000000  0.307407  1
  Ge  Ge13  1  0.000000  0.307407  0.307407  1
  Ge  Ge14  1  0.307407  0.307407  0.000000  1
  Ge  Ge15  1  0.692593  0.000000  0.692593  1
  Ge  Ge16  1  0.000000  0.692593  0.692593  1
