# generated using pymatgen
data_LiMg3TaNb7N12
_symmetry_space_group_name_H-M   'P 1'
_cell_length_a   5.27089900
_cell_length_b   5.27089837
_cell_length_c   10.44224100
_cell_angle_alpha   90.00000000
_cell_angle_beta   90.00000000
_cell_angle_gamma   119.99999766
_symmetry_Int_Tables_number   1
_chemical_formula_structural   LiMg3TaNb7N12
_chemical_formula_sum   'Li1 Mg3 Ta1 Nb7 N12'
_cell_volume   251.24283853
_cell_formula_units_Z   1
loop_
 _symmetry_equiv_pos_site_id
 _symmetry_equiv_pos_as_xyz
  1  'x, y, z'
loop_
 _atom_site_type_symbol
 _atom_site_label
 _atom_site_symmetry_multiplicity
 _atom_site_fract_x
 _atom_site_fract_y
 _atom_site_fract_z
 _atom_site_occupancy
  Li  Li0  1  0.333333  0.666667  0.000000  1
  Mg  Mg1  1  0.333333  0.666667  0.500000  1
  Mg  Mg2  1  0.666667  0.333333  0.500000  1
  Mg  Mg3  1  0.666667  0.333333  0.000000  1
  Ta  Ta4  1  0.000000  0.000000  0.000000  1
  Nb  Nb5  1  0.001960  0.341232  0.248983  1
  Nb  Nb6  1  0.658768  0.998040  0.751017  1
  Nb  Nb7  1  0.339272  0.341232  0.751017  1
  Nb  Nb8  1  0.000000  0.000000  0.500000  1
  Nb  Nb9  1  0.658768  0.660728  0.248983  1
  Nb  Nb10  1  0.339272  0.998040  0.248983  1
  Nb  Nb11  1  0.001960  0.660728  0.751017  1
  N  N12  1  0.669345  0.668991  0.621378  1
  N  N13  1  0.675922  0.674117  0.879039  1
  N  N14  1  0.325883  0.324078  0.120961  1
  N  N15  1  0.331009  0.330655  0.378622  1
  N  N16  1  0.325883  0.001806  0.879039  1
  N  N17  1  0.331009  0.000353  0.621378  1
  N  N18  1  0.999647  0.668991  0.378622  1
  N  N19  1  0.998194  0.674117  0.120961  1
  N  N20  1  0.675922  0.001806  0.120961  1
  N  N21  1  0.669345  0.000353  0.378622  1
  N  N22  1  0.998194  0.324078  0.879039  1
  N  N23  1  0.999647  0.330655  0.621378  1
