# generated using pymatgen
data_Sm3Tc4BiF28
_symmetry_space_group_name_H-M   'P 1'
_cell_length_a   5.68321600
_cell_length_b   9.11915519
_cell_length_c   12.24564881
_cell_angle_alpha   62.19176995
_cell_angle_beta   90.04062280
_cell_angle_gamma   89.94189633
_symmetry_Int_Tables_number   1
_chemical_formula_structural   Sm3Tc4BiF28
_chemical_formula_sum   'Sm3 Tc4 Bi1 F28'
_cell_volume   561.35120159
_cell_formula_units_Z   1
loop_
 _symmetry_equiv_pos_site_id
 _symmetry_equiv_pos_as_xyz
  1  'x, y, z'
loop_
 _atom_site_type_symbol
 _atom_site_label
 _atom_site_symmetry_multiplicity
 _atom_site_fract_x
 _atom_site_fract_y
 _atom_site_fract_z
 _atom_site_occupancy
  Sm  Sm0  1  0.258168  0.191265  0.735603  1
  Sm  Sm1  1  0.241125  0.187848  0.235163  1
  Sm  Sm2  1  0.741840  0.812966  0.264388  1
  Tc  Tc3  1  0.756533  0.272163  0.958002  1
  Tc  Tc4  1  0.257077  0.727031  0.541693  1
  Tc  Tc5  1  0.243470  0.726719  0.043320  1
  Tc  Tc6  1  0.743101  0.274138  0.457026  1
  Bi  Bi7  1  0.762177  0.817824  0.762965  1
  F  F8  1  0.439632  0.706799  0.920101  1
  F  F9  1  0.943173  0.291162  0.581373  1
  F  F10  1  0.556579  0.290621  0.081445  1
  F  F11  1  0.056597  0.708515  0.417921  1
  F  F12  1  0.455008  0.279480  0.545421  1
  F  F13  1  0.952514  0.719377  0.957605  1
  F  F14  1  0.546051  0.719849  0.454648  1
  F  F15  1  0.045381  0.279073  0.045132  1
  F  F16  1  0.770006  0.512436  0.861666  1
  F  F17  1  0.269657  0.483412  0.638585  1
  F  F18  1  0.230749  0.483517  0.139698  1
  F  F19  1  0.730370  0.516287  0.360825  1
  F  F20  1  0.757978  0.029210  0.053112  1
  F  F21  1  0.258109  0.969340  0.447112  1
  F  F22  1  0.242357  0.969366  0.946895  1
  F  F23  1  0.742433  0.030678  0.551275  1
  F  F24  1  0.976136  0.728828  0.633726  1
  F  F25  1  0.477256  0.268928  0.863826  1
  F  F26  1  0.022122  0.269945  0.364075  1
  F  F27  1  0.522952  0.729936  0.136771  1
  F  F28  1  0.048289  0.744872  0.169972  1
  F  F29  1  0.548038  0.255441  0.330923  1
  F  F30  1  0.951384  0.254236  0.830924  1
  F  F31  1  0.447375  0.743915  0.669328  1
  F  F32  1  0.414115  0.969997  0.231085  1
  F  F33  1  0.914477  0.031044  0.268777  1
  F  F34  1  0.589645  0.032646  0.769429  1
  F  F35  1  0.088128  0.971136  0.730190  1
