# generated using pymatgen
data_Li4Hf8V3(P3O16)3
_symmetry_space_group_name_H-M   'P 1'
_cell_length_a   9.00380119
_cell_length_b   9.02776559
_cell_length_c   12.75831702
_cell_angle_alpha   90.40512546
_cell_angle_beta   91.35664692
_cell_angle_gamma   90.26436779
_symmetry_Int_Tables_number   1
_chemical_formula_structural   Li4Hf8V3(P3O16)3
_chemical_formula_sum   'Li4 Hf8 V3 P9 O48'
_cell_volume   1036.72120540
_cell_formula_units_Z   1
loop_
 _symmetry_equiv_pos_site_id
 _symmetry_equiv_pos_as_xyz
  1  'x, y, z'
loop_
 _atom_site_type_symbol
 _atom_site_label
 _atom_site_symmetry_multiplicity
 _atom_site_fract_x
 _atom_site_fract_y
 _atom_site_fract_z
 _atom_site_occupancy
  Li  Li0  1  0.778673  0.723516  0.820521  1
  Li  Li1  1  0.277139  0.776944  0.323682  1
  Li  Li2  1  0.224586  0.275661  0.181902  1
  Li  Li3  1  0.702327  0.226369  0.677898  1
  Hf  Hf4  1  0.250674  0.513445  0.881583  1
  Hf  Hf5  1  0.745896  0.981072  0.388142  1
  Hf  Hf6  1  0.758210  0.480710  0.110768  1
  Hf  Hf7  1  0.254250  0.028696  0.614506  1
  Hf  Hf8  1  0.268791  0.952790  0.116170  1
  Hf  Hf9  1  0.758248  0.545463  0.615464  1
  Hf  Hf10  1  0.736447  0.043302  0.882820  1
  Hf  Hf11  1  0.235184  0.456646  0.392231  1
  V  V12  1  0.100574  0.881092  0.851712  1
  V  V13  1  0.596277  0.618940  0.350796  1
  V  V14  1  0.905514  0.116804  0.147093  1
  P  P15  1  0.400982  0.383594  0.644102  1
  P  P16  1  0.119726  0.595483  0.143667  1
  P  P17  1  0.609228  0.899145  0.643890  1
  P  P18  1  0.886299  0.398569  0.853032  1
  P  P19  1  0.387202  0.101211  0.358236  1
  P  P20  1  0.534360  0.749293  0.985292  1
  P  P21  1  0.029420  0.751747  0.491911  1
  P  P22  1  0.469830  0.245724  0.011732  1
  P  P23  1  0.964514  0.254511  0.516249  1
  O  O24  1  0.452103  0.858858  0.056452  1
  O  O25  1  0.944620  0.643564  0.562943  1
  O  O26  1  0.550624  0.134663  0.940699  1
  O  O27  1  0.046451  0.365542  0.446138  1
  O  O28  1  0.179553  0.547123  0.037034  1
  O  O29  1  0.670811  0.942181  0.537384  1
  O  O30  1  0.831518  0.444011  0.961113  1
  O  O31  1  0.323128  0.050582  0.462196  1
  O  O32  1  0.425131  0.659107  0.916049  1
  O  O33  1  0.920688  0.836102  0.419869  1
  O  O34  1  0.581393  0.335592  0.079062  1
  O  O35  1  0.075405  0.169895  0.585897  1
  O  O36  1  0.323333  0.468889  0.731860  1
  O  O37  1  0.811967  0.014441  0.238108  1
  O  O38  1  0.685747  0.513706  0.259451  1
  O  O39  1  0.193095  0.992938  0.765533  1
  O  O40  1  0.156363  0.925368  0.979570  1
  O  O41  1  0.658709  0.572954  0.476084  1
  O  O42  1  0.846581  0.070295  0.019880  1
  O  O43  1  0.340680  0.433313  0.534492  1
  O  O44  1  0.189496  0.749377  0.177141  1
  O  O45  1  0.676069  0.746381  0.678313  1
  O  O46  1  0.814726  0.246380  0.819793  1
  O  O47  1  0.317414  0.254751  0.327985  1
  O  O48  1  0.056593  0.389696  0.852819  1
  O  O49  1  0.557270  0.113699  0.363851  1
  O  O50  1  0.949198  0.608377  0.139032  1
  O  O51  1  0.438993  0.892291  0.640555  1
  O  O52  1  0.097754  0.090943  0.162413  1
  O  O53  1  0.572371  0.412020  0.652855  1
  O  O54  1  0.907440  0.904412  0.836398  1
  O  O55  1  0.403022  0.593250  0.343177  1
  O  O56  1  0.374069  0.344988  0.940403  1
  O  O57  1  0.873410  0.150571  0.443952  1
  O  O58  1  0.630657  0.649657  0.055791  1
  O  O59  1  0.122053  0.856862  0.562481  1
  O  O60  1  0.339573  0.981211  0.274641  1
  O  O61  1  0.829986  0.519315  0.773937  1
  O  O62  1  0.661531  0.020963  0.724581  1
  O  O63  1  0.166476  0.478450  0.228803  1
  O  O64  1  0.363107  0.161827  0.085927  1
  O  O65  1  0.851986  0.337598  0.587170  1
  O  O66  1  0.641265  0.835398  0.912522  1
  O  O67  1  0.139283  0.664291  0.421217  1
  O  O68  1  0.134312  0.696712  0.828882  1
  O  O69  1  0.623026  0.803837  0.329754  1
  O  O70  1  0.877735  0.301933  0.167171  1
  O  O71  1  0.378934  0.214955  0.655223  1
