# generated using pymatgen
data_Dy2Co9Tc3As7
_symmetry_space_group_name_H-M   'P 1'
_cell_length_a   3.83038300
_cell_length_b   9.37195155
_cell_length_c   9.37195300
_cell_angle_alpha   120.00000157
_cell_angle_beta   90.00000000
_cell_angle_gamma   90.00000000
_symmetry_Int_Tables_number   1
_chemical_formula_structural   Dy2Co9Tc3As7
_chemical_formula_sum   'Dy2 Co9 Tc3 As7'
_cell_volume   291.36203580
_cell_formula_units_Z   1
loop_
 _symmetry_equiv_pos_site_id
 _symmetry_equiv_pos_as_xyz
  1  'x, y, z'
loop_
 _atom_site_type_symbol
 _atom_site_label
 _atom_site_symmetry_multiplicity
 _atom_site_fract_x
 _atom_site_fract_y
 _atom_site_fract_z
 _atom_site_occupancy
  Dy  Dy0  1  0.000000  0.666667  0.333333  1
  Dy  Dy1  1  0.500000  0.333333  0.666667  1
  Co  Co2  1  0.000000  0.568995  0.940844  1
  Co  Co3  1  0.000000  0.371849  0.431005  1
  Co  Co4  1  0.000000  0.059156  0.628151  1
  Co  Co5  1  0.000000  0.875371  0.157282  1
  Co  Co6  1  0.000000  0.281910  0.124629  1
  Co  Co7  1  0.000000  0.842718  0.718090  1
  Co  Co8  1  0.500000  0.946765  0.380788  1
  Co  Co9  1  0.500000  0.434022  0.053235  1
  Co  Co10  1  0.500000  0.619212  0.565978  1
  Tc  Tc11  1  0.500000  0.782791  0.900299  1
  Tc  Tc12  1  0.500000  0.117508  0.217209  1
  Tc  Tc13  1  0.500000  0.099701  0.882492  1
  As  As14  1  0.000000  0.000000  0.000000  1
  As  As15  1  0.500000  0.706538  0.116660  1
  As  As16  1  0.500000  0.410123  0.293462  1
  As  As17  1  0.500000  0.883340  0.589877  1
  As  As18  1  0.000000  0.587566  0.701651  1
  As  As19  1  0.000000  0.114085  0.412434  1
  As  As20  1  0.000000  0.298349  0.885915  1
