# generated using pymatgen
data_Nd3Dy3Al24Ru5Pt3
_symmetry_space_group_name_H-M   'P 1'
_cell_length_a   8.88564257
_cell_length_b   8.86988160
_cell_length_c   9.57760963
_cell_angle_alpha   89.78578404
_cell_angle_beta   89.96455541
_cell_angle_gamma   119.76294947
_symmetry_Int_Tables_number   1
_chemical_formula_structural   Nd3Dy3Al24Ru5Pt3
_chemical_formula_sum   'Nd3 Dy3 Al24 Ru5 Pt3'
_cell_volume   655.27268855
_cell_formula_units_Z   1
loop_
 _symmetry_equiv_pos_site_id
 _symmetry_equiv_pos_as_xyz
  1  'x, y, z'
loop_
 _atom_site_type_symbol
 _atom_site_label
 _atom_site_symmetry_multiplicity
 _atom_site_fract_x
 _atom_site_fract_y
 _atom_site_fract_z
 _atom_site_occupancy
  Nd  Nd0  1  0.188374  0.809646  0.250656  1
  Nd  Nd1  1  0.187762  0.380920  0.248587  1
  Nd  Nd2  1  0.619631  0.811296  0.250206  1
  Dy  Dy3  1  0.809460  0.193163  0.750117  1
  Dy  Dy4  1  0.810954  0.615015  0.751595  1
  Dy  Dy5  1  0.383814  0.189932  0.750210  1
  Al  Al6  1  0.564979  0.435118  0.251108  1
  Al  Al7  1  0.563283  0.128212  0.245648  1
  Al  Al8  1  0.874390  0.438024  0.251072  1
  Al  Al9  1  0.436531  0.563157  0.749116  1
  Al  Al10  1  0.438548  0.875319  0.753043  1
  Al  Al11  1  0.121338  0.559705  0.749095  1
  Al  Al12  1  0.323904  0.162238  0.426030  1
  Al  Al13  1  0.840565  0.167791  0.426714  1
  Al  Al14  1  0.841125  0.673451  0.428118  1
  Al  Al15  1  0.678560  0.838579  0.580187  1
  Al  Al16  1  0.157780  0.832928  0.579555  1
  Al  Al17  1  0.157822  0.323986  0.578210  1
  Al  Al18  1  0.676605  0.842523  0.921129  1
  Al  Al19  1  0.162773  0.836800  0.920971  1
  Al  Al20  1  0.157828  0.324201  0.921052  1
  Al  Al21  1  0.325533  0.158499  0.072283  1
  Al  Al22  1  0.836545  0.164985  0.072791  1
  Al  Al23  1  0.841431  0.673913  0.072814  1
  Al  Al24  1  0.672506  0.336271  0.530667  1
  Al  Al25  1  0.326974  0.663361  0.478673  1
  Al  Al26  1  0.330610  0.670078  0.018836  1
  Al  Al27  1  0.669398  0.330434  0.972418  1
  Al  Al28  1  0.996763  0.000991  0.249844  1
  Al  Al29  1  0.002389  0.999008  0.750194  1
  Ru  Ru30  1  0.000116  0.000055  0.501127  1
  Ru  Ru31  1  0.000117  0.000265  0.998949  1
  Ru  Ru32  1  0.998339  0.498892  0.502739  1
  Ru  Ru33  1  0.501356  0.002059  0.996942  1
  Ru  Ru34  1  0.998462  0.499245  0.997084  1
  Pt  Pt35  1  0.500972  0.498957  0.502395  1
  Pt  Pt36  1  0.501122  0.001594  0.502238  1
  Pt  Pt37  1  0.501342  0.499387  0.997585  1
