# generated using pymatgen
data_Er7Tm3Sn5Bi
_symmetry_space_group_name_H-M   'P 1'
_cell_length_a   8.89908702
_cell_length_b   8.90742203
_cell_length_c   6.45588602
_cell_angle_alpha   89.99250416
_cell_angle_beta   90.00612416
_cell_angle_gamma   119.97169526
_symmetry_Int_Tables_number   1
_chemical_formula_structural   Er7Tm3Sn5Bi
_chemical_formula_sum   'Er7 Tm3 Sn5 Bi1'
_cell_volume   443.31023875
_cell_formula_units_Z   1
loop_
 _symmetry_equiv_pos_site_id
 _symmetry_equiv_pos_as_xyz
  1  'x, y, z'
loop_
 _atom_site_type_symbol
 _atom_site_label
 _atom_site_symmetry_multiplicity
 _atom_site_fract_x
 _atom_site_fract_y
 _atom_site_fract_z
 _atom_site_occupancy
  Er  Er0  1  0.993477  0.757762  0.749951  1
  Er  Er1  1  0.000524  0.238722  0.250055  1
  Er  Er2  1  0.761840  0.761221  0.250085  1
  Er  Er3  1  0.765247  0.000018  0.749946  1
  Er  Er4  1  0.235712  0.242174  0.749967  1
  Er  Er5  1  0.237353  0.000011  0.250021  1
  Er  Er6  1  0.332928  0.662443  0.001759  1
  Tm  Tm7  1  0.332899  0.662292  0.498123  1
  Tm  Tm8  1  0.670630  0.337719  0.001888  1
  Tm  Tm9  1  0.670606  0.337690  0.498143  1
  Sn  Sn10  1  0.395449  0.392815  0.250247  1
  Sn  Sn11  1  0.002168  0.606944  0.250251  1
  Sn  Sn12  1  0.998864  0.395440  0.749764  1
  Sn  Sn13  1  0.603691  0.604303  0.749760  1
  Sn  Sn14  1  0.605537  0.000260  0.250208  1
  Bi  Bi15  1  0.393072  0.000186  0.749833  1
