# generated using pymatgen
data_Y6PdRu
_symmetry_space_group_name_H-M   'P 1'
_cell_length_a   6.41072904
_cell_length_b   7.25307050
_cell_length_c   9.48102300
_cell_angle_alpha   90.00000000
_cell_angle_beta   90.00000000
_cell_angle_gamma   90.06241832
_symmetry_Int_Tables_number   1
_chemical_formula_structural   Y6PdRu
_chemical_formula_sum   'Y12 Pd2 Ru2'
_cell_volume   440.84331751
_cell_formula_units_Z   2
loop_
 _symmetry_equiv_pos_site_id
 _symmetry_equiv_pos_as_xyz
  1  'x, y, z'
loop_
 _atom_site_type_symbol
 _atom_site_label
 _atom_site_symmetry_multiplicity
 _atom_site_fract_x
 _atom_site_fract_y
 _atom_site_fract_z
 _atom_site_occupancy
  Y  Y0  1  0.626221  0.039526  0.250000  1
  Y  Y1  1  0.373779  0.960474  0.750000  1
  Y  Y2  1  0.134636  0.472867  0.750000  1
  Y  Y3  1  0.865364  0.527133  0.250000  1
  Y  Y4  1  0.177807  0.183472  0.063209  1
  Y  Y5  1  0.822193  0.816528  0.936791  1
  Y  Y6  1  0.667840  0.324567  0.939055  1
  Y  Y7  1  0.822193  0.816528  0.563209  1
  Y  Y8  1  0.332160  0.675433  0.060945  1
  Y  Y9  1  0.177807  0.183472  0.436791  1
  Y  Y10  1  0.332160  0.675433  0.439055  1
  Y  Y11  1  0.667840  0.324567  0.560945  1
  Pd  Pd12  1  0.949501  0.113188  0.750000  1
  Pd  Pd13  1  0.050499  0.886812  0.250000  1
  Ru  Ru14  1  0.452033  0.385059  0.250000  1
  Ru  Ru15  1  0.547967  0.614941  0.750000  1
