# generated using pymatgen
data_TbHo2UGa12Ag
_symmetry_space_group_name_H-M   'P 1'
_cell_length_a   7.52163308
_cell_length_b   7.50155697
_cell_length_c   7.52163139
_cell_angle_alpha   109.39664081
_cell_angle_beta   109.45983156
_cell_angle_gamma   109.39662230
_symmetry_Int_Tables_number   1
_chemical_formula_structural   TbHo2UGa12Ag
_chemical_formula_sum   'Tb1 Ho2 U1 Ga12 Ag1'
_cell_volume   327.34914291
_cell_formula_units_Z   1
loop_
 _symmetry_equiv_pos_site_id
 _symmetry_equiv_pos_as_xyz
  1  'x, y, z'
loop_
 _atom_site_type_symbol
 _atom_site_label
 _atom_site_symmetry_multiplicity
 _atom_site_fract_x
 _atom_site_fract_y
 _atom_site_fract_z
 _atom_site_occupancy
  Tb  Tb0  1  0.000000  0.500000  0.000000  1
  Ho  Ho1  1  0.000000  0.000000  0.500000  1
  Ho  Ho2  1  0.500000  0.000000  0.000000  1
  U  U3  1  0.500000  0.500000  0.500000  1
  Ga  Ga4  1  0.500811  0.750137  0.250689  1
  Ga  Ga5  1  0.499189  0.249863  0.749311  1
  Ga  Ga6  1  0.250833  0.500000  0.749167  1
  Ga  Ga7  1  0.749167  0.500000  0.250833  1
  Ga  Ga8  1  0.749311  0.249863  0.499189  1
  Ga  Ga9  1  0.250689  0.750137  0.500811  1
  Ga  Ga10  1  0.004828  0.305912  0.306627  1
  Ga  Ga11  1  0.995172  0.694088  0.693373  1
  Ga  Ga12  1  0.306359  0.005319  0.306359  1
  Ga  Ga13  1  0.693641  0.994681  0.693641  1
  Ga  Ga14  1  0.306627  0.305912  0.004828  1
  Ga  Ga15  1  0.693373  0.694088  0.995172  1
  Ag  Ag16  1  0.000000  0.000000  0.000000  1
