# generated using pymatgen
data_Sm4FeRuC8
_symmetry_space_group_name_H-M   'P 1'
_cell_length_a   5.25941129
_cell_length_b   6.76450250
_cell_length_c   6.76450340
_cell_angle_alpha   69.01246220
_cell_angle_beta   67.12320618
_cell_angle_gamma   67.12320463
_symmetry_Int_Tables_number   1
_chemical_formula_structural   Sm4FeRuC8
_chemical_formula_sum   'Sm4 Fe1 Ru1 C8'
_cell_volume   198.12268309
_cell_formula_units_Z   1
loop_
 _symmetry_equiv_pos_site_id
 _symmetry_equiv_pos_as_xyz
  1  'x, y, z'
loop_
 _atom_site_type_symbol
 _atom_site_label
 _atom_site_symmetry_multiplicity
 _atom_site_fract_x
 _atom_site_fract_y
 _atom_site_fract_z
 _atom_site_occupancy
  Sm  Sm0  1  0.148521  0.198600  0.506843  1
  Sm  Sm1  1  0.853962  0.801400  0.493157  1
  Sm  Sm2  1  0.646038  0.506843  0.198600  1
  Sm  Sm3  1  0.351479  0.493157  0.801400  1
  Fe  Fe4  1  0.250000  0.000000  0.000000  1
  Ru  Ru5  1  0.750000  0.000000  0.000000  1
  C  C6  1  0.371123  0.791601  0.459670  1
  C  C7  1  0.622393  0.208399  0.540330  1
  C  C8  1  0.877607  0.459670  0.791601  1
  C  C9  1  0.128877  0.540330  0.208399  1
  C  C10  1  0.402561  0.908698  0.244320  1
  C  C11  1  0.555579  0.091302  0.755680  1
  C  C12  1  0.944421  0.244320  0.908698  1
  C  C13  1  0.097439  0.755680  0.091302  1
