# generated using pymatgen
data_Tm6Si24OsRu7
_symmetry_space_group_name_H-M   'P 1'
_cell_length_a   10.08860100
_cell_length_b   10.08860224
_cell_length_c   8.10427500
_cell_angle_alpha   89.99572120
_cell_angle_beta   89.99571777
_cell_angle_gamma   132.62351389
_symmetry_Int_Tables_number   1
_chemical_formula_structural   Tm6Si24OsRu7
_chemical_formula_sum   'Tm6 Si24 Os1 Ru7'
_cell_volume   606.94207680
_cell_formula_units_Z   1
loop_
 _symmetry_equiv_pos_site_id
 _symmetry_equiv_pos_as_xyz
  1  'x, y, z'
loop_
 _atom_site_type_symbol
 _atom_site_label
 _atom_site_symmetry_multiplicity
 _atom_site_fract_x
 _atom_site_fract_y
 _atom_site_fract_z
 _atom_site_occupancy
  Tm  Tm0  1  0.499997  0.500003  0.500000  1
  Tm  Tm1  1  0.000015  0.999985  0.000000  1
  Tm  Tm2  1  0.502665  0.002763  0.750211  1
  Tm  Tm3  1  0.997237  0.497335  0.249789  1
  Tm  Tm4  1  0.497375  0.997175  0.249735  1
  Tm  Tm5  1  0.002825  0.502625  0.750265  1
  Si  Si6  1  0.795794  0.204206  0.500000  1
  Si  Si7  1  0.295126  0.704874  0.000000  1
  Si  Si8  1  0.204886  0.795114  0.500000  1
  Si  Si9  1  0.704958  0.295042  0.000000  1
  Si  Si10  1  0.332335  0.332464  0.833397  1
  Si  Si11  1  0.667536  0.667665  0.166603  1
  Si  Si12  1  0.167127  0.166910  0.332620  1
  Si  Si13  1  0.833090  0.832873  0.667380  1
  Si  Si14  1  0.122323  0.888105  0.728980  1
  Si  Si15  1  0.111895  0.877677  0.271020  1
  Si  Si16  1  0.611930  0.377847  0.227306  1
  Si  Si17  1  0.622153  0.388070  0.772694  1
  Si  Si18  1  0.877116  0.111161  0.270599  1
  Si  Si19  1  0.888839  0.122884  0.729401  1
  Si  Si20  1  0.387963  0.622527  0.771636  1
  Si  Si21  1  0.377473  0.612037  0.228364  1
  Si  Si22  1  0.344360  0.110950  0.505663  1
  Si  Si23  1  0.889050  0.655640  0.494337  1
  Si  Si24  1  0.387688  0.153958  0.005305  1
  Si  Si25  1  0.846042  0.612312  0.994695  1
  Si  Si26  1  0.653793  0.887650  0.493594  1
  Si  Si27  1  0.112350  0.346207  0.506406  1
  Si  Si28  1  0.612121  0.845805  0.994618  1
  Si  Si29  1  0.154195  0.387879  0.005382  1
  Os  Os30  1  0.669850  0.330150  0.500000  1
  Ru  Ru31  1  0.169904  0.830096  0.000000  1
  Ru  Ru32  1  0.330096  0.669904  0.500000  1
  Ru  Ru33  1  0.830088  0.169912  0.000000  1
  Ru  Ru34  1  0.127632  0.127909  0.627429  1
  Ru  Ru35  1  0.872091  0.872368  0.372571  1
  Ru  Ru36  1  0.373354  0.373273  0.128194  1
  Ru  Ru37  1  0.626727  0.626646  0.871806  1
