# generated using pymatgen
data_ErPu5F18
_symmetry_space_group_name_H-M   'P 1'
_cell_length_a   7.13466500
_cell_length_b   7.12971349
_cell_length_c   7.17202700
_cell_angle_alpha   88.90120777
_cell_angle_beta   90.00000000
_cell_angle_gamma   120.02297155
_symmetry_Int_Tables_number   1
_chemical_formula_structural   ErPu5F18
_chemical_formula_sum   'Er1 Pu5 F18'
_cell_volume   315.79924754
_cell_formula_units_Z   1
loop_
 _symmetry_equiv_pos_site_id
 _symmetry_equiv_pos_as_xyz
  1  'x, y, z'
loop_
 _atom_site_type_symbol
 _atom_site_label
 _atom_site_symmetry_multiplicity
 _atom_site_fract_x
 _atom_site_fract_y
 _atom_site_fract_z
 _atom_site_occupancy
  Er  Er0  1  0.349453  0.000000  0.250000  1
  Pu  Pu1  1  0.655522  0.000000  0.750000  1
  Pu  Pu2  1  0.340613  0.337053  0.752368  1
  Pu  Pu3  1  0.003560  0.662947  0.747632  1
  Pu  Pu4  1  0.659093  0.659270  0.249783  1
  Pu  Pu5  1  0.999822  0.340730  0.250217  1
  F  F6  1  0.306833  0.945521  0.929824  1
  F  F7  1  0.628710  0.687091  0.921825  1
  F  F8  1  0.059919  0.366393  0.923430  1
  F  F9  1  0.312236  0.378496  0.423951  1
  F  F10  1  0.070505  0.700444  0.415942  1
  F  F11  1  0.627868  0.944335  0.419920  1
  F  F12  1  0.683534  0.055665  0.080080  1
  F  F13  1  0.370061  0.299556  0.084058  1
  F  F14  1  0.933740  0.621504  0.076049  1
  F  F15  1  0.693525  0.633607  0.576570  1
  F  F16  1  0.941619  0.312909  0.578175  1
  F  F17  1  0.361311  0.054479  0.570176  1
  F  F18  1  0.666655  0.332530  0.807678  1
  F  F19  1  0.655163  0.320398  0.311167  1
  F  F20  1  0.334764  0.679602  0.188833  1
  F  F21  1  0.334124  0.667470  0.692322  1
  F  F22  1  0.997158  0.000000  0.750000  1
  F  F23  1  0.014212  0.000000  0.250000  1
