# generated using pymatgen
data_ErTm6Co2Tc4Sn23
_symmetry_space_group_name_H-M   'P 1'
_cell_length_a   9.85550304
_cell_length_b   9.79839937
_cell_length_c   9.97035315
_cell_angle_alpha   90.00000228
_cell_angle_beta   91.19925690
_cell_angle_gamma   119.80852157
_symmetry_Int_Tables_number   1
_chemical_formula_structural   ErTm6Co2Tc4Sn23
_chemical_formula_sum   'Er1 Tm6 Co2 Tc4 Sn23'
_cell_volume   835.18648001
_cell_formula_units_Z   1
loop_
 _symmetry_equiv_pos_site_id
 _symmetry_equiv_pos_as_xyz
  1  'x, y, z'
loop_
 _atom_site_type_symbol
 _atom_site_label
 _atom_site_symmetry_multiplicity
 _atom_site_fract_x
 _atom_site_fract_y
 _atom_site_fract_z
 _atom_site_occupancy
  Er  Er0  1  0.000000  0.000000  0.000000  1
  Tm  Tm1  1  0.487852  0.517325  0.301791  1
  Tm  Tm2  1  0.512148  0.482675  0.698209  1
  Tm  Tm3  1  0.487852  0.970528  0.301791  1
  Tm  Tm4  1  0.512148  0.029472  0.698209  1
  Tm  Tm5  1  0.033640  0.516821  0.301361  1
  Tm  Tm6  1  0.966360  0.483179  0.698639  1
  Co  Co7  1  0.348554  0.174277  0.199865  1
  Co  Co8  1  0.651446  0.825723  0.800135  1
  Tc  Tc9  1  0.838673  0.168714  0.211011  1
  Tc  Tc10  1  0.161327  0.831286  0.788989  1
  Tc  Tc11  1  0.838673  0.669960  0.211011  1
  Tc  Tc12  1  0.161327  0.330040  0.788989  1
  Sn  Sn13  1  0.134312  0.894336  0.272238  1
  Sn  Sn14  1  0.865688  0.105664  0.727762  1
  Sn  Sn15  1  0.134312  0.239976  0.272238  1
  Sn  Sn16  1  0.865688  0.760024  0.727762  1
  Sn  Sn17  1  0.747011  0.873506  0.268403  1
  Sn  Sn18  1  0.252989  0.126494  0.731597  1
  Sn  Sn19  1  0.776856  0.225512  0.466259  1
  Sn  Sn20  1  0.223144  0.774488  0.533741  1
  Sn  Sn21  1  0.776856  0.551343  0.466259  1
  Sn  Sn22  1  0.223144  0.448657  0.533741  1
  Sn  Sn23  1  0.448527  0.224263  0.456925  1
  Sn  Sn24  1  0.551473  0.775737  0.543075  1
  Sn  Sn25  1  0.347308  0.998587  0.003431  1
  Sn  Sn26  1  0.652692  0.001413  0.996569  1
  Sn  Sn27  1  0.000000  0.346463  0.000000  1
  Sn  Sn28  1  0.000000  0.653537  0.000000  1
  Sn  Sn29  1  0.652692  0.651279  0.996569  1
  Sn  Sn30  1  0.347308  0.348721  0.003431  1
  Sn  Sn31  1  0.334216  0.667109  0.127225  1
  Sn  Sn32  1  0.665784  0.332891  0.872775  1
  Sn  Sn33  1  0.331059  0.665529  0.824273  1
  Sn  Sn34  1  0.668941  0.334471  0.175727  1
  Sn  Sn35  1  0.000000  0.000000  0.500000  1
