# generated using pymatgen
data_Mo2RuBr12
_symmetry_space_group_name_H-M   'P 1'
_cell_length_a   9.05180916
_cell_length_b   9.05180805
_cell_length_c   7.01264906
_cell_angle_alpha   70.53624107
_cell_angle_beta   70.53624680
_cell_angle_gamma   82.17843412
_symmetry_Int_Tables_number   1
_chemical_formula_structural   Mo2RuBr12
_chemical_formula_sum   'Mo2 Ru1 Br12'
_cell_volume   510.58457419
_cell_formula_units_Z   1
loop_
 _symmetry_equiv_pos_site_id
 _symmetry_equiv_pos_as_xyz
  1  'x, y, z'
loop_
 _atom_site_type_symbol
 _atom_site_label
 _atom_site_symmetry_multiplicity
 _atom_site_fract_x
 _atom_site_fract_y
 _atom_site_fract_z
 _atom_site_occupancy
  Mo  Mo0  1  0.256483  0.256483  0.751045  1
  Mo  Mo1  1  0.743517  0.743517  0.248955  1
  Ru  Ru2  1  0.000000  0.000000  0.000000  1
  Br  Br3  1  0.967263  0.262785  0.741811  1
  Br  Br4  1  0.262785  0.967263  0.741811  1
  Br  Br5  1  0.032737  0.737215  0.258189  1
  Br  Br6  1  0.737215  0.032737  0.258189  1
  Br  Br7  1  0.217020  0.518592  0.789588  1
  Br  Br8  1  0.518592  0.217020  0.789588  1
  Br  Br9  1  0.782980  0.481408  0.210412  1
  Br  Br10  1  0.481408  0.782980  0.210412  1
  Br  Br11  1  0.131553  0.131553  0.162532  1
  Br  Br12  1  0.868447  0.868447  0.837468  1
  Br  Br13  1  0.647936  0.647936  0.638085  1
  Br  Br14  1  0.352064  0.352064  0.361915  1
