# generated using pymatgen
data_Th3Ga22Pd9Au2
_symmetry_space_group_name_H-M   'P 1'
_cell_length_a   8.60115725
_cell_length_b   8.55054955
_cell_length_c   8.60115630
_cell_angle_alpha   89.51127276
_cell_angle_beta   90.17188857
_cell_angle_gamma   89.51128456
_symmetry_Int_Tables_number   1
_chemical_formula_structural   Th3Ga22Pd9Au2
_chemical_formula_sum   'Th3 Ga22 Pd9 Au2'
_cell_volume   632.51977301
_cell_formula_units_Z   1
loop_
 _symmetry_equiv_pos_site_id
 _symmetry_equiv_pos_as_xyz
  1  'x, y, z'
loop_
 _atom_site_type_symbol
 _atom_site_label
 _atom_site_symmetry_multiplicity
 _atom_site_fract_x
 _atom_site_fract_y
 _atom_site_fract_z
 _atom_site_occupancy
  Th  Th0  1  0.000000  0.500000  0.000000  1
  Th  Th1  1  0.500000  0.000000  0.000000  1
  Th  Th2  1  0.000000  0.000000  0.500000  1
  Ga  Ga3  1  0.989799  0.640800  0.646124  1
  Ga  Ga4  1  0.646124  0.640800  0.989799  1
  Ga  Ga5  1  0.644177  0.983393  0.644177  1
  Ga  Ga6  1  0.010201  0.359200  0.353876  1
  Ga  Ga7  1  0.353876  0.359200  0.010201  1
  Ga  Ga8  1  0.355823  0.016607  0.355823  1
  Ga  Ga9  1  0.497532  0.262944  0.733724  1
  Ga  Ga10  1  0.502468  0.737056  0.266276  1
  Ga  Ga11  1  0.266276  0.737056  0.502468  1
  Ga  Ga12  1  0.733724  0.262944  0.497532  1
  Ga  Ga13  1  0.840031  0.136645  0.840031  1
  Ga  Ga14  1  0.144155  0.835795  0.837835  1
  Ga  Ga15  1  0.837835  0.835795  0.144155  1
  Ga  Ga16  1  0.159969  0.863355  0.159969  1
  Ga  Ga17  1  0.855845  0.164205  0.162165  1
  Ga  Ga18  1  0.162165  0.164205  0.855845  1
  Ga  Ga19  1  0.730136  0.491419  0.730136  1
  Ga  Ga20  1  0.479876  0.725619  0.736117  1
  Ga  Ga21  1  0.736117  0.725619  0.479876  1
  Ga  Ga22  1  0.269864  0.508581  0.269864  1
  Ga  Ga23  1  0.520124  0.274381  0.263883  1
  Ga  Ga24  1  0.263883  0.274381  0.520124  1
  Pd  Pd25  1  0.839179  0.834743  0.839179  1
  Pd  Pd26  1  0.160821  0.165257  0.160821  1
  Pd  Pd27  1  0.659553  0.326450  0.986608  1
  Pd  Pd28  1  0.986608  0.326450  0.659553  1
  Pd  Pd29  1  0.335310  0.000000  0.664690  1
  Pd  Pd30  1  0.340447  0.673550  0.013392  1
  Pd  Pd31  1  0.013392  0.673550  0.340447  1
  Pd  Pd32  1  0.664690  0.000000  0.335310  1
  Pd  Pd33  1  0.500000  0.500000  0.500000  1
  Au  Au34  1  0.741367  0.500000  0.258633  1
  Au  Au35  1  0.258633  0.500000  0.741367  1
