# generated using pymatgen
data_La10Bi3Pb3Se2
_symmetry_space_group_name_H-M   'P 1'
_cell_length_a   9.79124100
_cell_length_b   9.79124087
_cell_length_c   7.04364400
_cell_angle_alpha   90.00000000
_cell_angle_beta   90.00000000
_cell_angle_gamma   120.00000382
_symmetry_Int_Tables_number   1
_chemical_formula_structural   La10Bi3Pb3Se2
_chemical_formula_sum   'La10 Bi3 Pb3 Se2'
_cell_volume   584.79478027
_cell_formula_units_Z   1
loop_
 _symmetry_equiv_pos_site_id
 _symmetry_equiv_pos_as_xyz
  1  'x, y, z'
loop_
 _atom_site_type_symbol
 _atom_site_label
 _atom_site_symmetry_multiplicity
 _atom_site_fract_x
 _atom_site_fract_y
 _atom_site_fract_z
 _atom_site_occupancy
  La  La0  1  0.749066  0.749066  0.750000  1
  La  La1  1  0.250934  0.000000  0.750000  1
  La  La2  1  0.000000  0.250934  0.750000  1
  La  La3  1  0.251727  0.251727  0.250000  1
  La  La4  1  0.748273  0.000000  0.250000  1
  La  La5  1  0.000000  0.748273  0.250000  1
  La  La6  1  0.666667  0.333333  0.999518  1
  La  La7  1  0.333333  0.666667  0.999518  1
  La  La8  1  0.333333  0.666667  0.500482  1
  La  La9  1  0.666667  0.333333  0.500482  1
  Bi  Bi10  1  0.392874  0.392874  0.750000  1
  Bi  Bi11  1  0.607126  0.000000  0.750000  1
  Bi  Bi12  1  0.000000  0.607126  0.750000  1
  Pb  Pb13  1  0.606592  0.606592  0.250000  1
  Pb  Pb14  1  0.393408  0.000000  0.250000  1
  Pb  Pb15  1  0.000000  0.393408  0.250000  1
  Se  Se16  1  0.000000  0.000000  0.999819  1
  Se  Se17  1  0.000000  0.000000  0.500181  1
