# generated using pymatgen
data_La2CeCu4(P2O)2
_symmetry_space_group_name_H-M   'P 1'
_cell_length_a   4.02491422
_cell_length_b   4.02491355
_cell_length_c   13.83519510
_cell_angle_alpha   98.36387686
_cell_angle_beta   98.36387806
_cell_angle_gamma   90.00001282
_symmetry_Int_Tables_number   1
_chemical_formula_structural   La2CeCu4(P2O)2
_chemical_formula_sum   'La2 Ce1 Cu4 P4 O2'
_cell_volume   219.33573889
_cell_formula_units_Z   1
loop_
 _symmetry_equiv_pos_site_id
 _symmetry_equiv_pos_as_xyz
  1  'x, y, z'
loop_
 _atom_site_type_symbol
 _atom_site_label
 _atom_site_symmetry_multiplicity
 _atom_site_fract_x
 _atom_site_fract_y
 _atom_site_fract_z
 _atom_site_occupancy
  La  La0  1  0.703652  0.703652  0.407304  1
  La  La1  1  0.296348  0.296348  0.592696  1
  Ce  Ce2  1  0.000000  0.000000  0.000000  1
  Cu  Cu3  1  0.592966  0.092966  0.185932  1
  Cu  Cu4  1  0.092966  0.592966  0.185932  1
  Cu  Cu5  1  0.907035  0.407034  0.814068  1
  Cu  Cu6  1  0.407034  0.907035  0.814068  1
  P  P7  1  0.540991  0.540991  0.081980  1
  P  P8  1  0.137583  0.137583  0.275164  1
  P  P9  1  0.862418  0.862418  0.724835  1
  P  P10  1  0.459010  0.459010  0.918021  1
  O  O11  1  0.750001  0.250000  0.500000  1
  O  O12  1  0.250000  0.750001  0.500000  1
