# generated using pymatgen
data_Er4Ge2B4Ru3Rh7
_symmetry_space_group_name_H-M   'P 1'
_cell_length_a   9.49902035
_cell_length_b   9.49598235
_cell_length_c   3.14084700
_cell_angle_alpha   90.00000000
_cell_angle_beta   90.00000000
_cell_angle_gamma   90.03113488
_symmetry_Int_Tables_number   1
_chemical_formula_structural   Er4Ge2B4Ru3Rh7
_chemical_formula_sum   'Er4 Ge2 B4 Ru3 Rh7'
_cell_volume   283.31230265
_cell_formula_units_Z   1
loop_
 _symmetry_equiv_pos_site_id
 _symmetry_equiv_pos_as_xyz
  1  'x, y, z'
loop_
 _atom_site_type_symbol
 _atom_site_label
 _atom_site_symmetry_multiplicity
 _atom_site_fract_x
 _atom_site_fract_y
 _atom_site_fract_z
 _atom_site_occupancy
  Er  Er0  1  0.828254  0.324191  0.000000  1
  Er  Er1  1  0.323366  0.174686  0.000000  1
  Er  Er2  1  0.674073  0.825192  0.000000  1
  Er  Er3  1  0.174662  0.673309  0.000000  1
  Ge  Ge4  1  0.001101  0.004218  0.000000  1
  Ge  Ge5  1  0.499808  0.500037  0.000000  1
  B  B6  1  0.621336  0.121346  0.000000  1
  B  B7  1  0.119620  0.375503  0.000000  1
  B  B8  1  0.879537  0.621612  0.000000  1
  B  B9  1  0.378584  0.878762  0.000000  1
  Ru  Ru10  1  0.070303  0.215688  0.500000  1
  Ru  Ru11  1  0.499724  0.999937  0.500000  1
  Ru  Ru12  1  0.999802  0.501574  0.500000  1
  Rh  Rh13  1  0.217342  0.926996  0.500000  1
  Rh  Rh14  1  0.781763  0.069880  0.500000  1
  Rh  Rh15  1  0.928891  0.785169  0.500000  1
  Rh  Rh16  1  0.429337  0.716392  0.500000  1
  Rh  Rh17  1  0.571504  0.283443  0.500000  1
  Rh  Rh18  1  0.716620  0.571528  0.500000  1
  Rh  Rh19  1  0.284374  0.430537  0.500000  1
