# generated using pymatgen
data_LuFe2GeP
_symmetry_space_group_name_H-M   'P 1'
_cell_length_a   5.51740932
_cell_length_b   5.51740979
_cell_length_c   5.51740931
_cell_angle_alpha   138.65892510
_cell_angle_beta   138.65893567
_cell_angle_gamma   59.89529639
_symmetry_Int_Tables_number   1
_chemical_formula_structural   LuFe2GeP
_chemical_formula_sum   'Lu1 Fe2 Ge1 P1'
_cell_volume   72.53692143
_cell_formula_units_Z   1
loop_
 _symmetry_equiv_pos_site_id
 _symmetry_equiv_pos_as_xyz
  1  'x, y, z'
loop_
 _atom_site_type_symbol
 _atom_site_label
 _atom_site_symmetry_multiplicity
 _atom_site_fract_x
 _atom_site_fract_y
 _atom_site_fract_z
 _atom_site_occupancy
  Lu  Lu0  1  0.003691  0.003691  0.000000  1
  Fe  Fe1  1  0.741700  0.241700  0.500000  1
  Fe  Fe2  1  0.241700  0.741700  0.500000  1
  Ge  Ge3  1  0.375504  0.375504  0.000000  1
  P  P4  1  0.637405  0.637405  0.000000  1
