# generated using pymatgen
data_Ba4TbDy(GaS5)2
_symmetry_space_group_name_H-M   'P 1'
_cell_length_a   7.16103274
_cell_length_b   8.47360060
_cell_length_c   9.20210876
_cell_angle_alpha   103.62829404
_cell_angle_beta   103.05917518
_cell_angle_gamma   107.47776921
_symmetry_Int_Tables_number   1
_chemical_formula_structural   Ba4TbDy(GaS5)2
_chemical_formula_sum   'Ba4 Tb1 Dy1 Ga2 S10'
_cell_volume   490.37338954
_cell_formula_units_Z   1
loop_
 _symmetry_equiv_pos_site_id
 _symmetry_equiv_pos_as_xyz
  1  'x, y, z'
loop_
 _atom_site_type_symbol
 _atom_site_label
 _atom_site_symmetry_multiplicity
 _atom_site_fract_x
 _atom_site_fract_y
 _atom_site_fract_z
 _atom_site_occupancy
  Ba  Ba0  1  0.630558  0.976087  0.287784  1
  Ba  Ba1  1  0.369506  0.023959  0.712247  1
  Ba  Ba2  1  0.335749  0.509502  0.704282  1
  Ba  Ba3  1  0.664177  0.490436  0.295670  1
  Tb  Tb4  1  0.996450  0.728691  0.997588  1
  Dy  Dy5  1  0.003521  0.271412  0.002369  1
  Ga  Ga6  1  0.808454  0.873027  0.690292  1
  Ga  Ga7  1  0.191547  0.127041  0.309683  1
  S  S8  1  0.991100  0.691713  0.689735  1
  S  S9  1  0.008877  0.308208  0.309512  1
  S  S10  1  0.987934  0.149381  0.694426  1
  S  S11  1  0.012111  0.850988  0.306376  1
  S  S12  1  0.717169  0.908515  0.922930  1
  S  S13  1  0.282783  0.092267  0.077078  1
  S  S14  1  0.713625  0.412232  0.948496  1
  S  S15  1  0.286432  0.586549  0.051527  1
  S  S16  1  0.501891  0.745719  0.497178  1
  S  S17  1  0.498115  0.254274  0.502828  1
