# generated using pymatgen
data_Yb2Co6P7Ru6
_symmetry_space_group_name_H-M   'P 1'
_cell_length_a   9.20150700
_cell_length_b   9.20150828
_cell_length_c   3.73469900
_cell_angle_alpha   90.00000000
_cell_angle_beta   90.00000000
_cell_angle_gamma   120.00000523
_symmetry_Int_Tables_number   1
_chemical_formula_structural   Yb2Co6P7Ru6
_chemical_formula_sum   'Yb2 Co6 P7 Ru6'
_cell_volume   273.84460926
_cell_formula_units_Z   1
loop_
 _symmetry_equiv_pos_site_id
 _symmetry_equiv_pos_as_xyz
  1  'x, y, z'
loop_
 _atom_site_type_symbol
 _atom_site_label
 _atom_site_symmetry_multiplicity
 _atom_site_fract_x
 _atom_site_fract_y
 _atom_site_fract_z
 _atom_site_occupancy
  Yb  Yb0  1  0.666667  0.333333  0.500000  1
  Yb  Yb1  1  0.333333  0.666667  0.000000  1
  Co  Co2  1  0.726446  0.883185  0.000000  1
  Co  Co3  1  0.936646  0.364886  0.000000  1
  Co  Co4  1  0.156739  0.273554  0.000000  1
  Co  Co5  1  0.116815  0.843261  0.000000  1
  Co  Co6  1  0.428240  0.063354  0.000000  1
  Co  Co7  1  0.635114  0.571760  0.000000  1
  P  P8  1  0.412262  0.297127  0.000000  1
  P  P9  1  0.283482  0.881491  0.500000  1
  P  P10  1  0.702873  0.115136  0.000000  1
  P  P11  1  0.598010  0.716518  0.500000  1
  P  P12  1  0.884864  0.587738  0.000000  1
  P  P13  1  0.118509  0.401990  0.500000  1
  P  P14  1  0.000000  0.000000  0.000000  1
  Ru  Ru15  1  0.214222  0.089486  0.500000  1
  Ru  Ru16  1  0.910514  0.124736  0.500000  1
  Ru  Ru17  1  0.392147  0.437382  0.500000  1
  Ru  Ru18  1  0.045235  0.607853  0.500000  1
  Ru  Ru19  1  0.562618  0.954765  0.500000  1
  Ru  Ru20  1  0.875264  0.785778  0.500000  1
