# generated using pymatgen
data_Dy3Y13(CdNi)4
_symmetry_space_group_name_H-M   'P 1'
_cell_length_a   9.58655909
_cell_length_b   9.57092917
_cell_length_c   9.57894624
_cell_angle_alpha   60.11690479
_cell_angle_beta   60.20126895
_cell_angle_gamma   60.14965335
_symmetry_Int_Tables_number   1
_chemical_formula_structural   Dy3Y13(CdNi)4
_chemical_formula_sum   'Dy3 Y13 Cd4 Ni4'
_cell_volume   623.66359077
_cell_formula_units_Z   1
loop_
 _symmetry_equiv_pos_site_id
 _symmetry_equiv_pos_as_xyz
  1  'x, y, z'
loop_
 _atom_site_type_symbol
 _atom_site_label
 _atom_site_symmetry_multiplicity
 _atom_site_fract_x
 _atom_site_fract_y
 _atom_site_fract_z
 _atom_site_occupancy
  Dy  Dy0  1  0.598379  0.598522  0.598566  1
  Dy  Dy1  1  0.598445  0.598582  0.204482  1
  Dy  Dy2  1  0.598423  0.204500  0.598606  1
  Y  Y3  1  0.202628  0.599137  0.599176  1
  Y  Y4  1  0.061672  0.438189  0.438184  1
  Y  Y5  1  0.438464  0.061664  0.061632  1
  Y  Y6  1  0.438464  0.061605  0.438235  1
  Y  Y7  1  0.061723  0.438193  0.061890  1
  Y  Y8  1  0.438465  0.438239  0.061585  1
  Y  Y9  1  0.061716  0.061909  0.438185  1
  Y  Y10  1  0.185910  0.814294  0.814294  1
  Y  Y11  1  0.813537  0.186257  0.186259  1
  Y  Y12  1  0.813533  0.186245  0.813960  1
  Y  Y13  1  0.185923  0.814294  0.185499  1
  Y  Y14  1  0.813527  0.813948  0.186255  1
  Y  Y15  1  0.185911  0.185489  0.814305  1
  Cd  Cd16  1  0.831332  0.831285  0.831279  1
  Cd  Cd17  1  0.831327  0.831280  0.506113  1
  Cd  Cd18  1  0.831332  0.506103  0.831280  1
  Cd  Cd19  1  0.506337  0.831223  0.831219  1
  Ni  Ni20  1  0.394266  0.392354  0.392334  1
  Ni  Ni21  1  0.394293  0.392355  0.821004  1
  Ni  Ni22  1  0.394257  0.821042  0.392349  1
  Ni  Ni23  1  0.820137  0.393290  0.393308  1
