# generated using pymatgen
data_Na3CoP4Ir3
_symmetry_space_group_name_H-M   'P 1'
_cell_length_a   6.27667590
_cell_length_b   6.11891255
_cell_length_c   6.27667506
_cell_angle_alpha   108.96285978
_cell_angle_beta   109.97477183
_cell_angle_gamma   108.96285049
_symmetry_Int_Tables_number   1
_chemical_formula_structural   Na3CoP4Ir3
_chemical_formula_sum   'Na3 Co1 P4 Ir3'
_cell_volume   186.72308831
_cell_formula_units_Z   1
loop_
 _symmetry_equiv_pos_site_id
 _symmetry_equiv_pos_as_xyz
  1  'x, y, z'
loop_
 _atom_site_type_symbol
 _atom_site_label
 _atom_site_symmetry_multiplicity
 _atom_site_fract_x
 _atom_site_fract_y
 _atom_site_fract_z
 _atom_site_occupancy
  Na  Na0  1  0.474951  0.961586  0.474951  1
  Na  Na1  1  0.525049  0.486635  0.000000  1
  Na  Na2  1  0.000000  0.486635  0.525049  1
  Co  Co3  1  0.000000  0.741989  0.000000  1
  P  P4  1  0.000000  0.387862  0.000000  1
  P  P5  1  0.644766  0.637360  0.644766  1
  P  P6  1  0.000000  0.992594  0.355234  1
  P  P7  1  0.355234  0.992594  0.000000  1
  Ir  Ir8  1  0.000000  0.010032  0.717350  1
  Ir  Ir9  1  0.282650  0.292682  0.282650  1
  Ir  Ir10  1  0.717350  0.010032  0.000000  1
