# generated using pymatgen
data_V4IrPt3
_symmetry_space_group_name_H-M   'P 1'
_cell_length_a   5.43709901
_cell_length_b   5.43709860
_cell_length_c   3.84709400
_cell_angle_alpha   90.00000000
_cell_angle_beta   90.00000000
_cell_angle_gamma   90.11663476
_symmetry_Int_Tables_number   1
_chemical_formula_structural   V4IrPt3
_chemical_formula_sum   'V4 Ir1 Pt3'
_cell_volume   113.72772406
_cell_formula_units_Z   1
loop_
 _symmetry_equiv_pos_site_id
 _symmetry_equiv_pos_as_xyz
  1  'x, y, z'
loop_
 _atom_site_type_symbol
 _atom_site_label
 _atom_site_symmetry_multiplicity
 _atom_site_fract_x
 _atom_site_fract_y
 _atom_site_fract_z
 _atom_site_occupancy
  V  V0  1  0.995588  0.995588  0.000000  1
  V  V1  1  0.504014  0.504014  0.000000  1
  V  V2  1  0.249325  0.751144  0.500000  1
  V  V3  1  0.751144  0.249325  0.500000  1
  Ir  Ir4  1  0.749275  0.749275  0.500000  1
  Pt  Pt5  1  0.499113  0.001507  0.000000  1
  Pt  Pt6  1  0.001507  0.499113  0.000000  1
  Pt  Pt7  1  0.250033  0.250033  0.500000  1
