# generated using pymatgen
data_Y11Th8MgSn16
_symmetry_space_group_name_H-M   'P 1'
_cell_length_a   8.08681100
_cell_length_b   8.30557172
_cell_length_c   15.73444200
_cell_angle_alpha   90.00000000
_cell_angle_beta   90.00000000
_cell_angle_gamma   89.86599700
_symmetry_Int_Tables_number   1
_chemical_formula_structural   Y11Th8MgSn16
_chemical_formula_sum   'Y11 Th8 Mg1 Sn16'
_cell_volume   1056.81016960
_cell_formula_units_Z   1
loop_
 _symmetry_equiv_pos_site_id
 _symmetry_equiv_pos_as_xyz
  1  'x, y, z'
loop_
 _atom_site_type_symbol
 _atom_site_label
 _atom_site_symmetry_multiplicity
 _atom_site_fract_x
 _atom_site_fract_y
 _atom_site_fract_z
 _atom_site_occupancy
  Y  Y0  1  0.353582  0.831706  0.876511  1
  Y  Y1  1  0.863071  0.664034  0.624650  1
  Y  Y2  1  0.643601  0.163516  0.377048  1
  Y  Y3  1  0.142900  0.332948  0.123997  1
  Y  Y4  1  0.643601  0.163516  0.122952  1
  Y  Y5  1  0.142900  0.332948  0.376003  1
  Y  Y6  1  0.353582  0.831706  0.623489  1
  Y  Y7  1  0.863071  0.664034  0.875350  1
  Y  Y8  1  0.685278  0.001251  0.750000  1
  Y  Y9  1  0.811916  0.502575  0.250000  1
  Y  Y10  1  0.313306  0.996322  0.250000  1
  Th  Th11  1  0.510381  0.323578  0.904099  1
  Th  Th12  1  0.015273  0.181246  0.596303  1
  Th  Th13  1  0.486822  0.678194  0.403728  1
  Th  Th14  1  0.986074  0.820706  0.094768  1
  Th  Th15  1  0.486822  0.678194  0.096272  1
  Th  Th16  1  0.986074  0.820706  0.405232  1
  Th  Th17  1  0.510381  0.323578  0.595901  1
  Th  Th18  1  0.015273  0.181246  0.903697  1
  Mg  Mg19  1  0.191953  0.499824  0.750000  1
  Sn  Sn20  1  0.302663  0.038708  0.039961  1
  Sn  Sn21  1  0.802408  0.459998  0.460193  1
  Sn  Sn22  1  0.697946  0.962085  0.543015  1
  Sn  Sn23  1  0.197488  0.541586  0.962574  1
  Sn  Sn24  1  0.697946  0.962085  0.956985  1
  Sn  Sn25  1  0.197488  0.541586  0.537426  1
  Sn  Sn26  1  0.302663  0.038708  0.460039  1
  Sn  Sn27  1  0.802408  0.459998  0.039807  1
  Sn  Sn28  1  0.555660  0.619559  0.750000  1
  Sn  Sn29  1  0.053823  0.888802  0.750000  1
  Sn  Sn30  1  0.446425  0.378065  0.250000  1
  Sn  Sn31  1  0.945971  0.120615  0.250000  1
  Sn  Sn32  1  0.321620  0.141797  0.750000  1
  Sn  Sn33  1  0.812156  0.356018  0.750000  1
  Sn  Sn34  1  0.679496  0.855984  0.250000  1
  Sn  Sn35  1  0.177975  0.642581  0.250000  1
