# generated using pymatgen
data_LiTb16Cd(HgPt2)2
_symmetry_space_group_name_H-M   'P 1'
_cell_length_a   9.70292578
_cell_length_b   9.69942661
_cell_length_c   9.69942540
_cell_angle_alpha   60.14020567
_cell_angle_beta   60.10164236
_cell_angle_gamma   60.10164362
_symmetry_Int_Tables_number   1
_chemical_formula_structural   LiTb16Cd(HgPt2)2
_chemical_formula_sum   'Li1 Tb16 Cd1 Hg2 Pt4'
_cell_volume   647.14973251
_cell_formula_units_Z   1
loop_
 _symmetry_equiv_pos_site_id
 _symmetry_equiv_pos_as_xyz
  1  'x, y, z'
loop_
 _atom_site_type_symbol
 _atom_site_label
 _atom_site_symmetry_multiplicity
 _atom_site_fract_x
 _atom_site_fract_y
 _atom_site_fract_z
 _atom_site_occupancy
  Li  Li0  1  0.570852  0.567819  0.567819  1
  Tb  Tb1  1  0.351988  0.351961  0.351961  1
  Tb  Tb2  1  0.353332  0.352633  0.942425  1
  Tb  Tb3  1  0.353332  0.942425  0.352633  1
  Tb  Tb4  1  0.940569  0.353513  0.353513  1
  Tb  Tb5  1  0.808998  0.193288  0.193288  1
  Tb  Tb6  1  0.187552  0.812943  0.812943  1
  Tb  Tb7  1  0.191902  0.809825  0.193005  1
  Tb  Tb8  1  0.812510  0.188257  0.812869  1
  Tb  Tb9  1  0.191902  0.193005  0.809825  1
  Tb  Tb10  1  0.812510  0.812869  0.188257  1
  Tb  Tb11  1  0.935985  0.565419  0.565419  1
  Tb  Tb12  1  0.562533  0.936859  0.936859  1
  Tb  Tb13  1  0.564348  0.937812  0.565027  1
  Tb  Tb14  1  0.935503  0.563422  0.937463  1
  Tb  Tb15  1  0.564348  0.565027  0.937812  1
  Tb  Tb16  1  0.935503  0.937463  0.563422  1
  Cd  Cd17  1  0.253103  0.582579  0.582579  1
  Hg  Hg18  1  0.586137  0.588601  0.242665  1
  Hg  Hg19  1  0.586137  0.242665  0.588601  1
  Pt  Pt20  1  0.144420  0.144888  0.144888  1
  Pt  Pt21  1  0.143064  0.143109  0.570280  1
  Pt  Pt22  1  0.143064  0.570280  0.143109  1
  Pt  Pt23  1  0.570408  0.143339  0.143339  1
