# generated using pymatgen
data_La2CeRu3
_symmetry_space_group_name_H-M   'P 1'
_cell_length_a   5.99537074
_cell_length_b   5.36752654
_cell_length_c   5.99537100
_cell_angle_alpha   56.04887216
_cell_angle_beta   59.99999304
_cell_angle_gamma   56.04887858
_symmetry_Int_Tables_number   1
_chemical_formula_structural   La2CeRu3
_chemical_formula_sum   'La2 Ce1 Ru3'
_cell_volume   127.69971067
_cell_formula_units_Z   1
loop_
 _symmetry_equiv_pos_site_id
 _symmetry_equiv_pos_as_xyz
  1  'x, y, z'
loop_
 _atom_site_type_symbol
 _atom_site_label
 _atom_site_symmetry_multiplicity
 _atom_site_fract_x
 _atom_site_fract_y
 _atom_site_fract_z
 _atom_site_occupancy
  La  La0  1  0.500004  0.499987  0.500004  1
  La  La1  1  0.749996  0.750013  0.749996  1
  Ce  Ce2  1  0.125000  0.625000  0.125000  1
  Ru  Ru3  1  0.125000  0.125000  0.125000  1
  Ru  Ru4  1  0.625000  0.125000  0.125000  1
  Ru  Ru5  1  0.125000  0.125000  0.625000  1
