# generated using pymatgen
data_Hf4ZrNiP3
_symmetry_space_group_name_H-M   'P 1'
_cell_length_a   3.60035600
_cell_length_b   10.20717500
_cell_length_c   17.09197200
_cell_angle_alpha   90.00000000
_cell_angle_beta   90.00000000
_cell_angle_gamma   90.00000000
_symmetry_Int_Tables_number   1
_chemical_formula_structural   Hf4ZrNiP3
_chemical_formula_sum   'Hf16 Zr4 Ni4 P12'
_cell_volume   628.12080550
_cell_formula_units_Z   4
loop_
 _symmetry_equiv_pos_site_id
 _symmetry_equiv_pos_as_xyz
  1  'x, y, z'
loop_
 _atom_site_type_symbol
 _atom_site_label
 _atom_site_symmetry_multiplicity
 _atom_site_fract_x
 _atom_site_fract_y
 _atom_site_fract_z
 _atom_site_occupancy
  Hf  Hf0  1  0.250000  0.879182  0.476823  1
  Hf  Hf1  1  0.750000  0.120818  0.523177  1
  Hf  Hf2  1  0.750000  0.379182  0.023177  1
  Hf  Hf3  1  0.250000  0.620818  0.976823  1
  Hf  Hf4  1  0.250000  0.936539  0.077146  1
  Hf  Hf5  1  0.750000  0.063461  0.922854  1
  Hf  Hf6  1  0.750000  0.436539  0.422854  1
  Hf  Hf7  1  0.250000  0.563461  0.577146  1
  Hf  Hf8  1  0.250000  0.247442  0.169592  1
  Hf  Hf9  1  0.750000  0.752558  0.830408  1
  Hf  Hf10  1  0.750000  0.747442  0.330408  1
  Hf  Hf11  1  0.250000  0.252558  0.669592  1
  Hf  Hf12  1  0.250000  0.510420  0.271598  1
  Hf  Hf13  1  0.750000  0.489580  0.728402  1
  Hf  Hf14  1  0.750000  0.010420  0.228402  1
  Hf  Hf15  1  0.250000  0.989580  0.771598  1
  Zr  Zr16  1  0.250000  0.184743  0.368328  1
  Zr  Zr17  1  0.750000  0.815257  0.631672  1
  Zr  Zr18  1  0.750000  0.684743  0.131672  1
  Zr  Zr19  1  0.250000  0.315257  0.868328  1
  Ni  Ni20  1  0.250000  0.631480  0.414193  1
  Ni  Ni21  1  0.750000  0.368520  0.585807  1
  Ni  Ni22  1  0.750000  0.131480  0.085807  1
  Ni  Ni23  1  0.250000  0.868520  0.914193  1
  P  P24  1  0.250000  0.491335  0.115978  1
  P  P25  1  0.750000  0.508665  0.884022  1
  P  P26  1  0.750000  0.991335  0.384022  1
  P  P27  1  0.250000  0.008665  0.615978  1
  P  P28  1  0.250000  0.815002  0.219087  1
  P  P29  1  0.750000  0.184998  0.780913  1
  P  P30  1  0.750000  0.315002  0.280913  1
  P  P31  1  0.250000  0.684998  0.719087  1
  P  P32  1  0.250000  0.188280  0.010205  1
  P  P33  1  0.750000  0.811720  0.989795  1
  P  P34  1  0.750000  0.688280  0.489795  1
  P  P35  1  0.250000  0.311720  0.510205  1
