# generated using pymatgen
data_Lu16In6RuAu
_symmetry_space_group_name_H-M   'P 1'
_cell_length_a   10.30403600
_cell_length_b   10.30403605
_cell_length_c   6.80989000
_cell_angle_alpha   90.00000000
_cell_angle_beta   90.00000000
_cell_angle_gamma   119.99999983
_symmetry_Int_Tables_number   1
_chemical_formula_structural   Lu16In6RuAu
_chemical_formula_sum   'Lu16 In6 Ru1 Au1'
_cell_volume   626.16020969
_cell_formula_units_Z   1
loop_
 _symmetry_equiv_pos_site_id
 _symmetry_equiv_pos_as_xyz
  1  'x, y, z'
loop_
 _atom_site_type_symbol
 _atom_site_label
 _atom_site_symmetry_multiplicity
 _atom_site_fract_x
 _atom_site_fract_y
 _atom_site_fract_z
 _atom_site_occupancy
  Lu  Lu0  1  0.532922  0.065842  0.523627  1
  Lu  Lu1  1  0.934158  0.467078  0.523627  1
  Lu  Lu2  1  0.532922  0.467078  0.523627  1
  Lu  Lu3  1  0.476256  0.952514  0.028552  1
  Lu  Lu4  1  0.047486  0.523744  0.028552  1
  Lu  Lu5  1  0.476256  0.523744  0.028552  1
  Lu  Lu6  1  0.173745  0.347489  0.734433  1
  Lu  Lu7  1  0.652511  0.826255  0.734433  1
  Lu  Lu8  1  0.173745  0.826255  0.734433  1
  Lu  Lu9  1  0.823184  0.646367  0.233957  1
  Lu  Lu10  1  0.353633  0.176816  0.233957  1
  Lu  Lu11  1  0.823184  0.176816  0.233957  1
  Lu  Lu12  1  0.666667  0.333333  0.898831  1
  Lu  Lu13  1  0.333333  0.666667  0.387999  1
  Lu  Lu14  1  0.000000  0.000000  0.509950  1
  Lu  Lu15  1  0.000000  0.000000  0.006936  1
  In  In16  1  0.837489  0.674979  0.766628  1
  In  In17  1  0.325021  0.162511  0.766628  1
  In  In18  1  0.837489  0.162511  0.766628  1
  In  In19  1  0.163348  0.326695  0.264369  1
  In  In20  1  0.673305  0.836652  0.264369  1
  In  In21  1  0.163348  0.836652  0.264369  1
  Ru  Ru22  1  0.666667  0.333333  0.298149  1
  Au  Au23  1  0.333333  0.666667  0.799120  1
