# generated using pymatgen
data_CaLa4GeBi2
_symmetry_space_group_name_H-M   'P 1'
_cell_length_a   8.55406000
_cell_length_b   9.60999700
_cell_length_c   12.79115800
_cell_angle_alpha   90.00000000
_cell_angle_beta   90.00000000
_cell_angle_gamma   90.00000000
_symmetry_Int_Tables_number   1
_chemical_formula_structural   CaLa4GeBi2
_chemical_formula_sum   'Ca4 La16 Ge4 Bi8'
_cell_volume   1051.49063190
_cell_formula_units_Z   4
loop_
 _symmetry_equiv_pos_site_id
 _symmetry_equiv_pos_as_xyz
  1  'x, y, z'
loop_
 _atom_site_type_symbol
 _atom_site_label
 _atom_site_symmetry_multiplicity
 _atom_site_fract_x
 _atom_site_fract_y
 _atom_site_fract_z
 _atom_site_occupancy
  Ca  Ca0  1  0.539691  0.750000  0.499399  1
  Ca  Ca1  1  0.039691  0.250000  0.000601  1
  Ca  Ca2  1  0.460309  0.250000  0.500601  1
  Ca  Ca3  1  0.960309  0.750000  0.999399  1
  La  La4  1  0.313714  0.958540  0.066682  1
  La  La5  1  0.813714  0.041460  0.433318  1
  La  La6  1  0.686286  0.458540  0.933318  1
  La  La7  1  0.186286  0.541460  0.566682  1
  La  La8  1  0.686286  0.041460  0.933318  1
  La  La9  1  0.186286  0.958540  0.566682  1
  La  La10  1  0.313714  0.541460  0.066682  1
  La  La11  1  0.813714  0.458540  0.433318  1
  La  La12  1  0.666334  0.750000  0.210755  1
  La  La13  1  0.166334  0.250000  0.289245  1
  La  La14  1  0.333666  0.250000  0.789245  1
  La  La15  1  0.833666  0.750000  0.710755  1
  La  La16  1  0.143291  0.750000  0.295377  1
  La  La17  1  0.643291  0.250000  0.204623  1
  La  La18  1  0.856709  0.250000  0.704623  1
  La  La19  1  0.356709  0.750000  0.795377  1
  Ge  Ge20  1  0.571269  0.750000  0.983239  1
  Ge  Ge21  1  0.071269  0.250000  0.516761  1
  Ge  Ge22  1  0.428731  0.250000  0.016761  1
  Ge  Ge23  1  0.928731  0.750000  0.483239  1
  Bi  Bi24  1  0.933380  0.007382  0.171062  1
  Bi  Bi25  1  0.433380  0.992618  0.328938  1
  Bi  Bi26  1  0.066620  0.507382  0.828938  1
  Bi  Bi27  1  0.566620  0.492618  0.671062  1
  Bi  Bi28  1  0.066620  0.992618  0.828938  1
  Bi  Bi29  1  0.566620  0.007382  0.671062  1
  Bi  Bi30  1  0.933380  0.492618  0.171062  1
  Bi  Bi31  1  0.433380  0.507382  0.328938  1
