# generated using pymatgen
data_NdLu3ScSb3
_symmetry_space_group_name_H-M   'P 1'
_cell_length_a   7.98125500
_cell_length_b   9.14646100
_cell_length_c   11.76398900
_cell_angle_alpha   90.00000000
_cell_angle_beta   90.00000000
_cell_angle_gamma   90.00000000
_symmetry_Int_Tables_number   1
_chemical_formula_structural   NdLu3ScSb3
_chemical_formula_sum   'Nd4 Lu12 Sc4 Sb12'
_cell_volume   858.77399199
_cell_formula_units_Z   4
loop_
 _symmetry_equiv_pos_site_id
 _symmetry_equiv_pos_as_xyz
  1  'x, y, z'
loop_
 _atom_site_type_symbol
 _atom_site_label
 _atom_site_symmetry_multiplicity
 _atom_site_fract_x
 _atom_site_fract_y
 _atom_site_fract_z
 _atom_site_occupancy
  Nd  Nd0  1  0.181459  0.750000  0.721793  1
  Nd  Nd1  1  0.681459  0.750000  0.778207  1
  Nd  Nd2  1  0.818541  0.250000  0.278207  1
  Nd  Nd3  1  0.318541  0.250000  0.221793  1
  Lu  Lu4  1  0.196168  0.562993  0.438468  1
  Lu  Lu5  1  0.696168  0.937007  0.061532  1
  Lu  Lu6  1  0.803832  0.062993  0.561532  1
  Lu  Lu7  1  0.303832  0.437007  0.938468  1
  Lu  Lu8  1  0.803832  0.437007  0.561532  1
  Lu  Lu9  1  0.303832  0.062993  0.938468  1
  Lu  Lu10  1  0.196168  0.937007  0.438468  1
  Lu  Lu11  1  0.696168  0.562993  0.061532  1
  Lu  Lu12  1  0.853903  0.750000  0.282652  1
  Lu  Lu13  1  0.353903  0.750000  0.217348  1
  Lu  Lu14  1  0.146097  0.250000  0.717348  1
  Lu  Lu15  1  0.646097  0.250000  0.782652  1
  Sc  Sc16  1  0.027444  0.750000  0.988827  1
  Sc  Sc17  1  0.527444  0.750000  0.511173  1
  Sc  Sc18  1  0.972556  0.250000  0.011173  1
  Sc  Sc19  1  0.472556  0.250000  0.488827  1
  Sb  Sb20  1  0.934056  0.489706  0.833694  1
  Sb  Sb21  1  0.434056  0.010294  0.666306  1
  Sb  Sb22  1  0.065944  0.989706  0.166306  1
  Sb  Sb23  1  0.565944  0.510294  0.333694  1
  Sb  Sb24  1  0.065944  0.510294  0.166306  1
  Sb  Sb25  1  0.565944  0.989706  0.333694  1
  Sb  Sb26  1  0.934056  0.010294  0.833694  1
  Sb  Sb27  1  0.434056  0.489706  0.666306  1
  Sb  Sb28  1  0.905570  0.750000  0.533937  1
  Sb  Sb29  1  0.405570  0.750000  0.966063  1
  Sb  Sb30  1  0.094430  0.250000  0.466063  1
  Sb  Sb31  1  0.594430  0.250000  0.033937  1
