# generated using pymatgen
data_V10SiGeB4
_symmetry_space_group_name_H-M   'P 1'
_cell_length_a   6.79806001
_cell_length_b   6.79805960
_cell_length_c   6.79806068
_cell_angle_alpha   129.42031797
_cell_angle_beta   129.42032004
_cell_angle_gamma   74.33519656
_symmetry_Int_Tables_number   1
_chemical_formula_structural   V10SiGeB4
_chemical_formula_sum   'V10 Si1 Ge1 B4'
_cell_volume   182.75147738
_cell_formula_units_Z   1
loop_
 _symmetry_equiv_pos_site_id
 _symmetry_equiv_pos_as_xyz
  1  'x, y, z'
loop_
 _atom_site_type_symbol
 _atom_site_label
 _atom_site_symmetry_multiplicity
 _atom_site_fract_x
 _atom_site_fract_y
 _atom_site_fract_z
 _atom_site_occupancy
  V  V0  1  0.535617  0.697613  0.504962  1
  V  V1  1  0.030655  0.535617  0.838004  1
  V  V2  1  0.697613  0.192650  0.161996  1
  V  V3  1  0.964383  0.469345  0.161996  1
  V  V4  1  0.192650  0.030655  0.495038  1
  V  V5  1  0.469345  0.307350  0.504962  1
  V  V6  1  0.802387  0.964383  0.495038  1
  V  V7  1  0.307350  0.802387  0.838004  1
  V  V8  1  0.999251  0.999251  0.000000  1
  V  V9  1  0.500749  0.500749  0.000000  1
  Si  Si10  1  0.750000  0.750000  0.000000  1
  Ge  Ge11  1  0.250000  0.250000  0.000000  1
  B  B12  1  0.614956  0.114956  0.729912  1
  B  B13  1  0.114956  0.385044  0.500000  1
  B  B14  1  0.885044  0.614956  0.500000  1
  B  B15  1  0.385044  0.885044  0.270088  1
