# generated using pymatgen
data_LiCaSbPd3
_symmetry_space_group_name_H-M   'P 1'
_cell_length_a   5.33163838
_cell_length_b   5.33163719
_cell_length_c   5.33163628
_cell_angle_alpha   64.05263422
_cell_angle_beta   64.05263933
_cell_angle_gamma   64.05263102
_symmetry_Int_Tables_number   1
_chemical_formula_structural   LiCaSbPd3
_chemical_formula_sum   'Li1 Ca1 Sb1 Pd3'
_cell_volume   116.72946007
_cell_formula_units_Z   1
loop_
 _symmetry_equiv_pos_site_id
 _symmetry_equiv_pos_as_xyz
  1  'x, y, z'
loop_
 _atom_site_type_symbol
 _atom_site_label
 _atom_site_symmetry_multiplicity
 _atom_site_fract_x
 _atom_site_fract_y
 _atom_site_fract_z
 _atom_site_occupancy
  Li  Li0  1  0.864442  0.864442  0.864442  1
  Ca  Ca1  1  0.121339  0.121339  0.121339  1
  Sb  Sb2  1  0.503963  0.503963  0.503963  1
  Pd  Pd3  1  0.503860  0.503860  0.002535  1
  Pd  Pd4  1  0.002535  0.503860  0.503860  1
  Pd  Pd5  1  0.503860  0.002535  0.503860  1
