# generated using pymatgen
data_Ce8Hf9Si16W3
_symmetry_space_group_name_H-M   'P 1'
_cell_length_a   7.23775766
_cell_length_b   7.23775814
_cell_length_c   13.35381018
_cell_angle_alpha   90.08111924
_cell_angle_beta   90.08112295
_cell_angle_gamma   90.07651634
_symmetry_Int_Tables_number   1
_chemical_formula_structural   Ce8Hf9Si16W3
_chemical_formula_sum   'Ce8 Hf9 Si16 W3'
_cell_volume   699.53918011
_cell_formula_units_Z   1
loop_
 _symmetry_equiv_pos_site_id
 _symmetry_equiv_pos_as_xyz
  1  'x, y, z'
loop_
 _atom_site_type_symbol
 _atom_site_label
 _atom_site_symmetry_multiplicity
 _atom_site_fract_x
 _atom_site_fract_y
 _atom_site_fract_z
 _atom_site_occupancy
  Ce  Ce0  1  0.996981  0.341035  0.215297  1
  Ce  Ce1  1  0.005433  0.659252  0.714948  1
  Ce  Ce2  1  0.159320  0.496544  0.463347  1
  Ce  Ce3  1  0.503456  0.840680  0.036653  1
  Ce  Ce4  1  0.841179  0.507141  0.966556  1
  Ce  Ce5  1  0.492859  0.158821  0.533444  1
  Ce  Ce6  1  0.340748  0.994567  0.785052  1
  Ce  Ce7  1  0.658965  0.003019  0.284703  1
  Hf  Hf8  1  0.674260  0.325740  0.750000  1
  Hf  Hf9  1  0.148362  0.995465  0.372155  1
  Hf  Hf10  1  0.851079  0.001737  0.875646  1
  Hf  Hf11  1  0.503988  0.650813  0.619532  1
  Hf  Hf12  1  0.349187  0.496012  0.880468  1
  Hf  Hf13  1  0.494572  0.350572  0.123704  1
  Hf  Hf14  1  0.649428  0.505428  0.376296  1
  Hf  Hf15  1  0.998263  0.148921  0.624354  1
  Hf  Hf16  1  0.004535  0.851638  0.127845  1
  Si  Si17  1  0.362979  0.300979  0.313503  1
  Si  Si18  1  0.636908  0.701880  0.812934  1
  Si  Si19  1  0.197803  0.861165  0.562620  1
  Si  Si20  1  0.138835  0.802197  0.937380  1
  Si  Si21  1  0.800716  0.138145  0.064489  1
  Si  Si22  1  0.861855  0.199284  0.435511  1
  Si  Si23  1  0.298120  0.363092  0.687066  1
  Si  Si24  1  0.699021  0.637021  0.186497  1
  Si  Si25  1  0.295444  0.048399  0.183051  1
  Si  Si26  1  0.706445  0.949252  0.680618  1
  Si  Si27  1  0.450874  0.795303  0.431211  1
  Si  Si28  1  0.204697  0.549126  0.068789  1
  Si  Si29  1  0.544634  0.202554  0.935389  1
  Si  Si30  1  0.797446  0.455366  0.564611  1
  Si  Si31  1  0.050748  0.293555  0.819382  1
  Si  Si32  1  0.951601  0.704556  0.316949  1
  W  W33  1  0.174170  0.171892  0.001796  1
  W  W34  1  0.828108  0.825830  0.498204  1
  W  W35  1  0.326983  0.673017  0.250000  1
