# generated using pymatgen
data_NaTc12I25
_symmetry_space_group_name_H-M   'P 1'
_cell_length_a   10.57743232
_cell_length_b   11.78902706
_cell_length_c   12.65629310
_cell_angle_alpha   85.59780458
_cell_angle_beta   75.17560039
_cell_angle_gamma   87.56036175
_symmetry_Int_Tables_number   1
_chemical_formula_structural   NaTc12I25
_chemical_formula_sum   'Na1 Tc12 I25'
_cell_volume   1520.74687684
_cell_formula_units_Z   1
loop_
 _symmetry_equiv_pos_site_id
 _symmetry_equiv_pos_as_xyz
  1  'x, y, z'
loop_
 _atom_site_type_symbol
 _atom_site_label
 _atom_site_symmetry_multiplicity
 _atom_site_fract_x
 _atom_site_fract_y
 _atom_site_fract_z
 _atom_site_occupancy
  Na  Na0  1  0.500000  0.000000  0.000000  1
  Tc  Tc1  1  0.828833  0.252524  0.133730  1
  Tc  Tc2  1  0.171167  0.747476  0.866270  1
  Tc  Tc3  1  0.764136  0.129849  0.276141  1
  Tc  Tc4  1  0.235864  0.870151  0.723859  1
  Tc  Tc5  1  0.056903  0.275257  0.193554  1
  Tc  Tc6  1  0.943097  0.724743  0.806446  1
  Tc  Tc7  1  0.848316  0.417282  0.267723  1
  Tc  Tc8  1  0.151684  0.582718  0.732277  1
  Tc  Tc9  1  0.779951  0.295656  0.412013  1
  Tc  Tc10  1  0.220049  0.704344  0.587987  1
  Tc  Tc11  1  0.990104  0.155209  0.338382  1
  Tc  Tc12  1  0.009896  0.844791  0.661618  1
  I  I13  1  0.943085  0.963089  0.261774  1
  I  I14  1  0.056915  0.036911  0.738226  1
  I  I15  1  0.970768  0.272605  0.512469  1
  I  I16  1  0.029232  0.727395  0.487531  1
  I  I17  1  0.649352  0.421354  0.172243  1
  I  I18  1  0.350648  0.578646  0.827757  1
  I  I19  1  0.088643  0.467403  0.280344  1
  I  I20  1  0.911357  0.532597  0.719656  1
  I  I21  1  0.000000  0.500000  0.000000  1
  I  I22  1  0.606659  0.969280  0.228673  1
  I  I23  1  0.393341  0.030720  0.771327  1
  I  I24  1  0.205168  0.046808  0.386771  1
  I  I25  1  0.794832  0.953192  0.613229  1
  I  I26  1  0.550614  0.217104  0.405629  1
  I  I27  1  0.449386  0.782896  0.594371  1
  I  I28  1  0.053882  0.160862  0.022010  1
  I  I29  1  0.946118  0.839138  0.977990  1
  I  I30  1  0.775864  0.636470  0.319625  1
  I  I31  1  0.224136  0.363530  0.680375  1
  I  I32  1  0.726534  0.204212  0.960604  1
  I  I33  1  0.273466  0.795788  0.039396  1
  I  I34  1  0.325877  0.256918  0.119841  1
  I  I35  1  0.674123  0.743082  0.880159  1
  I  I36  1  0.645616  0.410229  0.587536  1
  I  I37  1  0.354384  0.589771  0.412464  1
