# generated using pymatgen
data_NdTm19(Bi3Sb)3
_symmetry_space_group_name_H-M   'P 1'
_cell_length_a   8.11390419
_cell_length_b   9.39681700
_cell_length_c   11.84425500
_cell_angle_alpha   90.00000000
_cell_angle_beta   90.05821445
_cell_angle_gamma   90.00000000
_symmetry_Int_Tables_number   1
_chemical_formula_structural   NdTm19(Bi3Sb)3
_chemical_formula_sum   'Nd1 Tm19 Bi9 Sb3'
_cell_volume   903.06324989
_cell_formula_units_Z   1
loop_
 _symmetry_equiv_pos_site_id
 _symmetry_equiv_pos_as_xyz
  1  'x, y, z'
loop_
 _atom_site_type_symbol
 _atom_site_label
 _atom_site_symmetry_multiplicity
 _atom_site_fract_x
 _atom_site_fract_y
 _atom_site_fract_z
 _atom_site_occupancy
  Nd  Nd0  1  0.813018  0.250000  0.278348  1
  Tm  Tm1  1  0.352019  0.750000  0.213335  1
  Tm  Tm2  1  0.853266  0.750000  0.284921  1
  Tm  Tm3  1  0.646696  0.250000  0.784788  1
  Tm  Tm4  1  0.148241  0.250000  0.719328  1
  Tm  Tm5  1  0.688742  0.564490  0.057473  1
  Tm  Tm6  1  0.188748  0.931948  0.442008  1
  Tm  Tm7  1  0.311101  0.063619  0.941860  1
  Tm  Tm8  1  0.809321  0.438072  0.560237  1
  Tm  Tm9  1  0.311101  0.436381  0.941860  1
  Tm  Tm10  1  0.809321  0.061928  0.560237  1
  Tm  Tm11  1  0.688742  0.935510  0.057473  1
  Tm  Tm12  1  0.188748  0.568052  0.442008  1
  Tm  Tm13  1  0.478052  0.250000  0.489661  1
  Tm  Tm14  1  0.974792  0.250000  0.010491  1
  Tm  Tm15  1  0.526495  0.750000  0.513287  1
  Tm  Tm16  1  0.026441  0.750000  0.988040  1
  Tm  Tm17  1  0.318447  0.250000  0.214972  1
  Tm  Tm18  1  0.683845  0.750000  0.783637  1
  Tm  Tm19  1  0.183950  0.750000  0.716421  1
  Bi  Bi20  1  0.098825  0.250000  0.460308  1
  Bi  Bi21  1  0.561003  0.992680  0.326347  1
  Bi  Bi22  1  0.069613  0.506075  0.172940  1
  Bi  Bi23  1  0.434025  0.496377  0.675487  1
  Bi  Bi24  1  0.933808  0.003360  0.825791  1
  Bi  Bi25  1  0.434025  0.003623  0.675487  1
  Bi  Bi26  1  0.933808  0.496640  0.825791  1
  Bi  Bi27  1  0.561003  0.507320  0.326347  1
  Bi  Bi28  1  0.069613  0.993925  0.172940  1
  Sb  Sb29  1  0.404802  0.750000  0.957669  1
  Sb  Sb30  1  0.904854  0.750000  0.541589  1
  Sb  Sb31  1  0.593535  0.250000  0.038913  1
