# generated using pymatgen
data_Sm8Nb9Si16W3
_symmetry_space_group_name_H-M   'P 1'
_cell_length_a   7.08677267
_cell_length_b   7.08677267
_cell_length_c   13.12227008
_cell_angle_alpha   90.04558137
_cell_angle_beta   90.04558137
_cell_angle_gamma   90.01994446
_symmetry_Int_Tables_number   1
_chemical_formula_structural   Sm8Nb9Si16W3
_chemical_formula_sum   'Sm8 Nb9 Si16 W3'
_cell_volume   659.03074208
_cell_formula_units_Z   1
loop_
 _symmetry_equiv_pos_site_id
 _symmetry_equiv_pos_as_xyz
  1  'x, y, z'
loop_
 _atom_site_type_symbol
 _atom_site_label
 _atom_site_symmetry_multiplicity
 _atom_site_fract_x
 _atom_site_fract_y
 _atom_site_fract_z
 _atom_site_occupancy
  Sm  Sm0  1  0.998209  0.340563  0.217742  1
  Sm  Sm1  1  0.002403  0.660012  0.717292  1
  Sm  Sm2  1  0.159772  0.498162  0.467247  1
  Sm  Sm3  1  0.501838  0.840228  0.032753  1
  Sm  Sm4  1  0.840938  0.502903  0.968406  1
  Sm  Sm5  1  0.497097  0.159062  0.531594  1
  Sm  Sm6  1  0.339988  0.997597  0.782708  1
  Sm  Sm7  1  0.659437  0.001791  0.282258  1
  Nb  Nb8  1  0.670393  0.329607  0.750000  1
  Nb  Nb9  1  0.154453  0.992423  0.374695  1
  Nb  Nb10  1  0.845856  0.008025  0.875359  1
  Nb  Nb11  1  0.507176  0.654325  0.623910  1
  Nb  Nb12  1  0.345675  0.492824  0.876090  1
  Nb  Nb13  1  0.491314  0.345845  0.125049  1
  Nb  Nb14  1  0.654155  0.508686  0.374951  1
  Nb  Nb15  1  0.991975  0.154144  0.624641  1
  Nb  Nb16  1  0.007577  0.845547  0.125305  1
  Si  Si17  1  0.291174  0.044211  0.185667  1
  Si  Si18  1  0.708786  0.952896  0.684690  1
  Si  Si19  1  0.455219  0.791279  0.435159  1
  Si  Si20  1  0.208721  0.544781  0.064841  1
  Si  Si21  1  0.542746  0.207887  0.936938  1
  Si  Si22  1  0.792113  0.457254  0.563062  1
  Si  Si23  1  0.047104  0.291214  0.815310  1
  Si  Si24  1  0.955789  0.708826  0.314333  1
  Si  Si25  1  0.369764  0.298967  0.315414  1
  Si  Si26  1  0.630763  0.703750  0.815485  1
  Si  Si27  1  0.201082  0.869366  0.565192  1
  Si  Si28  1  0.130634  0.798918  0.934808  1
  Si  Si29  1  0.798661  0.130315  0.065440  1
  Si  Si30  1  0.869685  0.201339  0.434560  1
  Si  Si31  1  0.296250  0.369237  0.684515  1
  Si  Si32  1  0.701033  0.630236  0.184586  1
  W  W33  1  0.170729  0.168687  0.001148  1
  W  W34  1  0.831313  0.829271  0.498852  1
  W  W35  1  0.330178  0.669822  0.250000  1
