# generated using pymatgen
data_Li5Nd4Co14NiP12
_symmetry_space_group_name_H-M   'P 1'
_cell_length_a   3.74462300
_cell_length_b   10.42395216
_cell_length_c   12.14531573
_cell_angle_alpha   89.60187107
_cell_angle_beta   90.00000000
_cell_angle_gamma   90.00000000
_symmetry_Int_Tables_number   1
_chemical_formula_structural   Li5Nd4Co14NiP12
_chemical_formula_sum   'Li5 Nd4 Co14 Ni1 P12'
_cell_volume   474.06602819
_cell_formula_units_Z   1
loop_
 _symmetry_equiv_pos_site_id
 _symmetry_equiv_pos_as_xyz
  1  'x, y, z'
loop_
 _atom_site_type_symbol
 _atom_site_label
 _atom_site_symmetry_multiplicity
 _atom_site_fract_x
 _atom_site_fract_y
 _atom_site_fract_z
 _atom_site_occupancy
  Li  Li0  1  0.250000  0.701593  0.992755  1
  Li  Li1  1  0.250000  0.800240  0.495520  1
  Li  Li2  1  0.750000  0.298789  0.009095  1
  Li  Li3  1  0.750000  0.199901  0.507086  1
  Li  Li4  1  0.250000  0.403049  0.494116  1
  Nd  Nd5  1  0.250000  0.584211  0.705348  1
  Nd  Nd6  1  0.250000  0.918227  0.202658  1
  Nd  Nd7  1  0.750000  0.417882  0.295301  1
  Nd  Nd8  1  0.750000  0.081481  0.796133  1
  Co  Co9  1  0.250000  0.092156  0.985761  1
  Co  Co10  1  0.750000  0.905307  0.011457  1
  Co  Co11  1  0.250000  0.217688  0.165016  1
  Co  Co12  1  0.250000  0.284015  0.677535  1
  Co  Co13  1  0.750000  0.780590  0.829022  1
  Co  Co14  1  0.750000  0.719868  0.325016  1
  Co  Co15  1  0.250000  0.884372  0.699324  1
  Co  Co16  1  0.250000  0.620269  0.195874  1
  Co  Co17  1  0.750000  0.115507  0.296553  1
  Co  Co18  1  0.750000  0.380474  0.808958  1
  Co  Co19  1  0.250000  0.468546  0.934839  1
  Co  Co20  1  0.250000  0.032713  0.432708  1
  Co  Co21  1  0.750000  0.531563  0.067888  1
  Co  Co22  1  0.750000  0.970314  0.565521  1
  Ni  Ni23  1  0.750000  0.587359  0.509566  1
  P  P24  1  0.250000  0.422347  0.111863  1
  P  P25  1  0.250000  0.080697  0.611674  1
  P  P26  1  0.750000  0.578514  0.889952  1
  P  P27  1  0.750000  0.922807  0.387948  1
  P  P28  1  0.250000  0.274767  0.864294  1
  P  P29  1  0.250000  0.214918  0.345025  1
  P  P30  1  0.750000  0.724184  0.138333  1
  P  P31  1  0.750000  0.783719  0.646352  1
  P  P32  1  0.250000  0.614546  0.384126  1
  P  P33  1  0.250000  0.896406  0.893745  1
  P  P34  1  0.750000  0.390117  0.622558  1
  P  P35  1  0.750000  0.100864  0.101080  1
