# generated using pymatgen
data_Gd2YAl3Si2Pt
_symmetry_space_group_name_H-M   'P 1'
_cell_length_a   6.97746123
_cell_length_b   6.97025590
_cell_length_c   4.23217100
_cell_angle_alpha   90.00000000
_cell_angle_beta   90.00000000
_cell_angle_gamma   119.96583488
_symmetry_Int_Tables_number   1
_chemical_formula_structural   Gd2YAl3Si2Pt
_chemical_formula_sum   'Gd2 Y1 Al3 Si2 Pt1'
_cell_volume   178.31562706
_cell_formula_units_Z   1
loop_
 _symmetry_equiv_pos_site_id
 _symmetry_equiv_pos_as_xyz
  1  'x, y, z'
loop_
 _atom_site_type_symbol
 _atom_site_label
 _atom_site_symmetry_multiplicity
 _atom_site_fract_x
 _atom_site_fract_y
 _atom_site_fract_z
 _atom_site_occupancy
  Gd  Gd0  1  0.582876  0.000314  0.000000  1
  Gd  Gd1  1  0.417124  0.417436  0.000000  1
  Y  Y2  1  0.000000  0.583363  0.000000  1
  Al  Al3  1  0.235243  0.999147  0.499999  1
  Al  Al4  1  0.000000  0.236230  0.499999  1
  Al  Al5  1  0.764757  0.763904  0.499999  1
  Si  Si6  1  0.669282  0.335395  0.499999  1
  Si  Si7  1  0.330717  0.666114  0.499999  1
  Pt  Pt8  1  0.000000  0.998097  0.000000  1
