# generated using pymatgen
data_Pr2PdPtF14
_symmetry_space_group_name_H-M   'P 1'
_cell_length_a   5.70679600
_cell_length_b   9.26000425
_cell_length_c   12.35661300
_cell_angle_alpha   62.09643678
_cell_angle_beta   90.00000000
_cell_angle_gamma   90.00000000
_symmetry_Int_Tables_number   1
_chemical_formula_structural   Pr2PdPtF14
_chemical_formula_sum   'Pr4 Pd2 Pt2 F28'
_cell_volume   577.06639641
_cell_formula_units_Z   2
loop_
 _symmetry_equiv_pos_site_id
 _symmetry_equiv_pos_as_xyz
  1  'x, y, z'
loop_
 _atom_site_type_symbol
 _atom_site_label
 _atom_site_symmetry_multiplicity
 _atom_site_fract_x
 _atom_site_fract_y
 _atom_site_fract_z
 _atom_site_occupancy
  Pr  Pr0  1  0.760218  0.810050  0.764204  1
  Pr  Pr1  1  0.260218  0.189950  0.735796  1
  Pr  Pr2  1  0.239466  0.189178  0.234762  1
  Pr  Pr3  1  0.739466  0.810822  0.265238  1
  Pd  Pd4  1  0.755974  0.273590  0.956970  1
  Pd  Pd5  1  0.255974  0.726410  0.543030  1
  Pt  Pt6  1  0.243674  0.727247  0.042412  1
  Pt  Pt7  1  0.743674  0.272753  0.457588  1
  F  F8  1  0.433456  0.706679  0.917408  1
  F  F9  1  0.933456  0.293321  0.582592  1
  F  F10  1  0.564823  0.292433  0.080531  1
  F  F11  1  0.064823  0.707567  0.419469  1
  F  F12  1  0.452844  0.283506  0.539617  1
  F  F13  1  0.952844  0.716494  0.960383  1
  F  F14  1  0.542767  0.716297  0.460387  1
  F  F15  1  0.042767  0.283703  0.039613  1
  F  F16  1  0.763424  0.511465  0.861880  1
  F  F17  1  0.263424  0.488535  0.638120  1
  F  F18  1  0.236262  0.486888  0.139007  1
  F  F19  1  0.736262  0.513112  0.360993  1
  F  F20  1  0.757994  0.036000  0.047860  1
  F  F21  1  0.257994  0.964000  0.452140  1
  F  F22  1  0.241929  0.967499  0.950570  1
  F  F23  1  0.741929  0.032501  0.549430  1
  F  F24  1  0.974349  0.728451  0.631534  1
  F  F25  1  0.474349  0.271549  0.868466  1
  F  F26  1  0.030422  0.268327  0.370602  1
  F  F27  1  0.530422  0.731673  0.129398  1
  F  F28  1  0.057472  0.744189  0.170410  1
  F  F29  1  0.557472  0.255811  0.329590  1
  F  F30  1  0.942899  0.258741  0.830126  1
  F  F31  1  0.442899  0.741259  0.669874  1
  F  F32  1  0.409440  0.968281  0.230877  1
  F  F33  1  0.909440  0.031719  0.269123  1
  F  F34  1  0.592589  0.032453  0.768661  1
  F  F35  1  0.092589  0.967547  0.731339  1
