# generated using pymatgen
data_YEr2MoO7
_symmetry_space_group_name_H-M   'P 1'
_cell_length_a   6.41021045
_cell_length_b   6.41021159
_cell_length_c   7.46150000
_cell_angle_alpha   90.00000000
_cell_angle_beta   90.00000000
_cell_angle_gamma   109.23421848
_symmetry_Int_Tables_number   1
_chemical_formula_structural   YEr2MoO7
_chemical_formula_sum   'Y2 Er4 Mo2 O14'
_cell_volume   289.48462246
_cell_formula_units_Z   2
loop_
 _symmetry_equiv_pos_site_id
 _symmetry_equiv_pos_as_xyz
  1  'x, y, z'
loop_
 _atom_site_type_symbol
 _atom_site_label
 _atom_site_symmetry_multiplicity
 _atom_site_fract_x
 _atom_site_fract_y
 _atom_site_fract_z
 _atom_site_occupancy
  Y  Y0  1  0.500000  0.500000  0.500000  1
  Y  Y1  1  0.500000  0.500000  0.000000  1
  Er  Er2  1  0.535179  0.000918  0.750000  1
  Er  Er3  1  0.000918  0.535179  0.250000  1
  Er  Er4  1  0.464821  0.999082  0.250000  1
  Er  Er5  1  0.999082  0.464821  0.750000  1
  Mo  Mo6  1  0.000000  0.000000  0.500000  1
  Mo  Mo7  1  0.000000  0.000000  0.000000  1
  O  O8  1  0.676529  0.925739  0.469180  1
  O  O9  1  0.925739  0.676529  0.530820  1
  O  O10  1  0.676529  0.925739  0.030820  1
  O  O11  1  0.925739  0.676529  0.969180  1
  O  O12  1  0.323471  0.074261  0.530820  1
  O  O13  1  0.074261  0.323471  0.469180  1
  O  O14  1  0.323471  0.074261  0.969180  1
  O  O15  1  0.074261  0.323471  0.030820  1
  O  O16  1  0.924903  0.075097  0.750000  1
  O  O17  1  0.075097  0.924903  0.250000  1
  O  O18  1  0.367565  0.632435  0.750000  1
  O  O19  1  0.632435  0.367565  0.250000  1
  O  O20  1  0.638306  0.361694  0.750000  1
  O  O21  1  0.361694  0.638306  0.250000  1
