# generated using pymatgen
data_Ce2Nd3Y3(CdRu)2
_symmetry_space_group_name_H-M   'P 1'
_cell_length_a   9.76105510
_cell_length_b   9.76105558
_cell_length_c   9.76105700
_cell_angle_alpha   60.00000535
_cell_angle_beta   60.00000372
_cell_angle_gamma   60.00000411
_symmetry_Int_Tables_number   1
_chemical_formula_structural   Ce2Nd3Y3(CdRu)2
_chemical_formula_sum   'Ce4 Nd6 Y6 Cd4 Ru4'
_cell_volume   657.62065306
_cell_formula_units_Z   2
loop_
 _symmetry_equiv_pos_site_id
 _symmetry_equiv_pos_as_xyz
  1  'x, y, z'
loop_
 _atom_site_type_symbol
 _atom_site_label
 _atom_site_symmetry_multiplicity
 _atom_site_fract_x
 _atom_site_fract_y
 _atom_site_fract_z
 _atom_site_occupancy
  Ce  Ce0  1  0.344741  0.344741  0.965780  1
  Ce  Ce1  1  0.344741  0.965780  0.344741  1
  Ce  Ce2  1  0.965780  0.344741  0.344741  1
  Ce  Ce3  1  0.344741  0.344741  0.344741  1
  Nd  Nd4  1  0.558882  0.558882  0.941118  1
  Nd  Nd5  1  0.941118  0.558882  0.941118  1
  Nd  Nd6  1  0.558882  0.941118  0.941118  1
  Nd  Nd7  1  0.941118  0.941118  0.558882  1
  Nd  Nd8  1  0.558882  0.941118  0.558882  1
  Nd  Nd9  1  0.941118  0.558882  0.558882  1
  Y  Y10  1  0.187543  0.187543  0.812457  1
  Y  Y11  1  0.812457  0.187543  0.812457  1
  Y  Y12  1  0.187542  0.812458  0.812457  1
  Y  Y13  1  0.812457  0.812458  0.187543  1
  Y  Y14  1  0.187542  0.812457  0.187542  1
  Y  Y15  1  0.812457  0.187543  0.187543  1
  Cd  Cd16  1  0.579471  0.579471  0.261586  1
  Cd  Cd17  1  0.579471  0.261586  0.579471  1
  Cd  Cd18  1  0.261586  0.579471  0.579471  1
  Cd  Cd19  1  0.579471  0.579471  0.579471  1
  Ru  Ru20  1  0.145427  0.145427  0.563718  1
  Ru  Ru21  1  0.145427  0.563718  0.145427  1
  Ru  Ru22  1  0.563718  0.145427  0.145427  1
  Ru  Ru23  1  0.145427  0.145427  0.145427  1
