# generated using pymatgen
data_AcMnS2F
_symmetry_space_group_name_H-M   'P 1'
_cell_length_a   6.63539595
_cell_length_b   6.63539627
_cell_length_c   8.32270700
_cell_angle_alpha   91.48979508
_cell_angle_beta   91.48979515
_cell_angle_gamma   34.50222910
_symmetry_Int_Tables_number   1
_chemical_formula_structural   AcMnS2F
_chemical_formula_sum   'Ac2 Mn2 S4 F2'
_cell_volume   207.48654114
_cell_formula_units_Z   2
loop_
 _symmetry_equiv_pos_site_id
 _symmetry_equiv_pos_as_xyz
  1  'x, y, z'
loop_
 _atom_site_type_symbol
 _atom_site_label
 _atom_site_symmetry_multiplicity
 _atom_site_fract_x
 _atom_site_fract_y
 _atom_site_fract_z
 _atom_site_occupancy
  Ac  Ac0  1  0.247645  0.247645  0.240545  1
  Ac  Ac1  1  0.752355  0.752355  0.759455  1
  Mn  Mn2  1  0.000000  0.000000  0.000000  1
  Mn  Mn3  1  0.500000  0.500000  0.500000  1
  S  S4  1  0.558726  0.558726  0.191720  1
  S  S5  1  0.865089  0.865089  0.446465  1
  S  S6  1  0.134911  0.134911  0.553534  1
  S  S7  1  0.441274  0.441274  0.808280  1
  F  F8  1  0.818839  0.818839  0.067653  1
  F  F9  1  0.181160  0.181160  0.932347  1
