# generated using pymatgen
data_Zr2SnPt(SeO3)8
_symmetry_space_group_name_H-M   'P 1'
_cell_length_a   8.49756526
_cell_length_b   8.58048129
_cell_length_c   8.35067242
_cell_angle_alpha   89.97600549
_cell_angle_beta   89.86874931
_cell_angle_gamma   89.00443771
_symmetry_Int_Tables_number   1
_chemical_formula_structural   Zr2SnPt(SeO3)8
_chemical_formula_sum   'Zr2 Sn1 Pt1 Se8 O24'
_cell_volume   608.78069244
_cell_formula_units_Z   1
loop_
 _symmetry_equiv_pos_site_id
 _symmetry_equiv_pos_as_xyz
  1  'x, y, z'
loop_
 _atom_site_type_symbol
 _atom_site_label
 _atom_site_symmetry_multiplicity
 _atom_site_fract_x
 _atom_site_fract_y
 _atom_site_fract_z
 _atom_site_occupancy
  Zr  Zr0  1  0.500000  0.000000  0.500000  1
  Zr  Zr1  1  0.000000  0.000000  0.000000  1
  Sn  Sn2  1  0.000000  0.500000  0.500000  1
  Pt  Pt3  1  0.500000  0.500000  0.000000  1
  Se  Se4  1  0.828682  0.192019  0.665699  1
  Se  Se5  1  0.171318  0.807981  0.334301  1
  Se  Se6  1  0.680525  0.654203  0.699756  1
  Se  Se7  1  0.194672  0.656431  0.819134  1
  Se  Se8  1  0.333696  0.204919  0.835388  1
  Se  Se9  1  0.805328  0.343569  0.180866  1
  Se  Se10  1  0.666304  0.795081  0.164612  1
  Se  Se11  1  0.319475  0.345797  0.300244  1
  O  O12  1  0.239117  0.467172  0.447738  1
  O  O13  1  0.924315  0.225949  0.065191  1
  O  O14  1  0.024102  0.736307  0.459922  1
  O  O15  1  0.473842  0.265805  0.977939  1
  O  O16  1  0.269230  0.917737  0.472627  1
  O  O17  1  0.532052  0.524446  0.759806  1
  O  O18  1  0.937400  0.049339  0.761531  1
  O  O19  1  0.526158  0.734195  0.022061  1
  O  O20  1  0.551330  0.931317  0.263615  1
  O  O21  1  0.448670  0.068683  0.736385  1
  O  O22  1  0.772323  0.914571  0.042150  1
  O  O23  1  0.263606  0.527879  0.970097  1
  O  O24  1  0.053911  0.532402  0.742589  1
  O  O25  1  0.062600  0.950661  0.238469  1
  O  O26  1  0.227677  0.085429  0.957850  1
  O  O27  1  0.467948  0.475554  0.240194  1
  O  O28  1  0.760883  0.532828  0.552262  1
  O  O29  1  0.946089  0.467598  0.257411  1
  O  O30  1  0.075685  0.774051  0.934809  1
  O  O31  1  0.428533  0.222716  0.418870  1
  O  O32  1  0.571467  0.777284  0.581130  1
  O  O33  1  0.975898  0.263693  0.540078  1
  O  O34  1  0.730770  0.082263  0.527373  1
  O  O35  1  0.736394  0.472121  0.029903  1
