# generated using pymatgen
data_HfMg3(InRh2)4
_symmetry_space_group_name_H-M   'P 1'
_cell_length_a   6.35604839
_cell_length_b   6.36975245
_cell_length_c   6.48149202
_cell_angle_alpha   90.00205586
_cell_angle_beta   90.00081633
_cell_angle_gamma   90.07583643
_symmetry_Int_Tables_number   1
_chemical_formula_structural   HfMg3(InRh2)4
_chemical_formula_sum   'Hf1 Mg3 In4 Rh8'
_cell_volume   262.41240367
_cell_formula_units_Z   1
loop_
 _symmetry_equiv_pos_site_id
 _symmetry_equiv_pos_as_xyz
  1  'x, y, z'
loop_
 _atom_site_type_symbol
 _atom_site_label
 _atom_site_symmetry_multiplicity
 _atom_site_fract_x
 _atom_site_fract_y
 _atom_site_fract_z
 _atom_site_occupancy
  Hf  Hf0  1  0.749997  0.250004  0.500001  1
  Mg  Mg1  1  0.750015  0.249983  0.999997  1
  Mg  Mg2  1  0.249988  0.750008  0.000004  1
  Mg  Mg3  1  0.250001  0.749998  0.499994  1
  In  In4  1  0.250025  0.250000  0.000022  1
  In  In5  1  0.749967  0.750024  0.999999  1
  In  In6  1  0.750006  0.750038  0.500002  1
  In  In7  1  0.249997  0.249957  0.499986  1
  Rh  Rh8  1  0.998351  0.001497  0.250552  1
  Rh  Rh9  1  0.998311  0.498482  0.250576  1
  Rh  Rh10  1  0.501656  0.498497  0.250567  1
  Rh  Rh11  1  0.501668  0.001522  0.250578  1
  Rh  Rh12  1  0.501681  0.001528  0.749413  1
  Rh  Rh13  1  0.501645  0.498492  0.749433  1
  Rh  Rh14  1  0.998343  0.498480  0.749422  1
  Rh  Rh15  1  0.998353  0.001490  0.749455  1
