# generated using pymatgen
data_CsDy(SO4)2
_symmetry_space_group_name_H-M   'P 1'
_cell_length_a   5.49821200
_cell_length_b   5.49821313
_cell_length_c   8.78691300
_cell_angle_alpha   90.00000000
_cell_angle_beta   90.00000000
_cell_angle_gamma   120.00000521
_symmetry_Int_Tables_number   1
_chemical_formula_structural   CsDy(SO4)2
_chemical_formula_sum   'Cs1 Dy1 S2 O8'
_cell_volume   230.04351118
_cell_formula_units_Z   1
loop_
 _symmetry_equiv_pos_site_id
 _symmetry_equiv_pos_as_xyz
  1  'x, y, z'
loop_
 _atom_site_type_symbol
 _atom_site_label
 _atom_site_symmetry_multiplicity
 _atom_site_fract_x
 _atom_site_fract_y
 _atom_site_fract_z
 _atom_site_occupancy
  Cs  Cs0  1  0.000000  0.000000  0.500000  1
  Dy  Dy1  1  0.000000  0.000000  0.000000  1
  S  S2  1  0.333333  0.666667  0.214490  1
  S  S3  1  0.666667  0.333333  0.785510  1
  O  O4  1  0.166124  0.373656  0.154212  1
  O  O5  1  0.626344  0.792467  0.154212  1
  O  O6  1  0.373656  0.166124  0.845788  1
  O  O7  1  0.207533  0.833876  0.154212  1
  O  O8  1  0.792467  0.626344  0.845788  1
  O  O9  1  0.833876  0.207533  0.845788  1
  O  O10  1  0.333333  0.666667  0.380477  1
  O  O11  1  0.666667  0.333333  0.619523  1
