# generated using pymatgen
data_Tb11Cd9Pt4
_symmetry_space_group_name_H-M   'P 1'
_cell_length_a   13.20763377
_cell_length_b   13.20763451
_cell_length_c   3.72980400
_cell_angle_alpha   90.00000000
_cell_angle_beta   90.00000000
_cell_angle_gamma   112.47392053
_symmetry_Int_Tables_number   1
_chemical_formula_structural   Tb11Cd9Pt4
_chemical_formula_sum   'Tb11 Cd9 Pt4'
_cell_volume   601.21975904
_cell_formula_units_Z   1
loop_
 _symmetry_equiv_pos_site_id
 _symmetry_equiv_pos_as_xyz
  1  'x, y, z'
loop_
 _atom_site_type_symbol
 _atom_site_label
 _atom_site_symmetry_multiplicity
 _atom_site_fract_x
 _atom_site_fract_y
 _atom_site_fract_z
 _atom_site_occupancy
  Tb  Tb0  1  0.415933  0.076481  0.000000  1
  Tb  Tb1  1  0.584067  0.923519  0.000000  1
  Tb  Tb2  1  0.076481  0.415933  0.000000  1
  Tb  Tb3  1  0.923519  0.584067  0.000000  1
  Tb  Tb4  1  0.163018  0.836982  0.000000  1
  Tb  Tb5  1  0.836982  0.163018  0.000000  1
  Tb  Tb6  1  0.372828  0.627172  0.000000  1
  Tb  Tb7  1  0.627172  0.372828  0.000000  1
  Tb  Tb8  1  0.308222  0.308222  0.000000  1
  Tb  Tb9  1  0.691778  0.691778  0.000000  1
  Tb  Tb10  1  0.000000  0.000000  0.000000  1
  Cd  Cd11  1  0.365434  0.842696  0.500000  1
  Cd  Cd12  1  0.634566  0.157304  0.500000  1
  Cd  Cd13  1  0.842696  0.365434  0.500000  1
  Cd  Cd14  1  0.157304  0.634566  0.500000  1
  Cd  Cd15  1  0.213127  0.068318  0.500000  1
  Cd  Cd16  1  0.786873  0.931682  0.500000  1
  Cd  Cd17  1  0.068318  0.213127  0.500000  1
  Cd  Cd18  1  0.931682  0.786873  0.500000  1
  Cd  Cd19  1  0.500000  0.500000  0.500000  1
  Pt  Pt20  1  0.450789  0.248962  0.500000  1
  Pt  Pt21  1  0.549211  0.751038  0.500000  1
  Pt  Pt22  1  0.248962  0.450789  0.500000  1
  Pt  Pt23  1  0.751038  0.549211  0.500000  1
