# generated using pymatgen
data_HoLu3InPd11
_symmetry_space_group_name_H-M   'P 1'
_cell_length_a   4.16191100
_cell_length_b   5.81144649
_cell_length_c   11.59397400
_cell_angle_alpha   87.99793382
_cell_angle_beta   90.00000000
_cell_angle_gamma   90.00000000
_symmetry_Int_Tables_number   1
_chemical_formula_structural   HoLu3InPd11
_chemical_formula_sum   'Ho1 Lu3 In1 Pd11'
_cell_volume   280.24906110
_cell_formula_units_Z   1
loop_
 _symmetry_equiv_pos_site_id
 _symmetry_equiv_pos_as_xyz
  1  'x, y, z'
loop_
 _atom_site_type_symbol
 _atom_site_label
 _atom_site_symmetry_multiplicity
 _atom_site_fract_x
 _atom_site_fract_y
 _atom_site_fract_z
 _atom_site_occupancy
  Ho  Ho0  1  0.500000  0.760985  0.377287  1
  Lu  Lu1  1  0.500000  0.707633  0.858843  1
  Lu  Lu2  1  0.500000  0.292201  0.140687  1
  Lu  Lu3  1  0.500000  0.238902  0.623602  1
  In  In4  1  0.000000  0.000264  0.999335  1
  Pd  Pd5  1  0.000000  0.024483  0.247694  1
  Pd  Pd6  1  0.000000  0.976912  0.751413  1
  Pd  Pd7  1  0.000000  0.500039  0.999553  1
  Pd  Pd8  1  0.000000  0.498346  0.501262  1
  Pd  Pd9  1  0.000000  0.526592  0.249200  1
  Pd  Pd10  1  0.000000  0.472104  0.749859  1
  Pd  Pd11  1  0.500000  0.260536  0.377442  1
  Pd  Pd12  1  0.500000  0.220345  0.882311  1
  Pd  Pd13  1  0.500000  0.779809  0.116278  1
  Pd  Pd14  1  0.500000  0.739316  0.623881  1
  Pd  Pd15  1  0.000000  0.001533  0.501354  1
