# generated using pymatgen
data_Gd2Ho4ReB14Ru
_symmetry_space_group_name_H-M   'P 1'
_cell_length_a   8.05144817
_cell_length_b   8.05144698
_cell_length_c   9.37366000
_cell_angle_alpha   90.00000000
_cell_angle_beta   90.00000000
_cell_angle_gamma   154.67320005
_symmetry_Int_Tables_number   1
_chemical_formula_structural   Gd2Ho4ReB14Ru
_chemical_formula_sum   'Gd2 Ho4 Re1 B14 Ru1'
_cell_volume   259.94311635
_cell_formula_units_Z   1
loop_
 _symmetry_equiv_pos_site_id
 _symmetry_equiv_pos_as_xyz
  1  'x, y, z'
loop_
 _atom_site_type_symbol
 _atom_site_label
 _atom_site_symmetry_multiplicity
 _atom_site_fract_x
 _atom_site_fract_y
 _atom_site_fract_z
 _atom_site_occupancy
  Gd  Gd0  1  0.244934  0.755066  0.250000  1
  Gd  Gd1  1  0.755285  0.244715  0.750000  1
  Ho  Ho2  1  0.894875  0.105125  0.058858  1
  Ho  Ho3  1  0.105192  0.894808  0.559783  1
  Ho  Ho4  1  0.105192  0.894808  0.940217  1
  Ho  Ho5  1  0.894875  0.105125  0.441142  1
  Re  Re6  1  0.947278  0.052721  0.750000  1
  B  B7  1  0.456768  0.543232  0.250000  1
  B  B8  1  0.544210  0.455790  0.750000  1
  B  B9  1  0.726352  0.273648  0.033260  1
  B  B10  1  0.273072  0.726928  0.532231  1
  B  B11  1  0.273072  0.726928  0.967769  1
  B  B12  1  0.726352  0.273648  0.466740  1
  B  B13  1  0.631161  0.368839  0.348497  1
  B  B14  1  0.368116  0.631884  0.849262  1
  B  B15  1  0.368116  0.631884  0.650738  1
  B  B16  1  0.631161  0.368839  0.151503  1
  B  B17  1  0.520547  0.479453  0.403375  1
  B  B18  1  0.479597  0.520403  0.904371  1
  B  B19  1  0.479597  0.520403  0.595629  1
  B  B20  1  0.520547  0.479453  0.096625  1
  Ru  Ru21  1  0.053704  0.946296  0.250000  1
