# generated using pymatgen
data_Nd2Tm3Mg(P2Ru3)6
_symmetry_space_group_name_H-M   'P 1'
_cell_length_a   12.64767576
_cell_length_b   12.48970504
_cell_length_c   3.98627600
_cell_angle_alpha   90.00000000
_cell_angle_beta   90.00000000
_cell_angle_gamma   119.58768968
_symmetry_Int_Tables_number   1
_chemical_formula_structural   Nd2Tm3Mg(P2Ru3)6
_chemical_formula_sum   'Nd2 Tm3 Mg1 P12 Ru18'
_cell_volume   547.58345608
_cell_formula_units_Z   1
loop_
 _symmetry_equiv_pos_site_id
 _symmetry_equiv_pos_as_xyz
  1  'x, y, z'
loop_
 _atom_site_type_symbol
 _atom_site_label
 _atom_site_symmetry_multiplicity
 _atom_site_fract_x
 _atom_site_fract_y
 _atom_site_fract_z
 _atom_site_occupancy
  Nd  Nd0  1  0.816057  0.815759  0.500000  1
  Nd  Nd1  1  0.183943  0.999702  0.500000  1
  Tm  Tm2  1  0.000000  0.181085  0.500000  1
  Tm  Tm3  1  0.658663  0.327163  0.000000  1
  Tm  Tm4  1  0.341337  0.668502  0.000000  1
  Mg  Mg5  1  0.000000  0.559970  0.000000  1
  P  P6  1  0.000000  0.808083  0.000000  1
  P  P7  1  0.182966  0.186521  0.000000  1
  P  P8  1  0.817034  0.003554  0.000000  1
  P  P9  1  0.691717  0.173814  0.500000  1
  P  P10  1  0.815623  0.515777  0.500000  1
  P  P11  1  0.473818  0.306093  0.500000  1
  P  P12  1  0.184377  0.700154  0.500000  1
  P  P13  1  0.526182  0.832275  0.500000  1
  P  P14  1  0.308283  0.482097  0.500000  1
  P  P15  1  0.000000  0.359241  0.000000  1
  P  P16  1  0.623714  0.624555  0.000000  1
  P  P17  1  0.376286  0.000841  0.000000  1
  Ru  Ru18  1  0.443055  0.445685  0.000000  1
  Ru  Ru19  1  0.556945  0.002630  0.000000  1
  Ru  Ru20  1  0.000000  0.711288  0.500000  1
  Ru  Ru21  1  0.281414  0.285656  0.500000  1
  Ru  Ru22  1  0.718586  0.004241  0.500000  1
  Ru  Ru23  1  0.805738  0.186346  0.000000  1
  Ru  Ru24  1  0.811962  0.615279  0.000000  1
  Ru  Ru25  1  0.376139  0.193298  0.000000  1
  Ru  Ru26  1  0.188038  0.803317  0.000000  1
  Ru  Ru27  1  0.623861  0.817159  0.000000  1
  Ru  Ru28  1  0.194262  0.380608  0.000000  1
  Ru  Ru29  1  0.874005  0.365954  0.500000  1
  Ru  Ru30  1  0.628696  0.507069  0.500000  1
  Ru  Ru31  1  0.493413  0.129541  0.500000  1
  Ru  Ru32  1  0.371304  0.878373  0.500000  1
  Ru  Ru33  1  0.506587  0.636127  0.500000  1
  Ru  Ru34  1  0.125995  0.491948  0.500000  1
  Ru  Ru35  1  0.000000  0.000294  0.000000  1
