# generated using pymatgen
data_TbTm2Bi5O14
_symmetry_space_group_name_H-M   'P 1'
_cell_length_a   6.59799675
_cell_length_b   6.72178154
_cell_length_c   7.75982100
_cell_angle_alpha   106.76432002
_cell_angle_beta   89.53880632
_cell_angle_gamma   99.02044522
_symmetry_Int_Tables_number   1
_chemical_formula_structural   TbTm2Bi5O14
_chemical_formula_sum   'Tb1 Tm2 Bi5 O14'
_cell_volume   325.19675546
_cell_formula_units_Z   1
loop_
 _symmetry_equiv_pos_site_id
 _symmetry_equiv_pos_as_xyz
  1  'x, y, z'
loop_
 _atom_site_type_symbol
 _atom_site_label
 _atom_site_symmetry_multiplicity
 _atom_site_fract_x
 _atom_site_fract_y
 _atom_site_fract_z
 _atom_site_occupancy
  Tb  Tb0  1  0.263995  0.539170  0.884974  1
  Tm  Tm1  1  0.462845  0.004047  0.252996  1
  Tm  Tm2  1  0.538201  0.994350  0.750865  1
  Bi  Bi3  1  0.002434  0.006014  0.502093  1
  Bi  Bi4  1  0.002261  0.001384  0.999665  1
  Bi  Bi5  1  0.739254  0.473418  0.114886  1
  Bi  Bi6  1  0.723112  0.461924  0.614096  1
  Bi  Bi7  1  0.269780  0.532910  0.389157  1
  O  O8  1  0.449487  0.657541  0.168017  1
  O  O9  1  0.538049  0.338791  0.822887  1
  O  O10  1  0.304851  0.924463  0.949015  1
  O  O11  1  0.694550  0.052285  0.049908  1
  O  O12  1  0.302903  0.924981  0.516460  1
  O  O13  1  0.698290  0.077390  0.485855  1
  O  O14  1  0.531748  0.352164  0.347727  1
  O  O15  1  0.459188  0.646536  0.659944  1
  O  O16  1  0.934912  0.667328  0.953750  1
  O  O17  1  0.080583  0.328830  0.039103  1
  O  O18  1  0.091110  0.334077  0.625209  1
  O  O19  1  0.910149  0.678094  0.373194  1
  O  O20  1  0.872012  0.931948  0.732766  1
  O  O21  1  0.130285  0.072356  0.267437  1
