# generated using pymatgen
data_Th3Be2Co9B4
_symmetry_space_group_name_H-M   'P 1'
_cell_length_a   5.06741400
_cell_length_b   5.06785286
_cell_length_c   9.65335500
_cell_angle_alpha   90.00001371
_cell_angle_beta   89.99996127
_cell_angle_gamma   119.99713544
_symmetry_Int_Tables_number   1
_chemical_formula_structural   Th3Be2Co9B4
_chemical_formula_sum   'Th3 Be2 Co9 B4'
_cell_volume   214.69989328
_cell_formula_units_Z   1
loop_
 _symmetry_equiv_pos_site_id
 _symmetry_equiv_pos_as_xyz
  1  'x, y, z'
loop_
 _atom_site_type_symbol
 _atom_site_label
 _atom_site_symmetry_multiplicity
 _atom_site_fract_x
 _atom_site_fract_y
 _atom_site_fract_z
 _atom_site_occupancy
  Th  Th0  1  0.999991  0.000000  0.999990  1
  Th  Th1  1  0.999990  0.000000  0.335283  1
  Th  Th2  1  0.999996  0.000000  0.664743  1
  Be  Be3  1  0.333271  0.666555  0.000032  1
  Be  Be4  1  0.666716  0.333445  0.000032  1
  Co  Co5  1  0.499996  0.000000  0.499970  1
  Co  Co6  1  0.499995  0.500000  0.499964  1
  Co  Co7  1  0.999995  0.500000  0.499964  1
  Co  Co8  1  0.499992  0.000000  0.188834  1
  Co  Co9  1  0.499994  0.500001  0.188830  1
  Co  Co10  1  0.999994  0.499999  0.188830  1
  Co  Co11  1  0.499995  0.000000  0.811199  1
  Co  Co12  1  0.499998  0.500001  0.811181  1
  Co  Co13  1  0.999997  0.499999  0.811181  1
  B  B14  1  0.333345  0.666704  0.340622  1
  B  B15  1  0.666641  0.333296  0.340622  1
  B  B16  1  0.666669  0.333343  0.659361  1
  B  B17  1  0.333325  0.666657  0.659361  1
