# generated using pymatgen
data_CaEr4HfH18
_symmetry_space_group_name_H-M   'P 1'
_cell_length_a   6.19963539
_cell_length_b   6.20858455
_cell_length_c   6.45879628
_cell_angle_alpha   89.86820823
_cell_angle_beta   89.99883822
_cell_angle_gamma   119.99274293
_symmetry_Int_Tables_number   1
_chemical_formula_structural   CaEr4HfH18
_chemical_formula_sum   'Ca1 Er4 Hf1 H18'
_cell_volume   215.31345772
_cell_formula_units_Z   1
loop_
 _symmetry_equiv_pos_site_id
 _symmetry_equiv_pos_as_xyz
  1  'x, y, z'
loop_
 _atom_site_type_symbol
 _atom_site_label
 _atom_site_symmetry_multiplicity
 _atom_site_fract_x
 _atom_site_fract_y
 _atom_site_fract_z
 _atom_site_occupancy
  Ca  Ca0  1  0.335510  0.338238  0.750165  1
  Er  Er1  1  0.996073  0.658636  0.749626  1
  Er  Er2  1  0.662208  0.663523  0.252831  1
  Er  Er3  1  0.001013  0.334217  0.246141  1
  Er  Er4  1  0.336613  0.001979  0.250921  1
  Hf  Hf5  1  0.657159  0.998817  0.750222  1
  H  H6  1  0.345286  0.952977  0.906012  1
  H  H7  1  0.651615  0.708439  0.905016  1
  H  H8  1  0.012583  0.352462  0.907809  1
  H  H9  1  0.315743  0.341433  0.404646  1
  H  H10  1  0.031270  0.680450  0.409543  1
  H  H11  1  0.658222  0.973559  0.421508  1
  H  H12  1  0.683086  0.027839  0.078876  1
  H  H13  1  0.346587  0.319664  0.095562  1
  H  H14  1  0.973286  0.660573  0.090151  1
  H  H15  1  0.687464  0.661412  0.590837  1
  H  H16  1  0.931095  0.304513  0.594532  1
  H  H17  1  0.380716  0.023967  0.595400  1
  H  H18  1  0.666715  0.311588  0.817717  1
  H  H19  1  0.667988  0.334587  0.307516  1
  H  H20  1  0.332920  0.666892  0.191902  1
  H  H21  1  0.349632  0.689490  0.682518  1
  H  H22  1  0.977219  0.995817  0.749767  1
  H  H23  1  0.999993  0.998929  0.250782  1
