# generated using pymatgen
data_LaSm3Y(FeB3)2
_symmetry_space_group_name_H-M   'P 1'
_cell_length_a   5.47512017
_cell_length_b   5.47512004
_cell_length_c   8.42552186
_cell_angle_alpha   71.03970752
_cell_angle_beta   71.03971005
_cell_angle_gamma   60.00000056
_symmetry_Int_Tables_number   1
_chemical_formula_structural   LaSm3Y(FeB3)2
_chemical_formula_sum   'La1 Sm3 Y1 Fe2 B6'
_cell_volume   202.75545831
_cell_formula_units_Z   1
loop_
 _symmetry_equiv_pos_site_id
 _symmetry_equiv_pos_as_xyz
  1  'x, y, z'
loop_
 _atom_site_type_symbol
 _atom_site_label
 _atom_site_symmetry_multiplicity
 _atom_site_fract_x
 _atom_site_fract_y
 _atom_site_fract_z
 _atom_site_occupancy
  La  La0  1  0.000531  0.000531  0.998408  1
  Sm  Sm1  1  0.748605  0.748605  0.754186  1
  Sm  Sm2  1  0.251093  0.251093  0.246719  1
  Sm  Sm3  1  0.583042  0.583042  0.250874  1
  Y  Y4  1  0.419091  0.419091  0.742728  1
  Fe  Fe5  1  0.882871  0.882871  0.351385  1
  Fe  Fe6  1  0.116593  0.116593  0.650223  1
  B  B7  1  0.500031  0.166060  0.500913  1
  B  B8  1  0.832996  0.500031  0.500913  1
  B  B9  1  0.166060  0.832996  0.500913  1
  B  B10  1  0.166060  0.500031  0.500913  1
  B  B11  1  0.832996  0.166060  0.500913  1
  B  B12  1  0.500031  0.832996  0.500913  1
