# generated using pymatgen
data_Nb13Co12W
_symmetry_space_group_name_H-M   'P 1'
_cell_length_a   4.96477718
_cell_length_b   4.96448240
_cell_length_c   17.72252487
_cell_angle_alpha   98.00069997
_cell_angle_beta   98.01679483
_cell_angle_gamma   60.06872978
_symmetry_Int_Tables_number   1
_chemical_formula_structural   Nb13Co12W
_chemical_formula_sum   'Nb13 Co12 W1'
_cell_volume   373.62176272
_cell_formula_units_Z   1
loop_
 _symmetry_equiv_pos_site_id
 _symmetry_equiv_pos_as_xyz
  1  'x, y, z'
loop_
 _atom_site_type_symbol
 _atom_site_label
 _atom_site_symmetry_multiplicity
 _atom_site_fract_x
 _atom_site_fract_y
 _atom_site_fract_z
 _atom_site_occupancy
  Nb  Nb0  1  0.417097  0.417130  0.250505  1
  Nb  Nb1  1  0.916782  0.916796  0.751571  1
  Nb  Nb2  1  0.083218  0.083204  0.248429  1
  Nb  Nb3  1  0.582903  0.582870  0.749495  1
  Nb  Nb4  1  0.774438  0.774437  0.325748  1
  Nb  Nb5  1  0.274541  0.274536  0.825205  1
  Nb  Nb6  1  0.725459  0.725464  0.174795  1
  Nb  Nb7  1  0.225562  0.225563  0.674252  1
  Nb  Nb8  1  0.827852  0.827850  0.481629  1
  Nb  Nb9  1  0.327382  0.327390  0.979928  1
  Nb  Nb10  1  0.672618  0.672610  0.020072  1
  Nb  Nb11  1  0.172148  0.172150  0.518371  1
  Nb  Nb12  1  0.500000  0.500000  0.500000  1
  Co  Co13  1  0.698871  0.209128  0.115944  1
  Co  Co14  1  0.199184  0.710954  0.618620  1
  Co  Co15  1  0.208459  0.208455  0.116097  1
  Co  Co16  1  0.709915  0.709910  0.618767  1
  Co  Co17  1  0.209127  0.698878  0.115944  1
  Co  Co18  1  0.710954  0.199187  0.618615  1
  Co  Co19  1  0.800816  0.289046  0.381380  1
  Co  Co20  1  0.301129  0.790872  0.884056  1
  Co  Co21  1  0.290085  0.290090  0.381233  1
  Co  Co22  1  0.791541  0.791545  0.883903  1
  Co  Co23  1  0.289046  0.800813  0.381385  1
  Co  Co24  1  0.790873  0.301122  0.884056  1
  W  W25  1  0.000000  0.000000  0.000000  1
