# generated using pymatgen
data_Pr4NdP12PdRu18
_symmetry_space_group_name_H-M   'P 1'
_cell_length_a   12.71141261
_cell_length_b   12.62237433
_cell_length_c   4.03186800
_cell_angle_alpha   90.00000000
_cell_angle_beta   90.00000000
_cell_angle_gamma   119.76660646
_symmetry_Int_Tables_number   1
_chemical_formula_structural   Pr4NdP12PdRu18
_chemical_formula_sum   'Pr4 Nd1 P12 Pd1 Ru18'
_cell_volume   561.54995612
_cell_formula_units_Z   1
loop_
 _symmetry_equiv_pos_site_id
 _symmetry_equiv_pos_as_xyz
  1  'x, y, z'
loop_
 _atom_site_type_symbol
 _atom_site_label
 _atom_site_symmetry_multiplicity
 _atom_site_fract_x
 _atom_site_fract_y
 _atom_site_fract_z
 _atom_site_occupancy
  Pr  Pr0  1  0.000013  0.182489  0.500000  1
  Pr  Pr1  1  0.816191  0.815361  0.500000  1
  Pr  Pr2  1  0.183781  0.999134  0.500000  1
  Pr  Pr3  1  0.661944  0.330648  0.000000  1
  Nd  Nd4  1  0.338158  0.668718  0.000000  1
  P  P5  1  0.000087  0.808547  0.000000  1
  P  P6  1  0.186299  0.187616  0.000000  1
  P  P7  1  0.813649  0.001187  0.000000  1
  P  P8  1  0.694046  0.171820  0.500000  1
  P  P9  1  0.820071  0.521973  0.500000  1
  P  P10  1  0.472878  0.304386  0.500000  1
  P  P11  1  0.180402  0.701708  0.500000  1
  P  P12  1  0.526553  0.830992  0.500000  1
  P  P13  1  0.306069  0.478382  0.500000  1
  P  P14  1  0.999983  0.367898  0.000000  1
  P  P15  1  0.623711  0.624607  0.000000  1
  P  P16  1  0.376295  0.000897  0.000000  1
  Pd  Pd17  1  0.000003  0.552569  0.000000  1
  Ru  Ru18  1  0.444238  0.445732  0.000000  1
  Ru  Ru19  1  0.555695  0.001397  0.000000  1
  Ru  Ru20  1  0.000114  0.709641  0.500000  1
  Ru  Ru21  1  0.283843  0.285965  0.500000  1
  Ru  Ru22  1  0.716011  0.001857  0.500000  1
  Ru  Ru23  1  0.805423  0.185648  0.000000  1
  Ru  Ru24  1  0.814359  0.619754  0.000000  1
  Ru  Ru25  1  0.375884  0.193056  0.000000  1
  Ru  Ru26  1  0.185876  0.805216  0.000000  1
  Ru  Ru27  1  0.623727  0.816956  0.000000  1
  Ru  Ru28  1  0.194734  0.380619  0.000000  1
  Ru  Ru29  1  0.875879  0.368139  0.500000  1
  Ru  Ru30  1  0.629440  0.508556  0.500000  1
  Ru  Ru31  1  0.490680  0.125229  0.500000  1
  Ru  Ru32  1  0.370616  0.878591  0.500000  1
  Ru  Ru33  1  0.508752  0.634574  0.500000  1
  Ru  Ru34  1  0.124608  0.492741  0.500000  1
  Ru  Ru35  1  0.999987  0.997394  0.000000  1
