# generated using pymatgen
data_ErLu5BiO12
_symmetry_space_group_name_H-M   'P 1'
_cell_length_a   6.43845341
_cell_length_b   6.43164303
_cell_length_c   6.44216058
_cell_angle_alpha   99.22234539
_cell_angle_beta   99.16836396
_cell_angle_gamma   99.30693282
_symmetry_Int_Tables_number   1
_chemical_formula_structural   ErLu5BiO12
_chemical_formula_sum   'Er1 Lu5 Bi1 O12'
_cell_volume   255.11143305
_cell_formula_units_Z   1
loop_
 _symmetry_equiv_pos_site_id
 _symmetry_equiv_pos_as_xyz
  1  'x, y, z'
loop_
 _atom_site_type_symbol
 _atom_site_label
 _atom_site_symmetry_multiplicity
 _atom_site_fract_x
 _atom_site_fract_y
 _atom_site_fract_z
 _atom_site_occupancy
  Er  Er0  1  0.391703  0.689299  0.858559  1
  Lu  Lu1  1  0.608602  0.309473  0.139809  1
  Lu  Lu2  1  0.141511  0.607763  0.310575  1
  Lu  Lu3  1  0.690746  0.859765  0.392528  1
  Lu  Lu4  1  0.311516  0.142548  0.607540  1
  Lu  Lu5  1  0.857773  0.390689  0.688848  1
  Bi  Bi6  1  0.000609  0.001008  0.000961  1
  O  O7  1  0.681707  0.928561  0.057282  1
  O  O8  1  0.947390  0.320933  0.075454  1
  O  O9  1  0.431368  0.581657  0.182006  1
  O  O10  1  0.075536  0.945540  0.320220  1
  O  O11  1  0.819978  0.569300  0.417688  1
  O  O12  1  0.583287  0.179647  0.429930  1
  O  O13  1  0.417063  0.823441  0.566392  1
  O  O14  1  0.176980  0.428900  0.579924  1
  O  O15  1  0.924016  0.053438  0.680676  1
  O  O16  1  0.570307  0.412889  0.820833  1
  O  O17  1  0.050226  0.679502  0.925279  1
  O  O18  1  0.319685  0.075647  0.945495  1
