# generated using pymatgen
data_Cs3Na2ZrAs3
_symmetry_space_group_name_H-M   'P 1'
_cell_length_a   11.17635835
_cell_length_b   11.17635802
_cell_length_c   16.86304300
_cell_angle_alpha   90.00000000
_cell_angle_beta   90.00000000
_cell_angle_gamma   142.79167678
_symmetry_Int_Tables_number   1
_chemical_formula_structural   Cs3Na2ZrAs3
_chemical_formula_sum   'Cs12 Na8 Zr4 As12'
_cell_volume   1273.75875575
_cell_formula_units_Z   4
loop_
 _symmetry_equiv_pos_site_id
 _symmetry_equiv_pos_as_xyz
  1  'x, y, z'
loop_
 _atom_site_type_symbol
 _atom_site_label
 _atom_site_symmetry_multiplicity
 _atom_site_fract_x
 _atom_site_fract_y
 _atom_site_fract_z
 _atom_site_occupancy
  Cs  Cs0  1  0.605291  0.943258  0.823732  1
  Cs  Cs1  1  0.275707  0.275707  0.316531  1
  Cs  Cs2  1  0.224293  0.224293  0.816531  1
  Cs  Cs3  1  0.724293  0.724293  0.683469  1
  Cs  Cs4  1  0.443258  0.105291  0.676268  1
  Cs  Cs5  1  0.894709  0.556742  0.323732  1
  Cs  Cs6  1  0.056742  0.394709  0.176268  1
  Cs  Cs7  1  0.394709  0.056742  0.176268  1
  Cs  Cs8  1  0.556742  0.894709  0.323732  1
  Cs  Cs9  1  0.105291  0.443258  0.676268  1
  Cs  Cs10  1  0.943258  0.605291  0.823732  1
  Cs  Cs11  1  0.775707  0.775707  0.183469  1
  Na  Na12  1  0.080961  0.919039  0.000000  1
  Na  Na13  1  0.580961  0.419039  0.500000  1
  Na  Na14  1  0.919039  0.080961  0.000000  1
  Na  Na15  1  0.754630  0.245370  0.000000  1
  Na  Na16  1  0.745370  0.254630  0.500000  1
  Na  Na17  1  0.245370  0.754630  0.000000  1
  Na  Na18  1  0.254630  0.745370  0.500000  1
  Na  Na19  1  0.419039  0.580961  0.500000  1
  Zr  Zr20  1  0.085895  0.914105  0.500000  1
  Zr  Zr21  1  0.414105  0.585895  0.000000  1
  Zr  Zr22  1  0.914105  0.085895  0.500000  1
  Zr  Zr23  1  0.585895  0.414105  0.000000  1
  As  As24  1  0.058962  0.371438  0.408156  1
  As  As25  1  0.871438  0.558962  0.091844  1
  As  As26  1  0.441038  0.128562  0.908156  1
  As  As27  1  0.628562  0.941038  0.591844  1
  As  As28  1  0.941038  0.628562  0.591844  1
  As  As29  1  0.128562  0.441038  0.908156  1
  As  As30  1  0.558962  0.871438  0.091844  1
  As  As31  1  0.371438  0.058962  0.408156  1
  As  As32  1  0.199992  0.199992  0.583266  1
  As  As33  1  0.699992  0.699992  0.916734  1
  As  As34  1  0.300008  0.300008  0.083266  1
  As  As35  1  0.800008  0.800008  0.416734  1
