# generated using pymatgen
data_Er3Tm13CdIn3Rh4
_symmetry_space_group_name_H-M   'P 1'
_cell_length_a   9.52940183
_cell_length_b   9.52660470
_cell_length_c   9.53567279
_cell_angle_alpha   60.02506893
_cell_angle_beta   60.00246161
_cell_angle_gamma   59.91825067
_symmetry_Int_Tables_number   1
_chemical_formula_structural   Er3Tm13CdIn3Rh4
_chemical_formula_sum   'Er3 Tm13 Cd1 In3 Rh4'
_cell_volume   611.87298216
_cell_formula_units_Z   1
loop_
 _symmetry_equiv_pos_site_id
 _symmetry_equiv_pos_as_xyz
  1  'x, y, z'
loop_
 _atom_site_type_symbol
 _atom_site_label
 _atom_site_symmetry_multiplicity
 _atom_site_fract_x
 _atom_site_fract_y
 _atom_site_fract_z
 _atom_site_occupancy
  Er  Er0  1  0.061298  0.061442  0.438633  1
  Er  Er1  1  0.436617  0.064913  0.436626  1
  Er  Er2  1  0.061711  0.438415  0.061514  1
  Tm  Tm3  1  0.050664  0.648629  0.648629  1
  Tm  Tm4  1  0.436765  0.436856  0.064375  1
  Tm  Tm5  1  0.648607  0.050881  0.648571  1
  Tm  Tm6  1  0.188945  0.811690  0.188547  1
  Tm  Tm7  1  0.188839  0.188772  0.811678  1
  Tm  Tm8  1  0.809957  0.809792  0.190735  1
  Tm  Tm9  1  0.438602  0.061430  0.061061  1
  Tm  Tm10  1  0.812036  0.188736  0.188407  1
  Tm  Tm11  1  0.064368  0.436961  0.437012  1
  Tm  Tm12  1  0.809999  0.190887  0.809915  1
  Tm  Tm13  1  0.191001  0.809893  0.810002  1
  Tm  Tm14  1  0.648369  0.648360  0.051154  1
  Tm  Tm15  1  0.651181  0.651207  0.651655  1
  Cd  Cd16  1  0.417299  0.417549  0.417234  1
  In  In17  1  0.748185  0.417402  0.417294  1
  In  In18  1  0.417461  0.748280  0.417082  1
  In  In19  1  0.417219  0.417002  0.748768  1
  Rh  Rh20  1  0.858549  0.858266  0.426715  1
  Rh  Rh21  1  0.856943  0.857370  0.857443  1
  Rh  Rh22  1  0.427284  0.858131  0.858603  1
  Rh  Rh23  1  0.858103  0.427137  0.858348  1
