# generated using pymatgen
data_Tb2YAg3HgGe2
_symmetry_space_group_name_H-M   'P 1'
_cell_length_a   7.32091807
_cell_length_b   7.32091908
_cell_length_c   4.24866000
_cell_angle_alpha   90.00000000
_cell_angle_beta   90.00000000
_cell_angle_gamma   119.94525180
_symmetry_Int_Tables_number   1
_chemical_formula_structural   Tb2YAg3HgGe2
_chemical_formula_sum   'Tb2 Y1 Ag3 Hg1 Ge2'
_cell_volume   197.31181426
_cell_formula_units_Z   1
loop_
 _symmetry_equiv_pos_site_id
 _symmetry_equiv_pos_as_xyz
  1  'x, y, z'
loop_
 _atom_site_type_symbol
 _atom_site_label
 _atom_site_symmetry_multiplicity
 _atom_site_fract_x
 _atom_site_fract_y
 _atom_site_fract_z
 _atom_site_occupancy
  Tb  Tb0  1  0.578475  0.000086  0.000000  1
  Tb  Tb1  1  0.000086  0.578475  0.000000  1
  Y  Y2  1  0.421827  0.421827  0.000000  1
  Ag  Ag3  1  0.262152  0.000073  0.500000  1
  Ag  Ag4  1  0.000073  0.262152  0.500000  1
  Ag  Ag5  1  0.737655  0.737655  0.500000  1
  Hg  Hg6  1  0.999636  0.999636  0.000000  1
  Ge  Ge7  1  0.333486  0.666608  0.500000  1
  Ge  Ge8  1  0.666608  0.333486  0.500000  1
