# generated using pymatgen
data_Ca3Pr17Ga12
_symmetry_space_group_name_H-M   'P 1'
_cell_length_a   7.94386700
_cell_length_b   7.94386700
_cell_length_c   14.64015300
_cell_angle_alpha   90.00000000
_cell_angle_beta   90.00000000
_cell_angle_gamma   90.00000000
_symmetry_Int_Tables_number   1
_chemical_formula_structural   Ca3Pr17Ga12
_chemical_formula_sum   'Ca3 Pr17 Ga12'
_cell_volume   923.86719052
_cell_formula_units_Z   1
loop_
 _symmetry_equiv_pos_site_id
 _symmetry_equiv_pos_as_xyz
  1  'x, y, z'
loop_
 _atom_site_type_symbol
 _atom_site_label
 _atom_site_symmetry_multiplicity
 _atom_site_fract_x
 _atom_site_fract_y
 _atom_site_fract_z
 _atom_site_occupancy
  Ca  Ca0  1  0.000000  0.500000  0.734806  1
  Ca  Ca1  1  0.000000  0.500000  0.238004  1
  Ca  Ca2  1  0.500000  0.000000  0.258749  1
  Pr  Pr3  1  0.818583  0.834156  0.602657  1
  Pr  Pr4  1  0.177479  0.833634  0.101393  1
  Pr  Pr5  1  0.166721  0.821269  0.396925  1
  Pr  Pr6  1  0.833279  0.178731  0.396925  1
  Pr  Pr7  1  0.678731  0.666721  0.396925  1
  Pr  Pr8  1  0.665844  0.318583  0.602657  1
  Pr  Pr9  1  0.334156  0.681417  0.602657  1
  Pr  Pr10  1  0.666366  0.677479  0.101393  1
  Pr  Pr11  1  0.679334  0.339692  0.897607  1
  Pr  Pr12  1  0.839692  0.820666  0.897607  1
  Pr  Pr13  1  0.321269  0.333279  0.396925  1
  Pr  Pr14  1  0.181417  0.165844  0.602657  1
  Pr  Pr15  1  0.822521  0.166366  0.101393  1
  Pr  Pr16  1  0.320666  0.660308  0.897607  1
  Pr  Pr17  1  0.333634  0.322521  0.101393  1
  Pr  Pr18  1  0.160308  0.179334  0.897607  1
  Pr  Pr19  1  0.500000  0.000000  0.784107  1
  Ga  Ga20  1  0.617590  0.382789  0.249464  1
  Ga  Ga21  1  0.119381  0.882462  0.748319  1
  Ga  Ga22  1  0.382462  0.380619  0.748319  1
  Ga  Ga23  1  0.382410  0.617211  0.249464  1
  Ga  Ga24  1  0.882789  0.882410  0.249464  1
  Ga  Ga25  1  0.617538  0.619381  0.748319  1
  Ga  Ga26  1  0.000000  0.500000  0.503847  1
  Ga  Ga27  1  0.880619  0.117538  0.748319  1
  Ga  Ga28  1  0.500000  0.000000  0.491923  1
  Ga  Ga29  1  0.500000  0.000000  0.999026  1
  Ga  Ga30  1  0.117211  0.117590  0.249464  1
  Ga  Ga31  1  0.000000  0.500000  0.004082  1
