# generated using pymatgen
data_ErTm2In3CuPt2
_symmetry_space_group_name_H-M   'P 1'
_cell_length_a   7.70754806
_cell_length_b   7.70754703
_cell_length_c   3.69963100
_cell_angle_alpha   90.00000000
_cell_angle_beta   90.00000000
_cell_angle_gamma   120.19408648
_symmetry_Int_Tables_number   1
_chemical_formula_structural   ErTm2In3CuPt2
_chemical_formula_sum   'Er1 Tm2 In3 Cu1 Pt2'
_cell_volume   189.96289102
_cell_formula_units_Z   1
loop_
 _symmetry_equiv_pos_site_id
 _symmetry_equiv_pos_as_xyz
  1  'x, y, z'
loop_
 _atom_site_type_symbol
 _atom_site_label
 _atom_site_symmetry_multiplicity
 _atom_site_fract_x
 _atom_site_fract_y
 _atom_site_fract_z
 _atom_site_occupancy
  Er  Er0  1  0.411949  0.411949  0.500000  1
  Tm  Tm1  1  0.587913  0.999986  0.500000  1
  Tm  Tm2  1  0.999986  0.587913  0.500000  1
  In  In3  1  0.999989  0.255788  0.000000  1
  In  In4  1  0.744097  0.744097  0.000000  1
  In  In5  1  0.255788  0.999989  0.000000  1
  Cu  Cu6  1  0.999775  0.999775  0.500000  1
  Pt  Pt7  1  0.667709  0.332795  0.000000  1
  Pt  Pt8  1  0.332795  0.667709  0.000000  1
