# generated using pymatgen
data_Ce5CrTcB6
_symmetry_space_group_name_H-M   'P 1'
_cell_length_a   5.42120923
_cell_length_b   5.42121136
_cell_length_c   8.40256411
_cell_angle_alpha   71.18019771
_cell_angle_beta   71.18021544
_cell_angle_gamma   59.99999241
_symmetry_Int_Tables_number   1
_chemical_formula_structural   Ce5CrTcB6
_chemical_formula_sum   'Ce5 Cr1 Tc1 B6'
_cell_volume   198.47159816
_cell_formula_units_Z   1
loop_
 _symmetry_equiv_pos_site_id
 _symmetry_equiv_pos_as_xyz
  1  'x, y, z'
loop_
 _atom_site_type_symbol
 _atom_site_label
 _atom_site_symmetry_multiplicity
 _atom_site_fract_x
 _atom_site_fract_y
 _atom_site_fract_z
 _atom_site_occupancy
  Ce  Ce0  1  0.991739  0.991739  0.024782  1
  Ce  Ce1  1  0.746706  0.746706  0.759883  1
  Ce  Ce2  1  0.252749  0.252749  0.241755  1
  Ce  Ce3  1  0.586664  0.586664  0.240007  1
  Ce  Ce4  1  0.413862  0.413862  0.758417  1
  Cr  Cr5  1  0.890932  0.890932  0.327207  1
  Tc  Tc6  1  0.108885  0.108885  0.673344  1
  B  B7  1  0.503924  0.168605  0.495768  1
  B  B8  1  0.831704  0.503924  0.495768  1
  B  B9  1  0.168605  0.831704  0.495768  1
  B  B10  1  0.168605  0.503924  0.495768  1
  B  B11  1  0.831704  0.168605  0.495768  1
  B  B12  1  0.503924  0.831704  0.495768  1
