# generated using pymatgen
data_La16Tm4(Ir3Ru)3
_symmetry_space_group_name_H-M   'P 1'
_cell_length_a   11.29457400
_cell_length_b   11.29457400
_cell_length_c   6.55949600
_cell_angle_alpha   90.00000000
_cell_angle_beta   90.00000000
_cell_angle_gamma   90.00000000
_symmetry_Int_Tables_number   1
_chemical_formula_structural   La16Tm4(Ir3Ru)3
_chemical_formula_sum   'La16 Tm4 Ir9 Ru3'
_cell_volume   836.77786211
_cell_formula_units_Z   1
loop_
 _symmetry_equiv_pos_site_id
 _symmetry_equiv_pos_as_xyz
  1  'x, y, z'
loop_
 _atom_site_type_symbol
 _atom_site_label
 _atom_site_symmetry_multiplicity
 _atom_site_fract_x
 _atom_site_fract_y
 _atom_site_fract_z
 _atom_site_occupancy
  La  La0  1  0.290588  0.086526  0.386715  1
  La  La1  1  0.290817  0.913712  0.887153  1
  La  La2  1  0.709183  0.086288  0.887153  1
  La  La3  1  0.709412  0.913474  0.386715  1
  La  La4  1  0.586288  0.790817  0.887153  1
  La  La5  1  0.586526  0.209412  0.386715  1
  La  La6  1  0.413474  0.790588  0.386715  1
  La  La7  1  0.413712  0.209183  0.887153  1
  La  La8  1  0.211422  0.412644  0.614844  1
  La  La9  1  0.211112  0.587194  0.111749  1
  La  La10  1  0.788888  0.412806  0.111749  1
  La  La11  1  0.788578  0.587356  0.614844  1
  La  La12  1  0.912806  0.711112  0.111749  1
  La  La13  1  0.912644  0.288578  0.614844  1
  La  La14  1  0.087356  0.711422  0.614844  1
  La  La15  1  0.087194  0.288888  0.111749  1
  Tm  Tm16  1  0.000000  0.000000  0.499379  1
  Tm  Tm17  1  0.000000  0.000000  0.999480  1
  Tm  Tm18  1  0.500000  0.500000  0.999480  1
  Tm  Tm19  1  0.500000  0.500000  0.499379  1
  Ir  Ir20  1  0.853925  0.146812  0.250155  1
  Ir  Ir21  1  0.853720  0.853170  0.749903  1
  Ir  Ir22  1  0.146280  0.146830  0.749903  1
  Ir  Ir23  1  0.146075  0.853188  0.250155  1
  Ir  Ir24  1  0.646830  0.353720  0.749903  1
  Ir  Ir25  1  0.646812  0.646075  0.250155  1
  Ir  Ir26  1  0.353188  0.353925  0.250155  1
  Ir  Ir27  1  0.353170  0.646280  0.749903  1
  Ir  Ir28  1  0.000000  0.500000  0.381802  1
  Ru  Ru29  1  0.500000  0.000000  0.117548  1
  Ru  Ru30  1  0.500000  0.000000  0.617221  1
  Ru  Ru31  1  0.000000  0.500000  0.883633  1
