# generated using pymatgen
data_Y7Er3(SiHg)4
_symmetry_space_group_name_H-M   'P 1'
_cell_length_a   8.78882128
_cell_length_b   8.77772400
_cell_length_c   7.55495593
_cell_angle_alpha   90.05410785
_cell_angle_beta   90.06866924
_cell_angle_gamma   129.17210885
_symmetry_Int_Tables_number   1
_chemical_formula_structural   Y7Er3(SiHg)4
_chemical_formula_sum   'Y7 Er3 Si4 Hg4'
_cell_volume   451.84144429
_cell_formula_units_Z   1
loop_
 _symmetry_equiv_pos_site_id
 _symmetry_equiv_pos_as_xyz
  1  'x, y, z'
loop_
 _atom_site_type_symbol
 _atom_site_label
 _atom_site_symmetry_multiplicity
 _atom_site_fract_x
 _atom_site_fract_y
 _atom_site_fract_z
 _atom_site_occupancy
  Y  Y0  1  0.054445  0.309508  0.324911  1
  Y  Y1  1  0.945694  0.691065  0.674947  1
  Y  Y2  1  0.445161  0.190764  0.824414  1
  Y  Y3  1  0.808854  0.554538  0.175630  1
  Y  Y4  1  0.554772  0.808981  0.175659  1
  Y  Y5  1  0.191507  0.445936  0.824569  1
  Y  Y6  1  0.691671  0.945794  0.675253  1
  Er  Er7  1  0.307398  0.053488  0.325308  1
  Er  Er8  1  0.000859  0.000072  0.000531  1
  Er  Er9  1  0.499854  0.499204  0.499610  1
  Si  Si10  1  0.380107  0.379074  0.123520  1
  Si  Si11  1  0.619816  0.619700  0.877230  1
  Si  Si12  1  0.119965  0.119664  0.621789  1
  Si  Si13  1  0.881517  0.881055  0.377315  1
  Hg  Hg14  1  0.783393  0.217186  0.999814  1
  Hg  Hg15  1  0.217051  0.783858  0.001489  1
  Hg  Hg16  1  0.714578  0.281381  0.498777  1
  Hg  Hg17  1  0.283359  0.718733  0.499233  1
