# generated using pymatgen
data_Cs6Rb2SrPbBr12
_symmetry_space_group_name_H-M   'P 1'
_cell_length_a   9.94945060
_cell_length_b   9.94945129
_cell_length_c   9.94945203
_cell_angle_alpha   90.55863368
_cell_angle_beta   90.55863579
_cell_angle_gamma   90.55863164
_symmetry_Int_Tables_number   1
_chemical_formula_structural   Cs6Rb2SrPbBr12
_chemical_formula_sum   'Cs6 Rb2 Sr1 Pb1 Br12'
_cell_volume   984.77055651
_cell_formula_units_Z   1
loop_
 _symmetry_equiv_pos_site_id
 _symmetry_equiv_pos_as_xyz
  1  'x, y, z'
loop_
 _atom_site_type_symbol
 _atom_site_label
 _atom_site_symmetry_multiplicity
 _atom_site_fract_x
 _atom_site_fract_y
 _atom_site_fract_z
 _atom_site_occupancy
  Cs  Cs0  1  0.749960  0.128847  0.371632  1
  Cs  Cs1  1  0.371632  0.749960  0.128847  1
  Cs  Cs2  1  0.128847  0.371632  0.749960  1
  Cs  Cs3  1  0.250040  0.871153  0.628368  1
  Cs  Cs4  1  0.628368  0.250040  0.871153  1
  Cs  Cs5  1  0.871153  0.628368  0.250040  1
  Rb  Rb6  1  0.250303  0.250303  0.250303  1
  Rb  Rb7  1  0.749697  0.749697  0.749697  1
  Sr  Sr8  1  0.000000  0.000000  0.000000  1
  Pb  Pb9  1  0.500000  0.500000  0.500000  1
  Br  Br10  1  0.447827  0.575488  0.793385  1
  Br  Br11  1  0.793385  0.447827  0.575488  1
  Br  Br12  1  0.575488  0.793385  0.447827  1
  Br  Br13  1  0.052077  0.707099  0.924595  1
  Br  Br14  1  0.924595  0.052077  0.707099  1
  Br  Br15  1  0.707099  0.924595  0.052077  1
  Br  Br16  1  0.552173  0.424512  0.206615  1
  Br  Br17  1  0.206615  0.552173  0.424512  1
  Br  Br18  1  0.424512  0.206615  0.552173  1
  Br  Br19  1  0.947923  0.292901  0.075405  1
  Br  Br20  1  0.292901  0.075405  0.947923  1
  Br  Br21  1  0.075405  0.947923  0.292901  1
