# generated using pymatgen
data_Dy7ErNp4O24
_symmetry_space_group_name_H-M   'P 1'
_cell_length_a   5.52983657
_cell_length_b   7.83200094
_cell_length_c   11.83847356
_cell_angle_alpha   73.81822264
_cell_angle_beta   89.96288707
_cell_angle_gamma   89.95442633
_symmetry_Int_Tables_number   1
_chemical_formula_structural   Dy7ErNp4O24
_chemical_formula_sum   'Dy7 Er1 Np4 O24'
_cell_volume   492.40758500
_cell_formula_units_Z   1
loop_
 _symmetry_equiv_pos_site_id
 _symmetry_equiv_pos_as_xyz
  1  'x, y, z'
loop_
 _atom_site_type_symbol
 _atom_site_label
 _atom_site_symmetry_multiplicity
 _atom_site_fract_x
 _atom_site_fract_y
 _atom_site_fract_z
 _atom_site_occupancy
  Dy  Dy0  1  0.185922  0.205909  0.420503  1
  Dy  Dy1  1  0.185184  0.794397  0.079332  1
  Dy  Dy2  1  0.814297  0.794150  0.579431  1
  Dy  Dy3  1  0.698237  0.499860  0.249831  1
  Dy  Dy4  1  0.302031  0.499575  0.750592  1
  Dy  Dy5  1  0.745022  0.000232  0.249483  1
  Dy  Dy6  1  0.254952  0.000410  0.750613  1
  Er  Er7  1  0.814365  0.206664  0.920068  1
  Np  Np8  1  0.256529  0.278988  0.112893  1
  Np  Np9  1  0.256357  0.720881  0.386405  1
  Np  Np10  1  0.743517  0.720942  0.886437  1
  Np  Np11  1  0.743991  0.278926  0.614118  1
  O  O12  1  0.449977  0.198629  0.273233  1
  O  O13  1  0.449866  0.801294  0.226062  1
  O  O14  1  0.550071  0.800982  0.726371  1
  O  O15  1  0.551373  0.198571  0.774981  1
  O  O16  1  0.045609  0.056449  0.103032  1
  O  O17  1  0.045396  0.943848  0.396544  1
  O  O18  1  0.952638  0.945560  0.896871  1
  O  O19  1  0.954722  0.056142  0.603684  1
  O  O20  1  0.964496  0.286748  0.232989  1
  O  O21  1  0.964011  0.713205  0.266768  1
  O  O22  1  0.036272  0.713603  0.767285  1
  O  O23  1  0.035690  0.286481  0.734039  1
  O  O24  1  0.872452  0.372776  0.445353  1
  O  O25  1  0.872469  0.627164  0.054772  1
  O  O26  1  0.127513  0.626906  0.554972  1
  O  O27  1  0.125141  0.372007  0.944810  1
  O  O28  1  0.611905  0.518381  0.617068  1
  O  O29  1  0.613768  0.480341  0.883083  1
  O  O30  1  0.387967  0.481328  0.382937  1
  O  O31  1  0.387660  0.518317  0.116552  1
  O  O32  1  0.445420  0.152209  0.569353  1
  O  O33  1  0.444546  0.847259  0.931114  1
  O  O34  1  0.554356  0.848260  0.431116  1
  O  O35  1  0.556279  0.152607  0.067304  1
