# generated using pymatgen
data_Lu3Zn2In3Ru
_symmetry_space_group_name_H-M   'P 1'
_cell_length_a   7.72174600
_cell_length_b   7.72174583
_cell_length_c   3.74301500
_cell_angle_alpha   90.00000000
_cell_angle_beta   90.00000000
_cell_angle_gamma   119.99999331
_symmetry_Int_Tables_number   1
_chemical_formula_structural   Lu3Zn2In3Ru
_chemical_formula_sum   'Lu3 Zn2 In3 Ru1'
_cell_volume   193.27836470
_cell_formula_units_Z   1
loop_
 _symmetry_equiv_pos_site_id
 _symmetry_equiv_pos_as_xyz
  1  'x, y, z'
loop_
 _atom_site_type_symbol
 _atom_site_label
 _atom_site_symmetry_multiplicity
 _atom_site_fract_x
 _atom_site_fract_y
 _atom_site_fract_z
 _atom_site_occupancy
  Lu  Lu0  1  0.583249  0.614488  0.000000  1
  Lu  Lu1  1  0.385512  0.968761  0.000000  1
  Lu  Lu2  1  0.031239  0.416751  0.000000  1
  Zn  Zn3  1  0.000000  0.000000  0.000000  1
  Zn  Zn4  1  0.666667  0.333333  0.500000  1
  In  In5  1  0.994047  0.729476  0.500000  1
  In  In6  1  0.270524  0.264571  0.500000  1
  In  In7  1  0.735429  0.005953  0.500000  1
  Ru  Ru8  1  0.333333  0.666667  0.500000  1
