# generated using pymatgen
data_Tb8Ta12Si15Ni
_symmetry_space_group_name_H-M   'P 1'
_cell_length_a   7.03860404
_cell_length_b   7.08188421
_cell_length_c   13.02963982
_cell_angle_alpha   90.23093988
_cell_angle_beta   89.97506321
_cell_angle_gamma   90.00833979
_symmetry_Int_Tables_number   1
_chemical_formula_structural   Tb8Ta12Si15Ni
_chemical_formula_sum   'Tb8 Ta12 Si15 Ni1'
_cell_volume   649.47762348
_cell_formula_units_Z   1
loop_
 _symmetry_equiv_pos_site_id
 _symmetry_equiv_pos_as_xyz
  1  'x, y, z'
loop_
 _atom_site_type_symbol
 _atom_site_label
 _atom_site_symmetry_multiplicity
 _atom_site_fract_x
 _atom_site_fract_y
 _atom_site_fract_z
 _atom_site_occupancy
  Tb  Tb0  1  0.999142  0.342462  0.218769  1
  Tb  Tb1  1  0.004355  0.656407  0.717147  1
  Tb  Tb2  1  0.164744  0.491555  0.464651  1
  Tb  Tb3  1  0.502717  0.843447  0.032244  1
  Tb  Tb4  1  0.840862  0.502743  0.968149  1
  Tb  Tb5  1  0.496382  0.156924  0.534045  1
  Tb  Tb6  1  0.341684  0.997520  0.782953  1
  Tb  Tb7  1  0.655763  0.004843  0.283195  1
  Ta  Ta8  1  0.170477  0.172744  0.999243  1
  Ta  Ta9  1  0.826321  0.825734  0.500001  1
  Ta  Ta10  1  0.328564  0.674089  0.249945  1
  Ta  Ta11  1  0.673162  0.327408  0.749830  1
  Ta  Ta12  1  0.153889  0.993823  0.376602  1
  Ta  Ta13  1  0.847340  0.008501  0.876178  1
  Ta  Ta14  1  0.510109  0.652069  0.625074  1
  Ta  Ta15  1  0.347218  0.493010  0.874776  1
  Ta  Ta16  1  0.491668  0.347441  0.125136  1
  Ta  Ta17  1  0.644286  0.507283  0.375113  1
  Ta  Ta18  1  0.993560  0.150804  0.624077  1
  Ta  Ta19  1  0.007273  0.848908  0.123834  1
  Si  Si20  1  0.635214  0.702892  0.817319  1
  Si  Si21  1  0.202726  0.863053  0.566589  1
  Si  Si22  1  0.133868  0.796842  0.932548  1
  Si  Si23  1  0.795532  0.135210  0.068005  1
  Si  Si24  1  0.864676  0.201523  0.433427  1
  Si  Si25  1  0.297616  0.365901  0.683536  1
  Si  Si26  1  0.702172  0.637121  0.183492  1
  Si  Si27  1  0.292278  0.051266  0.188157  1
  Si  Si28  1  0.707109  0.951992  0.686402  1
  Si  Si29  1  0.452559  0.794861  0.435725  1
  Si  Si30  1  0.206214  0.547939  0.063876  1
  Si  Si31  1  0.546032  0.208221  0.936194  1
  Si  Si32  1  0.794637  0.451723  0.563422  1
  Si  Si33  1  0.046137  0.293476  0.813760  1
  Si  Si34  1  0.954757  0.705924  0.313814  1
  Ni  Ni35  1  0.368956  0.294344  0.312776  1
