# generated using pymatgen
data_GdLu(ZnSn)2
_symmetry_space_group_name_H-M   'P 1'
_cell_length_a   4.53594100
_cell_length_b   4.53594250
_cell_length_c   15.56868200
_cell_angle_alpha   90.00000000
_cell_angle_beta   90.00000000
_cell_angle_gamma   120.00001095
_symmetry_Int_Tables_number   1
_chemical_formula_structural   GdLu(ZnSn)2
_chemical_formula_sum   'Gd2 Lu2 Zn4 Sn4'
_cell_volume   277.40697023
_cell_formula_units_Z   2
loop_
 _symmetry_equiv_pos_site_id
 _symmetry_equiv_pos_as_xyz
  1  'x, y, z'
loop_
 _atom_site_type_symbol
 _atom_site_label
 _atom_site_symmetry_multiplicity
 _atom_site_fract_x
 _atom_site_fract_y
 _atom_site_fract_z
 _atom_site_occupancy
  Gd  Gd0  1  0.000000  0.000000  0.000000  1
  Gd  Gd1  1  0.000000  0.000000  0.500000  1
  Lu  Lu2  1  0.000000  0.000000  0.250000  1
  Lu  Lu3  1  0.000000  0.000000  0.750000  1
  Zn  Zn4  1  0.333333  0.666667  0.162246  1
  Zn  Zn5  1  0.666667  0.333333  0.837754  1
  Zn  Zn6  1  0.666667  0.333333  0.662246  1
  Zn  Zn7  1  0.333333  0.666667  0.337754  1
  Sn  Sn8  1  0.333333  0.666667  0.616067  1
  Sn  Sn9  1  0.666667  0.333333  0.383933  1
  Sn  Sn10  1  0.666667  0.333333  0.116067  1
  Sn  Sn11  1  0.333333  0.666667  0.883933  1
