# generated using pymatgen
data_Yb2HoTm(Ga2Ag)4
_symmetry_space_group_name_H-M   'P 1'
_cell_length_a   4.34371800
_cell_length_b   6.95489388
_cell_length_c   10.32451618
_cell_angle_alpha   90.75646896
_cell_angle_beta   90.00000000
_cell_angle_gamma   90.00000000
_symmetry_Int_Tables_number   1
_chemical_formula_structural   Yb2HoTm(Ga2Ag)4
_chemical_formula_sum   'Yb2 Ho1 Tm1 Ga8 Ag4'
_cell_volume   311.87745820
_cell_formula_units_Z   1
loop_
 _symmetry_equiv_pos_site_id
 _symmetry_equiv_pos_as_xyz
  1  'x, y, z'
loop_
 _atom_site_type_symbol
 _atom_site_label
 _atom_site_symmetry_multiplicity
 _atom_site_fract_x
 _atom_site_fract_y
 _atom_site_fract_z
 _atom_site_occupancy
  Yb  Yb0  1  0.750000  0.723928  0.327941  1
  Yb  Yb1  1  0.250000  0.276065  0.671936  1
  Ho  Ho2  1  0.250000  0.776935  0.828386  1
  Tm  Tm3  1  0.750000  0.223150  0.171513  1
  Ga  Ga4  1  0.250000  0.702722  0.535209  1
  Ga  Ga5  1  0.750000  0.297024  0.464483  1
  Ga  Ga6  1  0.750000  0.797207  0.035665  1
  Ga  Ga7  1  0.250000  0.203070  0.964677  1
  Ga  Ga8  1  0.250000  0.928520  0.151188  1
  Ga  Ga9  1  0.750000  0.072174  0.848925  1
  Ga  Ga10  1  0.750000  0.572526  0.652062  1
  Ga  Ga11  1  0.250000  0.427252  0.347693  1
  Ag  Ag12  1  0.250000  0.542071  0.099327  1
  Ag  Ag13  1  0.750000  0.457313  0.901080  1
  Ag  Ag14  1  0.750000  0.959524  0.598936  1
  Ag  Ag15  1  0.250000  0.040520  0.400979  1
