# generated using pymatgen
data_Zr3Sc(Co3Si)2
_symmetry_space_group_name_H-M   'P 1'
_cell_length_a   5.06015300
_cell_length_b   5.06015271
_cell_length_c   7.62939200
_cell_angle_alpha   90.00000000
_cell_angle_beta   90.00000000
_cell_angle_gamma   119.99999535
_symmetry_Int_Tables_number   1
_chemical_formula_structural   Zr3Sc(Co3Si)2
_chemical_formula_sum   'Zr3 Sc1 Co6 Si2'
_cell_volume   169.17954546
_cell_formula_units_Z   1
loop_
 _symmetry_equiv_pos_site_id
 _symmetry_equiv_pos_as_xyz
  1  'x, y, z'
loop_
 _atom_site_type_symbol
 _atom_site_label
 _atom_site_symmetry_multiplicity
 _atom_site_fract_x
 _atom_site_fract_y
 _atom_site_fract_z
 _atom_site_occupancy
  Zr  Zr0  1  0.333333  0.666667  0.565276  1
  Zr  Zr1  1  0.666667  0.333333  0.437734  1
  Zr  Zr2  1  0.666667  0.333333  0.052929  1
  Sc  Sc3  1  0.333333  0.666667  0.945480  1
  Co  Co4  1  0.832319  0.167681  0.748768  1
  Co  Co5  1  0.661220  0.830609  0.250998  1
  Co  Co6  1  0.169391  0.830609  0.250998  1
  Co  Co7  1  0.832319  0.664640  0.748768  1
  Co  Co8  1  0.169391  0.338780  0.250998  1
  Co  Co9  1  0.335360  0.167681  0.748768  1
  Si  Si10  1  0.000000  0.000000  0.498142  1
  Si  Si11  1  0.000000  0.000000  0.001142  1
