# generated using pymatgen
data_Yb15Tm4LuPt16
_symmetry_space_group_name_H-M   'P 1'
_cell_length_a   7.45256892
_cell_length_b   7.53138073
_cell_length_c   14.48624349
_cell_angle_alpha   90.05145646
_cell_angle_beta   90.01869790
_cell_angle_gamma   90.01062630
_symmetry_Int_Tables_number   1
_chemical_formula_structural   Yb15Tm4LuPt16
_chemical_formula_sum   'Yb15 Tm4 Lu1 Pt16'
_cell_volume   813.08542986
_cell_formula_units_Z   1
loop_
 _symmetry_equiv_pos_site_id
 _symmetry_equiv_pos_as_xyz
  1  'x, y, z'
loop_
 _atom_site_type_symbol
 _atom_site_label
 _atom_site_symmetry_multiplicity
 _atom_site_fract_x
 _atom_site_fract_y
 _atom_site_fract_z
 _atom_site_occupancy
  Yb  Yb0  1  0.851233  0.665834  0.122033  1
  Yb  Yb1  1  0.647733  0.166123  0.878146  1
  Yb  Yb2  1  0.147726  0.333656  0.621122  1
  Yb  Yb3  1  0.490910  0.675357  0.594834  1
  Yb  Yb4  1  0.990705  0.823324  0.905727  1
  Yb  Yb5  1  0.509483  0.322278  0.093632  1
  Yb  Yb6  1  0.007633  0.177954  0.405750  1
  Yb  Yb7  1  0.508777  0.322648  0.404990  1
  Yb  Yb8  1  0.007305  0.180059  0.094006  1
  Yb  Yb9  1  0.491217  0.678939  0.904805  1
  Yb  Yb10  1  0.991414  0.820336  0.595702  1
  Yb  Yb11  1  0.809113  0.506114  0.750144  1
  Yb  Yb12  1  0.308438  0.992406  0.750051  1
  Yb  Yb13  1  0.189393  0.490019  0.249126  1
  Yb  Yb14  1  0.694675  0.008472  0.249440  1
  Tm  Tm15  1  0.648568  0.162266  0.623162  1
  Tm  Tm16  1  0.149218  0.335970  0.876123  1
  Tm  Tm17  1  0.352045  0.835837  0.124033  1
  Tm  Tm18  1  0.852351  0.664723  0.376987  1
  Lu  Lu19  1  0.352153  0.834187  0.376840  1
  Pt  Pt20  1  0.682934  0.957761  0.459076  1
  Pt  Pt21  1  0.189784  0.540628  0.039090  1
  Pt  Pt22  1  0.309739  0.040932  0.961423  1
  Pt  Pt23  1  0.812255  0.457517  0.538540  1
  Pt  Pt24  1  0.324536  0.030738  0.540264  1
  Pt  Pt25  1  0.828464  0.466008  0.956805  1
  Pt  Pt26  1  0.672240  0.965924  0.043848  1
  Pt  Pt27  1  0.177563  0.544423  0.456524  1
  Pt  Pt28  1  0.443362  0.377796  0.747145  1
  Pt  Pt29  1  0.943174  0.120292  0.751338  1
  Pt  Pt30  1  0.553064  0.624455  0.252555  1
  Pt  Pt31  1  0.060573  0.877719  0.253943  1
  Pt  Pt32  1  0.679838  0.863705  0.746374  1
  Pt  Pt33  1  0.180366  0.635507  0.753695  1
  Pt  Pt34  1  0.325147  0.133292  0.249613  1
  Pt  Pt35  1  0.816867  0.366799  0.253112  1
