# generated using pymatgen
data_Ac4La5SmSn8
_symmetry_space_group_name_H-M   'P 1'
_cell_length_a   8.67398200
_cell_length_b   8.71045000
_cell_length_c   16.64053200
_cell_angle_alpha   90.00000000
_cell_angle_beta   90.00000000
_cell_angle_gamma   90.00000000
_symmetry_Int_Tables_number   1
_chemical_formula_structural   Ac4La5SmSn8
_chemical_formula_sum   'Ac8 La10 Sm2 Sn16'
_cell_volume   1257.26352244
_cell_formula_units_Z   2
loop_
 _symmetry_equiv_pos_site_id
 _symmetry_equiv_pos_as_xyz
  1  'x, y, z'
loop_
 _atom_site_type_symbol
 _atom_site_label
 _atom_site_symmetry_multiplicity
 _atom_site_fract_x
 _atom_site_fract_y
 _atom_site_fract_z
 _atom_site_occupancy
  Ac  Ac0  1  0.977279  0.819506  0.900962  1
  Ac  Ac1  1  0.477279  0.680494  0.599038  1
  Ac  Ac2  1  0.522749  0.319441  0.098635  1
  Ac  Ac3  1  0.022749  0.180559  0.401365  1
  Ac  Ac4  1  0.977279  0.819506  0.599038  1
  Ac  Ac5  1  0.477279  0.680494  0.900962  1
  Ac  Ac6  1  0.522749  0.319441  0.401365  1
  Ac  Ac7  1  0.022749  0.180559  0.098635  1
  La  La8  1  0.874673  0.657793  0.382643  1
  La  La9  1  0.374673  0.842207  0.117357  1
  La  La10  1  0.625132  0.157865  0.618335  1
  La  La11  1  0.125132  0.342135  0.881665  1
  La  La12  1  0.125132  0.342135  0.618335  1
  La  La13  1  0.625132  0.157865  0.881665  1
  La  La14  1  0.374673  0.842207  0.382643  1
  La  La15  1  0.874673  0.657793  0.117357  1
  La  La16  1  0.210941  0.503357  0.250000  1
  La  La17  1  0.710941  0.996643  0.250000  1
  Sm  Sm18  1  0.287674  0.003279  0.750000  1
  Sm  Sm19  1  0.787674  0.496721  0.750000  1
  Sn  Sn20  1  0.788477  0.461502  0.545549  1
  Sn  Sn21  1  0.288477  0.038498  0.954451  1
  Sn  Sn22  1  0.711681  0.961136  0.455051  1
  Sn  Sn23  1  0.211681  0.538864  0.044949  1
  Sn  Sn24  1  0.211681  0.538864  0.455051  1
  Sn  Sn25  1  0.711681  0.961136  0.044949  1
  Sn  Sn26  1  0.288477  0.038498  0.545549  1
  Sn  Sn27  1  0.788477  0.461502  0.954451  1
  Sn  Sn28  1  0.170832  0.637781  0.750000  1
  Sn  Sn29  1  0.670832  0.862219  0.750000  1
  Sn  Sn30  1  0.327831  0.135464  0.250000  1
  Sn  Sn31  1  0.827831  0.364536  0.250000  1
  Sn  Sn32  1  0.924405  0.124027  0.750000  1
  Sn  Sn33  1  0.424405  0.375973  0.750000  1
  Sn  Sn34  1  0.578333  0.621870  0.250000  1
  Sn  Sn35  1  0.078333  0.878130  0.250000  1
