# generated using pymatgen
data_Hf10GaSb5
_symmetry_space_group_name_H-M   'P 1'
_cell_length_a   5.58565148
_cell_length_b   8.28828874
_cell_length_c   8.28828813
_cell_angle_alpha   96.51955384
_cell_angle_beta   109.69179575
_cell_angle_gamma   70.30821035
_symmetry_Int_Tables_number   1
_chemical_formula_structural   Hf10GaSb5
_chemical_formula_sum   'Hf10 Ga1 Sb5'
_cell_volume   340.14301688
_cell_formula_units_Z   1
loop_
 _symmetry_equiv_pos_site_id
 _symmetry_equiv_pos_as_xyz
  1  'x, y, z'
loop_
 _atom_site_type_symbol
 _atom_site_label
 _atom_site_symmetry_multiplicity
 _atom_site_fract_x
 _atom_site_fract_y
 _atom_site_fract_z
 _atom_site_occupancy
  Hf  Hf0  1  0.932461  0.855854  0.706154  1
  Hf  Hf1  1  0.082160  0.144146  0.293846  1
  Hf  Hf2  1  0.417840  0.293846  0.144146  1
  Hf  Hf3  1  0.567539  0.706154  0.855854  1
  Hf  Hf4  1  0.226306  0.706154  0.144146  1
  Hf  Hf5  1  0.788314  0.293846  0.855854  1
  Hf  Hf6  1  0.273694  0.144146  0.706154  1
  Hf  Hf7  1  0.711686  0.855854  0.293846  1
  Hf  Hf8  1  0.250000  0.500000  0.500000  1
  Hf  Hf9  1  0.750000  0.500000  0.500000  1
  Ga  Ga10  1  0.250000  0.000000  0.000000  1
  Sb  Sb11  1  0.334962  0.830075  0.500000  1
  Sb  Sb12  1  0.665038  0.169925  0.500000  1
  Sb  Sb13  1  0.834962  0.500000  0.169925  1
  Sb  Sb14  1  0.165038  0.500000  0.830075  1
  Sb  Sb15  1  0.750000  0.000000  0.000000  1
