# generated using pymatgen
data_Dy4MgZn2Bi
_symmetry_space_group_name_H-M   'P 1'
_cell_length_a   8.64999336
_cell_length_b   8.64999421
_cell_length_c   8.64999400
_cell_angle_alpha   125.81639652
_cell_angle_beta   125.81640059
_cell_angle_gamma   80.19011264
_symmetry_Int_Tables_number   1
_chemical_formula_structural   Dy4MgZn2Bi
_chemical_formula_sum   'Dy8 Mg2 Zn4 Bi2'
_cell_volume   410.74775603
_cell_formula_units_Z   2
loop_
 _symmetry_equiv_pos_site_id
 _symmetry_equiv_pos_as_xyz
  1  'x, y, z'
loop_
 _atom_site_type_symbol
 _atom_site_label
 _atom_site_symmetry_multiplicity
 _atom_site_fract_x
 _atom_site_fract_y
 _atom_site_fract_z
 _atom_site_occupancy
  Dy  Dy0  1  0.800411  0.300411  0.817242  1
  Dy  Dy1  1  0.199589  0.699589  0.182758  1
  Dy  Dy2  1  0.483168  0.983168  0.182758  1
  Dy  Dy3  1  0.300411  0.483168  0.500000  1
  Dy  Dy4  1  0.016832  0.199589  0.500000  1
  Dy  Dy5  1  0.516832  0.016832  0.817242  1
  Dy  Dy6  1  0.699589  0.516832  0.500000  1
  Dy  Dy7  1  0.983168  0.800411  0.500000  1
  Mg  Mg8  1  0.000000  0.000000  0.000000  1
  Mg  Mg9  1  0.500000  0.500000  0.000000  1
  Zn  Zn10  1  0.134679  0.634679  0.769358  1
  Zn  Zn11  1  0.865321  0.365321  0.230642  1
  Zn  Zn12  1  0.634679  0.865321  0.500000  1
  Zn  Zn13  1  0.365321  0.134679  0.500000  1
  Bi  Bi14  1  0.250000  0.250000  0.000000  1
  Bi  Bi15  1  0.750000  0.750000  0.000000  1
