# generated using pymatgen
data_Nb3Ge2Mo3P
_symmetry_space_group_name_H-M   'P 1'
_cell_length_a   7.00804600
_cell_length_b   7.00804662
_cell_length_c   3.34657300
_cell_angle_alpha   90.00000000
_cell_angle_beta   90.00000000
_cell_angle_gamma   120.00000654
_symmetry_Int_Tables_number   1
_chemical_formula_structural   Nb3Ge2Mo3P
_chemical_formula_sum   'Nb3 Ge2 Mo3 P1'
_cell_volume   142.33930198
_cell_formula_units_Z   1
loop_
 _symmetry_equiv_pos_site_id
 _symmetry_equiv_pos_as_xyz
  1  'x, y, z'
loop_
 _atom_site_type_symbol
 _atom_site_label
 _atom_site_symmetry_multiplicity
 _atom_site_fract_x
 _atom_site_fract_y
 _atom_site_fract_z
 _atom_site_occupancy
  Nb  Nb0  1  0.000000  0.603421  0.500000  1
  Nb  Nb1  1  0.603421  0.000000  0.500000  1
  Nb  Nb2  1  0.396579  0.396579  0.500000  1
  Ge  Ge3  1  0.666667  0.333333  0.000000  1
  Ge  Ge4  1  0.333333  0.666667  0.000000  1
  Mo  Mo5  1  0.250591  0.000000  0.000000  1
  Mo  Mo6  1  0.749409  0.749409  0.000000  1
  Mo  Mo7  1  0.000000  0.250591  0.000000  1
  P  P8  1  0.000000  0.000000  0.500000  1
