# generated using pymatgen
data_CaSm3ReTc3B16
_symmetry_space_group_name_H-M   'P 1'
_cell_length_a   3.63265400
_cell_length_b   6.02330100
_cell_length_c   11.66444120
_cell_angle_alpha   90.03722064
_cell_angle_beta   90.00000000
_cell_angle_gamma   90.00000000
_symmetry_Int_Tables_number   1
_chemical_formula_structural   CaSm3ReTc3B16
_chemical_formula_sum   'Ca1 Sm3 Re1 Tc3 B16'
_cell_volume   255.22455067
_cell_formula_units_Z   1
loop_
 _symmetry_equiv_pos_site_id
 _symmetry_equiv_pos_as_xyz
  1  'x, y, z'
loop_
 _atom_site_type_symbol
 _atom_site_label
 _atom_site_symmetry_multiplicity
 _atom_site_fract_x
 _atom_site_fract_y
 _atom_site_fract_z
 _atom_site_occupancy
  Ca  Ca0  1  0.500000  0.373699  0.150787  1
  Sm  Sm1  1  0.500000  0.625027  0.849551  1
  Sm  Sm2  1  0.500000  0.125924  0.650112  1
  Sm  Sm3  1  0.500000  0.873550  0.349158  1
  Re  Re4  1  0.500000  0.869487  0.084787  1
  Tc  Tc5  1  0.500000  0.368148  0.413942  1
  Tc  Tc6  1  0.500000  0.631184  0.586117  1
  Tc  Tc7  1  0.500000  0.128646  0.915409  1
  B  B8  1  0.000000  0.115272  0.047203  1
  B  B9  1  0.000000  0.888486  0.954019  1
  B  B10  1  0.000000  0.387832  0.546399  1
  B  B11  1  0.000000  0.611854  0.453171  1
  B  B12  1  0.000000  0.138368  0.468028  1
  B  B13  1  0.000000  0.861773  0.531850  1
  B  B14  1  0.000000  0.362518  0.968099  1
  B  B15  1  0.000000  0.637401  0.032416  1
  B  B16  1  0.000000  0.024224  0.190697  1
  B  B17  1  0.000000  0.976593  0.809282  1
  B  B18  1  0.000000  0.475813  0.690948  1
  B  B19  1  0.000000  0.523641  0.308211  1
  B  B20  1  0.000000  0.217680  0.315004  1
  B  B21  1  0.000000  0.783148  0.684307  1
  B  B22  1  0.000000  0.283729  0.816678  1
  B  B23  1  0.000000  0.716007  0.183827  1
