# generated using pymatgen
data_TbNdDy2(Ir2O7)2
_symmetry_space_group_name_H-M   'P 1'
_cell_length_a   7.30908875
_cell_length_b   7.26880387
_cell_length_c   7.27454406
_cell_angle_alpha   60.02610386
_cell_angle_beta   60.20460160
_cell_angle_gamma   60.18216520
_symmetry_Int_Tables_number   1
_chemical_formula_structural   TbNdDy2(Ir2O7)2
_chemical_formula_sum   'Tb1 Nd1 Dy2 Ir4 O14'
_cell_volume   274.13614927
_cell_formula_units_Z   1
loop_
 _symmetry_equiv_pos_site_id
 _symmetry_equiv_pos_as_xyz
  1  'x, y, z'
loop_
 _atom_site_type_symbol
 _atom_site_label
 _atom_site_symmetry_multiplicity
 _atom_site_fract_x
 _atom_site_fract_y
 _atom_site_fract_z
 _atom_site_occupancy
  Tb  Tb0  1  0.125000  0.125000  0.625000  1
  Nd  Nd1  1  0.625000  0.125000  0.125000  1
  Dy  Dy2  1  0.125000  0.625000  0.125000  1
  Dy  Dy3  1  0.125000  0.125000  0.125000  1
  Ir  Ir4  1  0.125000  0.625000  0.625000  1
  Ir  Ir5  1  0.625000  0.125000  0.625000  1
  Ir  Ir6  1  0.625000  0.625000  0.125000  1
  Ir  Ir7  1  0.625000  0.625000  0.625000  1
  O  O8  1  0.718555  0.703514  0.288958  1
  O  O9  1  0.288235  0.289237  0.711557  1
  O  O10  1  0.718048  0.289153  0.703644  1
  O  O11  1  0.288078  0.711430  0.289063  1
  O  O12  1  0.288235  0.710972  0.711557  1
  O  O13  1  0.718555  0.288971  0.288958  1
  O  O14  1  0.531445  0.546486  0.961042  1
  O  O15  1  0.961765  0.960763  0.538443  1
  O  O16  1  0.531952  0.960847  0.546356  1
  O  O17  1  0.961922  0.538570  0.960937  1
  O  O18  1  0.961765  0.539028  0.538443  1
  O  O19  1  0.531445  0.961029  0.961042  1
  O  O20  1  0.240422  0.253717  0.252143  1
  O  O21  1  0.009578  0.996283  0.997857  1
