# generated using pymatgen
data_SmGdC2Br
_symmetry_space_group_name_H-M   'P 1'
_cell_length_a   7.81187953
_cell_length_b   7.81188003
_cell_length_c   6.63765327
_cell_angle_alpha   101.43253768
_cell_angle_beta   101.43253769
_cell_angle_gamma   30.36785217
_symmetry_Int_Tables_number   1
_chemical_formula_structural   SmGdC2Br
_chemical_formula_sum   'Sm2 Gd2 C4 Br2'
_cell_volume   200.41532415
_cell_formula_units_Z   2
loop_
 _symmetry_equiv_pos_site_id
 _symmetry_equiv_pos_as_xyz
  1  'x, y, z'
loop_
 _atom_site_type_symbol
 _atom_site_label
 _atom_site_symmetry_multiplicity
 _atom_site_fract_x
 _atom_site_fract_y
 _atom_site_fract_z
 _atom_site_occupancy
  Sm  Sm0  1  0.846877  0.464294  0.654470  1
  Sm  Sm1  1  0.535707  0.153124  0.845531  1
  Gd  Gd2  1  0.468296  0.846451  0.155500  1
  Gd  Gd3  1  0.153550  0.531704  0.344499  1
  C  C4  1  0.088255  0.355192  0.030076  1
  C  C5  1  0.644808  0.911746  0.469923  1
  C  C6  1  0.357972  0.085889  0.525822  1
  C  C7  1  0.914112  0.642028  0.974179  1
  Br  Br8  1  0.767253  0.232747  0.250000  1
  Br  Br9  1  0.223173  0.776827  0.750001  1
