# generated using pymatgen
data_HfNpReB6
_symmetry_space_group_name_H-M   'P 1'
_cell_length_a   3.57947500
_cell_length_b   9.03097700
_cell_length_c   11.40082600
_cell_angle_alpha   90.00000000
_cell_angle_beta   90.00000000
_cell_angle_gamma   90.00000000
_symmetry_Int_Tables_number   1
_chemical_formula_structural   HfNpReB6
_chemical_formula_sum   'Hf4 Np4 Re4 B24'
_cell_volume   368.54488433
_cell_formula_units_Z   4
loop_
 _symmetry_equiv_pos_site_id
 _symmetry_equiv_pos_as_xyz
  1  'x, y, z'
loop_
 _atom_site_type_symbol
 _atom_site_label
 _atom_site_symmetry_multiplicity
 _atom_site_fract_x
 _atom_site_fract_y
 _atom_site_fract_z
 _atom_site_occupancy
  Hf  Hf0  1  0.000000  0.944756  0.374020  1
  Hf  Hf1  1  0.000000  0.055244  0.625980  1
  Hf  Hf2  1  0.000000  0.444756  0.125980  1
  Hf  Hf3  1  0.000000  0.555244  0.874020  1
  Np  Np4  1  0.000000  0.321859  0.414459  1
  Np  Np5  1  0.000000  0.678141  0.585541  1
  Np  Np6  1  0.000000  0.821859  0.085541  1
  Np  Np7  1  0.000000  0.178141  0.914459  1
  Re  Re8  1  0.000000  0.640114  0.319851  1
  Re  Re9  1  0.000000  0.359886  0.680149  1
  Re  Re10  1  0.000000  0.140114  0.180149  1
  Re  Re11  1  0.000000  0.859886  0.819851  1
  B  B12  1  0.500000  0.553449  0.433899  1
  B  B13  1  0.500000  0.446551  0.566101  1
  B  B14  1  0.500000  0.053449  0.066101  1
  B  B15  1  0.500000  0.946551  0.933899  1
  B  B16  1  0.500000  0.752611  0.420064  1
  B  B17  1  0.500000  0.247389  0.579936  1
  B  B18  1  0.500000  0.252611  0.079936  1
  B  B19  1  0.500000  0.747389  0.920064  1
  B  B20  1  0.500000  0.795655  0.264422  1
  B  B21  1  0.500000  0.204345  0.735578  1
  B  B22  1  0.500000  0.295655  0.235578  1
  B  B23  1  0.500000  0.704345  0.764422  1
  B  B24  1  0.500000  0.630949  0.182428  1
  B  B25  1  0.500000  0.369051  0.817572  1
  B  B26  1  0.500000  0.130949  0.317572  1
  B  B27  1  0.500000  0.869051  0.682428  1
  B  B28  1  0.500000  0.980569  0.213755  1
  B  B29  1  0.500000  0.019431  0.786245  1
  B  B30  1  0.500000  0.480569  0.286245  1
  B  B31  1  0.500000  0.519431  0.713755  1
  B  B32  1  0.500000  0.600438  0.027400  1
  B  B33  1  0.500000  0.399562  0.972600  1
  B  B34  1  0.500000  0.100438  0.472600  1
  B  B35  1  0.500000  0.899562  0.527400  1
