# generated using pymatgen
data_LuPa5(Al3Os)8
_symmetry_space_group_name_H-M   'P 1'
_cell_length_a   8.88475759
_cell_length_b   8.88475939
_cell_length_c   9.42188500
_cell_angle_alpha   90.00000000
_cell_angle_beta   90.00000000
_cell_angle_gamma   120.02884279
_symmetry_Int_Tables_number   1
_chemical_formula_structural   LuPa5(Al3Os)8
_chemical_formula_sum   'Lu1 Pa5 Al24 Os8'
_cell_volume   643.92218553
_cell_formula_units_Z   1
loop_
 _symmetry_equiv_pos_site_id
 _symmetry_equiv_pos_as_xyz
  1  'x, y, z'
loop_
 _atom_site_type_symbol
 _atom_site_label
 _atom_site_symmetry_multiplicity
 _atom_site_fract_x
 _atom_site_fract_y
 _atom_site_fract_z
 _atom_site_occupancy
  Lu  Lu0  1  0.800851  0.199149  0.750000  1
  Pa  Pa1  1  0.195770  0.394105  0.250000  1
  Pa  Pa2  1  0.800847  0.607614  0.750000  1
  Pa  Pa3  1  0.605895  0.804230  0.250000  1
  Pa  Pa4  1  0.392386  0.199153  0.750000  1
  Pa  Pa5  1  0.198368  0.801632  0.250000  1
  Al  Al6  1  0.334940  0.665060  0.014967  1
  Al  Al7  1  0.669542  0.330458  0.977711  1
  Al  Al8  1  0.669542  0.330458  0.522289  1
  Al  Al9  1  0.334940  0.665060  0.485033  1
  Al  Al10  1  0.159585  0.323306  0.579509  1
  Al  Al11  1  0.837782  0.675139  0.421105  1
  Al  Al12  1  0.676694  0.840415  0.579509  1
  Al  Al13  1  0.837782  0.675139  0.078895  1
  Al  Al14  1  0.324861  0.162218  0.421105  1
  Al  Al15  1  0.159585  0.323306  0.920491  1
  Al  Al16  1  0.161870  0.838130  0.581399  1
  Al  Al17  1  0.324861  0.162218  0.078895  1
  Al  Al18  1  0.837973  0.162027  0.423558  1
  Al  Al19  1  0.676694  0.840415  0.920491  1
  Al  Al20  1  0.837973  0.162027  0.076442  1
  Al  Al21  1  0.161870  0.838130  0.918601  1
  Al  Al22  1  0.564417  0.127738  0.250000  1
  Al  Al23  1  0.442049  0.880738  0.750000  1
  Al  Al24  1  0.872262  0.435583  0.250000  1
  Al  Al25  1  0.119262  0.557951  0.750000  1
  Al  Al26  1  0.562405  0.437595  0.250000  1
  Al  Al27  1  0.435459  0.564541  0.750000  1
  Al  Al28  1  0.000048  0.999952  0.250000  1
  Al  Al29  1  0.997082  0.002918  0.750000  1
  Os  Os30  1  0.497528  0.996193  0.004154  1
  Os  Os31  1  0.003807  0.502472  0.004154  1
  Os  Os32  1  0.497528  0.996193  0.495846  1
  Os  Os33  1  0.501493  0.498507  0.997982  1
  Os  Os34  1  0.003807  0.502472  0.495846  1
  Os  Os35  1  0.501493  0.498507  0.502018  1
  Os  Os36  1  0.000375  0.999625  0.000168  1
  Os  Os37  1  0.000375  0.999625  0.499832  1
