# generated using pymatgen
data_YLuIrPdO7
_symmetry_space_group_name_H-M   'P 1'
_cell_length_a   7.21378751
_cell_length_b   7.25277225
_cell_length_c   7.21378750
_cell_angle_alpha   59.82106750
_cell_angle_beta   59.59700802
_cell_angle_gamma   59.82105489
_symmetry_Int_Tables_number   1
_chemical_formula_structural   YLuIrPdO7
_chemical_formula_sum   'Y2 Lu2 Ir2 Pd2 O14'
_cell_volume   265.34003501
_cell_formula_units_Z   2
loop_
 _symmetry_equiv_pos_site_id
 _symmetry_equiv_pos_as_xyz
  1  'x, y, z'
loop_
 _atom_site_type_symbol
 _atom_site_label
 _atom_site_symmetry_multiplicity
 _atom_site_fract_x
 _atom_site_fract_y
 _atom_site_fract_z
 _atom_site_occupancy
  Y  Y0  1  0.125000  0.625000  0.125000  1
  Y  Y1  1  0.125000  0.125000  0.125000  1
  Lu  Lu2  1  0.625000  0.125000  0.125000  1
  Lu  Lu3  1  0.125000  0.125000  0.625000  1
  Ir  Ir4  1  0.625000  0.125000  0.625000  1
  Ir  Ir5  1  0.625000  0.625000  0.625000  1
  Pd  Pd6  1  0.125000  0.625000  0.625000  1
  Pd  Pd7  1  0.625000  0.625000  0.125000  1
  O  O8  1  0.708840  0.722869  0.287763  1
  O  O9  1  0.287763  0.280527  0.708840  1
  O  O10  1  0.712255  0.287745  0.712255  1
  O  O11  1  0.280494  0.719506  0.280494  1
  O  O12  1  0.287763  0.722869  0.708840  1
  O  O13  1  0.708840  0.280527  0.287763  1
  O  O14  1  0.541160  0.527131  0.962237  1
  O  O15  1  0.962237  0.969473  0.541160  1
  O  O16  1  0.537745  0.962255  0.537745  1
  O  O17  1  0.969506  0.530494  0.969506  1
  O  O18  1  0.962237  0.527131  0.541160  1
  O  O19  1  0.541160  0.969473  0.962237  1
  O  O20  1  0.255494  0.244506  0.255494  1
  O  O21  1  0.994506  0.005494  0.994506  1
