# generated using pymatgen
data_Th3Mg4ScRh8
_symmetry_space_group_name_H-M   'P 1'
_cell_length_a   6.35335300
_cell_length_b   6.35380900
_cell_length_c   7.24271200
_cell_angle_alpha   90.00000000
_cell_angle_beta   89.99919611
_cell_angle_gamma   90.00000000
_symmetry_Int_Tables_number   1
_chemical_formula_structural   Th3Mg4ScRh8
_chemical_formula_sum   'Th3 Mg4 Sc1 Rh8'
_cell_volume   292.37373623
_cell_formula_units_Z   1
loop_
 _symmetry_equiv_pos_site_id
 _symmetry_equiv_pos_as_xyz
  1  'x, y, z'
loop_
 _atom_site_type_symbol
 _atom_site_label
 _atom_site_symmetry_multiplicity
 _atom_site_fract_x
 _atom_site_fract_y
 _atom_site_fract_z
 _atom_site_occupancy
  Th  Th0  1  0.250022  0.250000  0.999989  1
  Th  Th1  1  0.749988  0.750001  0.000009  1
  Th  Th2  1  0.249958  0.250000  0.500004  1
  Mg  Mg3  1  0.750022  0.250000  0.000004  1
  Mg  Mg4  1  0.249980  0.750001  0.000004  1
  Mg  Mg5  1  0.749981  0.250000  0.499999  1
  Mg  Mg6  1  0.250017  0.750001  0.500022  1
  Sc  Sc7  1  0.750030  0.750001  0.500008  1
  Rh  Rh8  1  0.997378  0.997341  0.254716  1
  Rh  Rh9  1  0.997378  0.502660  0.254716  1
  Rh  Rh10  1  0.502625  0.997341  0.254741  1
  Rh  Rh11  1  0.502625  0.502660  0.254741  1
  Rh  Rh12  1  0.502642  0.997324  0.745251  1
  Rh  Rh13  1  0.502642  0.502675  0.745251  1
  Rh  Rh14  1  0.997357  0.997333  0.745274  1
  Rh  Rh15  1  0.997357  0.502666  0.745274  1
