# generated using pymatgen
data_Y7Ho9(TmPt4)4
_symmetry_space_group_name_H-M   'P 1'
_cell_length_a   7.45879195
_cell_length_b   7.54711104
_cell_length_c   14.67954130
_cell_angle_alpha   89.99824065
_cell_angle_beta   89.93956481
_cell_angle_gamma   89.99914225
_symmetry_Int_Tables_number   1
_chemical_formula_structural   Y7Ho9(TmPt4)4
_chemical_formula_sum   'Y7 Ho9 Tm4 Pt16'
_cell_volume   826.34513862
_cell_formula_units_Z   1
loop_
 _symmetry_equiv_pos_site_id
 _symmetry_equiv_pos_as_xyz
  1  'x, y, z'
loop_
 _atom_site_type_symbol
 _atom_site_label
 _atom_site_symmetry_multiplicity
 _atom_site_fract_x
 _atom_site_fract_y
 _atom_site_fract_z
 _atom_site_occupancy
  Y  Y0  1  0.498398  0.679416  0.093676  1
  Y  Y1  1  0.501768  0.320666  0.593471  1
  Y  Y2  1  0.001596  0.179442  0.906427  1
  Y  Y3  1  0.001373  0.178805  0.593338  1
  Y  Y4  1  0.501661  0.320618  0.906412  1
  Y  Y5  1  0.498288  0.679264  0.406521  1
  Y  Y6  1  0.998383  0.820457  0.093385  1
  Ho  Ho7  1  0.656061  0.832189  0.622291  1
  Ho  Ho8  1  0.156126  0.667750  0.877594  1
  Ho  Ho9  1  0.843663  0.332045  0.377641  1
  Ho  Ho10  1  0.343813  0.167833  0.122486  1
  Ho  Ho11  1  0.343563  0.167834  0.377837  1
  Ho  Ho12  1  0.843882  0.332236  0.122589  1
  Ho  Ho13  1  0.155957  0.668098  0.622192  1
  Ho  Ho14  1  0.656181  0.832178  0.877664  1
  Ho  Ho15  1  0.997485  0.819956  0.406373  1
  Tm  Tm16  1  0.681145  0.988439  0.250168  1
  Tm  Tm17  1  0.181421  0.511613  0.250219  1
  Tm  Tm18  1  0.818804  0.488356  0.749875  1
  Tm  Tm19  1  0.318700  0.011613  0.749998  1
  Pt  Pt20  1  0.817972  0.643309  0.250871  1
  Pt  Pt21  1  0.316310  0.857422  0.250486  1
  Pt  Pt22  1  0.683238  0.142581  0.749654  1
  Pt  Pt23  1  0.183366  0.357539  0.749629  1
  Pt  Pt24  1  0.546156  0.386491  0.250294  1
  Pt  Pt25  1  0.045929  0.112870  0.250616  1
  Pt  Pt26  1  0.954007  0.886385  0.749669  1
  Pt  Pt27  1  0.453960  0.613787  0.749654  1
  Pt  Pt28  1  0.817908  0.533726  0.541977  1
  Pt  Pt29  1  0.317255  0.967087  0.957669  1
  Pt  Pt30  1  0.683704  0.031819  0.457299  1
  Pt  Pt31  1  0.182710  0.467198  0.042654  1
  Pt  Pt32  1  0.181627  0.468344  0.457159  1
  Pt  Pt33  1  0.682806  0.033023  0.042566  1
  Pt  Pt34  1  0.317492  0.966702  0.542028  1
  Pt  Pt35  1  0.817293  0.532909  0.957614  1
