# generated using pymatgen
data_Nd6NiI10
_symmetry_space_group_name_H-M   'P 1'
_cell_length_a   7.97195624
_cell_length_b   10.00416275
_cell_length_c   10.02464428
_cell_angle_alpha   107.35366333
_cell_angle_beta   97.05272385
_cell_angle_gamma   104.90974482
_symmetry_Int_Tables_number   1
_chemical_formula_structural   Nd6NiI10
_chemical_formula_sum   'Nd6 Ni1 I10'
_cell_volume   719.94887019
_cell_formula_units_Z   1
loop_
 _symmetry_equiv_pos_site_id
 _symmetry_equiv_pos_as_xyz
  1  'x, y, z'
loop_
 _atom_site_type_symbol
 _atom_site_label
 _atom_site_symmetry_multiplicity
 _atom_site_fract_x
 _atom_site_fract_y
 _atom_site_fract_z
 _atom_site_occupancy
  Nd  Nd0  1  0.884951  0.959090  0.239767  1
  Nd  Nd1  1  0.115049  0.040910  0.760233  1
  Nd  Nd2  1  0.031178  0.715286  0.914382  1
  Nd  Nd3  1  0.968822  0.284714  0.085618  1
  Nd  Nd4  1  0.653526  0.876021  0.834522  1
  Nd  Nd5  1  0.346474  0.123979  0.165478  1
  Ni  Ni6  1  0.000000  0.000000  0.000000  1
  I  I7  1  0.646272  0.547670  0.727954  1
  I  I8  1  0.353728  0.452330  0.272046  1
  I  I9  1  0.740044  0.911938  0.538478  1
  I  I10  1  0.259956  0.088062  0.461522  1
  I  I11  1  0.085144  0.370034  0.819204  1
  I  I12  1  0.914856  0.629966  0.180796  1
  I  I13  1  0.453935  0.815715  0.091780  1
  I  I14  1  0.546065  0.184285  0.908220  1
  I  I15  1  0.220343  0.742300  0.653711  1
  I  I16  1  0.779657  0.257700  0.346289  1
