# generated using pymatgen
data_Gd7DyC14
_symmetry_space_group_name_H-M   'P 1'
_cell_length_a   13.86042467
_cell_length_b   3.76174942
_cell_length_c   6.55732017
_cell_angle_alpha   75.30767326
_cell_angle_beta   89.83509148
_cell_angle_gamma   89.80943473
_symmetry_Int_Tables_number   1
_chemical_formula_structural   Gd7DyC14
_chemical_formula_sum   'Gd7 Dy1 C14'
_cell_volume   330.71309318
_cell_formula_units_Z   1
loop_
 _symmetry_equiv_pos_site_id
 _symmetry_equiv_pos_as_xyz
  1  'x, y, z'
loop_
 _atom_site_type_symbol
 _atom_site_label
 _atom_site_symmetry_multiplicity
 _atom_site_fract_x
 _atom_site_fract_y
 _atom_site_fract_z
 _atom_site_occupancy
  Gd  Gd0  1  0.942780  0.371664  0.261943  1
  Gd  Gd1  1  0.443744  0.631494  0.238455  1
  Gd  Gd2  1  0.056228  0.634606  0.738198  1
  Gd  Gd3  1  0.556745  0.364758  0.761485  1
  Gd  Gd4  1  0.664338  0.054422  0.335110  1
  Gd  Gd5  1  0.162687  0.943680  0.163424  1
  Gd  Gd6  1  0.336781  0.943221  0.663837  1
  Dy  Dy7  1  0.838144  0.059673  0.837651  1
  C  C8  1  0.500362  0.998525  0.499560  1
  C  C9  1  0.999366  0.001570  0.000420  1
  C  C10  1  0.782947  0.476705  0.068531  1
  C  C11  1  0.281891  0.528605  0.427250  1
  C  C12  1  0.217561  0.528260  0.926870  1
  C  C13  1  0.718114  0.463946  0.572795  1
  C  C14  1  0.195027  0.376303  0.455815  1
  C  C15  1  0.695565  0.626525  0.041299  1
  C  C16  1  0.395868  0.264451  0.950748  1
  C  C17  1  0.895132  0.735488  0.553944  1
  C  C18  1  0.604012  0.733132  0.049138  1
  C  C19  1  0.103748  0.267003  0.450210  1
  C  C20  1  0.304530  0.375394  0.956017  1
  C  C21  1  0.804431  0.620578  0.547298  1
