# generated using pymatgen
data_Sm7Dy(Si3Rh)4
_symmetry_space_group_name_H-M   'P 1'
_cell_length_a   8.24533901
_cell_length_b   8.24608777
_cell_length_c   8.14833500
_cell_angle_alpha   90.00000000
_cell_angle_beta   90.00000000
_cell_angle_gamma   120.00299482
_symmetry_Int_Tables_number   1
_chemical_formula_structural   Sm7Dy(Si3Rh)4
_chemical_formula_sum   'Sm7 Dy1 Si12 Rh4'
_cell_volume   479.78080650
_cell_formula_units_Z   1
loop_
 _symmetry_equiv_pos_site_id
 _symmetry_equiv_pos_as_xyz
  1  'x, y, z'
loop_
 _atom_site_type_symbol
 _atom_site_label
 _atom_site_symmetry_multiplicity
 _atom_site_fract_x
 _atom_site_fract_y
 _atom_site_fract_z
 _atom_site_occupancy
  Sm  Sm0  1  0.999792  0.999896  0.250000  1
  Sm  Sm1  1  0.000355  0.000178  0.750000  1
  Sm  Sm2  1  0.507251  0.492845  0.250000  1
  Sm  Sm3  1  0.507251  0.014407  0.250000  1
  Sm  Sm4  1  0.985858  0.492929  0.250000  1
  Sm  Sm5  1  0.491898  0.507497  0.750000  1
  Sm  Sm6  1  0.491898  0.984400  0.750000  1
  Dy  Dy7  1  0.013206  0.506602  0.750000  1
  Si  Si8  1  0.166381  0.832321  0.502624  1
  Si  Si9  1  0.166381  0.334062  0.502624  1
  Si  Si10  1  0.666433  0.833217  0.500546  1
  Si  Si11  1  0.833286  0.167487  0.500721  1
  Si  Si12  1  0.833286  0.665799  0.500721  1
  Si  Si13  1  0.334481  0.167240  0.499987  1
  Si  Si14  1  0.833286  0.167487  0.999279  1
  Si  Si15  1  0.833286  0.665799  0.999279  1
  Si  Si16  1  0.334481  0.167240  0.000013  1
  Si  Si17  1  0.166381  0.832321  0.997376  1
  Si  Si18  1  0.166381  0.334062  0.997376  1
  Si  Si19  1  0.666433  0.833217  0.999454  1
  Rh  Rh20  1  0.332480  0.666240  0.473025  1
  Rh  Rh21  1  0.668518  0.334258  0.533839  1
  Rh  Rh22  1  0.668518  0.334258  0.966161  1
  Rh  Rh23  1  0.332480  0.666240  0.026975  1
