# generated using pymatgen
data_Ce4Ho(In2Os)2
_symmetry_space_group_name_H-M   'P 1'
_cell_length_a   8.26883600
_cell_length_b   18.16744000
_cell_length_c   3.66610000
_cell_angle_alpha   90.00000000
_cell_angle_beta   90.00000000
_cell_angle_gamma   90.00000000
_symmetry_Int_Tables_number   1
_chemical_formula_structural   Ce4Ho(In2Os)2
_chemical_formula_sum   'Ce8 Ho2 In8 Os4'
_cell_volume   550.73467360
_cell_formula_units_Z   2
loop_
 _symmetry_equiv_pos_site_id
 _symmetry_equiv_pos_as_xyz
  1  'x, y, z'
loop_
 _atom_site_type_symbol
 _atom_site_label
 _atom_site_symmetry_multiplicity
 _atom_site_fract_x
 _atom_site_fract_y
 _atom_site_fract_z
 _atom_site_occupancy
  Ce  Ce0  1  0.755039  0.276007  0.000000  1
  Ce  Ce1  1  0.244961  0.723993  0.000000  1
  Ce  Ce2  1  0.744961  0.776007  0.000000  1
  Ce  Ce3  1  0.255039  0.223993  0.000000  1
  Ce  Ce4  1  0.618347  0.090533  0.000000  1
  Ce  Ce5  1  0.381653  0.909467  0.000000  1
  Ce  Ce6  1  0.881653  0.590533  0.000000  1
  Ce  Ce7  1  0.118347  0.409467  0.000000  1
  Ho  Ho8  1  0.500000  0.500000  0.000000  1
  Ho  Ho9  1  0.000000  0.000000  0.000000  1
  In  In10  1  0.710273  0.934637  0.500000  1
  In  In11  1  0.289727  0.065363  0.500000  1
  In  In12  1  0.789727  0.434637  0.500000  1
  In  In13  1  0.210273  0.565363  0.500000  1
  In  In14  1  0.551183  0.646709  0.500000  1
  In  In15  1  0.448817  0.353291  0.500000  1
  In  In16  1  0.948817  0.146709  0.500000  1
  In  In17  1  0.051183  0.853291  0.500000  1
  Os  Os18  1  0.499989  0.193345  0.500000  1
  Os  Os19  1  0.500011  0.806655  0.500000  1
  Os  Os20  1  0.000011  0.693345  0.500000  1
  Os  Os21  1  0.999989  0.306655  0.500000  1
