# generated using pymatgen
data_Y6MgNi17As12
_symmetry_space_group_name_H-M   'P 1'
_cell_length_a   3.91014100
_cell_length_b   10.95251500
_cell_length_c   12.74904300
_cell_angle_alpha   90.00000000
_cell_angle_beta   90.00000000
_cell_angle_gamma   90.00000000
_symmetry_Int_Tables_number   1
_chemical_formula_structural   Y6MgNi17As12
_chemical_formula_sum   'Y6 Mg1 Ni17 As12'
_cell_volume   545.98895956
_cell_formula_units_Z   1
loop_
 _symmetry_equiv_pos_site_id
 _symmetry_equiv_pos_as_xyz
  1  'x, y, z'
loop_
 _atom_site_type_symbol
 _atom_site_label
 _atom_site_symmetry_multiplicity
 _atom_site_fract_x
 _atom_site_fract_y
 _atom_site_fract_z
 _atom_site_occupancy
  Y  Y0  1  0.000000  0.500000  0.527320  1
  Y  Y1  1  0.500000  0.000000  0.476336  1
  Y  Y2  1  0.500000  0.820193  0.208653  1
  Y  Y3  1  0.500000  0.179807  0.208653  1
  Y  Y4  1  0.000000  0.682217  0.796353  1
  Y  Y5  1  0.000000  0.317783  0.796353  1
  Mg  Mg6  1  0.500000  0.500000  0.149635  1
  Ni  Ni7  1  0.000000  0.000000  0.840948  1
  Ni  Ni8  1  0.500000  0.500000  0.701181  1
  Ni  Ni9  1  0.000000  0.000000  0.301746  1
  Ni  Ni10  1  0.000000  0.500000  0.986157  1
  Ni  Ni11  1  0.500000  0.000000  0.018096  1
  Ni  Ni12  1  0.500000  0.325910  0.993980  1
  Ni  Ni13  1  0.500000  0.674090  0.993980  1
  Ni  Ni14  1  0.000000  0.158850  0.998688  1
  Ni  Ni15  1  0.000000  0.841150  0.998688  1
  Ni  Ni16  1  0.500000  0.300682  0.429283  1
  Ni  Ni17  1  0.500000  0.699318  0.429283  1
  Ni  Ni18  1  0.000000  0.197635  0.573442  1
  Ni  Ni19  1  0.000000  0.802365  0.573442  1
  Ni  Ni20  1  0.500000  0.880574  0.705704  1
  Ni  Ni21  1  0.500000  0.119426  0.705704  1
  Ni  Ni22  1  0.000000  0.619567  0.292453  1
  Ni  Ni23  1  0.000000  0.380433  0.292453  1
  As  As24  1  0.500000  0.500000  0.879583  1
  As  As25  1  0.000000  0.000000  0.124370  1
  As  As26  1  0.500000  0.500000  0.355310  1
  As  As27  1  0.000000  0.000000  0.653060  1
  As  As28  1  0.500000  0.313924  0.615865  1
  As  As29  1  0.500000  0.686076  0.615865  1
  As  As30  1  0.000000  0.186129  0.387355  1
  As  As31  1  0.000000  0.813871  0.387355  1
  As  As32  1  0.500000  0.850785  0.887201  1
  As  As33  1  0.500000  0.149215  0.887201  1
  As  As34  1  0.000000  0.664737  0.104153  1
  As  As35  1  0.000000  0.335263  0.104153  1
