# generated using pymatgen
data_Ti10GaSi4GeO
_symmetry_space_group_name_H-M   'P 1'
_cell_length_a   7.50587251
_cell_length_b   7.49855075
_cell_length_c   5.15516904
_cell_angle_alpha   90.07169243
_cell_angle_beta   89.87810212
_cell_angle_gamma   120.06529923
_symmetry_Int_Tables_number   1
_chemical_formula_structural   Ti10GaSi4GeO
_chemical_formula_sum   'Ti10 Ga1 Si4 Ge1 O1'
_cell_volume   251.11053109
_cell_formula_units_Z   1
loop_
 _symmetry_equiv_pos_site_id
 _symmetry_equiv_pos_as_xyz
  1  'x, y, z'
loop_
 _atom_site_type_symbol
 _atom_site_label
 _atom_site_symmetry_multiplicity
 _atom_site_fract_x
 _atom_site_fract_y
 _atom_site_fract_z
 _atom_site_occupancy
  Ti  Ti0  1  0.000108  0.760392  0.255507  1
  Ti  Ti1  1  0.244975  0.241441  0.255584  1
  Ti  Ti2  1  0.758902  0.996366  0.256127  1
  Ti  Ti3  1  0.004386  0.243253  0.743344  1
  Ti  Ti4  1  0.759520  0.755341  0.743753  1
  Ti  Ti5  1  0.237706  0.000146  0.745733  1
  Ti  Ti6  1  0.332032  0.664551  0.499755  1
  Ti  Ti7  1  0.664876  0.336645  0.499846  1
  Ti  Ti8  1  0.664827  0.336020  0.000155  1
  Ti  Ti9  1  0.332484  0.665150  0.000236  1
  Ga  Ga10  1  0.601988  0.000755  0.754169  1
  Si  Si11  1  0.600949  0.602456  0.244263  1
  Si  Si12  1  0.399863  0.999712  0.245400  1
  Si  Si13  1  0.000527  0.602318  0.755450  1
  Si  Si14  1  0.399050  0.399110  0.755817  1
  Ge  Ge15  1  0.997852  0.395828  0.244788  1
  O  O16  1  0.999954  0.000515  0.500072  1
