# generated using pymatgen
data_Pr3Os2O9
_symmetry_space_group_name_H-M   'P 1'
_cell_length_a   5.68446405
_cell_length_b   6.85730064
_cell_length_c   11.15720034
_cell_angle_alpha   77.16405196
_cell_angle_beta   75.21923638
_cell_angle_gamma   69.28265548
_symmetry_Int_Tables_number   1
_chemical_formula_structural   Pr3Os2O9
_chemical_formula_sum   'Pr6 Os4 O18'
_cell_volume   389.11891147
_cell_formula_units_Z   2
loop_
 _symmetry_equiv_pos_site_id
 _symmetry_equiv_pos_as_xyz
  1  'x, y, z'
loop_
 _atom_site_type_symbol
 _atom_site_label
 _atom_site_symmetry_multiplicity
 _atom_site_fract_x
 _atom_site_fract_y
 _atom_site_fract_z
 _atom_site_occupancy
  Pr  Pr0  1  0.007540  0.220059  0.269545  1
  Pr  Pr1  1  0.992460  0.779941  0.730455  1
  Pr  Pr2  1  0.232647  0.156111  0.882681  1
  Pr  Pr3  1  0.767353  0.843889  0.117319  1
  Pr  Pr4  1  0.279626  0.595534  0.377898  1
  Pr  Pr5  1  0.720374  0.404466  0.622102  1
  Os  Os6  1  0.511577  0.391592  0.088834  1
  Os  Os7  1  0.488423  0.608408  0.911166  1
  Os  Os8  1  0.358018  0.126718  0.569878  1
  Os  Os9  1  0.641982  0.873282  0.430122  1
  O  O10  1  0.303697  0.417258  0.590227  1
  O  O11  1  0.696303  0.582742  0.409773  1
  O  O12  1  0.586688  0.058084  0.690551  1
  O  O13  1  0.413312  0.941916  0.309449  1
  O  O14  1  0.855551  0.188911  0.061840  1
  O  O15  1  0.144449  0.811089  0.938160  1
  O  O16  1  0.386794  0.170524  0.071386  1
  O  O17  1  0.613206  0.829476  0.928614  1
  O  O18  1  0.066280  0.119184  0.712224  1
  O  O19  1  0.933720  0.880816  0.287776  1
  O  O20  1  0.179848  0.507648  0.191760  1
  O  O21  1  0.820152  0.492352  0.808240  1
  O  O22  1  0.107817  0.251979  0.460849  1
  O  O23  1  0.892183  0.748021  0.539151  1
  O  O24  1  0.641059  0.522345  0.184436  1
  O  O25  1  0.358941  0.477655  0.815564  1
  O  O26  1  0.625339  0.181039  0.419174  1
  O  O27  1  0.374661  0.818961  0.580826  1
