# generated using pymatgen
data_Th4Zn8Cu13Ru3
_symmetry_space_group_name_H-M   'P 1'
_cell_length_a   5.04628400
_cell_length_b   8.22766660
_cell_length_c   10.63341775
_cell_angle_alpha   90.04347131
_cell_angle_beta   90.00000000
_cell_angle_gamma   90.00000000
_symmetry_Int_Tables_number   1
_chemical_formula_structural   Th4Zn8Cu13Ru3
_chemical_formula_sum   'Th4 Zn8 Cu13 Ru3'
_cell_volume   441.49025805
_cell_formula_units_Z   1
loop_
 _symmetry_equiv_pos_site_id
 _symmetry_equiv_pos_as_xyz
  1  'x, y, z'
loop_
 _atom_site_type_symbol
 _atom_site_label
 _atom_site_symmetry_multiplicity
 _atom_site_fract_x
 _atom_site_fract_y
 _atom_site_fract_z
 _atom_site_occupancy
  Th  Th0  1  0.250000  0.266025  0.560858  1
  Th  Th1  1  0.750000  0.737849  0.443158  1
  Th  Th2  1  0.250000  0.769158  0.938988  1
  Th  Th3  1  0.750000  0.230439  0.060878  1
  Zn  Zn4  1  0.750000  0.352316  0.358052  1
  Zn  Zn5  1  0.250000  0.643265  0.635633  1
  Zn  Zn6  1  0.750000  0.852133  0.143044  1
  Zn  Zn7  1  0.250000  0.146494  0.858946  1
  Zn  Zn8  1  0.750000  0.689934  0.755476  1
  Zn  Zn9  1  0.250000  0.309662  0.245416  1
  Zn  Zn10  1  0.750000  0.190170  0.743999  1
  Zn  Zn11  1  0.250000  0.808689  0.256555  1
  Cu  Cu12  1  0.506440  0.560093  0.191580  1
  Cu  Cu13  1  0.007365  0.437206  0.811931  1
  Cu  Cu14  1  0.992925  0.061504  0.309912  1
  Cu  Cu15  1  0.493152  0.937501  0.688735  1
  Cu  Cu16  1  0.250000  0.554666  0.401387  1
  Cu  Cu17  1  0.750000  0.590462  0.987123  1
  Cu  Cu18  1  0.250000  0.411218  0.015169  1
  Cu  Cu19  1  0.750000  0.093188  0.513296  1
  Cu  Cu20  1  0.250000  0.917165  0.486751  1
  Cu  Cu21  1  0.507075  0.061504  0.309912  1
  Cu  Cu22  1  0.006848  0.937501  0.688735  1
  Cu  Cu23  1  0.993560  0.560093  0.191580  1
  Cu  Cu24  1  0.492635  0.437206  0.811931  1
  Ru  Ru25  1  0.750000  0.951732  0.907867  1
  Ru  Ru26  1  0.250000  0.040733  0.090493  1
  Ru  Ru27  1  0.750000  0.452092  0.592597  1
