# generated using pymatgen
data_Li2Pr3LuPt3
_symmetry_space_group_name_H-M   'P 1'
_cell_length_a   7.67224700
_cell_length_b   7.60621664
_cell_length_c   4.16827000
_cell_angle_alpha   90.00000000
_cell_angle_beta   90.00000000
_cell_angle_gamma   120.28759962
_symmetry_Int_Tables_number   1
_chemical_formula_structural   Li2Pr3LuPt3
_chemical_formula_sum   'Li2 Pr3 Lu1 Pt3'
_cell_volume   210.04474823
_cell_formula_units_Z   1
loop_
 _symmetry_equiv_pos_site_id
 _symmetry_equiv_pos_as_xyz
  1  'x, y, z'
loop_
 _atom_site_type_symbol
 _atom_site_label
 _atom_site_symmetry_multiplicity
 _atom_site_fract_x
 _atom_site_fract_y
 _atom_site_fract_z
 _atom_site_occupancy
  Li  Li0  1  0.004123  0.241344  0.500000  1
  Li  Li1  1  0.762778  0.758656  0.500000  1
  Pr  Pr2  1  0.413417  0.437796  0.000000  1
  Pr  Pr3  1  0.615521  0.000000  0.000000  1
  Pr  Pr4  1  0.975621  0.562204  0.000000  1
  Lu  Lu5  1  0.242962  0.000000  0.500000  1
  Pt  Pt6  1  0.009345  0.000000  0.000000  1
  Pt  Pt7  1  0.648258  0.320281  0.500000  1
  Pt  Pt8  1  0.327976  0.679719  0.500000  1
