# generated using pymatgen
data_Dy9Ho11CoBi8Os3
_symmetry_space_group_name_H-M   'P 1'
_cell_length_a   7.96229253
_cell_length_b   9.00542900
_cell_length_c   12.45082533
_cell_angle_alpha   90.00000000
_cell_angle_beta   89.72193795
_cell_angle_gamma   90.00000000
_symmetry_Int_Tables_number   1
_chemical_formula_structural   Dy9Ho11CoBi8Os3
_chemical_formula_sum   'Dy9 Ho11 Co1 Bi8 Os3'
_cell_volume   892.76172346
_cell_formula_units_Z   1
loop_
 _symmetry_equiv_pos_site_id
 _symmetry_equiv_pos_as_xyz
  1  'x, y, z'
loop_
 _atom_site_type_symbol
 _atom_site_label
 _atom_site_symmetry_multiplicity
 _atom_site_fract_x
 _atom_site_fract_y
 _atom_site_fract_z
 _atom_site_occupancy
  Dy  Dy0  1  0.344660  0.750000  0.701666  1
  Dy  Dy1  1  0.658082  0.250000  0.292292  1
  Dy  Dy2  1  0.842485  0.250000  0.791218  1
  Dy  Dy3  1  0.156323  0.750000  0.206769  1
  Dy  Dy4  1  0.879126  0.750000  0.805783  1
  Dy  Dy5  1  0.120119  0.250000  0.193851  1
  Dy  Dy6  1  0.378460  0.250000  0.693142  1
  Dy  Dy7  1  0.616765  0.750000  0.312354  1
  Dy  Dy8  1  0.055321  0.750000  0.496774  1
  Ho  Ho9  1  0.675405  0.541942  0.563664  1
  Ho  Ho10  1  0.325147  0.460435  0.436892  1
  Ho  Ho11  1  0.175020  0.457856  0.936050  1
  Ho  Ho12  1  0.325147  0.039565  0.436892  1
  Ho  Ho13  1  0.824339  0.542961  0.064240  1
  Ho  Ho14  1  0.675405  0.958058  0.563664  1
  Ho  Ho15  1  0.824339  0.957039  0.064240  1
  Ho  Ho16  1  0.175020  0.042144  0.936050  1
  Ho  Ho17  1  0.944956  0.250000  0.503191  1
  Ho  Ho18  1  0.557841  0.250000  0.003654  1
  Ho  Ho19  1  0.442368  0.750000  0.995712  1
  Co  Co20  1  0.429691  0.750000  0.491199  1
  Bi  Bi21  1  0.570099  0.508738  0.827458  1
  Bi  Bi22  1  0.429680  0.492215  0.172792  1
  Bi  Bi23  1  0.071445  0.491810  0.671860  1
  Bi  Bi24  1  0.429680  0.007785  0.172792  1
  Bi  Bi25  1  0.929240  0.508814  0.328521  1
  Bi  Bi26  1  0.570099  0.991262  0.827458  1
  Bi  Bi27  1  0.929240  0.991186  0.328521  1
  Bi  Bi28  1  0.071445  0.008190  0.671860  1
  Os  Os29  1  0.075543  0.750000  0.989186  1
  Os  Os30  1  0.923786  0.250000  0.010188  1
  Os  Os31  1  0.573728  0.250000  0.510064  1
