# generated using pymatgen
data_LiY3In(SiAg)2
_symmetry_space_group_name_H-M   'P 1'
_cell_length_a   7.29545003
_cell_length_b   7.22045968
_cell_length_c   4.20102800
_cell_angle_alpha   90.00000000
_cell_angle_beta   90.00000000
_cell_angle_gamma   119.66054847
_symmetry_Int_Tables_number   1
_chemical_formula_structural   LiY3In(SiAg)2
_chemical_formula_sum   'Li1 Y3 In1 Si2 Ag2'
_cell_volume   192.29966336
_cell_formula_units_Z   1
loop_
 _symmetry_equiv_pos_site_id
 _symmetry_equiv_pos_as_xyz
  1  'x, y, z'
loop_
 _atom_site_type_symbol
 _atom_site_label
 _atom_site_symmetry_multiplicity
 _atom_site_fract_x
 _atom_site_fract_y
 _atom_site_fract_z
 _atom_site_occupancy
  Li  Li0  1  0.000000  0.745089  0.000000  1
  Y  Y1  1  0.000000  0.433185  0.500000  1
  Y  Y2  1  0.567228  0.567120  0.500000  1
  Y  Y3  1  0.432772  0.999892  0.500000  1
  In  In4  1  0.000000  0.990263  0.500000  1
  Si  Si5  1  0.329005  0.665654  0.000000  1
  Si  Si6  1  0.670995  0.336647  0.000000  1
  Ag  Ag7  1  0.263497  0.262823  0.000000  1
  Ag  Ag8  1  0.736503  0.999326  0.000000  1
