# generated using pymatgen
data_Sr3SnPd2Pb
_symmetry_space_group_name_H-M   'P 1'
_cell_length_a   6.20959300
_cell_length_b   9.01331600
_cell_length_c   14.55804700
_cell_angle_alpha   90.00000000
_cell_angle_beta   90.00000000
_cell_angle_gamma   90.00000000
_symmetry_Int_Tables_number   1
_chemical_formula_structural   Sr3SnPd2Pb
_chemical_formula_sum   'Sr12 Sn4 Pd8 Pb4'
_cell_volume   814.79968107
_cell_formula_units_Z   4
loop_
 _symmetry_equiv_pos_site_id
 _symmetry_equiv_pos_as_xyz
  1  'x, y, z'
loop_
 _atom_site_type_symbol
 _atom_site_label
 _atom_site_symmetry_multiplicity
 _atom_site_fract_x
 _atom_site_fract_y
 _atom_site_fract_z
 _atom_site_occupancy
  Sr  Sr0  1  0.147675  0.394495  0.598651  1
  Sr  Sr1  1  0.852325  0.605505  0.098651  1
  Sr  Sr2  1  0.147675  0.105505  0.401349  1
  Sr  Sr3  1  0.852325  0.894495  0.901349  1
  Sr  Sr4  1  0.852325  0.605505  0.401349  1
  Sr  Sr5  1  0.147675  0.394495  0.901349  1
  Sr  Sr6  1  0.852325  0.894495  0.598651  1
  Sr  Sr7  1  0.147675  0.105505  0.098651  1
  Sr  Sr8  1  0.647016  0.253200  0.750000  1
  Sr  Sr9  1  0.352984  0.746800  0.250000  1
  Sr  Sr10  1  0.647016  0.246800  0.250000  1
  Sr  Sr11  1  0.352984  0.753200  0.750000  1
  Sn  Sn12  1  0.631652  0.250000  0.500000  1
  Sn  Sn13  1  0.368348  0.750000  0.000000  1
  Sn  Sn14  1  0.368348  0.750000  0.500000  1
  Sn  Sn15  1  0.631652  0.250000  0.000000  1
  Pd  Pd16  1  0.383678  0.030431  0.585618  1
  Pd  Pd17  1  0.616322  0.969569  0.085618  1
  Pd  Pd18  1  0.383678  0.469569  0.414382  1
  Pd  Pd19  1  0.616322  0.530431  0.914382  1
  Pd  Pd20  1  0.616322  0.969569  0.414382  1
  Pd  Pd21  1  0.383678  0.030431  0.914382  1
  Pd  Pd22  1  0.616322  0.530431  0.585618  1
  Pd  Pd23  1  0.383678  0.469569  0.085618  1
  Pb  Pb24  1  0.153303  0.102912  0.750000  1
  Pb  Pb25  1  0.846697  0.897088  0.250000  1
  Pb  Pb26  1  0.153303  0.397088  0.250000  1
  Pb  Pb27  1  0.846697  0.602912  0.750000  1
