# generated using pymatgen
data_Dy3MgZn2Si2Au
_symmetry_space_group_name_H-M   'P 1'
_cell_length_a   6.98485346
_cell_length_b   6.98485421
_cell_length_c   4.31711000
_cell_angle_alpha   90.00000000
_cell_angle_beta   90.00000000
_cell_angle_gamma   119.92593509
_symmetry_Int_Tables_number   1
_chemical_formula_structural   Dy3MgZn2Si2Au
_chemical_formula_sum   'Dy3 Mg1 Zn2 Si2 Au1'
_cell_volume   182.54167585
_cell_formula_units_Z   1
loop_
 _symmetry_equiv_pos_site_id
 _symmetry_equiv_pos_as_xyz
  1  'x, y, z'
loop_
 _atom_site_type_symbol
 _atom_site_label
 _atom_site_symmetry_multiplicity
 _atom_site_fract_x
 _atom_site_fract_y
 _atom_site_fract_z
 _atom_site_occupancy
  Dy  Dy0  1  0.575476  0.000295  0.000000  1
  Dy  Dy1  1  0.000295  0.575476  0.000000  1
  Dy  Dy2  1  0.414845  0.414845  0.000000  1
  Mg  Mg3  1  0.765624  0.765624  0.500000  1
  Zn  Zn4  1  0.252630  0.000451  0.500000  1
  Zn  Zn5  1  0.000451  0.252630  0.500000  1
  Si  Si6  1  0.326262  0.663701  0.500000  1
  Si  Si7  1  0.663701  0.326262  0.500000  1
  Au  Au8  1  0.000716  0.000716  0.000000  1
