# generated using pymatgen
data_Sm2Ho3Bi3O14
_symmetry_space_group_name_H-M   'P 1'
_cell_length_a   6.60306913
_cell_length_b   6.65206067
_cell_length_c   7.78374060
_cell_angle_alpha   106.76040703
_cell_angle_beta   89.66894391
_cell_angle_gamma   98.72845513
_symmetry_Int_Tables_number   1
_chemical_formula_structural   Sm2Ho3Bi3O14
_chemical_formula_sum   'Sm2 Ho3 Bi3 O14'
_cell_volume   323.31712143
_cell_formula_units_Z   1
loop_
 _symmetry_equiv_pos_site_id
 _symmetry_equiv_pos_as_xyz
  1  'x, y, z'
loop_
 _atom_site_type_symbol
 _atom_site_label
 _atom_site_symmetry_multiplicity
 _atom_site_fract_x
 _atom_site_fract_y
 _atom_site_fract_z
 _atom_site_occupancy
  Sm  Sm0  1  0.738185  0.459083  0.112518  1
  Sm  Sm1  1  0.746284  0.482555  0.620188  1
  Ho  Ho2  1  0.459677  0.006898  0.253725  1
  Ho  Ho3  1  0.535877  0.998698  0.750214  1
  Ho  Ho4  1  0.272342  0.535565  0.882748  1
  Bi  Bi5  1  0.995499  0.001657  0.501647  1
  Bi  Bi6  1  0.001467  0.996353  0.996693  1
  Bi  Bi7  1  0.281614  0.534592  0.389102  1
  O  O8  1  0.446125  0.655236  0.166214  1
  O  O9  1  0.548609  0.349871  0.834130  1
  O  O10  1  0.303858  0.921005  0.951669  1
  O  O11  1  0.698300  0.070793  0.049903  1
  O  O12  1  0.298913  0.932662  0.516327  1
  O  O13  1  0.697780  0.081125  0.490645  1
  O  O14  1  0.544864  0.358816  0.343571  1
  O  O15  1  0.456311  0.644326  0.659852  1
  O  O16  1  0.931942  0.661450  0.946012  1
  O  O17  1  0.073451  0.323764  0.025203  1
  O  O18  1  0.072523  0.338989  0.630937  1
  O  O19  1  0.907135  0.667033  0.383532  1
  O  O20  1  0.869327  0.904337  0.726583  1
  O  O21  1  0.119915  0.075196  0.268590  1
