# generated using pymatgen
data_V6CoS12
_symmetry_space_group_name_H-M   'P 1'
_cell_length_a   5.51216072
_cell_length_b   5.51216106
_cell_length_c   12.18838454
_cell_angle_alpha   85.68462711
_cell_angle_beta   85.68463036
_cell_angle_gamma   120.00952643
_symmetry_Int_Tables_number   1
_chemical_formula_structural   V6CoS12
_chemical_formula_sum   'V6 Co1 S12'
_cell_volume   317.03185921
_cell_formula_units_Z   1
loop_
 _symmetry_equiv_pos_site_id
 _symmetry_equiv_pos_as_xyz
  1  'x, y, z'
loop_
 _atom_site_type_symbol
 _atom_site_label
 _atom_site_symmetry_multiplicity
 _atom_site_fract_x
 _atom_site_fract_y
 _atom_site_fract_z
 _atom_site_occupancy
  V  V0  1  0.077872  0.077872  0.766244  1
  V  V1  1  0.410647  0.743896  0.768074  1
  V  V2  1  0.743896  0.410647  0.768074  1
  V  V3  1  0.256104  0.589353  0.231926  1
  V  V4  1  0.589353  0.256104  0.231926  1
  V  V5  1  0.922128  0.922128  0.233756  1
  Co  Co6  1  0.000000  0.000000  0.000000  1
  S  S7  1  0.295665  0.295665  0.112350  1
  S  S8  1  0.629597  0.962527  0.112430  1
  S  S9  1  0.962527  0.629597  0.112430  1
  S  S10  1  0.037473  0.370403  0.887570  1
  S  S11  1  0.370403  0.037473  0.887570  1
  S  S12  1  0.704335  0.704335  0.887650  1
  S  S13  1  0.216253  0.216253  0.356112  1
  S  S14  1  0.546527  0.881376  0.356121  1
  S  S15  1  0.881376  0.546527  0.356121  1
  S  S16  1  0.118624  0.453473  0.643879  1
  S  S17  1  0.453473  0.118624  0.643879  1
  S  S18  1  0.783747  0.783747  0.643888  1
