# generated using pymatgen
data_HoEr5Ni12(B2Ir)2
_symmetry_space_group_name_H-M   'P 1'
_cell_length_a   5.05981700
_cell_length_b   5.05981720
_cell_length_c   14.55982800
_cell_angle_alpha   90.00000000
_cell_angle_beta   90.00000000
_cell_angle_gamma   120.00000525
_symmetry_Int_Tables_number   1
_chemical_formula_structural   HoEr5Ni12(B2Ir)2
_chemical_formula_sum   'Ho1 Er5 Ni12 B4 Ir2'
_cell_volume   322.81706894
_cell_formula_units_Z   1
loop_
 _symmetry_equiv_pos_site_id
 _symmetry_equiv_pos_as_xyz
  1  'x, y, z'
loop_
 _atom_site_type_symbol
 _atom_site_label
 _atom_site_symmetry_multiplicity
 _atom_site_fract_x
 _atom_site_fract_y
 _atom_site_fract_z
 _atom_site_occupancy
  Ho  Ho0  1  0.666667  0.333333  0.750000  1
  Er  Er1  1  0.333333  0.666667  0.468395  1
  Er  Er2  1  0.666667  0.333333  0.968453  1
  Er  Er3  1  0.666667  0.333333  0.531547  1
  Er  Er4  1  0.333333  0.666667  0.031605  1
  Er  Er5  1  0.333333  0.666667  0.250000  1
  Ni  Ni6  1  0.834459  0.165541  0.348325  1
  Ni  Ni7  1  0.834459  0.668917  0.348325  1
  Ni  Ni8  1  0.834459  0.668917  0.151675  1
  Ni  Ni9  1  0.165532  0.834468  0.651656  1
  Ni  Ni10  1  0.668936  0.834468  0.651656  1
  Ni  Ni11  1  0.331083  0.165541  0.151675  1
  Ni  Ni12  1  0.834459  0.165541  0.151675  1
  Ni  Ni13  1  0.165532  0.331064  0.848344  1
  Ni  Ni14  1  0.165532  0.834468  0.848344  1
  Ni  Ni15  1  0.165532  0.331064  0.651656  1
  Ni  Ni16  1  0.668936  0.834468  0.848344  1
  Ni  Ni17  1  0.331083  0.165541  0.348325  1
  B  B18  1  0.666667  0.333333  0.250000  1
  B  B19  1  0.333333  0.666667  0.750000  1
  B  B20  1  0.000000  0.000000  0.750000  1
  B  B21  1  0.000000  0.000000  0.250000  1
  Ir  Ir22  1  0.000000  0.000000  0.999996  1
  Ir  Ir23  1  0.000000  0.000000  0.500004  1
