# generated using pymatgen
data_HoMn2FeNi2P3
_symmetry_space_group_name_H-M   'P 1'
_cell_length_a   3.64147000
_cell_length_b   10.40387400
_cell_length_c   12.16752300
_cell_angle_alpha   90.00000000
_cell_angle_beta   90.00000000
_cell_angle_gamma   90.00000000
_symmetry_Int_Tables_number   1
_chemical_formula_structural   HoMn2FeNi2P3
_chemical_formula_sum   'Ho4 Mn8 Fe4 Ni8 P12'
_cell_volume   460.97141569
_cell_formula_units_Z   4
loop_
 _symmetry_equiv_pos_site_id
 _symmetry_equiv_pos_as_xyz
  1  'x, y, z'
loop_
 _atom_site_type_symbol
 _atom_site_label
 _atom_site_symmetry_multiplicity
 _atom_site_fract_x
 _atom_site_fract_y
 _atom_site_fract_z
 _atom_site_occupancy
  Ho  Ho0  1  0.250000  0.580863  0.709829  1
  Ho  Ho1  1  0.250000  0.919137  0.209829  1
  Ho  Ho2  1  0.750000  0.419137  0.290171  1
  Ho  Ho3  1  0.750000  0.080863  0.790171  1
  Mn  Mn4  1  0.250000  0.711035  0.994749  1
  Mn  Mn5  1  0.250000  0.788965  0.494749  1
  Mn  Mn6  1  0.750000  0.288965  0.005251  1
  Mn  Mn7  1  0.750000  0.211035  0.505251  1
  Mn  Mn8  1  0.250000  0.407842  0.492603  1
  Mn  Mn9  1  0.250000  0.092158  0.992603  1
  Mn  Mn10  1  0.750000  0.592158  0.507397  1
  Mn  Mn11  1  0.750000  0.907842  0.007397  1
  Fe  Fe12  1  0.250000  0.463154  0.932951  1
  Fe  Fe13  1  0.250000  0.036846  0.432951  1
  Fe  Fe14  1  0.750000  0.536846  0.067049  1
  Fe  Fe15  1  0.750000  0.963154  0.567049  1
  Ni  Ni16  1  0.250000  0.226958  0.179262  1
  Ni  Ni17  1  0.250000  0.273042  0.679262  1
  Ni  Ni18  1  0.750000  0.773042  0.820738  1
  Ni  Ni19  1  0.750000  0.726958  0.320738  1
  Ni  Ni20  1  0.250000  0.880778  0.701000  1
  Ni  Ni21  1  0.250000  0.619222  0.201000  1
  Ni  Ni22  1  0.750000  0.119222  0.299000  1
  Ni  Ni23  1  0.750000  0.380778  0.799000  1
  P  P24  1  0.250000  0.424931  0.110090  1
  P  P25  1  0.250000  0.075069  0.610090  1
  P  P26  1  0.750000  0.575069  0.889910  1
  P  P27  1  0.750000  0.924931  0.389910  1
  P  P28  1  0.250000  0.266198  0.869801  1
  P  P29  1  0.250000  0.233802  0.369801  1
  P  P30  1  0.750000  0.733802  0.130199  1
  P  P31  1  0.750000  0.766198  0.630199  1
  P  P32  1  0.250000  0.598740  0.387708  1
  P  P33  1  0.250000  0.901260  0.887708  1
  P  P34  1  0.750000  0.401260  0.612292  1
  P  P35  1  0.750000  0.098740  0.112292  1
