# generated using pymatgen
data_Tb3YbMgAl17Pd6
_symmetry_space_group_name_H-M   'P 1'
_cell_length_a   7.68047746
_cell_length_b   7.69040943
_cell_length_c   9.52225911
_cell_angle_alpha   90.13918211
_cell_angle_beta   89.90896147
_cell_angle_gamma   119.56621013
_symmetry_Int_Tables_number   1
_chemical_formula_structural   Tb3YbMgAl17Pd6
_chemical_formula_sum   'Tb3 Yb1 Mg1 Al17 Pd6'
_cell_volume   489.20265134
_cell_formula_units_Z   1
loop_
 _symmetry_equiv_pos_site_id
 _symmetry_equiv_pos_as_xyz
  1  'x, y, z'
loop_
 _atom_site_type_symbol
 _atom_site_label
 _atom_site_symmetry_multiplicity
 _atom_site_fract_x
 _atom_site_fract_y
 _atom_site_fract_z
 _atom_site_occupancy
  Tb  Tb0  1  0.005142  0.332059  0.747893  1
  Tb  Tb1  1  0.665273  0.989071  0.251919  1
  Tb  Tb2  1  0.330134  0.004585  0.749704  1
  Yb  Yb3  1  0.996508  0.675001  0.251151  1
  Mg  Mg4  1  0.996214  0.336148  0.079443  1
  Al  Al5  1  0.130577  0.130603  0.250769  1
  Al  Al6  1  0.870099  0.869884  0.751118  1
  Al  Al7  1  0.999516  0.663734  0.924155  1
  Al  Al8  1  0.998905  0.665150  0.576182  1
  Al  Al9  1  0.334977  0.001253  0.424321  1
  Al  Al10  1  0.000790  0.334546  0.420190  1
  Al  Al11  1  0.665640  0.999214  0.576512  1
  Al  Al12  1  0.667940  0.001899  0.924855  1
  Al  Al13  1  0.334853  0.000883  0.075311  1
  Al  Al14  1  0.333275  0.333280  0.557004  1
  Al  Al15  1  0.666369  0.665618  0.443551  1
  Al  Al16  1  0.666813  0.665929  0.055146  1
  Al  Al17  1  0.330662  0.333243  0.942404  1
  Al  Al18  1  0.344088  0.547719  0.250449  1
  Al  Al19  1  0.660154  0.453736  0.749301  1
  Al  Al20  1  0.548576  0.335762  0.249243  1
  Al  Al21  1  0.454791  0.662505  0.750650  1
  Pd  Pd22  1  0.661104  0.326226  0.995315  1
  Pd  Pd23  1  0.334881  0.678671  0.999269  1
  Pd  Pd24  1  0.328637  0.672249  0.501793  1
  Pd  Pd25  1  0.671800  0.327855  0.500790  1
  Pd  Pd26  1  0.001552  0.994158  0.999532  1
  Pd  Pd27  1  0.000728  0.999019  0.502034  1
