# generated using pymatgen
data_CeCuSbH
_symmetry_space_group_name_H-M   'P 1'
_cell_length_a   4.29815000
_cell_length_b   4.29815000
_cell_length_c   7.61972900
_cell_angle_alpha   90.00000000
_cell_angle_beta   90.00000000
_cell_angle_gamma   90.00000000
_symmetry_Int_Tables_number   1
_chemical_formula_structural   CeCuSbH
_chemical_formula_sum   'Ce2 Cu2 Sb2 H2'
_cell_volume   140.76758540
_cell_formula_units_Z   2
loop_
 _symmetry_equiv_pos_site_id
 _symmetry_equiv_pos_as_xyz
  1  'x, y, z'
loop_
 _atom_site_type_symbol
 _atom_site_label
 _atom_site_symmetry_multiplicity
 _atom_site_fract_x
 _atom_site_fract_y
 _atom_site_fract_z
 _atom_site_occupancy
  Ce  Ce0  1  0.500000  0.000000  0.350918  1
  Ce  Ce1  1  0.000000  0.500000  0.649082  1
  Cu  Cu2  1  0.000000  0.000000  0.000000  1
  Cu  Cu3  1  0.500000  0.500000  0.000000  1
  Sb  Sb4  1  0.500000  0.000000  0.796840  1
  Sb  Sb5  1  0.000000  0.500000  0.203160  1
  H  H6  1  0.000000  0.000000  0.500000  1
  H  H7  1  0.500000  0.500000  0.500000  1
