# generated using pymatgen
data_TbSmTi3P7Rh9
_symmetry_space_group_name_H-M   'P 1'
_cell_length_a   3.84894200
_cell_length_b   9.68656577
_cell_length_c   9.68501618
_cell_angle_alpha   119.98487379
_cell_angle_beta   89.99948866
_cell_angle_gamma   90.00035716
_symmetry_Int_Tables_number   1
_chemical_formula_structural   TbSmTi3P7Rh9
_chemical_formula_sum   'Tb1 Sm1 Ti3 P7 Rh9'
_cell_volume   312.75794907
_cell_formula_units_Z   1
loop_
 _symmetry_equiv_pos_site_id
 _symmetry_equiv_pos_as_xyz
  1  'x, y, z'
loop_
 _atom_site_type_symbol
 _atom_site_label
 _atom_site_symmetry_multiplicity
 _atom_site_fract_x
 _atom_site_fract_y
 _atom_site_fract_z
 _atom_site_occupancy
  Tb  Tb0  1  0.761781  0.333425  0.666684  1
  Sm  Sm1  1  0.261776  0.666631  0.333325  1
  Ti  Ti2  1  0.762044  0.100426  0.879395  1
  Ti  Ti3  1  0.762053  0.120502  0.220970  1
  Ti  Ti4  1  0.762044  0.778977  0.899642  1
  P  P5  1  0.262377  0.999860  0.999967  1
  P  P6  1  0.761820  0.878475  0.590977  1
  P  P7  1  0.761826  0.408858  0.287441  1
  P  P8  1  0.761806  0.712544  0.121473  1
  P  P9  1  0.261855  0.115835  0.416525  1
  P  P10  1  0.261881  0.583559  0.699316  1
  P  P11  1  0.261863  0.300775  0.884239  1
  Rh  Rh12  1  0.261837  0.884244  0.159524  1
  Rh  Rh13  1  0.261906  0.840536  0.724742  1
  Rh  Rh14  1  0.261856  0.275065  0.115631  1
  Rh  Rh15  1  0.761912  0.609705  0.560057  1
  Rh  Rh16  1  0.761868  0.439946  0.049637  1
  Rh  Rh17  1  0.761829  0.950434  0.390390  1
  Rh  Rh18  1  0.261958  0.365040  0.436199  1
  Rh  Rh19  1  0.261886  0.563798  0.928754  1
  Rh  Rh20  1  0.261822  0.071364  0.635113  1
