# generated using pymatgen
data_Ho2TmAl12Ir3Ru
_symmetry_space_group_name_H-M   'P 1'
_cell_length_a   8.79813200
_cell_length_b   8.82171290
_cell_length_c   9.46796300
_cell_angle_alpha   90.00000000
_cell_angle_beta   90.00000000
_cell_angle_gamma   119.91162296
_symmetry_Int_Tables_number   1
_chemical_formula_structural   Ho2TmAl12Ir3Ru
_chemical_formula_sum   'Ho4 Tm2 Al24 Ir6 Ru2'
_cell_volume   636.96658136
_cell_formula_units_Z   2
loop_
 _symmetry_equiv_pos_site_id
 _symmetry_equiv_pos_as_xyz
  1  'x, y, z'
loop_
 _atom_site_type_symbol
 _atom_site_label
 _atom_site_symmetry_multiplicity
 _atom_site_fract_x
 _atom_site_fract_y
 _atom_site_fract_z
 _atom_site_occupancy
  Ho  Ho0  1  0.806854  0.193145  0.750000  1
  Ho  Ho1  1  0.193146  0.806855  0.250000  1
  Ho  Ho2  1  0.386290  0.193145  0.750000  1
  Ho  Ho3  1  0.613710  0.806855  0.250000  1
  Tm  Tm4  1  0.806093  0.612188  0.750000  1
  Tm  Tm5  1  0.193907  0.387812  0.250000  1
  Al  Al6  1  0.666553  0.333106  0.970780  1
  Al  Al7  1  0.333447  0.666894  0.029220  1
  Al  Al8  1  0.333447  0.666894  0.470780  1
  Al  Al9  1  0.666553  0.333106  0.529220  1
  Al  Al10  1  0.837271  0.163157  0.423098  1
  Al  Al11  1  0.162729  0.836843  0.576902  1
  Al  Al12  1  0.325886  0.163157  0.423098  1
  Al  Al13  1  0.162729  0.836843  0.923098  1
  Al  Al14  1  0.674114  0.836843  0.576902  1
  Al  Al15  1  0.837271  0.163157  0.076902  1
  Al  Al16  1  0.837146  0.674292  0.423504  1
  Al  Al17  1  0.674114  0.836843  0.923098  1
  Al  Al18  1  0.162854  0.325708  0.576496  1
  Al  Al19  1  0.325886  0.163157  0.076902  1
  Al  Al20  1  0.162854  0.325708  0.923504  1
  Al  Al21  1  0.837146  0.674292  0.076496  1
  Al  Al22  1  0.438458  0.562370  0.750000  1
  Al  Al23  1  0.561542  0.437630  0.250000  1
  Al  Al24  1  0.123911  0.562370  0.750000  1
  Al  Al25  1  0.876089  0.437630  0.250000  1
  Al  Al26  1  0.437813  0.875627  0.750000  1
  Al  Al27  1  0.562187  0.124373  0.250000  1
  Al  Al28  1  0.999532  0.999065  0.750000  1
  Al  Al29  1  0.000468  0.000935  0.250000  1
  Ir  Ir30  1  0.500000  0.500000  0.000000  1
  Ir  Ir31  1  0.000000  0.500000  0.000000  1
  Ir  Ir32  1  0.500000  0.500000  0.500000  1
  Ir  Ir33  1  0.500000  0.000000  0.000000  1
  Ir  Ir34  1  0.000000  0.500000  0.500000  1
  Ir  Ir35  1  0.500000  0.000000  0.500000  1
  Ru  Ru36  1  0.000000  0.000000  0.000000  1
  Ru  Ru37  1  0.000000  0.000000  0.500000  1
