# generated using pymatgen
data_ThCoCuP2
_symmetry_space_group_name_H-M   'P 1'
_cell_length_a   4.10682400
_cell_length_b   4.10682400
_cell_length_c   9.19257300
_cell_angle_alpha   90.00000000
_cell_angle_beta   90.00000000
_cell_angle_gamma   90.00000000
_symmetry_Int_Tables_number   1
_chemical_formula_structural   ThCoCuP2
_chemical_formula_sum   'Th2 Co2 Cu2 P4'
_cell_volume   155.04196717
_cell_formula_units_Z   2
loop_
 _symmetry_equiv_pos_site_id
 _symmetry_equiv_pos_as_xyz
  1  'x, y, z'
loop_
 _atom_site_type_symbol
 _atom_site_label
 _atom_site_symmetry_multiplicity
 _atom_site_fract_x
 _atom_site_fract_y
 _atom_site_fract_z
 _atom_site_occupancy
  Th  Th0  1  0.000000  0.500000  0.262130  1
  Th  Th1  1  0.500000  0.000000  0.737870  1
  Co  Co2  1  0.000000  0.500000  0.605508  1
  Co  Co3  1  0.500000  0.000000  0.394492  1
  Cu  Cu4  1  0.000000  0.000000  0.000000  1
  Cu  Cu5  1  0.500000  0.500000  0.000000  1
  P  P6  1  0.000000  0.000000  0.500000  1
  P  P7  1  0.500000  0.500000  0.500000  1
  P  P8  1  0.000000  0.500000  0.855455  1
  P  P9  1  0.500000  0.000000  0.144545  1
