# generated using pymatgen
data_Tb4InAgPd4
_symmetry_space_group_name_H-M   'P 1'
_cell_length_a   7.68723700
_cell_length_b   7.68723700
_cell_length_c   3.77633900
_cell_angle_alpha   90.00000000
_cell_angle_beta   90.00000000
_cell_angle_gamma   90.00000000
_symmetry_Int_Tables_number   1
_chemical_formula_structural   Tb4InAgPd4
_chemical_formula_sum   'Tb4 In1 Ag1 Pd4'
_cell_volume   223.15751427
_cell_formula_units_Z   1
loop_
 _symmetry_equiv_pos_site_id
 _symmetry_equiv_pos_as_xyz
  1  'x, y, z'
loop_
 _atom_site_type_symbol
 _atom_site_label
 _atom_site_symmetry_multiplicity
 _atom_site_fract_x
 _atom_site_fract_y
 _atom_site_fract_z
 _atom_site_occupancy
  Tb  Tb0  1  0.328930  0.827525  0.500000  1
  Tb  Tb1  1  0.827525  0.671070  0.500000  1
  Tb  Tb2  1  0.172475  0.328930  0.500000  1
  Tb  Tb3  1  0.671070  0.172475  0.500000  1
  In  In4  1  0.500000  0.500000  0.000000  1
  Ag  Ag5  1  0.000000  0.000000  0.000000  1
  Pd  Pd6  1  0.367896  0.126821  0.000000  1
  Pd  Pd7  1  0.873179  0.367896  0.000000  1
  Pd  Pd8  1  0.126821  0.632104  0.000000  1
  Pd  Pd9  1  0.632104  0.873179  0.000000  1
