# generated using pymatgen
data_Y3In4NiPt
_symmetry_space_group_name_H-M   'P 1'
_cell_length_a   7.88924600
_cell_length_b   7.88924524
_cell_length_c   3.78342600
_cell_angle_alpha   90.00000000
_cell_angle_beta   90.00000000
_cell_angle_gamma   120.00001156
_symmetry_Int_Tables_number   1
_chemical_formula_structural   Y3In4NiPt
_chemical_formula_sum   'Y3 In4 Ni1 Pt1'
_cell_volume   203.93265812
_cell_formula_units_Z   1
loop_
 _symmetry_equiv_pos_site_id
 _symmetry_equiv_pos_as_xyz
  1  'x, y, z'
loop_
 _atom_site_type_symbol
 _atom_site_label
 _atom_site_symmetry_multiplicity
 _atom_site_fract_x
 _atom_site_fract_y
 _atom_site_fract_z
 _atom_site_occupancy
  Y  Y0  1  0.048053  0.303598  0.500000  1
  Y  Y1  1  0.696402  0.744454  0.500000  1
  Y  Y2  1  0.255546  0.951947  0.500000  1
  In  In3  1  0.661885  0.083870  0.000000  1
  In  In4  1  0.916130  0.578016  0.000000  1
  In  In5  1  0.421984  0.338115  0.000000  1
  In  In6  1  0.333333  0.666667  0.000000  1
  Ni  Ni7  1  0.666667  0.333333  0.500000  1
  Pt  Pt8  1  0.000000  0.000000  0.000000  1
