# generated using pymatgen
data_Tb4(ThRh)3
_symmetry_space_group_name_H-M   'P 1'
_cell_length_a   9.88473734
_cell_length_b   9.88473732
_cell_length_c   6.36532478
_cell_angle_alpha   90.12499771
_cell_angle_beta   89.87500109
_cell_angle_gamma   120.56978769
_symmetry_Int_Tables_number   1
_chemical_formula_structural   Tb4(ThRh)3
_chemical_formula_sum   'Tb8 Th6 Rh6'
_cell_volume   535.49796487
_cell_formula_units_Z   2
loop_
 _symmetry_equiv_pos_site_id
 _symmetry_equiv_pos_as_xyz
  1  'x, y, z'
loop_
 _atom_site_type_symbol
 _atom_site_label
 _atom_site_symmetry_multiplicity
 _atom_site_fract_x
 _atom_site_fract_y
 _atom_site_fract_z
 _atom_site_occupancy
  Tb  Tb0  1  0.253629  0.125395  0.743169  1
  Tb  Tb1  1  0.874605  0.746371  0.743169  1
  Tb  Tb2  1  0.538811  0.461189  0.447428  1
  Tb  Tb3  1  0.921530  0.461200  0.447713  1
  Tb  Tb4  1  0.538800  0.078470  0.447713  1
  Tb  Tb5  1  0.463052  0.536948  0.941508  1
  Tb  Tb6  1  0.074826  0.538976  0.941306  1
  Tb  Tb7  1  0.461024  0.925174  0.941306  1
  Th  Th8  1  0.334305  0.665695  0.465206  1
  Th  Th9  1  0.665993  0.334007  0.971904  1
  Th  Th10  1  0.127438  0.872562  0.248085  1
  Th  Th11  1  0.745684  0.871066  0.243199  1
  Th  Th12  1  0.128934  0.254316  0.243199  1
  Th  Th13  1  0.873105  0.126895  0.739939  1
  Rh  Rh14  1  0.814233  0.185767  0.187664  1
  Rh  Rh15  1  0.372324  0.186395  0.192573  1
  Rh  Rh16  1  0.813605  0.627676  0.192573  1
  Rh  Rh17  1  0.192235  0.807765  0.675106  1
  Rh  Rh18  1  0.624837  0.818970  0.686901  1
  Rh  Rh19  1  0.181030  0.375163  0.686901  1
