# generated using pymatgen
data_CsV(NiS2)2
_symmetry_space_group_name_H-M   'P 1'
_cell_length_a   9.97510083
_cell_length_b   9.97509987
_cell_length_c   7.39650100
_cell_angle_alpha   90.00000000
_cell_angle_beta   90.00000000
_cell_angle_gamma   148.80057008
_symmetry_Int_Tables_number   1
_chemical_formula_structural   CsV(NiS2)2
_chemical_formula_sum   'Cs2 V2 Ni4 S8'
_cell_volume   381.24673740
_cell_formula_units_Z   2
loop_
 _symmetry_equiv_pos_site_id
 _symmetry_equiv_pos_as_xyz
  1  'x, y, z'
loop_
 _atom_site_type_symbol
 _atom_site_label
 _atom_site_symmetry_multiplicity
 _atom_site_fract_x
 _atom_site_fract_y
 _atom_site_fract_z
 _atom_site_occupancy
  Cs  Cs0  1  0.166441  0.533415  0.750000  1
  Cs  Cs1  1  0.533415  0.166441  0.250000  1
  V  V2  1  0.707450  0.506202  0.750000  1
  V  V3  1  0.506202  0.707450  0.250000  1
  Ni  Ni4  1  0.607487  0.607487  0.500000  1
  Ni  Ni5  1  0.006261  0.202954  0.250000  1
  Ni  Ni6  1  0.202954  0.006261  0.750000  1
  Ni  Ni7  1  0.607487  0.607487  0.000000  1
  S  S8  1  0.756619  0.944077  0.011737  1
  S  S9  1  0.373913  0.360592  0.750000  1
  S  S10  1  0.360592  0.373913  0.250000  1
  S  S11  1  0.944077  0.756619  0.511737  1
  S  S12  1  0.549946  0.168262  0.750000  1
  S  S13  1  0.944077  0.756619  0.988263  1
  S  S14  1  0.168262  0.549946  0.250000  1
  S  S15  1  0.756619  0.944077  0.488263  1
