# generated using pymatgen
data_TbY3TmRu2
_symmetry_space_group_name_H-M   'P 1'
_cell_length_a   6.35887701
_cell_length_b   7.30934362
_cell_length_c   8.48793821
_cell_angle_alpha   96.78299547
_cell_angle_beta   111.99855046
_cell_angle_gamma   89.99999996
_symmetry_Int_Tables_number   1
_chemical_formula_structural   TbY3TmRu2
_chemical_formula_sum   'Tb2 Y6 Tm2 Ru4'
_cell_volume   362.80966860
_cell_formula_units_Z   2
loop_
 _symmetry_equiv_pos_site_id
 _symmetry_equiv_pos_as_xyz
  1  'x, y, z'
loop_
 _atom_site_type_symbol
 _atom_site_label
 _atom_site_symmetry_multiplicity
 _atom_site_fract_x
 _atom_site_fract_y
 _atom_site_fract_z
 _atom_site_occupancy
  Tb  Tb0  1  0.793308  0.814793  0.432788  1
  Tb  Tb1  1  0.360521  0.685207  0.567212  1
  Y  Y2  1  0.792397  0.083742  0.814949  1
  Y  Y3  1  0.977448  0.416258  0.185051  1
  Y  Y4  1  0.207539  0.916734  0.185174  1
  Y  Y5  1  0.022365  0.583266  0.814826  1
  Y  Y6  1  0.206117  0.185414  0.566492  1
  Y  Y7  1  0.639625  0.314586  0.433508  1
  Tm  Tm8  1  0.423265  0.250000  0.000000  1
  Tm  Tm9  1  0.576470  0.750000  0.000000  1
  Ru  Ru10  1  0.601500  0.426969  0.782756  1
  Ru  Ru11  1  0.818743  0.073031  0.217244  1
  Ru  Ru12  1  0.398952  0.575153  0.217202  1
  Ru  Ru13  1  0.181751  0.924847  0.782798  1
