# generated using pymatgen
data_Ba2DyHoEr2(Si3O10)2
_symmetry_space_group_name_H-M   'P 1'
_cell_length_a   5.44617403
_cell_length_b   12.31757819
_cell_length_c   6.90270951
_cell_angle_alpha   90.00785741
_cell_angle_beta   106.48569292
_cell_angle_gamma   89.97610099
_symmetry_Int_Tables_number   1
_chemical_formula_structural   Ba2DyHoEr2(Si3O10)2
_chemical_formula_sum   'Ba2 Dy1 Ho1 Er2 Si6 O20'
_cell_volume   444.02300815
_cell_formula_units_Z   1
loop_
 _symmetry_equiv_pos_site_id
 _symmetry_equiv_pos_as_xyz
  1  'x, y, z'
loop_
 _atom_site_type_symbol
 _atom_site_label
 _atom_site_symmetry_multiplicity
 _atom_site_fract_x
 _atom_site_fract_y
 _atom_site_fract_z
 _atom_site_occupancy
  Ba  Ba0  1  0.762290  0.249973  0.016334  1
  Ba  Ba1  1  0.237751  0.749970  0.983390  1
  Dy  Dy2  1  0.844162  0.901140  0.317182  1
  Ho  Ho3  1  0.843079  0.598817  0.316822  1
  Er  Er4  1  0.157405  0.100005  0.683523  1
  Er  Er5  1  0.157234  0.400193  0.683383  1
  Si  Si6  1  0.304740  0.060959  0.213427  1
  Si  Si7  1  0.304786  0.439214  0.213603  1
  Si  Si8  1  0.580845  0.249960  0.488119  1
  Si  Si9  1  0.419539  0.749776  0.512150  1
  Si  Si10  1  0.694798  0.560107  0.786184  1
  Si  Si11  1  0.694794  0.939975  0.785997  1
  O  O12  1  0.162772  0.121017  0.000733  1
  O  O13  1  0.163084  0.378984  0.000909  1
  O  O14  1  0.437743  0.554761  0.193261  1
  O  O15  1  0.436072  0.945091  0.192496  1
  O  O16  1  0.547459  0.143267  0.337292  1
  O  O17  1  0.547230  0.356788  0.337586  1
  O  O18  1  0.104685  0.050586  0.353792  1
  O  O19  1  0.103513  0.450227  0.353257  1
  O  O20  1  0.124797  0.749559  0.365609  1
  O  O21  1  0.631576  0.749535  0.386321  1
  O  O22  1  0.368671  0.250055  0.614411  1
  O  O23  1  0.876158  0.249907  0.634436  1
  O  O24  1  0.897319  0.547852  0.647876  1
  O  O25  1  0.898066  0.952437  0.648892  1
  O  O26  1  0.453057  0.642947  0.662214  1
  O  O27  1  0.453156  0.856878  0.662067  1
  O  O28  1  0.559820  0.054980  0.806519  1
  O  O29  1  0.559664  0.445101  0.806619  1
  O  O30  1  0.836509  0.620902  0.998169  1
  O  O31  1  0.837232  0.879036  0.997436  1
