# generated using pymatgen
data_Ti2Be8NbSi
_symmetry_space_group_name_H-M   'P 1'
_cell_length_a   7.53743526
_cell_length_b   7.53743359
_cell_length_c   7.53743515
_cell_angle_alpha   34.99684348
_cell_angle_beta   34.99684645
_cell_angle_gamma   34.99683699
_symmetry_Int_Tables_number   1
_chemical_formula_structural   Ti2Be8NbSi
_chemical_formula_sum   'Ti2 Be8 Nb1 Si1'
_cell_volume   125.76969275
_cell_formula_units_Z   1
loop_
 _symmetry_equiv_pos_site_id
 _symmetry_equiv_pos_as_xyz
  1  'x, y, z'
loop_
 _atom_site_type_symbol
 _atom_site_label
 _atom_site_symmetry_multiplicity
 _atom_site_fract_x
 _atom_site_fract_y
 _atom_site_fract_z
 _atom_site_occupancy
  Ti  Ti0  1  0.859835  0.859835  0.859835  1
  Ti  Ti1  1  0.140165  0.140165  0.140165  1
  Be  Be2  1  0.416251  0.930295  0.416251  1
  Be  Be3  1  0.416251  0.416251  0.930295  1
  Be  Be4  1  0.930295  0.416251  0.416251  1
  Be  Be5  1  0.583749  0.069705  0.583749  1
  Be  Be6  1  0.583749  0.583749  0.069705  1
  Be  Be7  1  0.069705  0.583749  0.583749  1
  Be  Be8  1  0.665463  0.665463  0.665463  1
  Be  Be9  1  0.334537  0.334537  0.334537  1
  Nb  Nb10  1  0.000000  0.000000  0.000000  1
  Si  Si11  1  0.500000  0.500000  0.500000  1
