# generated using pymatgen
data_Ho6TlFeSi
_symmetry_space_group_name_H-M   'P 1'
_cell_length_a   8.44516272
_cell_length_b   8.44516337
_cell_length_c   8.44516300
_cell_angle_alpha   113.19211118
_cell_angle_beta   110.34642568
_cell_angle_gamma   104.98043542
_symmetry_Int_Tables_number   1
_chemical_formula_structural   Ho6TlFeSi
_chemical_formula_sum   'Ho12 Tl2 Fe2 Si2'
_cell_volume   461.23845434
_cell_formula_units_Z   2
loop_
 _symmetry_equiv_pos_site_id
 _symmetry_equiv_pos_as_xyz
  1  'x, y, z'
loop_
 _atom_site_type_symbol
 _atom_site_label
 _atom_site_symmetry_multiplicity
 _atom_site_fract_x
 _atom_site_fract_y
 _atom_site_fract_z
 _atom_site_occupancy
  Ho  Ho0  1  0.445082  0.240596  0.204488  1
  Ho  Ho1  1  0.554918  0.759404  0.795512  1
  Ho  Ho2  1  0.036109  0.240596  0.795512  1
  Ho  Ho3  1  0.963891  0.759404  0.204488  1
  Ho  Ho4  1  0.187721  0.289350  0.477071  1
  Ho  Ho5  1  0.812279  0.710650  0.522929  1
  Ho  Ho6  1  0.187721  0.710650  0.898372  1
  Ho  Ho7  1  0.812279  0.289350  0.101628  1
  Ho  Ho8  1  0.304317  0.614888  0.310570  1
  Ho  Ho9  1  0.695683  0.385112  0.689430  1
  Ho  Ho10  1  0.304317  0.993747  0.689430  1
  Ho  Ho11  1  0.695683  0.006253  0.310570  1
  Tl  Tl12  1  0.500000  0.500000  0.000000  1
  Tl  Tl13  1  0.000000  0.000000  0.000000  1
  Fe  Fe14  1  0.104334  0.604334  0.500000  1
  Fe  Fe15  1  0.895666  0.395666  0.500000  1
  Si  Si16  1  0.365509  0.000000  0.365509  1
  Si  Si17  1  0.634491  0.000000  0.634491  1
