# generated using pymatgen
data_Pr16Nd4Si15Pd
_symmetry_space_group_name_H-M   'P 1'
_cell_length_a   7.93434198
_cell_length_b   7.92161684
_cell_length_c   15.29669804
_cell_angle_alpha   89.94705476
_cell_angle_beta   89.68955180
_cell_angle_gamma   90.16698734
_symmetry_Int_Tables_number   1
_chemical_formula_structural   Pr16Nd4Si15Pd
_chemical_formula_sum   'Pr16 Nd4 Si15 Pd1'
_cell_volume   961.42194153
_cell_formula_units_Z   1
loop_
 _symmetry_equiv_pos_site_id
 _symmetry_equiv_pos_as_xyz
  1  'x, y, z'
loop_
 _atom_site_type_symbol
 _atom_site_label
 _atom_site_symmetry_multiplicity
 _atom_site_fract_x
 _atom_site_fract_y
 _atom_site_fract_z
 _atom_site_occupancy
  Pr  Pr0  1  0.374893  0.010377  0.447852  1
  Pr  Pr1  1  0.491839  0.872206  0.698493  1
  Pr  Pr2  1  0.509840  0.123790  0.197584  1
  Pr  Pr3  1  0.876182  0.488667  0.300438  1
  Pr  Pr4  1  0.122204  0.513158  0.801491  1
  Pr  Pr5  1  0.626315  0.988259  0.949257  1
  Pr  Pr6  1  0.002742  0.377815  0.550256  1
  Pr  Pr7  1  0.988909  0.625107  0.051901  1
  Pr  Pr8  1  0.133496  0.986832  0.876090  1
  Pr  Pr9  1  0.516925  0.630400  0.125990  1
  Pr  Pr10  1  0.478719  0.366555  0.627681  1
  Pr  Pr11  1  0.628217  0.517646  0.874385  1
  Pr  Pr12  1  0.372104  0.482968  0.373298  1
  Pr  Pr13  1  0.872283  0.019465  0.376201  1
  Pr  Pr14  1  0.982551  0.126972  0.124318  1
  Pr  Pr15  1  0.019624  0.873909  0.623414  1
  Nd  Nd16  1  0.306995  0.306854  0.999053  1
  Nd  Nd17  1  0.190218  0.808612  0.249785  1
  Nd  Nd18  1  0.808314  0.186674  0.751300  1
  Nd  Nd19  1  0.691684  0.688228  0.499289  1
  Si  Si20  1  0.332485  0.695381  0.951093  1
  Si  Si21  1  0.664843  0.304490  0.451725  1
  Si  Si22  1  0.697444  0.334658  0.049466  1
  Si  Si23  1  0.305312  0.668503  0.548116  1
  Si  Si24  1  0.804947  0.832461  0.202399  1
  Si  Si25  1  0.167927  0.196651  0.298420  1
  Si  Si26  1  0.835135  0.804158  0.798434  1
  Si  Si27  1  0.288221  0.922424  0.059558  1
  Si  Si28  1  0.578435  0.787178  0.309936  1
  Si  Si29  1  0.430244  0.208789  0.813339  1
  Si  Si30  1  0.786889  0.578919  0.689986  1
  Si  Si31  1  0.212463  0.422803  0.190220  1
  Si  Si32  1  0.707092  0.075642  0.558959  1
  Si  Si33  1  0.921450  0.288891  0.941157  1
  Si  Si34  1  0.078781  0.714059  0.440921  1
  Pd  Pd35  1  0.194277  0.170497  0.698191  1
