# generated using pymatgen
data_Ce16Mg(ScIr4)3
_symmetry_space_group_name_H-M   'P 1'
_cell_length_a   11.08612300
_cell_length_b   11.08612300
_cell_length_c   6.18061400
_cell_angle_alpha   90.00000000
_cell_angle_beta   90.00000000
_cell_angle_gamma   90.00000000
_symmetry_Int_Tables_number   1
_chemical_formula_structural   Ce16Mg(ScIr4)3
_chemical_formula_sum   'Ce16 Mg1 Sc3 Ir12'
_cell_volume   759.61058310
_cell_formula_units_Z   1
loop_
 _symmetry_equiv_pos_site_id
 _symmetry_equiv_pos_as_xyz
  1  'x, y, z'
loop_
 _atom_site_type_symbol
 _atom_site_label
 _atom_site_symmetry_multiplicity
 _atom_site_fract_x
 _atom_site_fract_y
 _atom_site_fract_z
 _atom_site_occupancy
  Ce  Ce0  1  0.279953  0.085445  0.379966  1
  Ce  Ce1  1  0.284768  0.911632  0.877497  1
  Ce  Ce2  1  0.715232  0.088368  0.877497  1
  Ce  Ce3  1  0.720047  0.914555  0.379966  1
  Ce  Ce4  1  0.589523  0.784532  0.880396  1
  Ce  Ce5  1  0.585636  0.214812  0.378172  1
  Ce  Ce6  1  0.414364  0.785188  0.378172  1
  Ce  Ce7  1  0.410477  0.215468  0.880396  1
  Ce  Ce8  1  0.214812  0.414364  0.621828  1
  Ce  Ce9  1  0.215468  0.589523  0.119604  1
  Ce  Ce10  1  0.784532  0.410477  0.119604  1
  Ce  Ce11  1  0.785188  0.585636  0.621828  1
  Ce  Ce12  1  0.911632  0.715232  0.122503  1
  Ce  Ce13  1  0.914555  0.279953  0.620034  1
  Ce  Ce14  1  0.085445  0.720047  0.620034  1
  Ce  Ce15  1  0.088368  0.284768  0.122503  1
  Mg  Mg16  1  0.000000  0.000000  0.500000  1
  Sc  Sc17  1  0.000000  0.000000  0.000000  1
  Sc  Sc18  1  0.500000  0.500000  0.000000  1
  Sc  Sc19  1  0.500000  0.500000  0.500000  1
  Ir  Ir20  1  0.847204  0.152889  0.241066  1
  Ir  Ir21  1  0.847111  0.847204  0.758934  1
  Ir  Ir22  1  0.152889  0.152796  0.758934  1
  Ir  Ir23  1  0.152796  0.847111  0.241066  1
  Ir  Ir24  1  0.648675  0.350919  0.748692  1
  Ir  Ir25  1  0.649081  0.648675  0.251308  1
  Ir  Ir26  1  0.350919  0.351325  0.251308  1
  Ir  Ir27  1  0.351325  0.649081  0.748692  1
  Ir  Ir28  1  0.500000  0.000000  0.115841  1
  Ir  Ir29  1  0.500000  0.000000  0.615335  1
  Ir  Ir30  1  0.000000  0.500000  0.884159  1
  Ir  Ir31  1  0.000000  0.500000  0.384665  1
