# generated using pymatgen
data_TmZr8In14Co6Mo
_symmetry_space_group_name_H-M   'P 1'
_cell_length_a   9.52509950
_cell_length_b   9.52509937
_cell_length_c   9.52509900
_cell_angle_alpha   59.99999782
_cell_angle_beta   59.99999827
_cell_angle_gamma   60.00000040
_symmetry_Int_Tables_number   1
_chemical_formula_structural   TmZr8In14Co6Mo
_chemical_formula_sum   'Tm1 Zr8 In14 Co6 Mo1'
_cell_volume   611.07360549
_cell_formula_units_Z   1
loop_
 _symmetry_equiv_pos_site_id
 _symmetry_equiv_pos_as_xyz
  1  'x, y, z'
loop_
 _atom_site_type_symbol
 _atom_site_label
 _atom_site_symmetry_multiplicity
 _atom_site_fract_x
 _atom_site_fract_y
 _atom_site_fract_z
 _atom_site_occupancy
  Tm  Tm0  1  0.500000  0.500000  0.500000  1
  Zr  Zr1  1  0.121224  0.636330  0.121224  1
  Zr  Zr2  1  0.363670  0.878776  0.878776  1
  Zr  Zr3  1  0.878776  0.878776  0.878776  1
  Zr  Zr4  1  0.636330  0.121224  0.121224  1
  Zr  Zr5  1  0.878776  0.878776  0.363670  1
  Zr  Zr6  1  0.121224  0.121224  0.121224  1
  Zr  Zr7  1  0.878776  0.363670  0.878776  1
  Zr  Zr8  1  0.121224  0.121224  0.636330  1
  In  In9  1  0.500000  0.843457  0.156543  1
  In  In10  1  0.500000  0.843457  0.500000  1
  In  In11  1  0.500000  0.156543  0.500000  1
  In  In12  1  0.500000  0.500000  0.843457  1
  In  In13  1  0.156543  0.500000  0.500000  1
  In  In14  1  0.843457  0.156543  0.500000  1
  In  In15  1  0.156543  0.843457  0.500000  1
  In  In16  1  0.500000  0.156543  0.843457  1
  In  In17  1  0.156543  0.500000  0.843457  1
  In  In18  1  0.500000  0.500000  0.156543  1
  In  In19  1  0.843457  0.500000  0.500000  1
  In  In20  1  0.843457  0.500000  0.156543  1
  In  In21  1  0.250000  0.250000  0.250000  1
  In  In22  1  0.750000  0.750000  0.750000  1
  Co  Co23  1  0.776096  0.776096  0.223904  1
  Co  Co24  1  0.223904  0.776096  0.223904  1
  Co  Co25  1  0.223904  0.776096  0.776096  1
  Co  Co26  1  0.223904  0.223904  0.776096  1
  Co  Co27  1  0.776096  0.223904  0.776096  1
  Co  Co28  1  0.776096  0.223904  0.223904  1
  Mo  Mo29  1  0.000000  0.000000  0.000000  1
