# generated using pymatgen
data_Ho4ThCr2O12
_symmetry_space_group_name_H-M   'P 1'
_cell_length_a   6.83583073
_cell_length_b   6.83583059
_cell_length_c   7.22809700
_cell_angle_alpha   74.71302078
_cell_angle_beta   74.71302109
_cell_angle_gamma   50.22019454
_symmetry_Int_Tables_number   1
_chemical_formula_structural   Ho4ThCr2O12
_chemical_formula_sum   'Ho4 Th1 Cr2 O12'
_cell_volume   248.32369153
_cell_formula_units_Z   1
loop_
 _symmetry_equiv_pos_site_id
 _symmetry_equiv_pos_as_xyz
  1  'x, y, z'
loop_
 _atom_site_type_symbol
 _atom_site_label
 _atom_site_symmetry_multiplicity
 _atom_site_fract_x
 _atom_site_fract_y
 _atom_site_fract_z
 _atom_site_occupancy
  Ho  Ho0  1  0.307401  0.307401  0.352306  1
  Ho  Ho1  1  0.692599  0.692599  0.647694  1
  Ho  Ho2  1  0.304793  0.304793  0.842039  1
  Ho  Ho3  1  0.695207  0.695207  0.157961  1
  Th  Th4  1  0.000000  0.000000  0.500000  1
  Cr  Cr5  1  0.753149  0.246851  0.000000  1
  Cr  Cr6  1  0.246851  0.753149  0.000000  1
  O  O7  1  0.901097  0.421598  0.918392  1
  O  O8  1  0.421598  0.901097  0.918392  1
  O  O9  1  0.098903  0.578402  0.081608  1
  O  O10  1  0.578402  0.098903  0.081608  1
  O  O11  1  0.094513  0.594613  0.576790  1
  O  O12  1  0.594613  0.094513  0.576790  1
  O  O13  1  0.905487  0.405387  0.423210  1
  O  O14  1  0.405387  0.905487  0.423210  1
  O  O15  1  0.999587  0.999587  0.820042  1
  O  O16  1  0.000413  0.000413  0.179958  1
  O  O17  1  0.499145  0.499145  0.814029  1
  O  O18  1  0.500855  0.500855  0.185971  1
