# generated using pymatgen
data_Er6Zn20Ag3As
_symmetry_space_group_name_H-M   'P 1'
_cell_length_a   9.08644708
_cell_length_b   9.08644737
_cell_length_c   9.08357800
_cell_angle_alpha   60.01044554
_cell_angle_beta   60.01044451
_cell_angle_gamma   60.01855666
_symmetry_Int_Tables_number   1
_chemical_formula_structural   Er6Zn20Ag3As
_chemical_formula_sum   'Er6 Zn20 Ag3 As1'
_cell_volume   530.46850512
_cell_formula_units_Z   1
loop_
 _symmetry_equiv_pos_site_id
 _symmetry_equiv_pos_as_xyz
  1  'x, y, z'
loop_
 _atom_site_type_symbol
 _atom_site_label
 _atom_site_symmetry_multiplicity
 _atom_site_fract_x
 _atom_site_fract_y
 _atom_site_fract_z
 _atom_site_occupancy
  Er  Er0  1  0.715818  0.284831  0.284676  1
  Er  Er1  1  0.715818  0.284831  0.714676  1
  Er  Er2  1  0.714406  0.714406  0.285594  1
  Er  Er3  1  0.284831  0.715818  0.714676  1
  Er  Er4  1  0.284831  0.715818  0.284676  1
  Er  Er5  1  0.283907  0.283907  0.716093  1
  Zn  Zn6  1  0.126025  0.126025  0.622307  1
  Zn  Zn7  1  0.126025  0.126025  0.125645  1
  Zn  Zn8  1  0.376505  0.873524  0.874985  1
  Zn  Zn9  1  0.873524  0.376505  0.874985  1
  Zn  Zn10  1  0.874242  0.874242  0.375653  1
  Zn  Zn11  1  0.874242  0.874242  0.875862  1
  Zn  Zn12  1  0.498132  0.998723  0.999151  1
  Zn  Zn13  1  0.498132  0.998723  0.503995  1
  Zn  Zn14  1  0.501781  0.501781  0.998219  1
  Zn  Zn15  1  0.998723  0.498132  0.503995  1
  Zn  Zn16  1  0.998723  0.498132  0.999151  1
  Zn  Zn17  1  0.999624  0.999624  0.500376  1
  Zn  Zn18  1  0.005103  0.330490  0.332202  1
  Zn  Zn19  1  0.330490  0.005103  0.332202  1
  Zn  Zn20  1  0.331429  0.331429  0.003757  1
  Zn  Zn21  1  0.331429  0.331429  0.333383  1
  Zn  Zn22  1  0.993938  0.668587  0.668739  1
  Zn  Zn23  1  0.668587  0.993938  0.668739  1
  Zn  Zn24  1  0.668517  0.668517  0.994768  1
  Zn  Zn25  1  0.668517  0.668517  0.668200  1
  Ag  Ag26  1  0.627429  0.124066  0.124253  1
  Ag  Ag27  1  0.124066  0.627429  0.124253  1
  Ag  Ag28  1  0.005813  0.005813  0.994187  1
  As  As29  1  0.499395  0.499395  0.500605  1
