# generated using pymatgen
data_NdP12Ru3Rh
_symmetry_space_group_name_H-M   'P 1'
_cell_length_a   7.02395480
_cell_length_b   7.02395418
_cell_length_c   7.02395438
_cell_angle_alpha   109.43530668
_cell_angle_beta   109.43530834
_cell_angle_gamma   109.43529211
_symmetry_Int_Tables_number   1
_chemical_formula_structural   NdP12Ru3Rh
_chemical_formula_sum   'Nd1 P12 Ru3 Rh1'
_cell_volume   267.11567246
_cell_formula_units_Z   1
loop_
 _symmetry_equiv_pos_site_id
 _symmetry_equiv_pos_as_xyz
  1  'x, y, z'
loop_
 _atom_site_type_symbol
 _atom_site_label
 _atom_site_symmetry_multiplicity
 _atom_site_fract_x
 _atom_site_fract_y
 _atom_site_fract_z
 _atom_site_occupancy
  Nd  Nd0  1  0.000000  0.000000  0.000000  1
  P  P1  1  0.355973  0.212309  0.856244  1
  P  P2  1  0.644027  0.787691  0.143756  1
  P  P3  1  0.645572  0.500455  0.859566  1
  P  P4  1  0.354428  0.499545  0.140434  1
  P  P5  1  0.212309  0.856244  0.355973  1
  P  P6  1  0.787691  0.143756  0.644027  1
  P  P7  1  0.500455  0.859566  0.645572  1
  P  P8  1  0.499545  0.140434  0.354428  1
  P  P9  1  0.856244  0.355973  0.212309  1
  P  P10  1  0.143756  0.644027  0.787691  1
  P  P11  1  0.859566  0.645572  0.500455  1
  P  P12  1  0.140434  0.354428  0.499545  1
  Ru  Ru13  1  0.000000  0.000000  0.500000  1
  Ru  Ru14  1  0.500000  0.000000  0.000000  1
  Ru  Ru15  1  0.000000  0.500000  0.000000  1
  Rh  Rh16  1  0.500000  0.500000  0.500000  1
