# generated using pymatgen
data_Y4GaAs5Ir7
_symmetry_space_group_name_H-M   'P 1'
_cell_length_a   7.29502366
_cell_length_b   7.29502501
_cell_length_c   7.29502400
_cell_angle_alpha   109.62147306
_cell_angle_beta   109.62146848
_cell_angle_gamma   109.17114132
_symmetry_Int_Tables_number   1
_chemical_formula_structural   Y4GaAs5Ir7
_chemical_formula_sum   'Y4 Ga1 As5 Ir7'
_cell_volume   298.84732237
_cell_formula_units_Z   1
loop_
 _symmetry_equiv_pos_site_id
 _symmetry_equiv_pos_as_xyz
  1  'x, y, z'
loop_
 _atom_site_type_symbol
 _atom_site_label
 _atom_site_symmetry_multiplicity
 _atom_site_fract_x
 _atom_site_fract_y
 _atom_site_fract_z
 _atom_site_occupancy
  Y  Y0  1  0.999064  0.999064  0.502075  1
  Y  Y1  1  0.999064  0.496989  0.000000  1
  Y  Y2  1  0.496989  0.999064  0.000000  1
  Y  Y3  1  0.496989  0.496989  0.497925  1
  Ga  Ga4  1  0.686777  0.686777  0.000000  1
  As  As5  1  0.315965  0.997304  0.318662  1
  As  As6  1  0.997304  0.315965  0.318662  1
  As  As7  1  0.328716  0.328716  0.000000  1
  As  As8  1  0.678642  0.997304  0.681338  1
  As  As9  1  0.997304  0.678642  0.681338  1
  Ir  Ir10  1  0.747964  0.247964  0.500000  1
  Ir  Ir11  1  0.752248  0.500702  0.251546  1
  Ir  Ir12  1  0.500702  0.249157  0.748454  1
  Ir  Ir13  1  0.249157  0.500702  0.748454  1
  Ir  Ir14  1  0.247964  0.747964  0.500000  1
  Ir  Ir15  1  0.500702  0.752248  0.251546  1
  Ir  Ir16  1  0.004449  0.004449  0.000000  1
