# generated using pymatgen
data_Pr2CrN3
_symmetry_space_group_name_H-M   'P 1'
_cell_length_a   6.11743137
_cell_length_b   6.11743114
_cell_length_c   12.14615600
_cell_angle_alpha   90.00000000
_cell_angle_beta   90.00000000
_cell_angle_gamma   127.00758454
_symmetry_Int_Tables_number   1
_chemical_formula_structural   Pr2CrN3
_chemical_formula_sum   'Pr8 Cr4 N12'
_cell_volume   362.97970124
_cell_formula_units_Z   4
loop_
 _symmetry_equiv_pos_site_id
 _symmetry_equiv_pos_as_xyz
  1  'x, y, z'
loop_
 _atom_site_type_symbol
 _atom_site_label
 _atom_site_symmetry_multiplicity
 _atom_site_fract_x
 _atom_site_fract_y
 _atom_site_fract_z
 _atom_site_occupancy
  Pr  Pr0  1  0.558607  0.441393  0.640245  1
  Pr  Pr1  1  0.441393  0.558607  0.359755  1
  Pr  Pr2  1  0.941393  0.058607  0.140245  1
  Pr  Pr3  1  0.058607  0.941393  0.859755  1
  Pr  Pr4  1  0.858095  0.141905  0.572307  1
  Pr  Pr5  1  0.141905  0.858095  0.427693  1
  Pr  Pr6  1  0.641905  0.358095  0.072307  1
  Pr  Pr7  1  0.358095  0.641905  0.927693  1
  Cr  Cr8  1  0.740816  0.259184  0.839517  1
  Cr  Cr9  1  0.259184  0.740816  0.160483  1
  Cr  Cr10  1  0.759184  0.240816  0.339517  1
  Cr  Cr11  1  0.240816  0.759184  0.660483  1
  N  N12  1  0.848210  0.151790  0.961280  1
  N  N13  1  0.151790  0.848210  0.038720  1
  N  N14  1  0.651790  0.348210  0.461280  1
  N  N15  1  0.348210  0.651790  0.538720  1
  N  N16  1  0.573792  0.426208  0.868484  1
  N  N17  1  0.426208  0.573792  0.131516  1
  N  N18  1  0.926208  0.073792  0.368484  1
  N  N19  1  0.073792  0.926208  0.631516  1
  N  N20  1  0.517370  0.982630  0.750000  1
  N  N21  1  0.982630  0.517370  0.250000  1
  N  N22  1  0.482630  0.017370  0.250000  1
  N  N23  1  0.017370  0.482630  0.750000  1
