# generated using pymatgen
data_ErTmCdNi2
_symmetry_space_group_name_H-M   'P 1'
_cell_length_a   7.28398700
_cell_length_b   7.28398795
_cell_length_c   3.59211100
_cell_angle_alpha   90.00000000
_cell_angle_beta   90.00000000
_cell_angle_gamma   148.67027195
_symmetry_Int_Tables_number   1
_chemical_formula_structural   ErTmCdNi2
_chemical_formula_sum   'Er1 Tm1 Cd1 Ni2'
_cell_volume   99.09689624
_cell_formula_units_Z   1
loop_
 _symmetry_equiv_pos_site_id
 _symmetry_equiv_pos_as_xyz
  1  'x, y, z'
loop_
 _atom_site_type_symbol
 _atom_site_label
 _atom_site_symmetry_multiplicity
 _atom_site_fract_x
 _atom_site_fract_y
 _atom_site_fract_z
 _atom_site_occupancy
  Er  Er0  1  0.360748  0.639252  0.500000  1
  Tm  Tm1  1  0.640242  0.359758  0.500000  1
  Cd  Cd2  1  0.001068  0.998932  0.000000  1
  Ni  Ni3  1  0.799761  0.200239  0.000000  1
  Ni  Ni4  1  0.198183  0.801817  0.000000  1
