# generated using pymatgen
data_SrYb2Zn11
_symmetry_space_group_name_H-M   'P 1'
_cell_length_a   4.41582542
_cell_length_b   8.36970257
_cell_length_c   8.36970211
_cell_angle_alpha   65.03909666
_cell_angle_beta   74.70444032
_cell_angle_gamma   74.70444589
_symmetry_Int_Tables_number   1
_chemical_formula_structural   SrYb2Zn11
_chemical_formula_sum   'Sr1 Yb2 Zn11'
_cell_volume   266.36608091
_cell_formula_units_Z   1
loop_
 _symmetry_equiv_pos_site_id
 _symmetry_equiv_pos_as_xyz
  1  'x, y, z'
loop_
 _atom_site_type_symbol
 _atom_site_label
 _atom_site_symmetry_multiplicity
 _atom_site_fract_x
 _atom_site_fract_y
 _atom_site_fract_z
 _atom_site_occupancy
  Sr  Sr0  1  0.000000  0.000000  0.000000  1
  Yb  Yb1  1  0.701799  0.298201  0.298201  1
  Yb  Yb2  1  0.298201  0.701799  0.701799  1
  Zn  Zn3  1  0.000000  0.500000  0.500000  1
  Zn  Zn4  1  0.500000  0.683386  0.316614  1
  Zn  Zn5  1  0.500000  0.316614  0.683386  1
  Zn  Zn6  1  0.667000  0.686121  0.979879  1
  Zn  Zn7  1  0.333000  0.313879  0.020121  1
  Zn  Zn8  1  0.667000  0.979879  0.686121  1
  Zn  Zn9  1  0.333000  0.020121  0.313879  1
  Zn  Zn10  1  0.863539  0.430506  0.842416  1
  Zn  Zn11  1  0.136461  0.569494  0.157584  1
  Zn  Zn12  1  0.863539  0.842416  0.430506  1
  Zn  Zn13  1  0.136461  0.157584  0.569494  1
