# generated using pymatgen
data_MgFeSn4(BO3)4
_symmetry_space_group_name_H-M   'P 1'
_cell_length_a   4.88266991
_cell_length_b   15.87143826
_cell_length_c   4.86774601
_cell_angle_alpha   80.94272522
_cell_angle_beta   60.09679876
_cell_angle_gamma   80.82882697
_symmetry_Int_Tables_number   1
_chemical_formula_structural   MgFeSn4(BO3)4
_chemical_formula_sum   'Mg1 Fe1 Sn4 B4 O12'
_cell_volume   321.48278644
_cell_formula_units_Z   1
loop_
 _symmetry_equiv_pos_site_id
 _symmetry_equiv_pos_as_xyz
  1  'x, y, z'
loop_
 _atom_site_type_symbol
 _atom_site_label
 _atom_site_symmetry_multiplicity
 _atom_site_fract_x
 _atom_site_fract_y
 _atom_site_fract_z
 _atom_site_occupancy
  Mg  Mg0  1  0.500000  0.500000  0.500000  1
  Fe  Fe1  1  0.000000  0.000000  0.000000  1
  Sn  Sn2  1  0.887350  0.343750  0.885182  1
  Sn  Sn3  1  0.386935  0.838767  0.385448  1
  Sn  Sn4  1  0.613065  0.161233  0.614552  1
  Sn  Sn5  1  0.112650  0.656250  0.114818  1
  B  B6  1  0.194344  0.419322  0.193610  1
  B  B7  1  0.695691  0.915164  0.693265  1
  B  B8  1  0.304309  0.084836  0.306735  1
  B  B9  1  0.805656  0.580678  0.806390  1
  O  O10  1  0.903186  0.418235  0.209182  1
  O  O11  1  0.407803  0.913486  0.703455  1
  O  O12  1  0.292587  0.086423  0.027156  1
  O  O13  1  0.790226  0.581500  0.529055  1
  O  O14  1  0.025568  0.084974  0.596964  1
  O  O15  1  0.529146  0.581748  0.097635  1
  O  O16  1  0.470854  0.418252  0.902365  1
  O  O17  1  0.974432  0.915026  0.403036  1
  O  O18  1  0.209774  0.418500  0.470945  1
  O  O19  1  0.707413  0.913577  0.972844  1
  O  O20  1  0.592197  0.086514  0.296545  1
  O  O21  1  0.096814  0.581765  0.790818  1
