# generated using pymatgen
data_DyEr7Ga3Ir
_symmetry_space_group_name_H-M   'P 1'
_cell_length_a   9.98762500
_cell_length_b   9.98762577
_cell_length_c   6.98720100
_cell_angle_alpha   90.00000000
_cell_angle_beta   90.00000000
_cell_angle_gamma   120.00000738
_symmetry_Int_Tables_number   1
_chemical_formula_structural   DyEr7Ga3Ir
_chemical_formula_sum   'Dy2 Er14 Ga6 Ir2'
_cell_volume   603.61263960
_cell_formula_units_Z   2
loop_
 _symmetry_equiv_pos_site_id
 _symmetry_equiv_pos_as_xyz
  1  'x, y, z'
loop_
 _atom_site_type_symbol
 _atom_site_label
 _atom_site_symmetry_multiplicity
 _atom_site_fract_x
 _atom_site_fract_y
 _atom_site_fract_z
 _atom_site_occupancy
  Dy  Dy0  1  0.000000  0.000000  0.267796  1
  Dy  Dy1  1  0.000000  0.000000  0.767796  1
  Er  Er2  1  0.171353  0.828647  0.990293  1
  Er  Er3  1  0.828647  0.171353  0.490293  1
  Er  Er4  1  0.171353  0.342706  0.990293  1
  Er  Er5  1  0.657294  0.828647  0.990293  1
  Er  Er6  1  0.342706  0.171353  0.490293  1
  Er  Er7  1  0.828647  0.657294  0.490293  1
  Er  Er8  1  0.333333  0.666667  0.663621  1
  Er  Er9  1  0.666667  0.333333  0.163621  1
  Er  Er10  1  0.465390  0.534610  0.295412  1
  Er  Er11  1  0.534610  0.465390  0.795412  1
  Er  Er12  1  0.465390  0.930780  0.295412  1
  Er  Er13  1  0.069220  0.534610  0.295412  1
  Er  Er14  1  0.930780  0.465390  0.795412  1
  Er  Er15  1  0.534610  0.069220  0.795412  1
  Ga  Ga16  1  0.163833  0.836167  0.542628  1
  Ga  Ga17  1  0.836167  0.163833  0.042628  1
  Ga  Ga18  1  0.163833  0.327667  0.542628  1
  Ga  Ga19  1  0.672333  0.836167  0.542628  1
  Ga  Ga20  1  0.327667  0.163833  0.042628  1
  Ga  Ga21  1  0.836167  0.672333  0.042628  1
  Ir  Ir22  1  0.333333  0.666667  0.056645  1
  Ir  Ir23  1  0.666667  0.333333  0.556645  1
