# generated using pymatgen
data_ErTm3Lu2(Co3P2)6
_symmetry_space_group_name_H-M   'P 1'
_cell_length_a   3.66855100
_cell_length_b   10.47588500
_cell_length_c   12.10449800
_cell_angle_alpha   90.00000000
_cell_angle_beta   90.00000000
_cell_angle_gamma   90.00000000
_symmetry_Int_Tables_number   1
_chemical_formula_structural   ErTm3Lu2(Co3P2)6
_chemical_formula_sum   'Er1 Tm3 Lu2 Co18 P12'
_cell_volume   465.19181662
_cell_formula_units_Z   1
loop_
 _symmetry_equiv_pos_site_id
 _symmetry_equiv_pos_as_xyz
  1  'x, y, z'
loop_
 _atom_site_type_symbol
 _atom_site_label
 _atom_site_symmetry_multiplicity
 _atom_site_fract_x
 _atom_site_fract_y
 _atom_site_fract_z
 _atom_site_occupancy
  Er  Er0  1  0.750000  0.250000  0.477458  1
  Tm  Tm1  1  0.250000  0.750000  0.522937  1
  Tm  Tm2  1  0.750000  0.067834  0.205732  1
  Tm  Tm3  1  0.750000  0.432166  0.205732  1
  Lu  Lu4  1  0.250000  0.931770  0.794065  1
  Lu  Lu5  1  0.250000  0.568230  0.794065  1
  Co  Co6  1  0.250000  0.250000  0.840947  1
  Co  Co7  1  0.750000  0.750000  0.159218  1
  Co  Co8  1  0.250000  0.250000  0.296435  1
  Co  Co9  1  0.750000  0.750000  0.703384  1
  Co  Co10  1  0.750000  0.250000  0.013018  1
  Co  Co11  1  0.250000  0.750000  0.985368  1
  Co  Co12  1  0.250000  0.417164  0.004975  1
  Co  Co13  1  0.250000  0.082836  0.004975  1
  Co  Co14  1  0.750000  0.583549  0.993999  1
  Co  Co15  1  0.750000  0.916451  0.993999  1
  Co  Co16  1  0.250000  0.452684  0.569860  1
  Co  Co17  1  0.250000  0.047316  0.569860  1
  Co  Co18  1  0.750000  0.547897  0.431218  1
  Co  Co19  1  0.750000  0.952103  0.431218  1
  Co  Co20  1  0.250000  0.871345  0.290656  1
  Co  Co21  1  0.250000  0.628655  0.290656  1
  Co  Co22  1  0.750000  0.128145  0.709991  1
  Co  Co23  1  0.750000  0.371855  0.709991  1
  P  P24  1  0.250000  0.250000  0.117477  1
  P  P25  1  0.750000  0.750000  0.881277  1
  P  P26  1  0.250000  0.250000  0.655388  1
  P  P27  1  0.750000  0.750000  0.345308  1
  P  P28  1  0.250000  0.438624  0.383550  1
  P  P29  1  0.250000  0.061376  0.383550  1
  P  P30  1  0.750000  0.561851  0.617324  1
  P  P31  1  0.750000  0.938149  0.617324  1
  P  P32  1  0.250000  0.902800  0.107601  1
  P  P33  1  0.250000  0.597200  0.107601  1
  P  P34  1  0.750000  0.095996  0.891925  1
  P  P35  1  0.750000  0.404004  0.891925  1
