# generated using pymatgen
data_Li2AlPRh4
_symmetry_space_group_name_H-M   'P 1'
_cell_length_a   4.14346400
_cell_length_b   5.82712500
_cell_length_c   12.37538900
_cell_angle_alpha   90.00000000
_cell_angle_beta   89.99974591
_cell_angle_gamma   90.00000000
_symmetry_Int_Tables_number   1
_chemical_formula_structural   Li2AlPRh4
_chemical_formula_sum   'Li6 Al3 P3 Rh12'
_cell_volume   298.79736513
_cell_formula_units_Z   3
loop_
 _symmetry_equiv_pos_site_id
 _symmetry_equiv_pos_as_xyz
  1  'x, y, z'
loop_
 _atom_site_type_symbol
 _atom_site_label
 _atom_site_symmetry_multiplicity
 _atom_site_fract_x
 _atom_site_fract_y
 _atom_site_fract_z
 _atom_site_occupancy
  Li  Li0  1  0.999996  0.000000  0.001057  1
  Li  Li1  1  0.499649  0.499999  0.166664  1
  Li  Li2  1  0.999676  0.000000  0.332282  1
  Li  Li3  1  0.499970  0.499999  0.500057  1
  Li  Li4  1  0.000369  0.000000  0.666657  1
  Li  Li5  1  0.500305  0.499999  0.833274  1
  Al  Al6  1  0.499951  0.000000  0.498763  1
  Al  Al7  1  0.000298  0.499999  0.666669  1
  Al  Al8  1  0.500282  0.000000  0.834578  1
  P  P9  1  0.999969  0.499999  0.997633  1
  P  P10  1  0.499753  0.000000  0.166671  1
  P  P11  1  0.999724  0.499999  0.335693  1
  Rh  Rh12  1  0.500007  0.252997  0.008138  1
  Rh  Rh13  1  0.500007  0.747004  0.008138  1
  Rh  Rh14  1  0.999781  0.251446  0.166657  1
  Rh  Rh15  1  0.999781  0.748554  0.166657  1
  Rh  Rh16  1  0.499750  0.253031  0.325193  1
  Rh  Rh17  1  0.499750  0.746969  0.325193  1
  Rh  Rh18  1  0.999923  0.255619  0.491615  1
  Rh  Rh19  1  0.999923  0.744381  0.491615  1
  Rh  Rh20  1  0.500302  0.249837  0.666666  1
  Rh  Rh21  1  0.500302  0.750163  0.666666  1
  Rh  Rh22  1  0.000260  0.255591  0.841732  1
  Rh  Rh23  1  0.000260  0.744409  0.841732  1
