# generated using pymatgen
data_Nd4Sc6GaSn7
_symmetry_space_group_name_H-M   'P 1'
_cell_length_a   7.77012233
_cell_length_b   8.00098689
_cell_length_c   14.93125000
_cell_angle_alpha   89.90817332
_cell_angle_beta   89.80864803
_cell_angle_gamma   89.91086764
_symmetry_Int_Tables_number   1
_chemical_formula_structural   Nd4Sc6GaSn7
_chemical_formula_sum   'Nd8 Sc12 Ga2 Sn14'
_cell_volume   928.24812498
_cell_formula_units_Z   2
loop_
 _symmetry_equiv_pos_site_id
 _symmetry_equiv_pos_as_xyz
  1  'x, y, z'
loop_
 _atom_site_type_symbol
 _atom_site_label
 _atom_site_symmetry_multiplicity
 _atom_site_fract_x
 _atom_site_fract_y
 _atom_site_fract_z
 _atom_site_occupancy
  Nd  Nd0  1  0.995035  0.681310  0.601469  1
  Nd  Nd1  1  0.999300  0.326671  0.405963  1
  Nd  Nd2  1  0.496368  0.174393  0.404287  1
  Nd  Nd3  1  0.007683  0.334255  0.090694  1
  Nd  Nd4  1  0.508183  0.827331  0.597607  1
  Nd  Nd5  1  0.994869  0.679663  0.899794  1
  Nd  Nd6  1  0.504829  0.822608  0.905694  1
  Nd  Nd7  1  0.496874  0.176417  0.093909  1
  Sc  Sc8  1  0.159110  0.001262  0.750005  1
  Sc  Sc9  1  0.834566  0.996270  0.249509  1
  Sc  Sc10  1  0.334395  0.504309  0.245656  1
  Sc  Sc11  1  0.668062  0.501981  0.750706  1
  Sc  Sc12  1  0.335552  0.335958  0.628293  1
  Sc  Sc13  1  0.665530  0.662911  0.372424  1
  Sc  Sc14  1  0.164415  0.837032  0.373498  1
  Sc  Sc15  1  0.656934  0.663085  0.125168  1
  Sc  Sc16  1  0.831937  0.155671  0.629772  1
  Sc  Sc17  1  0.330964  0.342989  0.877119  1
  Sc  Sc18  1  0.830316  0.157227  0.872673  1
  Sc  Sc19  1  0.178188  0.822873  0.121210  1
  Ga  Ga20  1  0.802862  0.863596  0.751411  1
  Ga  Ga21  1  0.337902  0.538379  0.042457  1
  Sn  Sn22  1  0.027442  0.368728  0.751225  1
  Sn  Sn23  1  0.971760  0.631555  0.248025  1
  Sn  Sn24  1  0.471062  0.871228  0.249947  1
  Sn  Sn25  1  0.527272  0.125925  0.753285  1
  Sn  Sn26  1  0.305799  0.642979  0.750335  1
  Sn  Sn27  1  0.696852  0.357487  0.248922  1
  Sn  Sn28  1  0.191721  0.140966  0.248203  1
  Sn  Sn29  1  0.176265  0.043422  0.543571  1
  Sn  Sn30  1  0.825579  0.956232  0.456810  1
  Sn  Sn31  1  0.326872  0.545657  0.458394  1
  Sn  Sn32  1  0.830268  0.957780  0.044178  1
  Sn  Sn33  1  0.674018  0.453667  0.543489  1
  Sn  Sn34  1  0.173474  0.042119  0.956114  1
  Sn  Sn35  1  0.667746  0.456068  0.958186  1
