# generated using pymatgen
data_Tb8Sc11Si16Ag
_symmetry_space_group_name_H-M   'P 1'
_cell_length_a   7.04997901
_cell_length_b   7.40889616
_cell_length_c   14.04223300
_cell_angle_alpha   90.00000000
_cell_angle_beta   90.00000000
_cell_angle_gamma   89.90753421
_symmetry_Int_Tables_number   1
_chemical_formula_structural   Tb8Sc11Si16Ag
_chemical_formula_sum   'Tb8 Sc11 Si16 Ag1'
_cell_volume   733.46085647
_cell_formula_units_Z   1
loop_
 _symmetry_equiv_pos_site_id
 _symmetry_equiv_pos_as_xyz
  1  'x, y, z'
loop_
 _atom_site_type_symbol
 _atom_site_label
 _atom_site_symmetry_multiplicity
 _atom_site_fract_x
 _atom_site_fract_y
 _atom_site_fract_z
 _atom_site_occupancy
  Tb  Tb0  1  0.011165  0.175107  0.096558  1
  Tb  Tb1  1  0.990464  0.815479  0.900766  1
  Tb  Tb2  1  0.483708  0.673775  0.901149  1
  Tb  Tb3  1  0.990464  0.815479  0.599234  1
  Tb  Tb4  1  0.510952  0.323780  0.096589  1
  Tb  Tb5  1  0.011165  0.175107  0.403442  1
  Tb  Tb6  1  0.510952  0.323780  0.403411  1
  Tb  Tb7  1  0.483708  0.673775  0.598851  1
  Sc  Sc8  1  0.838782  0.497518  0.250000  1
  Sc  Sc9  1  0.339923  0.002658  0.250000  1
  Sc  Sc10  1  0.658072  0.998455  0.750000  1
  Sc  Sc11  1  0.326423  0.182671  0.626535  1
  Sc  Sc12  1  0.670988  0.823508  0.374892  1
  Sc  Sc13  1  0.170669  0.678243  0.373995  1
  Sc  Sc14  1  0.670988  0.823508  0.125108  1
  Sc  Sc15  1  0.835598  0.327239  0.626533  1
  Sc  Sc16  1  0.326423  0.182671  0.873465  1
  Sc  Sc17  1  0.835598  0.327239  0.873467  1
  Sc  Sc18  1  0.170669  0.678243  0.126005  1
  Si  Si19  1  0.028499  0.101067  0.750000  1
  Si  Si20  1  0.968734  0.886234  0.250000  1
  Si  Si21  1  0.467353  0.617356  0.250000  1
  Si  Si22  1  0.537639  0.384405  0.750000  1
  Si  Si23  1  0.288918  0.885625  0.750000  1
  Si  Si24  1  0.713438  0.126622  0.250000  1
  Si  Si25  1  0.212636  0.373152  0.250000  1
  Si  Si26  1  0.776397  0.628254  0.750000  1
  Si  Si27  1  0.160244  0.460032  0.531786  1
  Si  Si28  1  0.843478  0.535699  0.461930  1
  Si  Si29  1  0.345089  0.965180  0.462525  1
  Si  Si30  1  0.843478  0.535699  0.038070  1
  Si  Si31  1  0.657407  0.033864  0.540196  1
  Si  Si32  1  0.160244  0.460032  0.968214  1
  Si  Si33  1  0.657407  0.033864  0.959804  1
  Si  Si34  1  0.345089  0.965180  0.037475  1
  Ag  Ag35  1  0.157234  0.509496  0.750000  1
