# generated using pymatgen
data_La8Si15Ag
_symmetry_space_group_name_H-M   'P 1'
_cell_length_a   8.29762000
_cell_length_b   8.29762112
_cell_length_c   8.75733700
_cell_angle_alpha   90.00000000
_cell_angle_beta   90.00000000
_cell_angle_gamma   119.99999555
_symmetry_Int_Tables_number   1
_chemical_formula_structural   La8Si15Ag
_chemical_formula_sum   'La8 Si15 Ag1'
_cell_volume   522.16752204
_cell_formula_units_Z   1
loop_
 _symmetry_equiv_pos_site_id
 _symmetry_equiv_pos_as_xyz
  1  'x, y, z'
loop_
 _atom_site_type_symbol
 _atom_site_label
 _atom_site_symmetry_multiplicity
 _atom_site_fract_x
 _atom_site_fract_y
 _atom_site_fract_z
 _atom_site_occupancy
  La  La0  1  0.497430  0.502570  0.756294  1
  La  La1  1  0.497423  0.502577  0.243646  1
  La  La2  1  0.005140  0.502570  0.756294  1
  La  La3  1  0.005153  0.502577  0.243646  1
  La  La4  1  0.497430  0.994860  0.756294  1
  La  La5  1  0.497423  0.994847  0.243646  1
  La  La6  1  0.000000  0.000000  0.752550  1
  La  La7  1  0.000000  0.000000  0.247612  1
  Si  Si8  1  0.666667  0.333333  0.999869  1
  Si  Si9  1  0.333333  0.666667  0.999917  1
  Si  Si10  1  0.333333  0.666667  0.499890  1
  Si  Si11  1  0.833791  0.166209  0.000080  1
  Si  Si12  1  0.166855  0.833145  0.000025  1
  Si  Si13  1  0.332417  0.166209  0.000080  1
  Si  Si14  1  0.165622  0.834378  0.500046  1
  Si  Si15  1  0.666291  0.833145  0.000025  1
  Si  Si16  1  0.836825  0.163175  0.500074  1
  Si  Si17  1  0.833791  0.667583  0.000080  1
  Si  Si18  1  0.668754  0.834378  0.500046  1
  Si  Si19  1  0.166855  0.333709  0.000025  1
  Si  Si20  1  0.326351  0.163175  0.500074  1
  Si  Si21  1  0.165622  0.331246  0.500046  1
  Si  Si22  1  0.836825  0.673649  0.500074  1
  Ag  Ag23  1  0.666667  0.333333  0.499668  1
