# generated using pymatgen
data_Yb11Pr8ErSn16
_symmetry_space_group_name_H-M   'P 1'
_cell_length_a   7.95914267
_cell_length_b   8.50808763
_cell_length_c   16.02901668
_cell_angle_alpha   90.08039089
_cell_angle_beta   90.06626786
_cell_angle_gamma   89.89496205
_symmetry_Int_Tables_number   1
_chemical_formula_structural   Yb11Pr8ErSn16
_chemical_formula_sum   'Yb11 Pr8 Er1 Sn16'
_cell_volume   1085.43464302
_cell_formula_units_Z   1
loop_
 _symmetry_equiv_pos_site_id
 _symmetry_equiv_pos_as_xyz
  1  'x, y, z'
loop_
 _atom_site_type_symbol
 _atom_site_label
 _atom_site_symmetry_multiplicity
 _atom_site_fract_x
 _atom_site_fract_y
 _atom_site_fract_z
 _atom_site_occupancy
  Yb  Yb0  1  0.832283  0.671882  0.623490  1
  Yb  Yb1  1  0.666998  0.172097  0.376336  1
  Yb  Yb2  1  0.166401  0.328394  0.123071  1
  Yb  Yb3  1  0.667656  0.171998  0.123327  1
  Yb  Yb4  1  0.166961  0.327915  0.376419  1
  Yb  Yb5  1  0.333565  0.828123  0.623523  1
  Yb  Yb6  1  0.833084  0.672587  0.877367  1
  Yb  Yb7  1  0.160593  0.504210  0.749363  1
  Yb  Yb8  1  0.663340  0.996171  0.749380  1
  Yb  Yb9  1  0.838455  0.494770  0.250254  1
  Yb  Yb10  1  0.338708  0.004675  0.249956  1
  Pr  Pr11  1  0.494264  0.316836  0.904043  1
  Pr  Pr12  1  0.993478  0.185042  0.595388  1
  Pr  Pr13  1  0.506189  0.685219  0.403665  1
  Pr  Pr14  1  0.005562  0.814550  0.096567  1
  Pr  Pr15  1  0.506824  0.684509  0.096494  1
  Pr  Pr16  1  0.006049  0.814822  0.403915  1
  Pr  Pr17  1  0.493799  0.315804  0.596021  1
  Pr  Pr18  1  0.993832  0.185559  0.905234  1
  Er  Er19  1  0.333829  0.826415  0.875915  1
  Sn  Sn20  1  0.328137  0.033967  0.036916  1
  Sn  Sn21  1  0.829892  0.464701  0.461161  1
  Sn  Sn22  1  0.669798  0.965052  0.538750  1
  Sn  Sn23  1  0.173361  0.538264  0.960267  1
  Sn  Sn24  1  0.666015  0.963171  0.959469  1
  Sn  Sn25  1  0.170098  0.535280  0.538985  1
  Sn  Sn26  1  0.330317  0.035148  0.461182  1
  Sn  Sn27  1  0.829522  0.464480  0.038718  1
  Sn  Sn28  1  0.532788  0.605633  0.750972  1
  Sn  Sn29  1  0.037297  0.894202  0.752678  1
  Sn  Sn30  1  0.465322  0.396841  0.249851  1
  Sn  Sn31  1  0.965280  0.102565  0.250050  1
  Sn  Sn32  1  0.289437  0.139889  0.751423  1
  Sn  Sn33  1  0.788519  0.359375  0.750464  1
  Sn  Sn34  1  0.711336  0.858502  0.249720  1
  Sn  Sn35  1  0.211010  0.641355  0.249664  1
