# generated using pymatgen
data_Cs5RbNaV5Br18
_symmetry_space_group_name_H-M   'P 1'
_cell_length_a   13.51373624
_cell_length_b   13.53503313
_cell_length_c   6.49470397
_cell_angle_alpha   90.13683330
_cell_angle_beta   89.90797103
_cell_angle_gamma   119.93319260
_symmetry_Int_Tables_number   1
_chemical_formula_structural   Cs5RbNaV5Br18
_chemical_formula_sum   'Cs5 Rb1 Na1 V5 Br18'
_cell_volume   1029.47412919
_cell_formula_units_Z   1
loop_
 _symmetry_equiv_pos_site_id
 _symmetry_equiv_pos_as_xyz
  1  'x, y, z'
loop_
 _atom_site_type_symbol
 _atom_site_label
 _atom_site_symmetry_multiplicity
 _atom_site_fract_x
 _atom_site_fract_y
 _atom_site_fract_z
 _atom_site_occupancy
  Cs  Cs0  1  0.999854  0.318101  0.750021  1
  Cs  Cs1  1  0.318106  0.318014  0.250037  1
  Cs  Cs2  1  0.681518  0.682067  0.750059  1
  Cs  Cs3  1  0.999663  0.681796  0.250017  1
  Cs  Cs4  1  0.318448  0.999817  0.749897  1
  Rb  Rb5  1  0.688192  0.000240  0.244955  1
  Na  Na6  1  0.999272  0.999986  0.500925  1
  V  V7  1  0.333842  0.667188  0.527410  1
  V  V8  1  0.666649  0.332967  0.472612  1
  V  V9  1  0.999053  0.999988  0.000283  1
  V  V10  1  0.666663  0.332801  0.972535  1
  V  V11  1  0.333706  0.667093  0.027375  1
  Br  Br12  1  0.819972  0.484752  0.722022  1
  Br  Br13  1  0.335691  0.515455  0.777016  1
  Br  Br14  1  0.179767  0.664557  0.778186  1
  Br  Br15  1  0.819721  0.333764  0.221685  1
  Br  Br16  1  0.180507  0.515440  0.278087  1
  Br  Br17  1  0.163493  0.999643  0.223553  1
  Br  Br18  1  0.335767  0.820524  0.278613  1
  Br  Br19  1  0.485065  0.820340  0.778068  1
  Br  Br20  1  0.665161  0.179811  0.720582  1
  Br  Br21  1  0.664544  0.484373  0.222835  1
  Br  Br22  1  0.997356  0.163397  0.225090  1
  Br  Br23  1  0.164083  0.163993  0.776572  1
  Br  Br24  1  0.834006  0.000409  0.778210  1
  Br  Br25  1  0.999314  0.835488  0.776065  1
  Br  Br26  1  0.833697  0.837044  0.224659  1
  Br  Br27  1  0.515773  0.179293  0.222541  1
  Br  Br28  1  0.486363  0.666897  0.277089  1
  Br  Br29  1  0.514749  0.334765  0.723002  1
