# generated using pymatgen
data_Sm7Tm(OsI4)2
_symmetry_space_group_name_H-M   'P 1'
_cell_length_a   11.50605717
_cell_length_b   11.55576777
_cell_length_c   6.30297439
_cell_angle_alpha   89.56754029
_cell_angle_beta   89.55912980
_cell_angle_gamma   88.60765026
_symmetry_Int_Tables_number   1
_chemical_formula_structural   Sm7Tm(OsI4)2
_chemical_formula_sum   'Sm7 Tm1 Os2 I8'
_cell_volume   837.75686981
_cell_formula_units_Z   1
loop_
 _symmetry_equiv_pos_site_id
 _symmetry_equiv_pos_as_xyz
  1  'x, y, z'
loop_
 _atom_site_type_symbol
 _atom_site_label
 _atom_site_symmetry_multiplicity
 _atom_site_fract_x
 _atom_site_fract_y
 _atom_site_fract_z
 _atom_site_occupancy
  Sm  Sm0  1  0.200974  0.916684  0.997607  1
  Sm  Sm1  1  0.799445  0.084975  0.002592  1
  Sm  Sm2  1  0.083146  0.799065  0.502424  1
  Sm  Sm3  1  0.914484  0.199695  0.497791  1
  Sm  Sm4  1  0.801564  0.919000  0.504207  1
  Sm  Sm5  1  0.199351  0.078057  0.496088  1
  Sm  Sm6  1  0.079806  0.199009  0.995994  1
  Tm  Tm7  1  0.924818  0.813473  0.004209  1
  Os  Os8  1  0.000361  0.000798  0.249984  1
  Os  Os9  1  0.000301  0.000843  0.750068  1
  I  I10  1  0.356784  0.845144  0.506180  1
  I  I11  1  0.641794  0.150229  0.494013  1
  I  I12  1  0.140987  0.646308  0.995315  1
  I  I13  1  0.846568  0.355569  0.005838  1
  I  I14  1  0.353905  0.143471  0.995208  1
  I  I15  1  0.656042  0.849746  0.004849  1
  I  I16  1  0.855811  0.647443  0.502404  1
  I  I17  1  0.143859  0.350492  0.495228  1
