# generated using pymatgen
data_Pa4In2Co3Ni
_symmetry_space_group_name_H-M   'P 1'
_cell_length_a   7.47934500
_cell_length_b   7.47934472
_cell_length_c   3.47739100
_cell_angle_alpha   90.00000000
_cell_angle_beta   90.00000000
_cell_angle_gamma   90.37298709
_symmetry_Int_Tables_number   1
_chemical_formula_structural   Pa4In2Co3Ni
_chemical_formula_sum   'Pa4 In2 Co3 Ni1'
_cell_volume   194.52321573
_cell_formula_units_Z   1
loop_
 _symmetry_equiv_pos_site_id
 _symmetry_equiv_pos_as_xyz
  1  'x, y, z'
loop_
 _atom_site_type_symbol
 _atom_site_label
 _atom_site_symmetry_multiplicity
 _atom_site_fract_x
 _atom_site_fract_y
 _atom_site_fract_z
 _atom_site_occupancy
  Pa  Pa0  1  0.675679  0.167127  0.500000  1
  Pa  Pa1  1  0.160774  0.339226  0.500000  1
  Pa  Pa2  1  0.828382  0.671618  0.500000  1
  Pa  Pa3  1  0.332873  0.824321  0.500000  1
  In  In4  1  0.004336  0.999724  0.000000  1
  In  In5  1  0.500276  0.495664  0.000000  1
  Co  Co6  1  0.867062  0.367595  0.000000  1
  Co  Co7  1  0.628301  0.871699  0.000000  1
  Co  Co8  1  0.132405  0.632938  0.000000  1
  Ni  Ni9  1  0.369910  0.130090  0.000000  1
