# generated using pymatgen
data_Ho2Lu8GaBi5
_symmetry_space_group_name_H-M   'P 1'
_cell_length_a   8.06813500
_cell_length_b   9.31230000
_cell_length_c   11.80368600
_cell_angle_alpha   90.00000000
_cell_angle_beta   90.00000000
_cell_angle_gamma   90.00000000
_symmetry_Int_Tables_number   1
_chemical_formula_structural   Ho2Lu8GaBi5
_chemical_formula_sum   'Ho4 Lu16 Ga2 Bi10'
_cell_volume   886.84508386
_cell_formula_units_Z   2
loop_
 _symmetry_equiv_pos_site_id
 _symmetry_equiv_pos_as_xyz
  1  'x, y, z'
loop_
 _atom_site_type_symbol
 _atom_site_label
 _atom_site_symmetry_multiplicity
 _atom_site_fract_x
 _atom_site_fract_y
 _atom_site_fract_z
 _atom_site_occupancy
  Ho  Ho0  1  0.311930  0.250000  0.216790  1
  Ho  Ho1  1  0.811930  0.250000  0.283210  1
  Ho  Ho2  1  0.677816  0.750000  0.788171  1
  Ho  Ho3  1  0.177816  0.750000  0.711829  1
  Lu  Lu4  1  0.352034  0.750000  0.205372  1
  Lu  Lu5  1  0.852034  0.750000  0.294628  1
  Lu  Lu6  1  0.654300  0.250000  0.781224  1
  Lu  Lu7  1  0.154300  0.250000  0.718776  1
  Lu  Lu8  1  0.683416  0.572783  0.057446  1
  Lu  Lu9  1  0.183416  0.927217  0.442554  1
  Lu  Lu10  1  0.309994  0.048684  0.941236  1
  Lu  Lu11  1  0.809994  0.451316  0.558764  1
  Lu  Lu12  1  0.309994  0.451316  0.941236  1
  Lu  Lu13  1  0.809994  0.048684  0.558764  1
  Lu  Lu14  1  0.683416  0.927217  0.057446  1
  Lu  Lu15  1  0.183416  0.572783  0.442554  1
  Lu  Lu16  1  0.481724  0.250000  0.491578  1
  Lu  Lu17  1  0.981724  0.250000  0.008422  1
  Lu  Lu18  1  0.535623  0.750000  0.509611  1
  Lu  Lu19  1  0.035623  0.750000  0.990389  1
  Ga  Ga20  1  0.407640  0.750000  0.961811  1
  Ga  Ga21  1  0.907640  0.750000  0.538189  1
  Bi  Bi22  1  0.597719  0.250000  0.039596  1
  Bi  Bi23  1  0.097719  0.250000  0.460404  1
  Bi  Bi24  1  0.558374  0.996152  0.324330  1
  Bi  Bi25  1  0.058374  0.503848  0.175670  1
  Bi  Bi26  1  0.438822  0.497618  0.676792  1
  Bi  Bi27  1  0.938822  0.002382  0.823208  1
  Bi  Bi28  1  0.438822  0.002382  0.676792  1
  Bi  Bi29  1  0.938822  0.497618  0.823208  1
  Bi  Bi30  1  0.558374  0.503848  0.324330  1
  Bi  Bi31  1  0.058374  0.996152  0.175670  1
