# generated using pymatgen
data_Yb4TeIr3O16
_symmetry_space_group_name_H-M   'P 1'
_cell_length_a   5.05649500
_cell_length_b   5.43654985
_cell_length_c   12.71194900
_cell_angle_alpha   90.00000000
_cell_angle_beta   90.00000000
_cell_angle_gamma   89.90265124
_symmetry_Int_Tables_number   1
_chemical_formula_structural   Yb4TeIr3O16
_chemical_formula_sum   'Yb4 Te1 Ir3 O16'
_cell_volume   349.44953868
_cell_formula_units_Z   1
loop_
 _symmetry_equiv_pos_site_id
 _symmetry_equiv_pos_as_xyz
  1  'x, y, z'
loop_
 _atom_site_type_symbol
 _atom_site_label
 _atom_site_symmetry_multiplicity
 _atom_site_fract_x
 _atom_site_fract_y
 _atom_site_fract_z
 _atom_site_occupancy
  Yb  Yb0  1  0.750000  0.000000  0.668177  1
  Yb  Yb1  1  0.250000  0.500000  0.831766  1
  Yb  Yb2  1  0.250000  0.000000  0.333938  1
  Yb  Yb3  1  0.750000  0.500000  0.168303  1
  Te  Te4  1  0.750000  0.000000  0.928284  1
  Ir  Ir5  1  0.750000  0.500000  0.427356  1
  Ir  Ir6  1  0.250000  0.000000  0.072348  1
  Ir  Ir7  1  0.250000  0.500000  0.570204  1
  O  O8  1  0.117746  0.285396  0.673501  1
  O  O9  1  0.611244  0.213846  0.824302  1
  O  O10  1  0.888756  0.786154  0.824302  1
  O  O11  1  0.382254  0.714604  0.673501  1
  O  O12  1  0.884334  0.714085  0.323186  1
  O  O13  1  0.388701  0.790070  0.176848  1
  O  O14  1  0.111299  0.209930  0.176848  1
  O  O15  1  0.615666  0.285915  0.323186  1
  O  O16  1  0.571916  0.307053  0.545301  1
  O  O17  1  0.070494  0.199963  0.955528  1
  O  O18  1  0.429506  0.800037  0.955528  1
  O  O19  1  0.928084  0.692947  0.545301  1
  O  O20  1  0.428250  0.692937  0.451605  1
  O  O21  1  0.925748  0.801931  0.049542  1
  O  O22  1  0.574252  0.198069  0.049542  1
  O  O23  1  0.071750  0.307063  0.451605  1
