# generated using pymatgen
data_Yb14Cd51
_symmetry_space_group_name_H-M   'P 1'
_cell_length_a   13.36536800
_cell_length_b   13.36536731
_cell_length_c   9.94994800
_cell_angle_alpha   90.00000000
_cell_angle_beta   90.00000000
_cell_angle_gamma   119.99999676
_symmetry_Int_Tables_number   1
_chemical_formula_structural   Yb14Cd51
_chemical_formula_sum   'Yb14 Cd51'
_cell_volume   1539.26458251
_cell_formula_units_Z   1
loop_
 _symmetry_equiv_pos_site_id
 _symmetry_equiv_pos_as_xyz
  1  'x, y, z'
loop_
 _atom_site_type_symbol
 _atom_site_label
 _atom_site_symmetry_multiplicity
 _atom_site_fract_x
 _atom_site_fract_y
 _atom_site_fract_z
 _atom_site_occupancy
  Yb  Yb0  1  0.797334  0.988123  0.500000  1
  Yb  Yb1  1  0.190788  0.202666  0.500000  1
  Yb  Yb2  1  0.011877  0.809212  0.500000  1
  Yb  Yb3  1  0.868328  0.342760  0.500000  1
  Yb  Yb4  1  0.474432  0.131672  0.500000  1
  Yb  Yb5  1  0.657240  0.525568  0.500000  1
  Yb  Yb6  1  0.448511  0.395261  0.000000  1
  Yb  Yb7  1  0.946751  0.551489  0.000000  1
  Yb  Yb8  1  0.604739  0.053249  0.000000  1
  Yb  Yb9  1  0.215375  0.949056  0.000000  1
  Yb  Yb10  1  0.733683  0.784625  0.000000  1
  Yb  Yb11  1  0.050944  0.266317  0.000000  1
  Yb  Yb12  1  0.333333  0.666667  0.697255  1
  Yb  Yb13  1  0.333333  0.666667  0.302745  1
  Cd  Cd14  1  0.824336  0.040784  0.849731  1
  Cd  Cd15  1  0.216449  0.175664  0.849731  1
  Cd  Cd16  1  0.959216  0.783551  0.849731  1
  Cd  Cd17  1  0.838387  0.288366  0.849566  1
  Cd  Cd18  1  0.449979  0.161613  0.849566  1
  Cd  Cd19  1  0.711634  0.550021  0.849566  1
  Cd  Cd20  1  0.838387  0.288366  0.150434  1
  Cd  Cd21  1  0.449979  0.161613  0.150434  1
  Cd  Cd22  1  0.711634  0.550021  0.150434  1
  Cd  Cd23  1  0.824336  0.040784  0.150269  1
  Cd  Cd24  1  0.216449  0.175664  0.150269  1
  Cd  Cd25  1  0.959216  0.783551  0.150269  1
  Cd  Cd26  1  0.439185  0.330758  0.665658  1
  Cd  Cd27  1  0.891574  0.560815  0.665658  1
  Cd  Cd28  1  0.669242  0.108426  0.665658  1
  Cd  Cd29  1  0.226873  0.004110  0.666415  1
  Cd  Cd30  1  0.777237  0.773127  0.666415  1
  Cd  Cd31  1  0.995890  0.222763  0.666415  1
  Cd  Cd32  1  0.226873  0.004110  0.333585  1
  Cd  Cd33  1  0.777237  0.773127  0.333585  1
  Cd  Cd34  1  0.995890  0.222763  0.333585  1
  Cd  Cd35  1  0.439185  0.330758  0.334342  1
  Cd  Cd36  1  0.891574  0.560815  0.334342  1
  Cd  Cd37  1  0.669242  0.108426  0.334342  1
  Cd  Cd38  1  0.390614  0.489055  0.500000  1
  Cd  Cd39  1  0.098441  0.609386  0.500000  1
  Cd  Cd40  1  0.510945  0.901559  0.500000  1
  Cd  Cd41  1  0.275227  0.845246  0.500000  1
  Cd  Cd42  1  0.570019  0.724773  0.500000  1
  Cd  Cd43  1  0.154754  0.429981  0.500000  1
  Cd  Cd44  1  0.000000  0.000000  0.000000  1
  Cd  Cd45  1  0.666667  0.333333  0.000000  1
  Cd  Cd46  1  0.526876  0.591119  0.763007  1
  Cd  Cd47  1  0.064242  0.473124  0.763007  1
  Cd  Cd48  1  0.408881  0.935758  0.763007  1
  Cd  Cd49  1  0.146196  0.743001  0.771615  1
  Cd  Cd50  1  0.596805  0.853804  0.771615  1
  Cd  Cd51  1  0.256999  0.403195  0.771615  1
  Cd  Cd52  1  0.146196  0.743001  0.228385  1
  Cd  Cd53  1  0.596805  0.853804  0.228385  1
  Cd  Cd54  1  0.256999  0.403195  0.228385  1
  Cd  Cd55  1  0.526876  0.591119  0.236993  1
  Cd  Cd56  1  0.064242  0.473124  0.236993  1
  Cd  Cd57  1  0.408881  0.935758  0.236993  1
  Cd  Cd58  1  0.000000  0.000000  0.694554  1
  Cd  Cd59  1  0.666667  0.333333  0.694485  1
  Cd  Cd60  1  0.666667  0.333333  0.305515  1
  Cd  Cd61  1  0.000000  0.000000  0.305446  1
  Cd  Cd62  1  0.464041  0.681133  0.000000  1
  Cd  Cd63  1  0.217092  0.535959  0.000000  1
  Cd  Cd64  1  0.318867  0.782908  0.000000  1
