# generated using pymatgen
data_Pm2ZrUO8
_symmetry_space_group_name_H-M   'P 1'
_cell_length_a   6.53460140
_cell_length_b   6.53460219
_cell_length_c   6.53460178
_cell_angle_alpha   131.13997527
_cell_angle_beta   131.13997897
_cell_angle_gamma   71.59077933
_symmetry_Int_Tables_number   1
_chemical_formula_structural   Pm2ZrUO8
_chemical_formula_sum   'Pm2 Zr1 U1 O8'
_cell_volume   154.85298305
_cell_formula_units_Z   1
loop_
 _symmetry_equiv_pos_site_id
 _symmetry_equiv_pos_as_xyz
  1  'x, y, z'
loop_
 _atom_site_type_symbol
 _atom_site_label
 _atom_site_symmetry_multiplicity
 _atom_site_fract_x
 _atom_site_fract_y
 _atom_site_fract_z
 _atom_site_occupancy
  Pm  Pm0  1  0.000000  0.000000  0.000000  1
  Pm  Pm1  1  0.750000  0.250000  0.500000  1
  Zr  Zr2  1  0.500000  0.500000  0.000000  1
  U  U3  1  0.250000  0.750000  0.500000  1
  O  O4  1  0.373562  0.399491  0.520373  1
  O  O5  1  0.879118  0.853189  0.479627  1
  O  O6  1  0.146811  0.120882  0.520373  1
  O  O7  1  0.600509  0.120882  0.974072  1
  O  O8  1  0.879118  0.399491  0.025928  1
  O  O9  1  0.600509  0.626438  0.479627  1
  O  O10  1  0.146811  0.626438  0.025928  1
  O  O11  1  0.373562  0.853189  0.974072  1
