# generated using pymatgen
data_NaYSi2(B12C)2
_symmetry_space_group_name_H-M   'P 1'
_cell_length_a   7.27698671
_cell_length_b   7.25817623
_cell_length_c   7.25817503
_cell_angle_alpha   132.67489337
_cell_angle_beta   110.17722540
_cell_angle_gamma   88.64793815
_symmetry_Int_Tables_number   1
_chemical_formula_structural   NaYSi2(B12C)2
_chemical_formula_sum   'Na1 Y1 Si2 B24 C2'
_cell_volume   251.98130917
_cell_formula_units_Z   1
loop_
 _symmetry_equiv_pos_site_id
 _symmetry_equiv_pos_as_xyz
  1  'x, y, z'
loop_
 _atom_site_type_symbol
 _atom_site_label
 _atom_site_symmetry_multiplicity
 _atom_site_fract_x
 _atom_site_fract_y
 _atom_site_fract_z
 _atom_site_occupancy
  Na  Na0  1  0.896450  0.242590  0.153862  1
  Y  Y1  1  0.096791  0.748687  0.848104  1
  Si  Si2  1  0.475842  0.829742  0.146101  1
  Si  Si3  1  0.689544  0.327338  0.862207  1
  B  B4  1  0.872244  0.834990  0.537252  1
  B  B5  1  0.296096  0.334210  0.461885  1
  B  B6  1  0.143694  0.167416  0.476278  1
  B  B7  1  0.689573  0.666541  0.523033  1
  B  B8  1  0.273364  0.092032  0.681331  1
  B  B9  1  0.409231  0.590989  0.318241  1
  B  B10  1  0.764991  0.913952  0.351039  1
  B  B11  1  0.561285  0.409706  0.651580  1
  B  B12  1  0.108494  0.784997  0.508275  1
  B  B13  1  0.274936  0.600449  0.491169  1
  B  B14  1  0.274936  0.283767  0.174488  1
  B  B15  1  0.108494  0.100218  0.823497  1
  B  B16  1  0.902648  0.220634  0.508424  1
  B  B17  1  0.709883  0.394479  0.492643  1
  B  B18  1  0.709883  0.717240  0.815403  1
  B  B19  1  0.902648  0.894224  0.182014  1
  B  B20  1  0.135794  0.823794  0.298772  1
  B  B21  1  0.525073  0.839746  0.702448  1
  B  B22  1  0.525073  0.322625  0.185327  1
  B  B23  1  0.135794  0.337022  0.812000  1
  B  B24  1  0.887639  0.164774  0.710241  1
  B  B25  1  0.452653  0.178390  0.289798  1
  B  B26  1  0.452653  0.662854  0.774263  1
  B  B27  1  0.887639  0.677397  0.222865  1
  C  C28  1  0.512130  0.141995  0.870135  1
  C  C29  1  0.270387  0.643062  0.127326  1
