# generated using pymatgen
data_DyErAl20RuRh3
_symmetry_space_group_name_H-M   'P 1'
_cell_length_a   6.84581946
_cell_length_b   6.84499747
_cell_length_c   9.13804721
_cell_angle_alpha   90.09698670
_cell_angle_beta   90.07130716
_cell_angle_gamma   97.25516586
_symmetry_Int_Tables_number   1
_chemical_formula_structural   DyErAl20RuRh3
_chemical_formula_sum   'Dy1 Er1 Al20 Ru1 Rh3'
_cell_volume   424.77592583
_cell_formula_units_Z   1
loop_
 _symmetry_equiv_pos_site_id
 _symmetry_equiv_pos_as_xyz
  1  'x, y, z'
loop_
 _atom_site_type_symbol
 _atom_site_label
 _atom_site_symmetry_multiplicity
 _atom_site_fract_x
 _atom_site_fract_y
 _atom_site_fract_z
 _atom_site_occupancy
  Dy  Dy0  1  0.869334  0.128006  0.749990  1
  Er  Er1  1  0.131251  0.871726  0.250221  1
  Al  Al2  1  0.621085  0.376072  0.547785  1
  Al  Al3  1  0.378603  0.624160  0.451877  1
  Al  Al4  1  0.377931  0.622561  0.049519  1
  Al  Al5  1  0.621771  0.377701  0.950788  1
  Al  Al6  1  0.222287  0.220578  0.499027  1
  Al  Al7  1  0.777863  0.779299  0.500383  1
  Al  Al8  1  0.777059  0.777135  0.000271  1
  Al  Al9  1  0.223109  0.222722  0.000326  1
  Al  Al10  1  0.845919  0.154731  0.103551  1
  Al  Al11  1  0.154501  0.844852  0.896901  1
  Al  Al12  1  0.155544  0.846072  0.601978  1
  Al  Al13  1  0.844807  0.153492  0.397552  1
  Al  Al14  1  0.856818  0.589565  0.749610  1
  Al  Al15  1  0.143427  0.411285  0.250371  1
  Al  Al16  1  0.410416  0.142522  0.748937  1
  Al  Al17  1  0.588770  0.857261  0.251027  1
  Al  Al18  1  0.225305  0.480598  0.749935  1
  Al  Al19  1  0.775092  0.519840  0.250052  1
  Al  Al20  1  0.518809  0.776078  0.746964  1
  Al  Al21  1  0.480734  0.223516  0.253007  1
  Ru  Ru22  1  0.499758  0.999999  0.499585  1
  Rh  Rh23  1  0.999962  0.500106  0.499688  1
  Rh  Rh24  1  0.999974  0.500112  0.000303  1
  Rh  Rh25  1  0.499871  0.000012  0.000351  1
