# generated using pymatgen
data_Na3Sn(BPd3)2
_symmetry_space_group_name_H-M   'P 1'
_cell_length_a   8.20866258
_cell_length_b   8.20866268
_cell_length_c   8.20866300
_cell_angle_alpha   40.74874263
_cell_angle_beta   40.74874185
_cell_angle_gamma   40.74874073
_symmetry_Int_Tables_number   1
_chemical_formula_structural   Na3Sn(BPd3)2
_chemical_formula_sum   'Na3 Sn1 B2 Pd6'
_cell_volume   212.65206164
_cell_formula_units_Z   1
loop_
 _symmetry_equiv_pos_site_id
 _symmetry_equiv_pos_as_xyz
  1  'x, y, z'
loop_
 _atom_site_type_symbol
 _atom_site_label
 _atom_site_symmetry_multiplicity
 _atom_site_fract_x
 _atom_site_fract_y
 _atom_site_fract_z
 _atom_site_occupancy
  Na  Na0  1  0.359820  0.359820  0.359820  1
  Na  Na1  1  0.500000  0.500000  0.500000  1
  Na  Na2  1  0.640180  0.640180  0.640180  1
  Sn  Sn3  1  0.000000  0.000000  0.000000  1
  B  B4  1  0.168549  0.168549  0.168549  1
  B  B5  1  0.831451  0.831451  0.831451  1
  Pd  Pd6  1  0.566050  0.061327  0.061327  1
  Pd  Pd7  1  0.061327  0.566050  0.061327  1
  Pd  Pd8  1  0.938673  0.938673  0.433950  1
  Pd  Pd9  1  0.061327  0.061327  0.566050  1
  Pd  Pd10  1  0.938673  0.433950  0.938673  1
  Pd  Pd11  1  0.433950  0.938673  0.938673  1
