# generated using pymatgen
data_Ca(NpSn4)3
_symmetry_space_group_name_H-M   'P 1'
_cell_length_a   11.94448924
_cell_length_b   11.94448921
_cell_length_c   11.94448881
_cell_angle_alpha   31.64270989
_cell_angle_beta   31.64270972
_cell_angle_gamma   31.64271704
_symmetry_Int_Tables_number   1
_chemical_formula_structural   Ca(NpSn4)3
_chemical_formula_sum   'Ca1 Np3 Sn12'
_cell_volume   416.49039646
_cell_formula_units_Z   1
loop_
 _symmetry_equiv_pos_site_id
 _symmetry_equiv_pos_as_xyz
  1  'x, y, z'
loop_
 _atom_site_type_symbol
 _atom_site_label
 _atom_site_symmetry_multiplicity
 _atom_site_fract_x
 _atom_site_fract_y
 _atom_site_fract_z
 _atom_site_occupancy
  Ca  Ca0  1  0.293606  0.293606  0.293606  1
  Np  Np1  1  0.882104  0.882104  0.882104  1
  Np  Np2  1  0.121129  0.121129  0.121129  1
  Np  Np3  1  0.702628  0.702628  0.702628  1
  Sn  Sn4  1  0.292642  0.792879  0.792879  1
  Sn  Sn5  1  0.792879  0.792879  0.292642  1
  Sn  Sn6  1  0.871268  0.375573  0.375573  1
  Sn  Sn7  1  0.375573  0.375573  0.871268  1
  Sn  Sn8  1  0.375573  0.871268  0.375573  1
  Sn  Sn9  1  0.626323  0.121908  0.626323  1
  Sn  Sn10  1  0.121908  0.626323  0.626323  1
  Sn  Sn11  1  0.626323  0.626323  0.121908  1
  Sn  Sn12  1  0.792879  0.292642  0.792879  1
  Sn  Sn13  1  0.208492  0.708187  0.208492  1
  Sn  Sn14  1  0.208492  0.208492  0.708187  1
  Sn  Sn15  1  0.708187  0.208492  0.208492  1
