# generated using pymatgen
data_Y7Th(CdPt)2
_symmetry_space_group_name_H-M   'P 1'
_cell_length_a   9.78773959
_cell_length_b   9.78773923
_cell_length_c   9.77133300
_cell_angle_alpha   60.05543624
_cell_angle_beta   60.05543745
_cell_angle_gamma   59.98496294
_symmetry_Int_Tables_number   1
_chemical_formula_structural   Y7Th(CdPt)2
_chemical_formula_sum   'Y14 Th2 Cd4 Pt4'
_cell_volume   662.39577097
_cell_formula_units_Z   2
loop_
 _symmetry_equiv_pos_site_id
 _symmetry_equiv_pos_as_xyz
  1  'x, y, z'
loop_
 _atom_site_type_symbol
 _atom_site_label
 _atom_site_symmetry_multiplicity
 _atom_site_fract_x
 _atom_site_fract_y
 _atom_site_fract_z
 _atom_site_occupancy
  Y  Y0  1  0.352889  0.940609  0.353251  1
  Y  Y1  1  0.940609  0.352889  0.353251  1
  Y  Y2  1  0.811678  0.189945  0.189278  1
  Y  Y3  1  0.189945  0.811678  0.809099  1
  Y  Y4  1  0.189945  0.811678  0.189278  1
  Y  Y5  1  0.811678  0.189945  0.809099  1
  Y  Y6  1  0.188805  0.188805  0.811195  1
  Y  Y7  1  0.809795  0.809795  0.190205  1
  Y  Y8  1  0.935731  0.564825  0.565813  1
  Y  Y9  1  0.564825  0.935731  0.933632  1
  Y  Y10  1  0.564825  0.935731  0.565813  1
  Y  Y11  1  0.935731  0.564825  0.933632  1
  Y  Y12  1  0.566094  0.566094  0.933906  1
  Y  Y13  1  0.935361  0.935361  0.564639  1
  Th  Th14  1  0.350001  0.350001  0.353125  1
  Th  Th15  1  0.350001  0.350001  0.946873  1
  Cd  Cd16  1  0.582924  0.582924  0.580896  1
  Cd  Cd17  1  0.582924  0.582924  0.253257  1
  Cd  Cd18  1  0.583935  0.251898  0.582083  1
  Cd  Cd19  1  0.251898  0.583935  0.582083  1
  Pt  Pt20  1  0.143129  0.143129  0.143880  1
  Pt  Pt21  1  0.143129  0.143129  0.569862  1
  Pt  Pt22  1  0.144478  0.569670  0.142926  1
  Pt  Pt23  1  0.569670  0.144478  0.142926  1
