# generated using pymatgen
data_Y20Cd6TcOs
_symmetry_space_group_name_H-M   'P 1'
_cell_length_a   9.63453800
_cell_length_b   9.63453743
_cell_length_c   9.93872300
_cell_angle_alpha   90.00000000
_cell_angle_beta   90.00000000
_cell_angle_gamma   120.00000197
_symmetry_Int_Tables_number   1
_chemical_formula_structural   Y20Cd6TcOs
_chemical_formula_sum   'Y20 Cd6 Tc1 Os1'
_cell_volume   798.95620111
_cell_formula_units_Z   1
loop_
 _symmetry_equiv_pos_site_id
 _symmetry_equiv_pos_as_xyz
  1  'x, y, z'
loop_
 _atom_site_type_symbol
 _atom_site_label
 _atom_site_symmetry_multiplicity
 _atom_site_fract_x
 _atom_site_fract_y
 _atom_site_fract_z
 _atom_site_occupancy
  Y  Y0  1  0.000000  0.000000  0.499361  1
  Y  Y1  1  0.000000  0.000000  0.000639  1
  Y  Y2  1  0.210296  0.789704  0.440913  1
  Y  Y3  1  0.210296  0.420594  0.440913  1
  Y  Y4  1  0.579406  0.789704  0.440913  1
  Y  Y5  1  0.789997  0.210003  0.559160  1
  Y  Y6  1  0.789997  0.579992  0.559160  1
  Y  Y7  1  0.420008  0.210003  0.559160  1
  Y  Y8  1  0.789997  0.210003  0.940840  1
  Y  Y9  1  0.789997  0.579992  0.940840  1
  Y  Y10  1  0.420008  0.210003  0.940840  1
  Y  Y11  1  0.210296  0.789704  0.059087  1
  Y  Y12  1  0.210296  0.420594  0.059087  1
  Y  Y13  1  0.579406  0.789704  0.059087  1
  Y  Y14  1  0.539944  0.460056  0.250000  1
  Y  Y15  1  0.539944  0.079889  0.250000  1
  Y  Y16  1  0.920111  0.460056  0.250000  1
  Y  Y17  1  0.459754  0.540246  0.750000  1
  Y  Y18  1  0.459754  0.919507  0.750000  1
  Y  Y19  1  0.080493  0.540246  0.750000  1
  Cd  Cd20  1  0.885473  0.114527  0.250000  1
  Cd  Cd21  1  0.885473  0.770948  0.250000  1
  Cd  Cd22  1  0.229052  0.114527  0.250000  1
  Cd  Cd23  1  0.114699  0.885301  0.750000  1
  Cd  Cd24  1  0.114699  0.229396  0.750000  1
  Cd  Cd25  1  0.770604  0.885301  0.750000  1
  Tc  Tc26  1  0.666667  0.333333  0.750000  1
  Os  Os27  1  0.333333  0.666667  0.250000  1
