# generated using pymatgen
data_Hf5Zr13(Re4Pt)2
_symmetry_space_group_name_H-M   'P 1'
_cell_length_a   8.76653587
_cell_length_b   8.75980928
_cell_length_c   8.57367010
_cell_angle_alpha   89.99719019
_cell_angle_beta   89.90428419
_cell_angle_gamma   119.97656863
_symmetry_Int_Tables_number   1
_chemical_formula_structural   Hf5Zr13(Re4Pt)2
_chemical_formula_sum   'Hf5 Zr13 Re8 Pt2'
_cell_volume   570.32410275
_cell_formula_units_Z   1
loop_
 _symmetry_equiv_pos_site_id
 _symmetry_equiv_pos_as_xyz
  1  'x, y, z'
loop_
 _atom_site_type_symbol
 _atom_site_label
 _atom_site_symmetry_multiplicity
 _atom_site_fract_x
 _atom_site_fract_y
 _atom_site_fract_z
 _atom_site_occupancy
  Hf  Hf0  1  0.191795  0.807064  0.445773  1
  Hf  Hf1  1  0.191797  0.384737  0.445771  1
  Hf  Hf2  1  0.614194  0.807098  0.446354  1
  Hf  Hf3  1  0.807567  0.192447  0.554339  1
  Hf  Hf4  1  0.807572  0.615120  0.554337  1
  Zr  Zr5  1  0.387761  0.193874  0.551915  1
  Zr  Zr6  1  0.805882  0.194376  0.947089  1
  Zr  Zr7  1  0.805883  0.611505  0.947097  1
  Zr  Zr8  1  0.388877  0.194433  0.946822  1
  Zr  Zr9  1  0.194227  0.805282  0.053077  1
  Zr  Zr10  1  0.194234  0.388949  0.053076  1
  Zr  Zr11  1  0.611078  0.805537  0.053332  1
  Zr  Zr12  1  0.542458  0.458737  0.253003  1
  Zr  Zr13  1  0.542460  0.083716  0.253000  1
  Zr  Zr14  1  0.915390  0.457692  0.254700  1
  Zr  Zr15  1  0.458013  0.542485  0.746692  1
  Zr  Zr16  1  0.458013  0.915521  0.746692  1
  Zr  Zr17  1  0.084344  0.542167  0.745713  1
  Re  Re18  1  0.891387  0.107994  0.251413  1
  Re  Re19  1  0.891389  0.783396  0.251411  1
  Re  Re20  1  0.215304  0.107648  0.250221  1
  Re  Re21  1  0.107604  0.891514  0.748897  1
  Re  Re22  1  0.107614  0.216094  0.748897  1
  Re  Re23  1  0.783317  0.891654  0.748715  1
  Re  Re24  1  0.999499  0.999780  0.499684  1
  Re  Re25  1  0.999892  0.999966  0.000003  1
  Pt  Pt26  1  0.333249  0.666625  0.256153  1
  Pt  Pt27  1  0.669200  0.334589  0.745827  1
