# generated using pymatgen
data_Tb2Y2SiI6
_symmetry_space_group_name_H-M   'P 1'
_cell_length_a   4.22270600
_cell_length_b   14.05339200
_cell_length_c   14.82632000
_cell_angle_alpha   90.00000000
_cell_angle_beta   90.00000000
_cell_angle_gamma   90.00000000
_symmetry_Int_Tables_number   1
_chemical_formula_structural   Tb2Y2SiI6
_chemical_formula_sum   'Tb4 Y4 Si2 I12'
_cell_volume   879.84338902
_cell_formula_units_Z   2
loop_
 _symmetry_equiv_pos_site_id
 _symmetry_equiv_pos_as_xyz
  1  'x, y, z'
loop_
 _atom_site_type_symbol
 _atom_site_label
 _atom_site_symmetry_multiplicity
 _atom_site_fract_x
 _atom_site_fract_y
 _atom_site_fract_z
 _atom_site_occupancy
  Tb  Tb0  1  0.000000  0.111546  0.574561  1
  Tb  Tb1  1  0.000000  0.888454  0.425439  1
  Tb  Tb2  1  0.000000  0.611546  0.925439  1
  Tb  Tb3  1  0.000000  0.388454  0.074561  1
  Y  Y4  1  0.500000  0.113964  0.347684  1
  Y  Y5  1  0.500000  0.886036  0.652316  1
  Y  Y6  1  0.500000  0.613964  0.152316  1
  Y  Y7  1  0.500000  0.386036  0.847684  1
  Si  Si8  1  0.500000  0.000000  0.500000  1
  Si  Si9  1  0.500000  0.500000  0.000000  1
  I  I10  1  0.500000  0.244876  0.161277  1
  I  I11  1  0.500000  0.755124  0.838723  1
  I  I12  1  0.500000  0.744876  0.338723  1
  I  I13  1  0.500000  0.255124  0.661277  1
  I  I14  1  0.000000  0.258650  0.413749  1
  I  I15  1  0.000000  0.741350  0.586251  1
  I  I16  1  0.000000  0.758650  0.086251  1
  I  I17  1  0.000000  0.241350  0.913749  1
  I  I18  1  0.000000  0.999233  0.240463  1
  I  I19  1  0.000000  0.000767  0.759537  1
  I  I20  1  0.000000  0.499233  0.259537  1
  I  I21  1  0.000000  0.500767  0.740463  1
