# generated using pymatgen
data_SmY3Er6(In2Pd)4
_symmetry_space_group_name_H-M   'P 1'
_cell_length_a   3.61588800
_cell_length_b   8.17051801
_cell_length_c   18.25337804
_cell_angle_alpha   89.84633875
_cell_angle_beta   90.00000000
_cell_angle_gamma   90.00000000
_symmetry_Int_Tables_number   1
_chemical_formula_structural   SmY3Er6(In2Pd)4
_chemical_formula_sum   'Sm1 Y3 Er6 In8 Pd4'
_cell_volume   539.26998437
_cell_formula_units_Z   1
loop_
 _symmetry_equiv_pos_site_id
 _symmetry_equiv_pos_as_xyz
  1  'x, y, z'
loop_
 _atom_site_type_symbol
 _atom_site_label
 _atom_site_symmetry_multiplicity
 _atom_site_fract_x
 _atom_site_fract_y
 _atom_site_fract_z
 _atom_site_occupancy
  Sm  Sm0  1  0.000000  0.500000  0.500000  1
  Y  Y1  1  0.000000  0.000000  0.000000  1
  Y  Y2  1  0.000000  0.738450  0.281054  1
  Y  Y3  1  0.000000  0.261550  0.718946  1
  Er  Er4  1  0.000000  0.761167  0.780952  1
  Er  Er5  1  0.000000  0.238833  0.219048  1
  Er  Er6  1  0.000000  0.616006  0.083791  1
  Er  Er7  1  0.000000  0.383994  0.916209  1
  Er  Er8  1  0.000000  0.882088  0.583801  1
  Er  Er9  1  0.000000  0.117912  0.416199  1
  In  In10  1  0.500000  0.707726  0.932557  1
  In  In11  1  0.500000  0.292274  0.067443  1
  In  In12  1  0.500000  0.795991  0.432183  1
  In  In13  1  0.500000  0.204009  0.567817  1
  In  In14  1  0.500000  0.583706  0.651868  1
  In  In15  1  0.500000  0.416294  0.348132  1
  In  In16  1  0.500000  0.918914  0.150376  1
  In  In17  1  0.500000  0.081086  0.849624  1
  Pd  Pd18  1  0.500000  0.520143  0.194710  1
  Pd  Pd19  1  0.500000  0.479857  0.805290  1
  Pd  Pd20  1  0.500000  0.973169  0.695752  1
  Pd  Pd21  1  0.500000  0.026831  0.304248  1
