# generated using pymatgen
data_Dy2Pu3(SiB4)2
_symmetry_space_group_name_H-M   'P 1'
_cell_length_a   7.22389323
_cell_length_b   7.22389323
_cell_length_c   8.11231200
_cell_angle_alpha   90.00000000
_cell_angle_beta   90.00000000
_cell_angle_gamma   89.93301117
_symmetry_Int_Tables_number   1
_chemical_formula_structural   Dy2Pu3(SiB4)2
_chemical_formula_sum   'Dy4 Pu6 Si4 B16'
_cell_volume   423.33773890
_cell_formula_units_Z   2
loop_
 _symmetry_equiv_pos_site_id
 _symmetry_equiv_pos_as_xyz
  1  'x, y, z'
loop_
 _atom_site_type_symbol
 _atom_site_label
 _atom_site_symmetry_multiplicity
 _atom_site_fract_x
 _atom_site_fract_y
 _atom_site_fract_z
 _atom_site_occupancy
  Dy  Dy0  1  0.181482  0.318518  0.777848  1
  Dy  Dy1  1  0.181482  0.318518  0.222152  1
  Dy  Dy2  1  0.999260  0.998296  0.500000  1
  Dy  Dy3  1  0.501704  0.500740  0.500000  1
  Pu  Pu4  1  0.683096  0.182746  0.228578  1
  Pu  Pu5  1  0.317254  0.816904  0.771422  1
  Pu  Pu6  1  0.317254  0.816904  0.228578  1
  Pu  Pu7  1  0.816424  0.683576  0.228596  1
  Pu  Pu8  1  0.816424  0.683576  0.771404  1
  Pu  Pu9  1  0.683096  0.182746  0.771422  1
  Si  Si10  1  0.115891  0.614225  0.500000  1
  Si  Si11  1  0.885775  0.384109  0.500000  1
  Si  Si12  1  0.383860  0.116140  0.500000  1
  Si  Si13  1  0.613298  0.886702  0.500000  1
  B  B14  1  0.173499  0.038131  0.000000  1
  B  B15  1  0.826112  0.959734  0.000000  1
  B  B16  1  0.958295  0.172201  0.000000  1
  B  B17  1  0.327799  0.541705  0.000000  1
  B  B18  1  0.040127  0.825604  0.000000  1
  B  B19  1  0.674396  0.459873  0.000000  1
  B  B20  1  0.540266  0.673888  0.000000  1
  B  B21  1  0.461869  0.326501  0.000000  1
  B  B22  1  0.090329  0.589667  0.000000  1
  B  B23  1  0.910333  0.409671  0.000000  1
  B  B24  1  0.409864  0.090136  0.000000  1
  B  B25  1  0.589145  0.910855  0.000000  1
  B  B26  1  0.999504  0.998672  0.160696  1
  B  B27  1  0.999504  0.998672  0.839304  1
  B  B28  1  0.501328  0.500496  0.839304  1
  B  B29  1  0.501328  0.500496  0.160696  1
