# generated using pymatgen
data_Zr6Zn19Au4Se
_symmetry_space_group_name_H-M   'P 1'
_cell_length_a   8.89870317
_cell_length_b   8.86187748
_cell_length_c   8.86192847
_cell_angle_alpha   60.28788745
_cell_angle_beta   59.72856913
_cell_angle_gamma   59.72976009
_symmetry_Int_Tables_number   1
_chemical_formula_structural   Zr6Zn19Au4Se
_chemical_formula_sum   'Zr6 Zn19 Au4 Se1'
_cell_volume   493.17810873
_cell_formula_units_Z   1
loop_
 _symmetry_equiv_pos_site_id
 _symmetry_equiv_pos_as_xyz
  1  'x, y, z'
loop_
 _atom_site_type_symbol
 _atom_site_label
 _atom_site_symmetry_multiplicity
 _atom_site_fract_x
 _atom_site_fract_y
 _atom_site_fract_z
 _atom_site_occupancy
  Zr  Zr0  1  0.715556  0.286622  0.286593  1
  Zr  Zr1  1  0.283039  0.715209  0.715185  1
  Zr  Zr2  1  0.289107  0.710251  0.289451  1
  Zr  Zr3  1  0.714427  0.287344  0.708863  1
  Zr  Zr4  1  0.289093  0.289471  0.710239  1
  Zr  Zr5  1  0.714435  0.708888  0.287308  1
  Zn  Zn6  1  0.878206  0.873559  0.372496  1
  Zn  Zn7  1  0.878201  0.372499  0.873571  1
  Zn  Zn8  1  0.624396  0.123294  0.123320  1
  Zn  Zn9  1  0.369818  0.876773  0.876790  1
  Zn  Zn10  1  0.496818  0.999498  0.999522  1
  Zn  Zn11  1  0.997551  0.501793  0.501780  1
  Zn  Zn12  1  0.001015  0.498035  0.996997  1
  Zn  Zn13  1  0.508392  0.997464  0.493753  1
  Zn  Zn14  1  0.001029  0.996986  0.498031  1
  Zn  Zn15  1  0.508385  0.493763  0.997474  1
  Zn  Zn16  1  0.337799  0.335071  0.335072  1
  Zn  Zn17  1  0.661376  0.664221  0.664213  1
  Zn  Zn18  1  0.336375  0.336644  0.992284  1
  Zn  Zn19  1  0.336386  0.992275  0.336639  1
  Zn  Zn20  1  0.663936  0.662956  0.006945  1
  Zn  Zn21  1  0.663942  0.006935  0.662955  1
  Zn  Zn22  1  0.997061  0.333898  0.333896  1
  Zn  Zn23  1  0.007803  0.664181  0.664173  1
  Zn  Zn24  1  0.985847  0.007529  0.007543  1
  Au  Au25  1  0.120729  0.118214  0.118240  1
  Au  Au26  1  0.873409  0.882760  0.882777  1
  Au  Au27  1  0.123072  0.121972  0.640682  1
  Au  Au28  1  0.123062  0.640688  0.121984  1
  Se  Se29  1  0.499737  0.501209  0.501225  1
