# generated using pymatgen
data_Dy4Ga5Co2Ni7
_symmetry_space_group_name_H-M   'P 1'
_cell_length_a   5.19810513
_cell_length_b   5.17432376
_cell_length_c   12.07996400
_cell_angle_alpha   77.39798893
_cell_angle_beta   77.57542766
_cell_angle_gamma   59.84784614
_symmetry_Int_Tables_number   1
_chemical_formula_structural   Dy4Ga5Co2Ni7
_chemical_formula_sum   'Dy4 Ga5 Co2 Ni7'
_cell_volume   272.02660219
_cell_formula_units_Z   1
loop_
 _symmetry_equiv_pos_site_id
 _symmetry_equiv_pos_as_xyz
  1  'x, y, z'
loop_
 _atom_site_type_symbol
 _atom_site_label
 _atom_site_symmetry_multiplicity
 _atom_site_fract_x
 _atom_site_fract_y
 _atom_site_fract_z
 _atom_site_occupancy
  Dy  Dy0  1  0.953627  0.953370  0.139375  1
  Dy  Dy1  1  0.046373  0.046630  0.860625  1
  Dy  Dy2  1  0.854801  0.855150  0.435249  1
  Dy  Dy3  1  0.145199  0.144850  0.564751  1
  Ga  Ga4  1  0.500000  0.500000  0.500000  1
  Ga  Ga5  1  0.722709  0.719875  0.834707  1
  Ga  Ga6  1  0.277291  0.280125  0.165293  1
  Ga  Ga7  1  0.612698  0.608343  0.166259  1
  Ga  Ga8  1  0.387302  0.391657  0.833741  1
  Co  Co9  1  0.000000  0.500000  0.000000  1
  Co  Co10  1  0.500000  0.500000  0.000000  1
  Ni  Ni11  1  0.500000  0.000000  0.000000  1
  Ni  Ni12  1  0.386452  0.385650  0.332426  1
  Ni  Ni13  1  0.895474  0.385650  0.332426  1
  Ni  Ni14  1  0.387953  0.892584  0.331512  1
  Ni  Ni15  1  0.613548  0.614350  0.667574  1
  Ni  Ni16  1  0.104526  0.614350  0.667574  1
  Ni  Ni17  1  0.612047  0.107416  0.668488  1
