# generated using pymatgen
data_Dy2Lu6Ga3Ir
_symmetry_space_group_name_H-M   'P 1'
_cell_length_a   9.88579779
_cell_length_b   9.88556101
_cell_length_c   6.96410733
_cell_angle_alpha   89.97123514
_cell_angle_beta   90.02789053
_cell_angle_gamma   119.92539369
_symmetry_Int_Tables_number   1
_chemical_formula_structural   Dy2Lu6Ga3Ir
_chemical_formula_sum   'Dy4 Lu12 Ga6 Ir2'
_cell_volume   589.84114592
_cell_formula_units_Z   2
loop_
 _symmetry_equiv_pos_site_id
 _symmetry_equiv_pos_as_xyz
  1  'x, y, z'
loop_
 _atom_site_type_symbol
 _atom_site_label
 _atom_site_symmetry_multiplicity
 _atom_site_fract_x
 _atom_site_fract_y
 _atom_site_fract_z
 _atom_site_occupancy
  Dy  Dy0  1  0.933042  0.466827  0.705404  1
  Dy  Dy1  1  0.533187  0.066945  0.705415  1
  Dy  Dy2  1  0.999806  0.000168  0.232470  1
  Dy  Dy3  1  0.999901  0.000054  0.732664  1
  Lu  Lu4  1  0.171933  0.828095  0.509335  1
  Lu  Lu5  1  0.655436  0.826722  0.510537  1
  Lu  Lu6  1  0.173257  0.344559  0.510568  1
  Lu  Lu7  1  0.827718  0.172336  0.013694  1
  Lu  Lu8  1  0.344497  0.172899  0.012814  1
  Lu  Lu9  1  0.827123  0.655491  0.012855  1
  Lu  Lu10  1  0.333928  0.666102  0.835326  1
  Lu  Lu11  1  0.666033  0.333824  0.334544  1
  Lu  Lu12  1  0.464881  0.535112  0.205003  1
  Lu  Lu13  1  0.070994  0.535554  0.204986  1
  Lu  Lu14  1  0.464425  0.929007  0.204906  1
  Lu  Lu15  1  0.534623  0.465430  0.705258  1
  Ga  Ga16  1  0.164037  0.835952  0.959684  1
  Ga  Ga17  1  0.671760  0.835918  0.958835  1
  Ga  Ga18  1  0.164084  0.328226  0.958856  1
  Ga  Ga19  1  0.836730  0.163292  0.457125  1
  Ga  Ga20  1  0.327648  0.164296  0.457930  1
  Ga  Ga21  1  0.835719  0.672373  0.457948  1
  Ir  Ir22  1  0.333428  0.666626  0.443677  1
  Ir  Ir23  1  0.665812  0.334192  0.944999  1
