# generated using pymatgen
data_Ba8Y3Ho(GaO5)4
_symmetry_space_group_name_H-M   'P 1'
_cell_length_a   6.14440202
_cell_length_b   7.86878819
_cell_length_c   12.75318128
_cell_angle_alpha   91.93144252
_cell_angle_beta   89.99977026
_cell_angle_gamma   90.00987063
_symmetry_Int_Tables_number   1
_chemical_formula_structural   Ba8Y3Ho(GaO5)4
_chemical_formula_sum   'Ba8 Y3 Ho1 Ga4 O20'
_cell_volume   616.25321722
_cell_formula_units_Z   1
loop_
 _symmetry_equiv_pos_site_id
 _symmetry_equiv_pos_as_xyz
  1  'x, y, z'
loop_
 _atom_site_type_symbol
 _atom_site_label
 _atom_site_symmetry_multiplicity
 _atom_site_fract_x
 _atom_site_fract_y
 _atom_site_fract_z
 _atom_site_occupancy
  Ba  Ba0  1  0.762535  0.482071  0.346797  1
  Ba  Ba1  1  0.737342  0.982434  0.846432  1
  Ba  Ba2  1  0.237419  0.517332  0.653267  1
  Ba  Ba3  1  0.262606  0.017798  0.153502  1
  Ba  Ba4  1  0.755417  0.993365  0.380766  1
  Ba  Ba5  1  0.744538  0.492940  0.880300  1
  Ba  Ba6  1  0.244692  0.007268  0.619376  1
  Ba  Ba7  1  0.255389  0.506918  0.119509  1
  Y  Y8  1  0.750204  0.767008  0.128195  1
  Y  Y9  1  0.250261  0.733004  0.371890  1
  Y  Y10  1  0.249665  0.233100  0.871352  1
  Ho  Ho11  1  0.749887  0.266277  0.628488  1
  Ga  Ga12  1  0.734821  0.742243  0.582511  1
  Ga  Ga13  1  0.765267  0.241959  0.082179  1
  Ga  Ga14  1  0.265363  0.258197  0.418501  1
  Ga  Ga15  1  0.234697  0.758046  0.917794  1
  O  O16  1  0.759036  0.972183  0.629300  1
  O  O17  1  0.740700  0.470699  0.129575  1
  O  O18  1  0.240774  0.029503  0.370481  1
  O  O19  1  0.259283  0.529063  0.870404  1
  O  O20  1  0.728841  0.067758  0.176140  1
  O  O21  1  0.770833  0.566310  0.675544  1
  O  O22  1  0.271126  0.932438  0.823852  1
  O  O23  1  0.228984  0.432000  0.324041  1
  O  O24  1  0.543421  0.744799  0.271835  1
  O  O25  1  0.956011  0.244966  0.770846  1
  O  O26  1  0.458725  0.255188  0.727761  1
  O  O27  1  0.043536  0.755153  0.228133  1
  O  O28  1  0.550219  0.222150  0.976377  1
  O  O29  1  0.949450  0.722373  0.476618  1
  O  O30  1  0.449504  0.777816  0.023481  1
  O  O31  1  0.048955  0.277579  0.523864  1
  O  O32  1  0.043795  0.228477  0.020567  1
  O  O33  1  0.456448  0.728695  0.520867  1
  O  O34  1  0.956276  0.771499  0.979149  1
  O  O35  1  0.543979  0.271394  0.480306  1
