# generated using pymatgen
data_Tm2Al3Pt4
_symmetry_space_group_name_H-M   'P 1'
_cell_length_a   8.13966400
_cell_length_b   8.13966335
_cell_length_c   7.45959700
_cell_angle_alpha   90.00000000
_cell_angle_beta   90.00000000
_cell_angle_gamma   140.35736656
_symmetry_Int_Tables_number   1
_chemical_formula_structural   Tm2Al3Pt4
_chemical_formula_sum   'Tm4 Al6 Pt8'
_cell_volume   315.31673704
_cell_formula_units_Z   2
loop_
 _symmetry_equiv_pos_site_id
 _symmetry_equiv_pos_as_xyz
  1  'x, y, z'
loop_
 _atom_site_type_symbol
 _atom_site_label
 _atom_site_symmetry_multiplicity
 _atom_site_fract_x
 _atom_site_fract_y
 _atom_site_fract_z
 _atom_site_occupancy
  Tm  Tm0  1  0.605492  0.394508  0.907068  1
  Tm  Tm1  1  0.394508  0.605492  0.092932  1
  Tm  Tm2  1  0.894508  0.105492  0.407068  1
  Tm  Tm3  1  0.105492  0.894508  0.592932  1
  Al  Al4  1  0.500000  0.500000  0.500000  1
  Al  Al5  1  0.000000  0.000000  0.000000  1
  Al  Al6  1  0.522004  0.977996  0.750000  1
  Al  Al7  1  0.977996  0.522004  0.250000  1
  Al  Al8  1  0.477996  0.022004  0.250000  1
  Al  Al9  1  0.022004  0.477996  0.750000  1
  Pt  Pt10  1  0.690118  0.809882  0.750000  1
  Pt  Pt11  1  0.809882  0.690118  0.250000  1
  Pt  Pt12  1  0.309882  0.190118  0.250000  1
  Pt  Pt13  1  0.190118  0.309882  0.750000  1
  Pt  Pt14  1  0.681793  0.318207  0.529839  1
  Pt  Pt15  1  0.318207  0.681793  0.470161  1
  Pt  Pt16  1  0.818207  0.181793  0.029839  1
  Pt  Pt17  1  0.181793  0.818207  0.970161  1
