# generated using pymatgen
data_BF18
_symmetry_space_group_name_H-M   'P 1'
_cell_length_a   6.61341222
_cell_length_b   10.00314658
_cell_length_c   10.20866100
_cell_angle_alpha   91.19350846
_cell_angle_beta   98.71771193
_cell_angle_gamma   70.95942252
_symmetry_Int_Tables_number   1
_chemical_formula_structural   BF18
_chemical_formula_sum   'B2 F36'
_cell_volume   630.73172750
_cell_formula_units_Z   2
loop_
 _symmetry_equiv_pos_site_id
 _symmetry_equiv_pos_as_xyz
  1  'x, y, z'
loop_
 _atom_site_type_symbol
 _atom_site_label
 _atom_site_symmetry_multiplicity
 _atom_site_fract_x
 _atom_site_fract_y
 _atom_site_fract_z
 _atom_site_occupancy
  B  B0  1  0.673420  0.932902  0.886612  1
  B  B1  1  0.326580  0.067098  0.113388  1
  F  F2  1  0.345199  0.400700  0.919925  1
  F  F3  1  0.654801  0.599300  0.080075  1
  F  F4  1  0.368470  0.228103  0.561879  1
  F  F5  1  0.631530  0.771897  0.438121  1
  F  F6  1  0.912890  0.206511  0.806859  1
  F  F7  1  0.087110  0.793489  0.193141  1
  F  F8  1  0.662637  0.868916  0.997332  1
  F  F9  1  0.337363  0.131084  0.002668  1
  F  F10  1  0.832995  0.630611  0.821274  1
  F  F11  1  0.167005  0.369389  0.178726  1
  F  F12  1  0.461712  0.435615  0.826879  1
  F  F13  1  0.538288  0.564385  0.173121  1
  F  F14  1  0.700896  0.622723  0.698659  1
  F  F15  1  0.299104  0.377277  0.301341  1
  F  F16  1  0.732849  0.010042  0.496878  1
  F  F17  1  0.267151  0.989958  0.503122  1
  F  F18  1  0.248003  0.255792  0.669619  1
  F  F19  1  0.751997  0.744208  0.330381  1
  F  F20  1  0.830132  0.080765  0.597657  1
  F  F21  1  0.169868  0.919235  0.402343  1
  F  F22  1  0.828028  0.989758  0.885294  1
  F  F23  1  0.171972  0.010242  0.114706  1
  F  F24  1  0.933319  0.344165  0.812910  1
  F  F25  1  0.066681  0.655835  0.187090  1
  F  F26  1  0.200649  0.713453  0.935634  1
  F  F27  1  0.799351  0.286547  0.064366  1
  F  F28  1  0.530794  0.938766  0.778623  1
  F  F29  1  0.469206  0.061234  0.221377  1
  F  F30  1  0.084404  0.745670  0.570039  1
  F  F31  1  0.915596  0.254330  0.429961  1
  F  F32  1  0.154517  0.618448  0.649361  1
  F  F33  1  0.845483  0.381552  0.350639  1
  F  F34  1  0.274043  0.801331  0.859655  1
  F  F35  1  0.725957  0.198669  0.140345  1
  F  F36  1  0.488612  0.434703  0.519363  1
  F  F37  1  0.511388  0.565297  0.480637  1
