# generated using pymatgen
data_Tb19Dy(FeBi2)4
_symmetry_space_group_name_H-M   'P 1'
_cell_length_a   8.02767016
_cell_length_b   8.94029013
_cell_length_c   12.46023051
_cell_angle_alpha   89.98110637
_cell_angle_beta   90.00915697
_cell_angle_gamma   89.93950783
_symmetry_Int_Tables_number   1
_chemical_formula_structural   Tb19Dy(FeBi2)4
_chemical_formula_sum   'Tb19 Dy1 Fe4 Bi8'
_cell_volume   894.26645093
_cell_formula_units_Z   1
loop_
 _symmetry_equiv_pos_site_id
 _symmetry_equiv_pos_as_xyz
  1  'x, y, z'
loop_
 _atom_site_type_symbol
 _atom_site_label
 _atom_site_symmetry_multiplicity
 _atom_site_fract_x
 _atom_site_fract_y
 _atom_site_fract_z
 _atom_site_occupancy
  Tb  Tb0  1  0.848744  0.749862  0.800547  1
  Tb  Tb1  1  0.151202  0.250094  0.199390  1
  Tb  Tb2  1  0.348957  0.249554  0.699113  1
  Tb  Tb3  1  0.651008  0.750287  0.300935  1
  Tb  Tb4  1  0.382951  0.750540  0.688072  1
  Tb  Tb5  1  0.617890  0.249484  0.311874  1
  Tb  Tb6  1  0.882532  0.250207  0.811409  1
  Tb  Tb7  1  0.117650  0.749885  0.188612  1
  Tb  Tb8  1  0.946633  0.750341  0.504699  1
  Tb  Tb9  1  0.052023  0.249788  0.495410  1
  Tb  Tb10  1  0.446993  0.249898  0.995285  1
  Tb  Tb11  1  0.552661  0.750104  0.004679  1
  Tb  Tb12  1  0.324983  0.964407  0.437111  1
  Tb  Tb13  1  0.175210  0.964513  0.936787  1
  Tb  Tb14  1  0.324750  0.534342  0.436928  1
  Tb  Tb15  1  0.825274  0.034945  0.062924  1
  Tb  Tb16  1  0.675166  0.465204  0.563241  1
  Tb  Tb17  1  0.824965  0.465122  0.062828  1
  Tb  Tb18  1  0.175210  0.535446  0.936916  1
  Dy  Dy19  1  0.674637  0.036040  0.563126  1
  Fe  Fe20  1  0.570421  0.749885  0.509324  1
  Fe  Fe21  1  0.430116  0.249819  0.490669  1
  Fe  Fe22  1  0.070633  0.249999  0.990574  1
  Fe  Fe23  1  0.929104  0.750010  0.009665  1
  Bi  Bi24  1  0.571208  0.493398  0.826555  1
  Bi  Bi25  1  0.428818  0.506479  0.173581  1
  Bi  Bi26  1  0.072156  0.506772  0.673212  1
  Bi  Bi27  1  0.428364  0.993411  0.173455  1
  Bi  Bi28  1  0.928085  0.493444  0.326705  1
  Bi  Bi29  1  0.571933  0.006768  0.826492  1
  Bi  Bi30  1  0.928592  0.006651  0.326548  1
  Bi  Bi31  1  0.071134  0.993301  0.673337  1
