# generated using pymatgen
data_Tb5YbY2(B6Os)4
_symmetry_space_group_name_H-M   'P 1'
_cell_length_a   3.66530500
_cell_length_b   9.16324411
_cell_length_c   11.53894200
_cell_angle_alpha   90.02959166
_cell_angle_beta   90.00000000
_cell_angle_gamma   90.00000000
_symmetry_Int_Tables_number   1
_chemical_formula_structural   Tb5YbY2(B6Os)4
_chemical_formula_sum   'Tb5 Yb1 Y2 B24 Os4'
_cell_volume   387.54782895
_cell_formula_units_Z   1
loop_
 _symmetry_equiv_pos_site_id
 _symmetry_equiv_pos_as_xyz
  1  'x, y, z'
loop_
 _atom_site_type_symbol
 _atom_site_label
 _atom_site_symmetry_multiplicity
 _atom_site_fract_x
 _atom_site_fract_y
 _atom_site_fract_z
 _atom_site_occupancy
  Tb  Tb0  1  0.000000  0.323153  0.415237  1
  Tb  Tb1  1  0.000000  0.676375  0.588179  1
  Tb  Tb2  1  0.000000  0.821902  0.084063  1
  Tb  Tb3  1  0.000000  0.178216  0.912776  1
  Tb  Tb4  1  0.000000  0.943505  0.372528  1
  Yb  Yb5  1  0.000000  0.556418  0.871831  1
  Y  Y6  1  0.000000  0.056156  0.627912  1
  Y  Y7  1  0.000000  0.444487  0.125601  1
  B  B8  1  0.500000  0.553709  0.432728  1
  B  B9  1  0.500000  0.446127  0.568357  1
  B  B10  1  0.500000  0.054213  0.067107  1
  B  B11  1  0.500000  0.945528  0.932187  1
  B  B12  1  0.500000  0.747293  0.419559  1
  B  B13  1  0.500000  0.252575  0.580984  1
  B  B14  1  0.500000  0.248504  0.079882  1
  B  B15  1  0.500000  0.750813  0.918814  1
  B  B16  1  0.500000  0.790230  0.266492  1
  B  B17  1  0.500000  0.210191  0.733439  1
  B  B18  1  0.500000  0.291260  0.232922  1
  B  B19  1  0.500000  0.708253  0.767554  1
  B  B20  1  0.500000  0.632003  0.184926  1
  B  B21  1  0.500000  0.369681  0.814444  1
  B  B22  1  0.500000  0.132401  0.313958  1
  B  B23  1  0.500000  0.867447  0.686761  1
  B  B24  1  0.500000  0.984162  0.212514  1
  B  B25  1  0.500000  0.015977  0.787592  1
  B  B26  1  0.500000  0.483774  0.286852  1
  B  B27  1  0.500000  0.516369  0.713961  1
  B  B28  1  0.500000  0.606801  0.029150  1
  B  B29  1  0.500000  0.393583  0.969995  1
  B  B30  1  0.500000  0.109482  0.470063  1
  B  B31  1  0.500000  0.890413  0.530718  1
  Os  Os32  1  0.000000  0.637176  0.321875  1
  Os  Os33  1  0.000000  0.362206  0.678863  1
  Os  Os34  1  0.000000  0.137992  0.178808  1
  Os  Os35  1  0.000000  0.861628  0.821365  1
