# generated using pymatgen
data_Sm4Th(ReB3)2
_symmetry_space_group_name_H-M   'P 1'
_cell_length_a   5.58199150
_cell_length_b   5.58199294
_cell_length_c   8.70512408
_cell_angle_alpha   71.29986338
_cell_angle_beta   71.29985679
_cell_angle_gamma   60.00000491
_symmetry_Int_Tables_number   1
_chemical_formula_structural   Sm4Th(ReB3)2
_chemical_formula_sum   'Sm4 Th1 Re2 B6'
_cell_volume   218.20999966
_cell_formula_units_Z   1
loop_
 _symmetry_equiv_pos_site_id
 _symmetry_equiv_pos_as_xyz
  1  'x, y, z'
loop_
 _atom_site_type_symbol
 _atom_site_label
 _atom_site_symmetry_multiplicity
 _atom_site_fract_x
 _atom_site_fract_y
 _atom_site_fract_z
 _atom_site_occupancy
  Sm  Sm0  1  0.750815  0.750815  0.747555  1
  Sm  Sm1  1  0.249185  0.249185  0.252445  1
  Sm  Sm2  1  0.582339  0.582339  0.252981  1
  Sm  Sm3  1  0.417661  0.417661  0.747019  1
  Th  Th4  1  0.000000  0.000000  0.000000  1
  Re  Re5  1  0.887349  0.887349  0.337953  1
  Re  Re6  1  0.112651  0.112651  0.662047  1
  B  B7  1  0.500000  0.170059  0.500000  1
  B  B8  1  0.829941  0.500000  0.500000  1
  B  B9  1  0.170059  0.829942  0.500000  1
  B  B10  1  0.170059  0.500000  0.500000  1
  B  B11  1  0.829941  0.170059  0.500000  1
  B  B12  1  0.500000  0.829941  0.500000  1
