# generated using pymatgen
data_Li3Er5VTc11Ge16
_symmetry_space_group_name_H-M   'P 1'
_cell_length_a   6.85549584
_cell_length_b   6.87910687
_cell_length_c   12.65199636
_cell_angle_alpha   90.13539820
_cell_angle_beta   90.03660121
_cell_angle_gamma   90.34879202
_symmetry_Int_Tables_number   1
_chemical_formula_structural   Li3Er5VTc11Ge16
_chemical_formula_sum   'Li3 Er5 V1 Tc11 Ge16'
_cell_volume   596.65135862
_cell_formula_units_Z   1
loop_
 _symmetry_equiv_pos_site_id
 _symmetry_equiv_pos_as_xyz
  1  'x, y, z'
loop_
 _atom_site_type_symbol
 _atom_site_label
 _atom_site_symmetry_multiplicity
 _atom_site_fract_x
 _atom_site_fract_y
 _atom_site_fract_z
 _atom_site_occupancy
  Li  Li0  1  0.044172  0.178067  0.093012  1
  Li  Li1  1  0.542514  0.319729  0.405623  1
  Li  Li2  1  0.461678  0.679948  0.918462  1
  Er  Er3  1  0.984594  0.830199  0.594435  1
  Er  Er4  1  0.984844  0.835676  0.912405  1
  Er  Er5  1  0.486769  0.664266  0.582928  1
  Er  Er6  1  0.509599  0.340250  0.085579  1
  Er  Er7  1  0.012010  0.165159  0.406126  1
  V  V8  1  0.333048  0.013564  0.749836  1
  Tc  Tc9  1  0.667425  0.001128  0.248507  1
  Tc  Tc10  1  0.168955  0.498979  0.249638  1
  Tc  Tc11  1  0.832362  0.497961  0.747911  1
  Tc  Tc12  1  0.814768  0.644214  0.125309  1
  Tc  Tc13  1  0.304053  0.859158  0.371758  1
  Tc  Tc14  1  0.664388  0.140768  0.869862  1
  Tc  Tc15  1  0.183227  0.358827  0.629305  1
  Tc  Tc16  1  0.182877  0.351823  0.873544  1
  Tc  Tc17  1  0.673450  0.137130  0.628366  1
  Tc  Tc18  1  0.327765  0.850502  0.130453  1
  Tc  Tc19  1  0.834730  0.648395  0.371322  1
  Ge  Ge20  1  0.818739  0.343104  0.242343  1
  Ge  Ge21  1  0.322019  0.159603  0.253316  1
  Ge  Ge22  1  0.665871  0.834622  0.758595  1
  Ge  Ge23  1  0.200589  0.655312  0.757413  1
  Ge  Ge24  1  0.018201  0.869542  0.237420  1
  Ge  Ge25  1  0.521962  0.632624  0.263716  1
  Ge  Ge26  1  0.481451  0.373079  0.753800  1
  Ge  Ge27  1  0.975099  0.140734  0.751517  1
  Ge  Ge28  1  0.830771  0.442717  0.947795  1
  Ge  Ge29  1  0.332296  0.056765  0.548843  1
  Ge  Ge30  1  0.665511  0.951150  0.048233  1
  Ge  Ge31  1  0.174754  0.542948  0.447912  1
  Ge  Ge32  1  0.160705  0.544276  0.049490  1
  Ge  Ge33  1  0.656877  0.954002  0.446123  1
  Ge  Ge34  1  0.329452  0.041223  0.953173  1
  Ge  Ge35  1  0.832479  0.442561  0.545930  1
