# generated using pymatgen
data_Tb3Dy(Ho3Ru2)2
_symmetry_space_group_name_H-M   'P 1'
_cell_length_a   6.35386147
_cell_length_b   7.27235255
_cell_length_c   8.48007307
_cell_angle_alpha   96.71707049
_cell_angle_beta   112.05724022
_cell_angle_gamma   89.91735828
_symmetry_Int_Tables_number   1
_chemical_formula_structural   Tb3Dy(Ho3Ru2)2
_chemical_formula_sum   'Tb3 Dy1 Ho6 Ru4'
_cell_volume   360.28664907
_cell_formula_units_Z   1
loop_
 _symmetry_equiv_pos_site_id
 _symmetry_equiv_pos_as_xyz
  1  'x, y, z'
loop_
 _atom_site_type_symbol
 _atom_site_label
 _atom_site_symmetry_multiplicity
 _atom_site_fract_x
 _atom_site_fract_y
 _atom_site_fract_z
 _atom_site_occupancy
  Tb  Tb0  1  0.978259  0.915870  0.187278  1
  Tb  Tb1  1  0.791193  0.583977  0.812782  1
  Tb  Tb2  1  0.021937  0.084144  0.812816  1
  Dy  Dy3  1  0.208749  0.415971  0.187257  1
  Ho  Ho4  1  0.640166  0.814897  0.434095  1
  Ho  Ho5  1  0.205977  0.685171  0.565941  1
  Ho  Ho6  1  0.359758  0.185119  0.565784  1
  Ho  Ho7  1  0.793833  0.314783  0.433840  1
  Ho  Ho8  1  0.420903  0.749794  0.999969  1
  Ho  Ho9  1  0.579077  0.250228  0.000184  1
  Ru  Ru10  1  0.823580  0.575808  0.221021  1
  Ru  Ru11  1  0.602290  0.924497  0.778855  1
  Ru  Ru12  1  0.176667  0.424123  0.779060  1
  Ru  Ru13  1  0.397611  0.075618  0.221118  1
