# generated using pymatgen
data_TbDyHfPtF14
_symmetry_space_group_name_H-M   'P 1'
_cell_length_a   5.64426015
_cell_length_b   9.00360375
_cell_length_c   12.08458148
_cell_angle_alpha   62.27158416
_cell_angle_beta   90.16472125
_cell_angle_gamma   90.10995606
_symmetry_Int_Tables_number   1
_chemical_formula_structural   TbDyHfPtF14
_chemical_formula_sum   'Tb2 Dy2 Hf2 Pt2 F28'
_cell_volume   543.59613937
_cell_formula_units_Z   2
loop_
 _symmetry_equiv_pos_site_id
 _symmetry_equiv_pos_as_xyz
  1  'x, y, z'
loop_
 _atom_site_type_symbol
 _atom_site_label
 _atom_site_symmetry_multiplicity
 _atom_site_fract_x
 _atom_site_fract_y
 _atom_site_fract_z
 _atom_site_occupancy
  Tb  Tb0  1  0.760007  0.182933  0.239500  1
  Tb  Tb1  1  0.239993  0.817067  0.760500  1
  Dy  Dy2  1  0.257340  0.812603  0.269406  1
  Dy  Dy3  1  0.742660  0.187397  0.730594  1
  Hf  Hf4  1  0.755028  0.726151  0.044302  1
  Hf  Hf5  1  0.244972  0.273849  0.955698  1
  Pt  Pt6  1  0.259268  0.273845  0.456067  1
  Pt  Pt7  1  0.740732  0.726155  0.543933  1
  F  F8  1  0.934803  0.704302  0.417198  1
  F  F9  1  0.065197  0.295698  0.582802  1
  F  F10  1  0.462725  0.289663  0.080849  1
  F  F11  1  0.537275  0.710337  0.919151  1
  F  F12  1  0.481029  0.732539  0.147116  1
  F  F13  1  0.518971  0.267461  0.852884  1
  F  F14  1  0.969994  0.271706  0.365549  1
  F  F15  1  0.030006  0.728294  0.634451  1
  F  F16  1  0.962997  0.749497  0.171407  1
  F  F17  1  0.037003  0.250503  0.828593  1
  F  F18  1  0.448956  0.258910  0.324455  1
  F  F19  1  0.551044  0.741090  0.675545  1
  F  F20  1  0.777521  0.475979  0.141749  1
  F  F21  1  0.222479  0.524021  0.858251  1
  F  F22  1  0.266125  0.520577  0.359310  1
  F  F23  1  0.733875  0.479423  0.640690  1
  F  F24  1  0.952098  0.274924  0.051208  1
  F  F25  1  0.047902  0.725076  0.948792  1
  F  F26  1  0.444498  0.716090  0.460218  1
  F  F27  1  0.555502  0.283910  0.539782  1
  F  F28  1  0.739853  0.972755  0.452495  1
  F  F29  1  0.260147  0.027245  0.547505  1
  F  F30  1  0.242305  0.023972  0.060291  1
  F  F31  1  0.757695  0.976028  0.939709  1
  F  F32  1  0.578484  0.968581  0.237787  1
  F  F33  1  0.421516  0.031419  0.762213  1
  F  F34  1  0.081520  0.026178  0.272817  1
  F  F35  1  0.918480  0.973822  0.727183  1
