# generated using pymatgen
data_YbTh3(ZnIr)4
_symmetry_space_group_name_H-M   'P 1'
_cell_length_a   4.03416300
_cell_length_b   7.14404275
_cell_length_c   8.38873800
_cell_angle_alpha   89.59017854
_cell_angle_beta   90.00000000
_cell_angle_gamma   90.00000000
_symmetry_Int_Tables_number   1
_chemical_formula_structural   YbTh3(ZnIr)4
_chemical_formula_sum   'Yb1 Th3 Zn4 Ir4'
_cell_volume   241.75919863
_cell_formula_units_Z   1
loop_
 _symmetry_equiv_pos_site_id
 _symmetry_equiv_pos_as_xyz
  1  'x, y, z'
loop_
 _atom_site_type_symbol
 _atom_site_label
 _atom_site_symmetry_multiplicity
 _atom_site_fract_x
 _atom_site_fract_y
 _atom_site_fract_z
 _atom_site_occupancy
  Yb  Yb0  1  0.250000  0.050886  0.310478  1
  Th  Th1  1  0.250000  0.548808  0.193067  1
  Th  Th2  1  0.750000  0.453377  0.815054  1
  Th  Th3  1  0.750000  0.954464  0.677521  1
  Zn  Zn4  1  0.250000  0.626964  0.558863  1
  Zn  Zn5  1  0.750000  0.357248  0.438082  1
  Zn  Zn6  1  0.750000  0.883898  0.067777  1
  Zn  Zn7  1  0.250000  0.122158  0.943403  1
  Ir  Ir8  1  0.250000  0.746853  0.872158  1
  Ir  Ir9  1  0.750000  0.264233  0.118823  1
  Ir  Ir10  1  0.750000  0.744297  0.372803  1
  Ir  Ir11  1  0.250000  0.246814  0.631974  1
