# generated using pymatgen
data_Cs4Eu(PbI4)3
_symmetry_space_group_name_H-M   'P 1'
_cell_length_a   4.93250200
_cell_length_b   10.75337472
_cell_length_c   18.31822984
_cell_angle_alpha   90.30383123
_cell_angle_beta   90.00000000
_cell_angle_gamma   90.00000000
_symmetry_Int_Tables_number   1
_chemical_formula_structural   Cs4Eu(PbI4)3
_chemical_formula_sum   'Cs4 Eu1 Pb3 I12'
_cell_volume   971.60434289
_cell_formula_units_Z   1
loop_
 _symmetry_equiv_pos_site_id
 _symmetry_equiv_pos_as_xyz
  1  'x, y, z'
loop_
 _atom_site_type_symbol
 _atom_site_label
 _atom_site_symmetry_multiplicity
 _atom_site_fract_x
 _atom_site_fract_y
 _atom_site_fract_z
 _atom_site_occupancy
  Cs  Cs0  1  0.750000  0.582968  0.172657  1
  Cs  Cs1  1  0.250000  0.419261  0.828627  1
  Cs  Cs2  1  0.750000  0.078669  0.326386  1
  Cs  Cs3  1  0.250000  0.919032  0.673053  1
  Eu  Eu4  1  0.250000  0.660211  0.441252  1
  Pb  Pb5  1  0.750000  0.336309  0.559924  1
  Pb  Pb6  1  0.250000  0.162458  0.060503  1
  Pb  Pb7  1  0.750000  0.837843  0.939475  1
  I  I8  1  0.750000  0.832654  0.503214  1
  I  I9  1  0.250000  0.164913  0.499414  1
  I  I10  1  0.750000  0.335021  0.999010  1
  I  I11  1  0.250000  0.665354  0.000410  1
  I  I12  1  0.250000  0.531753  0.605723  1
  I  I13  1  0.750000  0.472367  0.392675  1
  I  I14  1  0.250000  0.026928  0.890197  1
  I  I15  1  0.750000  0.973259  0.108507  1
  I  I16  1  0.250000  0.796433  0.287514  1
  I  I17  1  0.750000  0.205109  0.711816  1
  I  I18  1  0.250000  0.296272  0.212122  1
  I  I19  1  0.750000  0.703186  0.787522  1
