# generated using pymatgen
data_Zr16Co4SnPd3N4
_symmetry_space_group_name_H-M   'P 1'
_cell_length_a   8.79362248
_cell_length_b   8.75487303
_cell_length_c   8.75487300
_cell_angle_alpha   59.99999632
_cell_angle_beta   60.14565679
_cell_angle_gamma   60.14566486
_symmetry_Int_Tables_number   1
_chemical_formula_structural   Zr16Co4SnPd3N4
_chemical_formula_sum   'Zr16 Co4 Sn1 Pd3 N4'
_cell_volume   477.64493716
_cell_formula_units_Z   1
loop_
 _symmetry_equiv_pos_site_id
 _symmetry_equiv_pos_as_xyz
  1  'x, y, z'
loop_
 _atom_site_type_symbol
 _atom_site_label
 _atom_site_symmetry_multiplicity
 _atom_site_fract_x
 _atom_site_fract_y
 _atom_site_fract_z
 _atom_site_occupancy
  Zr  Zr0  1  0.077475  0.640842  0.640842  1
  Zr  Zr1  1  0.642239  0.060307  0.648727  1
  Zr  Zr2  1  0.642239  0.648727  0.060307  1
  Zr  Zr3  1  0.642239  0.648727  0.648727  1
  Zr  Zr4  1  0.816430  0.816762  0.183404  1
  Zr  Zr5  1  0.180786  0.183738  0.817738  1
  Zr  Zr6  1  0.816430  0.183404  0.816762  1
  Zr  Zr7  1  0.180786  0.817738  0.183738  1
  Zr  Zr8  1  0.180786  0.817738  0.817738  1
  Zr  Zr9  1  0.816430  0.183404  0.183404  1
  Zr  Zr10  1  0.434260  0.433430  0.066155  1
  Zr  Zr11  1  0.072964  0.063610  0.431713  1
  Zr  Zr12  1  0.434260  0.066155  0.433430  1
  Zr  Zr13  1  0.072964  0.431713  0.063610  1
  Zr  Zr14  1  0.072964  0.431713  0.431713  1
  Zr  Zr15  1  0.434260  0.066155  0.066155  1
  Co  Co16  1  0.434708  0.855098  0.855098  1
  Co  Co17  1  0.855801  0.442118  0.851041  1
  Co  Co18  1  0.855801  0.851041  0.442118  1
  Co  Co19  1  0.855801  0.851041  0.851041  1
  Sn  Sn20  1  0.734560  0.421813  0.421813  1
  Pd  Pd21  1  0.413304  0.755287  0.415704  1
  Pd  Pd22  1  0.413304  0.415704  0.755287  1
  Pd  Pd23  1  0.413304  0.415704  0.415704  1
  N  N24  1  0.626128  0.124624  0.124624  1
  N  N25  1  0.126593  0.622028  0.125689  1
  N  N26  1  0.126593  0.125689  0.622028  1
  N  N27  1  0.126593  0.125689  0.125689  1
