# generated using pymatgen
data_NdPb6IO7
_symmetry_space_group_name_H-M   'P 1'
_cell_length_a   8.28467600
_cell_length_b   9.66997268
_cell_length_c   9.66997287
_cell_angle_alpha   63.49824692
_cell_angle_beta   90.00000000
_cell_angle_gamma   90.00000000
_symmetry_Int_Tables_number   1
_chemical_formula_structural   NdPb6IO7
_chemical_formula_sum   'Nd2 Pb12 I2 O14'
_cell_volume   693.28306122
_cell_formula_units_Z   2
loop_
 _symmetry_equiv_pos_site_id
 _symmetry_equiv_pos_as_xyz
  1  'x, y, z'
loop_
 _atom_site_type_symbol
 _atom_site_label
 _atom_site_symmetry_multiplicity
 _atom_site_fract_x
 _atom_site_fract_y
 _atom_site_fract_z
 _atom_site_occupancy
  Nd  Nd0  1  0.000000  0.000000  0.000000  1
  Nd  Nd1  1  0.500000  0.000000  0.000000  1
  Pb  Pb2  1  0.250000  0.639904  0.098384  1
  Pb  Pb3  1  0.749999  0.623683  0.171759  1
  Pb  Pb4  1  0.012477  0.229816  0.229816  1
  Pb  Pb5  1  0.487522  0.229816  0.229816  1
  Pb  Pb6  1  0.749999  0.901615  0.360095  1
  Pb  Pb7  1  0.250000  0.828241  0.376317  1
  Pb  Pb8  1  0.749999  0.171759  0.623683  1
  Pb  Pb9  1  0.250000  0.098384  0.639904  1
  Pb  Pb10  1  0.512476  0.770184  0.770184  1
  Pb  Pb11  1  0.987524  0.770184  0.770184  1
  Pb  Pb12  1  0.250000  0.376317  0.828241  1
  Pb  Pb13  1  0.749999  0.360095  0.901615  1
  I  I14  1  0.000000  0.500000  0.500000  1
  I  I15  1  0.500000  0.500000  0.500000  1
  O  O16  1  0.525804  0.728192  0.015302  1
  O  O17  1  0.974196  0.728192  0.015302  1
  O  O18  1  0.250000  0.849730  0.133755  1
  O  O19  1  0.749999  0.866245  0.150270  1
  O  O20  1  0.749999  0.195503  0.195503  1
  O  O21  1  0.025804  0.984699  0.271808  1
  O  O22  1  0.474197  0.984699  0.271808  1
  O  O23  1  0.525804  0.015302  0.728192  1
  O  O24  1  0.974196  0.015302  0.728192  1
  O  O25  1  0.250000  0.804498  0.804498  1
  O  O26  1  0.250000  0.133755  0.849730  1
  O  O27  1  0.749999  0.150270  0.866245  1
  O  O28  1  0.025804  0.271808  0.984699  1
  O  O29  1  0.474197  0.271808  0.984699  1
