# generated using pymatgen
data_Ho4Co4HgBr
_symmetry_space_group_name_H-M   'P 1'
_cell_length_a   3.89084200
_cell_length_b   3.89084285
_cell_length_c   16.33339200
_cell_angle_alpha   90.00000000
_cell_angle_beta   90.00000000
_cell_angle_gamma   119.99999274
_symmetry_Int_Tables_number   1
_chemical_formula_structural   Ho4Co4HgBr
_chemical_formula_sum   'Ho4 Co4 Hg1 Br1'
_cell_volume   214.13829207
_cell_formula_units_Z   1
loop_
 _symmetry_equiv_pos_site_id
 _symmetry_equiv_pos_as_xyz
  1  'x, y, z'
loop_
 _atom_site_type_symbol
 _atom_site_label
 _atom_site_symmetry_multiplicity
 _atom_site_fract_x
 _atom_site_fract_y
 _atom_site_fract_z
 _atom_site_occupancy
  Ho  Ho0  1  0.000000  0.000000  0.112367  1
  Ho  Ho1  1  0.000000  0.000000  0.893309  1
  Ho  Ho2  1  0.000000  0.000000  0.606691  1
  Ho  Ho3  1  0.000000  0.000000  0.387633  1
  Co  Co4  1  0.333333  0.666667  0.501676  1
  Co  Co5  1  0.666667  0.333333  0.500079  1
  Co  Co6  1  0.666667  0.333333  0.999921  1
  Co  Co7  1  0.333333  0.666667  0.998324  1
  Hg  Hg8  1  0.333333  0.666667  0.250000  1
  Br  Br9  1  0.666667  0.333333  0.750000  1
