# generated using pymatgen
data_Pr19Sc(Ga2Sn)4
_symmetry_space_group_name_H-M   'P 1'
_cell_length_a   8.05869100
_cell_length_b   8.05869100
_cell_length_c   14.80911400
_cell_angle_alpha   90.00000000
_cell_angle_beta   90.00000000
_cell_angle_gamma   90.00000000
_symmetry_Int_Tables_number   1
_chemical_formula_structural   Pr19Sc(Ga2Sn)4
_chemical_formula_sum   'Pr19 Sc1 Ga8 Sn4'
_cell_volume   961.74089533
_cell_formula_units_Z   1
loop_
 _symmetry_equiv_pos_site_id
 _symmetry_equiv_pos_as_xyz
  1  'x, y, z'
loop_
 _atom_site_type_symbol
 _atom_site_label
 _atom_site_symmetry_multiplicity
 _atom_site_fract_x
 _atom_site_fract_y
 _atom_site_fract_z
 _atom_site_occupancy
  Pr  Pr0  1  0.825096  0.835129  0.608343  1
  Pr  Pr1  1  0.177545  0.840037  0.106111  1
  Pr  Pr2  1  0.160197  0.821697  0.393721  1
  Pr  Pr3  1  0.839803  0.178303  0.393721  1
  Pr  Pr4  1  0.678303  0.660197  0.393721  1
  Pr  Pr5  1  0.664871  0.325096  0.608343  1
  Pr  Pr6  1  0.335129  0.674904  0.608343  1
  Pr  Pr7  1  0.000000  0.500000  0.224200  1
  Pr  Pr8  1  0.659963  0.677545  0.106111  1
  Pr  Pr9  1  0.677349  0.340785  0.891513  1
  Pr  Pr10  1  0.840785  0.822651  0.891513  1
  Pr  Pr11  1  0.321697  0.339803  0.393721  1
  Pr  Pr12  1  0.174904  0.164871  0.608343  1
  Pr  Pr13  1  0.822455  0.159963  0.106111  1
  Pr  Pr14  1  0.322651  0.659215  0.891513  1
  Pr  Pr15  1  0.340037  0.322455  0.106111  1
  Pr  Pr16  1  0.500000  0.000000  0.275007  1
  Pr  Pr17  1  0.159215  0.177349  0.891513  1
  Pr  Pr18  1  0.500000  0.000000  0.773782  1
  Sc  Sc19  1  0.000000  0.500000  0.729208  1
  Ga  Ga20  1  0.622019  0.378245  0.250139  1
  Ga  Ga21  1  0.120628  0.868306  0.748051  1
  Ga  Ga22  1  0.368306  0.379372  0.748051  1
  Ga  Ga23  1  0.377981  0.621755  0.250139  1
  Ga  Ga24  1  0.878245  0.877981  0.250139  1
  Ga  Ga25  1  0.631694  0.620628  0.748051  1
  Ga  Ga26  1  0.879372  0.131694  0.748051  1
  Ga  Ga27  1  0.121755  0.122019  0.250139  1
  Sn  Sn28  1  0.000000  0.500000  0.512278  1
  Sn  Sn29  1  0.500000  0.000000  0.496841  1
  Sn  Sn30  1  0.500000  0.000000  0.995305  1
  Sn  Sn31  1  0.000000  0.500000  0.001870  1
