# generated using pymatgen
data_Y5Er11Cd4Ni3Os
_symmetry_space_group_name_H-M   'P 1'
_cell_length_a   9.55751856
_cell_length_b   9.55121216
_cell_length_c   9.55189186
_cell_angle_alpha   59.51341125
_cell_angle_beta   59.51361905
_cell_angle_gamma   59.50626013
_symmetry_Int_Tables_number   1
_chemical_formula_structural   Y5Er11Cd4Ni3Os
_chemical_formula_sum   'Y5 Er11 Cd4 Ni3 Os1'
_cell_volume   609.70872703
_cell_formula_units_Z   1
loop_
 _symmetry_equiv_pos_site_id
 _symmetry_equiv_pos_as_xyz
  1  'x, y, z'
loop_
 _atom_site_type_symbol
 _atom_site_label
 _atom_site_symmetry_multiplicity
 _atom_site_fract_x
 _atom_site_fract_y
 _atom_site_fract_z
 _atom_site_occupancy
  Y  Y0  1  0.805819  0.190200  0.190234  1
  Y  Y1  1  0.816105  0.185438  0.814962  1
  Y  Y2  1  0.189698  0.806589  0.189214  1
  Y  Y3  1  0.816125  0.814888  0.185453  1
  Y  Y4  1  0.189717  0.189197  0.806579  1
  Er  Er5  1  0.596783  0.597348  0.597280  1
  Er  Er6  1  0.600834  0.601218  0.205019  1
  Er  Er7  1  0.600818  0.205154  0.601242  1
  Er  Er8  1  0.204715  0.601309  0.601288  1
  Er  Er9  1  0.060779  0.437594  0.437643  1
  Er  Er10  1  0.435808  0.061769  0.061725  1
  Er  Er11  1  0.436963  0.060601  0.438134  1
  Er  Er12  1  0.062167  0.435987  0.061584  1
  Er  Er13  1  0.436967  0.438093  0.060703  1
  Er  Er14  1  0.062179  0.061583  0.436003  1
  Er  Er15  1  0.187422  0.814220  0.814385  1
  Cd  Cd16  1  0.830401  0.829691  0.829655  1
  Cd  Cd17  1  0.829366  0.829686  0.506938  1
  Cd  Cd18  1  0.829376  0.506954  0.829672  1
  Cd  Cd19  1  0.505862  0.829747  0.829753  1
  Ni  Ni20  1  0.391580  0.392269  0.825411  1
  Ni  Ni21  1  0.391625  0.825254  0.392037  1
  Ni  Ni22  1  0.825555  0.391918  0.391718  1
  Os  Os23  1  0.393333  0.393292  0.393366  1
