# generated using pymatgen
data_Ta8MnPbS16
_symmetry_space_group_name_H-M   'P 1'
_cell_length_a   6.71060300
_cell_length_b   6.71060267
_cell_length_c   13.78087400
_cell_angle_alpha   90.00000000
_cell_angle_beta   90.00000000
_cell_angle_gamma   120.00000657
_symmetry_Int_Tables_number   1
_chemical_formula_structural   Ta8MnPbS16
_chemical_formula_sum   'Ta8 Mn1 Pb1 S16'
_cell_volume   537.44055712
_cell_formula_units_Z   1
loop_
 _symmetry_equiv_pos_site_id
 _symmetry_equiv_pos_as_xyz
  1  'x, y, z'
loop_
 _atom_site_type_symbol
 _atom_site_label
 _atom_site_symmetry_multiplicity
 _atom_site_fract_x
 _atom_site_fract_y
 _atom_site_fract_z
 _atom_site_occupancy
  Ta  Ta0  1  0.504985  0.495015  0.769643  1
  Ta  Ta1  1  0.009968  0.504985  0.230357  1
  Ta  Ta2  1  0.495015  0.990032  0.230357  1
  Ta  Ta3  1  0.504985  0.009968  0.769643  1
  Ta  Ta4  1  0.990032  0.495015  0.769643  1
  Ta  Ta5  1  0.495015  0.504985  0.230357  1
  Ta  Ta6  1  0.000000  0.000000  0.770105  1
  Ta  Ta7  1  0.000000  0.000000  0.229895  1
  Mn  Mn8  1  0.000000  0.000000  0.000000  1
  Pb  Pb9  1  0.000000  0.000000  0.500000  1
  S  S10  1  0.831562  0.168438  0.342174  1
  S  S11  1  0.831562  0.663123  0.342174  1
  S  S12  1  0.336877  0.168438  0.342174  1
  S  S13  1  0.664387  0.832193  0.882248  1
  S  S14  1  0.168438  0.336877  0.657826  1
  S  S15  1  0.167807  0.832193  0.882248  1
  S  S16  1  0.167807  0.335613  0.882248  1
  S  S17  1  0.832193  0.167807  0.117752  1
  S  S18  1  0.335613  0.167807  0.117752  1
  S  S19  1  0.663123  0.831562  0.657826  1
  S  S20  1  0.333333  0.666667  0.115875  1
  S  S21  1  0.666667  0.333333  0.653452  1
  S  S22  1  0.666667  0.333333  0.884125  1
  S  S23  1  0.333333  0.666667  0.346548  1
  S  S24  1  0.832193  0.664387  0.117752  1
  S  S25  1  0.168438  0.831562  0.657826  1
