# generated using pymatgen
data_Tm4CdGa2Os
_symmetry_space_group_name_H-M   'P 1'
_cell_length_a   7.19908200
_cell_length_b   6.89059900
_cell_length_c   7.20249700
_cell_angle_alpha   90.00000000
_cell_angle_beta   89.99978511
_cell_angle_gamma   90.00000000
_symmetry_Int_Tables_number   1
_chemical_formula_structural   Tm4CdGa2Os
_chemical_formula_sum   'Tm8 Cd2 Ga4 Os2'
_cell_volume   357.28697421
_cell_formula_units_Z   2
loop_
 _symmetry_equiv_pos_site_id
 _symmetry_equiv_pos_as_xyz
  1  'x, y, z'
loop_
 _atom_site_type_symbol
 _atom_site_label
 _atom_site_symmetry_multiplicity
 _atom_site_fract_x
 _atom_site_fract_y
 _atom_site_fract_z
 _atom_site_occupancy
  Tm  Tm0  1  0.768169  0.500506  0.268207  1
  Tm  Tm1  1  0.768169  0.999494  0.268207  1
  Tm  Tm2  1  0.231829  0.000508  0.268210  1
  Tm  Tm3  1  0.231829  0.499492  0.268210  1
  Tm  Tm4  1  0.768171  0.500507  0.731790  1
  Tm  Tm5  1  0.768171  0.999493  0.731790  1
  Tm  Tm6  1  0.231829  0.000507  0.731792  1
  Tm  Tm7  1  0.231829  0.499493  0.731792  1
  Cd  Cd8  1  0.500680  0.250000  0.000000  1
  Cd  Cd9  1  0.499321  0.750000  0.000000  1
  Ga  Ga10  1  0.999086  0.250000  0.999999  1
  Ga  Ga11  1  0.000913  0.750000  0.000001  1
  Ga  Ga12  1  0.498878  0.750000  0.499998  1
  Ga  Ga13  1  0.501122  0.250000  0.500001  1
  Os  Os14  1  0.999381  0.250000  0.500001  1
  Os  Os15  1  0.000620  0.750000  0.499999  1
