# generated using pymatgen
data_Dy6Ni18As11P
_symmetry_space_group_name_H-M   'P 1'
_cell_length_a   3.88546000
_cell_length_b   10.83143200
_cell_length_c   12.68547000
_cell_angle_alpha   90.00000000
_cell_angle_beta   90.00000000
_cell_angle_gamma   90.00000000
_symmetry_Int_Tables_number   1
_chemical_formula_structural   Dy6Ni18As11P
_chemical_formula_sum   'Dy6 Ni18 As11 P1'
_cell_volume   533.86921995
_cell_formula_units_Z   1
loop_
 _symmetry_equiv_pos_site_id
 _symmetry_equiv_pos_as_xyz
  1  'x, y, z'
loop_
 _atom_site_type_symbol
 _atom_site_label
 _atom_site_symmetry_multiplicity
 _atom_site_fract_x
 _atom_site_fract_y
 _atom_site_fract_z
 _atom_site_occupancy
  Dy  Dy0  1  0.000000  0.500000  0.524420  1
  Dy  Dy1  1  0.500000  0.000000  0.476833  1
  Dy  Dy2  1  0.500000  0.815369  0.206003  1
  Dy  Dy3  1  0.500000  0.184631  0.206003  1
  Dy  Dy4  1  0.000000  0.679393  0.795579  1
  Dy  Dy5  1  0.000000  0.320607  0.795579  1
  Ni  Ni6  1  0.500000  0.500000  0.155883  1
  Ni  Ni7  1  0.000000  0.000000  0.844331  1
  Ni  Ni8  1  0.500000  0.500000  0.707702  1
  Ni  Ni9  1  0.000000  0.000000  0.300979  1
  Ni  Ni10  1  0.000000  0.500000  0.974472  1
  Ni  Ni11  1  0.500000  0.000000  0.017361  1
  Ni  Ni12  1  0.500000  0.339275  0.992631  1
  Ni  Ni13  1  0.500000  0.660725  0.992631  1
  Ni  Ni14  1  0.000000  0.167980  0.002857  1
  Ni  Ni15  1  0.000000  0.832020  0.002857  1
  Ni  Ni16  1  0.500000  0.303533  0.427047  1
  Ni  Ni17  1  0.500000  0.696467  0.427047  1
  Ni  Ni18  1  0.000000  0.197657  0.574226  1
  Ni  Ni19  1  0.000000  0.802343  0.574226  1
  Ni  Ni20  1  0.500000  0.879346  0.707358  1
  Ni  Ni21  1  0.500000  0.120654  0.707358  1
  Ni  Ni22  1  0.000000  0.620184  0.292327  1
  Ni  Ni23  1  0.000000  0.379816  0.292327  1
  As  As24  1  0.000000  0.000000  0.123563  1
  As  As25  1  0.500000  0.500000  0.345058  1
  As  As26  1  0.000000  0.000000  0.655228  1
  As  As27  1  0.500000  0.316334  0.615041  1
  As  As28  1  0.500000  0.683666  0.615041  1
  As  As29  1  0.000000  0.185790  0.386670  1
  As  As30  1  0.000000  0.814210  0.386670  1
  As  As31  1  0.500000  0.846204  0.890401  1
  As  As32  1  0.500000  0.153796  0.890401  1
  As  As33  1  0.000000  0.650709  0.107854  1
  As  As34  1  0.000000  0.349291  0.107854  1
  P  P35  1  0.500000  0.500000  0.878176  1
