# generated using pymatgen
data_HoLu7Ti11Si16W
_symmetry_space_group_name_H-M   'P 1'
_cell_length_a   6.97074693
_cell_length_b   6.97219473
_cell_length_c   12.80687317
_cell_angle_alpha   89.93916412
_cell_angle_beta   90.04138676
_cell_angle_gamma   90.02095004
_symmetry_Int_Tables_number   1
_chemical_formula_structural   HoLu7Ti11Si16W
_chemical_formula_sum   'Ho1 Lu7 Ti11 Si16 W1'
_cell_volume   622.43147478
_cell_formula_units_Z   1
loop_
 _symmetry_equiv_pos_site_id
 _symmetry_equiv_pos_as_xyz
  1  'x, y, z'
loop_
 _atom_site_type_symbol
 _atom_site_label
 _atom_site_symmetry_multiplicity
 _atom_site_fract_x
 _atom_site_fract_y
 _atom_site_fract_z
 _atom_site_occupancy
  Ho  Ho0  1  0.997792  0.658335  0.032808  1
  Lu  Lu1  1  0.341024  0.002499  0.467030  1
  Lu  Lu2  1  0.497611  0.840371  0.717487  1
  Lu  Lu3  1  0.500483  0.159053  0.215927  1
  Lu  Lu4  1  0.840380  0.497584  0.282572  1
  Lu  Lu5  1  0.159311  0.500404  0.784168  1
  Lu  Lu6  1  0.657375  0.999244  0.967170  1
  Lu  Lu7  1  0.002566  0.341034  0.532757  1
  Ti  Ti8  1  0.173781  0.827574  0.249718  1
  Ti  Ti9  1  0.827308  0.173743  0.750385  1
  Ti  Ti10  1  0.672998  0.673102  0.499926  1
  Ti  Ti11  1  0.153293  0.007846  0.876014  1
  Ti  Ti12  1  0.492690  0.651017  0.124444  1
  Ti  Ti13  1  0.506257  0.349548  0.626124  1
  Ti  Ti14  1  0.650807  0.492273  0.875455  1
  Ti  Ti15  1  0.349656  0.506375  0.373941  1
  Ti  Ti16  1  0.848858  0.993432  0.375731  1
  Ti  Ti17  1  0.007960  0.153293  0.123905  1
  Ti  Ti18  1  0.993310  0.848895  0.624239  1
  Si  Si19  1  0.202970  0.132352  0.682942  1
  Si  Si20  1  0.369327  0.701899  0.932491  1
  Si  Si21  1  0.632420  0.296786  0.432862  1
  Si  Si22  1  0.700644  0.366911  0.067088  1
  Si  Si23  1  0.296971  0.632463  0.567083  1
  Si  Si24  1  0.796291  0.869106  0.183940  1
  Si  Si25  1  0.132346  0.202670  0.317052  1
  Si  Si26  1  0.867649  0.797411  0.816614  1
  Si  Si27  1  0.293431  0.954951  0.064961  1
  Si  Si28  1  0.545811  0.793803  0.314921  1
  Si  Si29  1  0.453298  0.206247  0.815438  1
  Si  Si30  1  0.793704  0.546161  0.685056  1
  Si  Si31  1  0.207195  0.452386  0.185136  1
  Si  Si32  1  0.706747  0.046956  0.565051  1
  Si  Si33  1  0.953753  0.291125  0.934847  1
  Si  Si34  1  0.046908  0.706884  0.434779  1
  W  W35  1  0.327077  0.326267  0.999937  1
