# generated using pymatgen
data_ThAl10TcRh
_symmetry_space_group_name_H-M   'P 1'
_cell_length_a   6.90434238
_cell_length_b   6.91623340
_cell_length_c   9.23079400
_cell_angle_alpha   90.00000000
_cell_angle_beta   90.00000000
_cell_angle_gamma   97.34466458
_symmetry_Int_Tables_number   1
_chemical_formula_structural   ThAl10TcRh
_chemical_formula_sum   'Th2 Al20 Tc2 Rh2'
_cell_volume   437.17263858
_cell_formula_units_Z   2
loop_
 _symmetry_equiv_pos_site_id
 _symmetry_equiv_pos_as_xyz
  1  'x, y, z'
loop_
 _atom_site_type_symbol
 _atom_site_label
 _atom_site_symmetry_multiplicity
 _atom_site_fract_x
 _atom_site_fract_y
 _atom_site_fract_z
 _atom_site_occupancy
  Th  Th0  1  0.865042  0.117528  0.750000  1
  Th  Th1  1  0.134958  0.882472  0.250000  1
  Al  Al2  1  0.514034  0.775230  0.750000  1
  Al  Al3  1  0.485966  0.224770  0.250000  1
  Al  Al4  1  0.596112  0.861784  0.250000  1
  Al  Al5  1  0.774357  0.774533  0.998477  1
  Al  Al6  1  0.158016  0.839846  0.603060  1
  Al  Al7  1  0.225643  0.225467  0.001523  1
  Al  Al8  1  0.141136  0.408655  0.250000  1
  Al  Al9  1  0.619956  0.376017  0.949981  1
  Al  Al10  1  0.841984  0.160154  0.103060  1
  Al  Al11  1  0.380044  0.623983  0.449981  1
  Al  Al12  1  0.158016  0.839846  0.896940  1
  Al  Al13  1  0.221996  0.480785  0.750000  1
  Al  Al14  1  0.380044  0.623983  0.050019  1
  Al  Al15  1  0.841984  0.160154  0.396940  1
  Al  Al16  1  0.619956  0.376017  0.550019  1
  Al  Al17  1  0.403888  0.138216  0.750000  1
  Al  Al18  1  0.778004  0.519215  0.250000  1
  Al  Al19  1  0.774357  0.774533  0.501523  1
  Al  Al20  1  0.225643  0.225467  0.498477  1
  Al  Al21  1  0.858864  0.591345  0.750000  1
  Tc  Tc22  1  0.500000  0.000000  0.000000  1
  Tc  Tc23  1  0.500000  0.000000  0.500000  1
  Rh  Rh24  1  0.000000  0.500000  0.500000  1
  Rh  Rh25  1  0.000000  0.500000  0.000000  1
