# generated using pymatgen
data_Dy2TlIn3(TeO6)3
_symmetry_space_group_name_H-M   'P 1'
_cell_length_a   9.10308700
_cell_length_b   9.08138813
_cell_length_c   5.09638767
_cell_angle_alpha   90.05111684
_cell_angle_beta   90.00000000
_cell_angle_gamma   120.07908244
_symmetry_Int_Tables_number   1
_chemical_formula_structural   Dy2TlIn3(TeO6)3
_chemical_formula_sum   'Dy2 Tl1 In3 Te3 O18'
_cell_volume   364.57522547
_cell_formula_units_Z   1
loop_
 _symmetry_equiv_pos_site_id
 _symmetry_equiv_pos_as_xyz
  1  'x, y, z'
loop_
 _atom_site_type_symbol
 _atom_site_label
 _atom_site_symmetry_multiplicity
 _atom_site_fract_x
 _atom_site_fract_y
 _atom_site_fract_z
 _atom_site_occupancy
  Dy  Dy0  1  0.000359  0.622019  0.999768  1
  Dy  Dy1  1  0.378341  0.377981  0.000232  1
  Tl  Tl2  1  0.623834  0.000000  0.000000  1
  In  In3  1  0.287686  0.000000  0.500000  1
  In  In4  1  0.001138  0.289621  0.501441  1
  In  In5  1  0.711517  0.710379  0.498559  1
  Te  Te6  1  0.999370  0.000000  0.000000  1
  Te  Te7  1  0.333767  0.667069  0.502956  1
  Te  Te8  1  0.666700  0.332931  0.497044  1
  O  O9  1  0.087256  0.882976  0.786299  1
  O  O10  1  0.117332  0.205331  0.786876  1
  O  O11  1  0.796979  0.912075  0.781268  1
  O  O12  1  0.204281  0.117024  0.213701  1
  O  O13  1  0.912001  0.794669  0.213124  1
  O  O14  1  0.884903  0.087925  0.218732  1
  O  O15  1  0.461148  0.592385  0.716532  1
  O  O16  1  0.403346  0.869085  0.722704  1
  O  O17  1  0.132828  0.538976  0.720403  1
  O  O18  1  0.868762  0.407615  0.283468  1
  O  O19  1  0.534260  0.130915  0.277296  1
  O  O20  1  0.593852  0.461024  0.279597  1
  O  O21  1  0.224008  0.763420  0.290172  1
  O  O22  1  0.235576  0.461603  0.285057  1
  O  O23  1  0.539041  0.771889  0.283517  1
  O  O24  1  0.460588  0.236580  0.709828  1
  O  O25  1  0.773973  0.538397  0.714943  1
  O  O26  1  0.767152  0.228111  0.716483  1
