# generated using pymatgen
data_Pr2U2Si10OsPt5
_symmetry_space_group_name_H-M   'P 1'
_cell_length_a   8.21376168
_cell_length_b   8.20456980
_cell_length_c   6.04433410
_cell_angle_alpha   68.54023044
_cell_angle_beta   68.50896370
_cell_angle_gamma   89.81172177
_symmetry_Int_Tables_number   1
_chemical_formula_structural   Pr2U2Si10OsPt5
_chemical_formula_sum   'Pr2 U2 Si10 Os1 Pt5'
_cell_volume   348.69181855
_cell_formula_units_Z   1
loop_
 _symmetry_equiv_pos_site_id
 _symmetry_equiv_pos_as_xyz
  1  'x, y, z'
loop_
 _atom_site_type_symbol
 _atom_site_label
 _atom_site_symmetry_multiplicity
 _atom_site_fract_x
 _atom_site_fract_y
 _atom_site_fract_z
 _atom_site_occupancy
  Pr  Pr0  1  0.861016  0.601351  0.768498  1
  Pr  Pr1  1  0.398394  0.139058  0.731405  1
  U  U2  1  0.137623  0.401004  0.228686  1
  U  U3  1  0.599201  0.862636  0.272447  1
  Si  Si4  1  0.039773  0.261062  0.854470  1
  Si  Si5  1  0.738835  0.960211  0.646338  1
  Si  Si6  1  0.960114  0.738580  0.155740  1
  Si  Si7  1  0.261017  0.040196  0.344540  1
  Si  Si8  1  0.231691  0.768197  0.749874  1
  Si  Si9  1  0.778621  0.221027  0.250350  1
  Si  Si10  1  0.496929  0.503895  0.748789  1
  Si  Si11  1  0.497287  0.503282  0.249792  1
  Si  Si12  1  0.774799  0.225334  0.749733  1
  Si  Si13  1  0.224249  0.776408  0.249830  1
  Os  Os14  1  0.999577  0.000278  0.249815  1
  Pt  Pt15  1  0.251166  0.525357  0.607258  1
  Pt  Pt16  1  0.474044  0.748553  0.892481  1
  Pt  Pt17  1  0.746982  0.472470  0.388591  1
  Pt  Pt18  1  0.527534  0.253432  0.110582  1
  Pt  Pt19  1  0.001149  0.997668  0.750780  1
