# generated using pymatgen
data_La4As7Rh8
_symmetry_space_group_name_H-M   'P 1'
_cell_length_a   4.13716200
_cell_length_b   13.20890297
_cell_length_c   13.62555800
_cell_angle_alpha   81.68249621
_cell_angle_beta   90.00000000
_cell_angle_gamma   90.00000000
_symmetry_Int_Tables_number   1
_chemical_formula_structural   La4As7Rh8
_chemical_formula_sum   'La8 As14 Rh16'
_cell_volume   736.76894983
_cell_formula_units_Z   2
loop_
 _symmetry_equiv_pos_site_id
 _symmetry_equiv_pos_as_xyz
  1  'x, y, z'
loop_
 _atom_site_type_symbol
 _atom_site_label
 _atom_site_symmetry_multiplicity
 _atom_site_fract_x
 _atom_site_fract_y
 _atom_site_fract_z
 _atom_site_occupancy
  La  La0  1  0.250000  0.101649  0.790669  1
  La  La1  1  0.750000  0.898351  0.209331  1
  La  La2  1  0.250000  0.283160  0.102747  1
  La  La3  1  0.750000  0.716840  0.897253  1
  La  La4  1  0.250000  0.518073  0.291166  1
  La  La5  1  0.750000  0.481927  0.708834  1
  La  La6  1  0.250000  0.208899  0.437250  1
  La  La7  1  0.750000  0.791101  0.562750  1
  As  As8  1  0.250000  0.053745  0.099971  1
  As  As9  1  0.750000  0.946255  0.900029  1
  As  As10  1  0.250000  0.313262  0.687657  1
  As  As11  1  0.750000  0.686738  0.312343  1
  As  As12  1  0.250000  0.606868  0.564819  1
  As  As13  1  0.750000  0.393132  0.435181  1
  As  As14  1  0.250000  0.848051  0.721643  1
  As  As15  1  0.750000  0.151949  0.278357  1
  As  As16  1  0.750000  0.257710  0.920134  1
  As  As17  1  0.250000  0.742290  0.079866  1
  As  As18  1  0.750000  0.094158  0.587160  1
  As  As19  1  0.250000  0.905842  0.412840  1
  As  As20  1  0.750000  0.471964  0.127218  1
  As  As21  1  0.250000  0.528036  0.872782  1
  Rh  Rh22  1  0.250000  0.987953  0.574169  1
  Rh  Rh23  1  0.750000  0.012047  0.425831  1
  Rh  Rh24  1  0.250000  0.665075  0.731807  1
  Rh  Rh25  1  0.750000  0.334925  0.268193  1
  Rh  Rh26  1  0.250000  0.553885  0.046806  1
  Rh  Rh27  1  0.750000  0.446115  0.953194  1
  Rh  Rh28  1  0.250000  0.054091  0.279104  1
  Rh  Rh29  1  0.750000  0.945909  0.720896  1
  Rh  Rh30  1  0.250000  0.425995  0.527023  1
  Rh  Rh31  1  0.750000  0.574005  0.472977  1
  Rh  Rh32  1  0.250000  0.918314  0.996493  1
  Rh  Rh33  1  0.750000  0.081686  0.003507  1
  Rh  Rh34  1  0.250000  0.721443  0.400633  1
  Rh  Rh35  1  0.750000  0.278557  0.599367  1
  Rh  Rh36  1  0.250000  0.343277  0.861738  1
  Rh  Rh37  1  0.750000  0.656723  0.138262  1
