# generated using pymatgen
data_Hf6Zr5UTc12
_symmetry_space_group_name_H-M   'P 1'
_cell_length_a   4.57051700
_cell_length_b   6.51833900
_cell_length_c   13.82829900
_cell_angle_alpha   90.00000000
_cell_angle_beta   89.99974928
_cell_angle_gamma   90.00000000
_symmetry_Int_Tables_number   1
_chemical_formula_structural   Hf6Zr5UTc12
_chemical_formula_sum   'Hf6 Zr5 U1 Tc12'
_cell_volume   411.97516199
_cell_formula_units_Z   1
loop_
 _symmetry_equiv_pos_site_id
 _symmetry_equiv_pos_as_xyz
  1  'x, y, z'
loop_
 _atom_site_type_symbol
 _atom_site_label
 _atom_site_symmetry_multiplicity
 _atom_site_fract_x
 _atom_site_fract_y
 _atom_site_fract_z
 _atom_site_occupancy
  Hf  Hf0  1  0.000000  0.000000  0.000000  1
  Hf  Hf1  1  0.499998  0.500001  0.172874  1
  Hf  Hf2  1  0.999998  0.000000  0.333721  1
  Hf  Hf3  1  0.500000  0.500001  0.500000  1
  Hf  Hf4  1  0.000002  0.000000  0.666279  1
  Hf  Hf5  1  0.500002  0.500001  0.827126  1
  Zr  Zr6  1  0.499996  0.000000  0.167747  1
  Zr  Zr7  1  0.999998  0.500001  0.335306  1
  Zr  Zr8  1  0.500000  0.000000  0.500000  1
  Zr  Zr9  1  0.000002  0.500001  0.664695  1
  Zr  Zr10  1  0.500004  0.000000  0.832253  1
  U  U11  1  0.000000  0.500001  0.000000  1
  Tc  Tc12  1  0.500000  0.262384  0.000000  1
  Tc  Tc13  1  0.500000  0.737616  0.000000  1
  Tc  Tc14  1  0.999997  0.258725  0.158392  1
  Tc  Tc15  1  0.999997  0.741275  0.158392  1
  Tc  Tc16  1  0.499998  0.247982  0.331956  1
  Tc  Tc17  1  0.499998  0.752018  0.331956  1
  Tc  Tc18  1  0.000000  0.249477  0.500000  1
  Tc  Tc19  1  0.000000  0.750523  0.500000  1
  Tc  Tc20  1  0.500002  0.247982  0.668045  1
  Tc  Tc21  1  0.500002  0.752018  0.668045  1
  Tc  Tc22  1  0.000003  0.258725  0.841608  1
  Tc  Tc23  1  0.000003  0.741275  0.841608  1
