# generated using pymatgen
data_Tm15Lu5(Ir2Os)4
_symmetry_space_group_name_H-M   'P 1'
_cell_length_a   10.69321504
_cell_length_b   10.69503401
_cell_length_c   6.32715203
_cell_angle_alpha   89.99712429
_cell_angle_beta   89.99015497
_cell_angle_gamma   89.99672097
_symmetry_Int_Tables_number   1
_chemical_formula_structural   Tm15Lu5(Ir2Os)4
_chemical_formula_sum   'Tm15 Lu5 Ir8 Os4'
_cell_volume   723.60029039
_cell_formula_units_Z   1
loop_
 _symmetry_equiv_pos_site_id
 _symmetry_equiv_pos_as_xyz
  1  'x, y, z'
loop_
 _atom_site_type_symbol
 _atom_site_label
 _atom_site_symmetry_multiplicity
 _atom_site_fract_x
 _atom_site_fract_y
 _atom_site_fract_z
 _atom_site_occupancy
  Tm  Tm0  1  0.293347  0.913987  0.876066  1
  Tm  Tm1  1  0.706622  0.086120  0.876054  1
  Tm  Tm2  1  0.706609  0.913893  0.376129  1
  Tm  Tm3  1  0.586104  0.793335  0.876073  1
  Tm  Tm4  1  0.585988  0.206568  0.376035  1
  Tm  Tm5  1  0.413755  0.793523  0.376044  1
  Tm  Tm6  1  0.413774  0.206602  0.876101  1
  Tm  Tm7  1  0.206687  0.413827  0.623898  1
  Tm  Tm8  1  0.206686  0.586166  0.123909  1
  Tm  Tm9  1  0.793326  0.413851  0.123912  1
  Tm  Tm10  1  0.793304  0.586119  0.623922  1
  Tm  Tm11  1  0.913892  0.706675  0.123864  1
  Tm  Tm12  1  0.913882  0.293376  0.623976  1
  Tm  Tm13  1  0.086155  0.706654  0.623920  1
  Tm  Tm14  1  0.086229  0.293249  0.123984  1
  Lu  Lu15  1  0.293674  0.086032  0.376444  1
  Lu  Lu16  1  0.000202  0.000076  0.499901  1
  Lu  Lu17  1  0.000034  0.000021  0.000080  1
  Lu  Lu18  1  0.499988  0.499980  0.999943  1
  Lu  Lu19  1  0.499937  0.499995  0.500054  1
  Ir  Ir20  1  0.848018  0.152003  0.249968  1
  Ir  Ir21  1  0.848073  0.848040  0.750008  1
  Ir  Ir22  1  0.152117  0.151847  0.749388  1
  Ir  Ir23  1  0.152088  0.848190  0.250105  1
  Ir  Ir24  1  0.651969  0.348009  0.750009  1
  Ir  Ir25  1  0.651966  0.651960  0.250006  1
  Ir  Ir26  1  0.348013  0.347712  0.250167  1
  Ir  Ir27  1  0.348034  0.652008  0.750023  1
  Os  Os28  1  0.499799  0.000102  0.123418  1
  Os  Os29  1  0.499737  0.000094  0.622761  1
  Os  Os30  1  0.999995  0.500001  0.876975  1
  Os  Os31  1  0.999995  0.499986  0.376863  1
