# generated using pymatgen
data_Pr3Nd3Ta2O14
_symmetry_space_group_name_H-M   'P 1'
_cell_length_a   6.70283805
_cell_length_b   6.70736807
_cell_length_c   7.76838400
_cell_angle_alpha   90.00000000
_cell_angle_beta   90.00000000
_cell_angle_gamma   109.62571577
_symmetry_Int_Tables_number   1
_chemical_formula_structural   Pr3Nd3Ta2O14
_chemical_formula_sum   'Pr3 Nd3 Ta2 O14'
_cell_volume   328.96483967
_cell_formula_units_Z   1
loop_
 _symmetry_equiv_pos_site_id
 _symmetry_equiv_pos_as_xyz
  1  'x, y, z'
loop_
 _atom_site_type_symbol
 _atom_site_label
 _atom_site_symmetry_multiplicity
 _atom_site_fract_x
 _atom_site_fract_y
 _atom_site_fract_z
 _atom_site_occupancy
  Pr  Pr0  1  0.499643  0.499832  0.500308  1
  Pr  Pr1  1  0.499643  0.499832  0.999692  1
  Pr  Pr2  1  0.999045  0.535477  0.250000  1
  Nd  Nd3  1  0.000593  0.464737  0.750000  1
  Nd  Nd4  1  0.534991  0.999444  0.750000  1
  Nd  Nd5  1  0.465029  0.000534  0.250000  1
  Ta  Ta6  1  0.000008  0.999952  0.500366  1
  Ta  Ta7  1  0.000008  0.999952  0.999634  1
  O  O8  1  0.942930  0.056709  0.750000  1
  O  O9  1  0.056679  0.944050  0.250000  1
  O  O10  1  0.366069  0.636584  0.250000  1
  O  O11  1  0.636461  0.363422  0.750000  1
  O  O12  1  0.369175  0.630811  0.750000  1
  O  O13  1  0.628144  0.368057  0.250000  1
  O  O14  1  0.312856  0.067455  0.970562  1
  O  O15  1  0.687390  0.932456  0.470602  1
  O  O16  1  0.312856  0.067455  0.529438  1
  O  O17  1  0.687390  0.932456  0.029398  1
  O  O18  1  0.068773  0.312851  0.471953  1
  O  O19  1  0.931772  0.687541  0.969327  1
  O  O20  1  0.931772  0.687541  0.530673  1
  O  O21  1  0.068773  0.312851  0.028047  1
