# generated using pymatgen
data_Rb3SbTe3
_symmetry_space_group_name_H-M   'P 1'
_cell_length_a   11.03157500
_cell_length_b   11.03157500
_cell_length_c   11.03157500
_cell_angle_alpha   90.00000000
_cell_angle_beta   90.00000000
_cell_angle_gamma   90.00000000
_symmetry_Int_Tables_number   1
_chemical_formula_structural   Rb3SbTe3
_chemical_formula_sum   'Rb12 Sb4 Te12'
_cell_volume   1342.49465684
_cell_formula_units_Z   4
loop_
 _symmetry_equiv_pos_site_id
 _symmetry_equiv_pos_as_xyz
  1  'x, y, z'
loop_
 _atom_site_type_symbol
 _atom_site_label
 _atom_site_symmetry_multiplicity
 _atom_site_fract_x
 _atom_site_fract_y
 _atom_site_fract_z
 _atom_site_occupancy
  Rb  Rb0  1  0.818248  0.181752  0.681752  1
  Rb  Rb1  1  0.186616  0.313384  0.686616  1
  Rb  Rb2  1  0.313384  0.686616  0.186616  1
  Rb  Rb3  1  0.686616  0.186616  0.313384  1
  Rb  Rb4  1  0.813384  0.813384  0.813384  1
  Rb  Rb5  1  0.421620  0.078380  0.921620  1
  Rb  Rb6  1  0.078380  0.921620  0.421620  1
  Rb  Rb7  1  0.921620  0.421620  0.078380  1
  Rb  Rb8  1  0.578380  0.578380  0.578380  1
  Rb  Rb9  1  0.681752  0.818248  0.181752  1
  Rb  Rb10  1  0.181752  0.681752  0.818248  1
  Rb  Rb11  1  0.318248  0.318248  0.318248  1
  Sb  Sb12  1  0.024660  0.024660  0.024660  1
  Sb  Sb13  1  0.475340  0.975340  0.524660  1
  Sb  Sb14  1  0.524660  0.475340  0.975340  1
  Sb  Sb15  1  0.975340  0.524660  0.475340  1
  Te  Te16  1  0.218663  0.603096  0.496601  1
  Te  Te17  1  0.781337  0.103096  0.003399  1
  Te  Te18  1  0.996601  0.281337  0.396904  1
  Te  Te19  1  0.718663  0.896904  0.503399  1
  Te  Te20  1  0.103096  0.003399  0.781337  1
  Te  Te21  1  0.503399  0.718663  0.896904  1
  Te  Te22  1  0.003399  0.781337  0.103096  1
  Te  Te23  1  0.396904  0.996601  0.281337  1
  Te  Te24  1  0.496601  0.218663  0.603096  1
  Te  Te25  1  0.896904  0.503399  0.718663  1
  Te  Te26  1  0.603096  0.496601  0.218663  1
  Te  Te27  1  0.281337  0.396904  0.996601  1
