# generated using pymatgen
data_TaZn3(CuPd2)4
_symmetry_space_group_name_H-M   'P 1'
_cell_length_a   5.67397000
_cell_length_b   5.66912700
_cell_length_c   7.13043900
_cell_angle_alpha   90.00024181
_cell_angle_beta   90.00006819
_cell_angle_gamma   89.99921202
_symmetry_Int_Tables_number   1
_chemical_formula_structural   TaZn3(CuPd2)4
_chemical_formula_sum   'Ta1 Zn3 Cu4 Pd8'
_cell_volume   229.36095608
_cell_formula_units_Z   1
loop_
 _symmetry_equiv_pos_site_id
 _symmetry_equiv_pos_as_xyz
  1  'x, y, z'
loop_
 _atom_site_type_symbol
 _atom_site_label
 _atom_site_symmetry_multiplicity
 _atom_site_fract_x
 _atom_site_fract_y
 _atom_site_fract_z
 _atom_site_occupancy
  Ta  Ta0  1  0.749975  0.250000  0.000000  1
  Zn  Zn1  1  0.250033  0.750001  0.999999  1
  Zn  Zn2  1  0.249955  0.749999  0.500000  1
  Zn  Zn3  1  0.750024  0.250000  0.499999  1
  Cu  Cu4  1  0.250282  0.250005  0.999999  1
  Cu  Cu5  1  0.749912  0.750000  0.000000  1
  Cu  Cu6  1  0.750166  0.750000  0.500002  1
  Cu  Cu7  1  0.249696  0.250000  0.499998  1
  Pd  Pd8  1  0.499989  0.999987  0.249808  1
  Pd  Pd9  1  0.499986  0.500019  0.249807  1
  Pd  Pd10  1  0.000008  0.999980  0.249732  1
  Pd  Pd11  1  0.000005  0.500016  0.249733  1
  Pd  Pd12  1  0.000002  0.999982  0.750267  1
  Pd  Pd13  1  0.999998  0.500018  0.750265  1
  Pd  Pd14  1  0.499984  0.999984  0.750194  1
  Pd  Pd15  1  0.499983  0.500015  0.750194  1
