# generated using pymatgen
data_Yb2Th2Al24PdPt8
_symmetry_space_group_name_H-M   'P 1'
_cell_length_a   7.54780876
_cell_length_b   7.58386506
_cell_length_c   13.29977123
_cell_angle_alpha   84.77178422
_cell_angle_beta   100.76915956
_cell_angle_gamma   119.55831926
_symmetry_Int_Tables_number   1
_chemical_formula_structural   Yb2Th2Al24PdPt8
_chemical_formula_sum   'Yb2 Th2 Al24 Pd1 Pt8'
_cell_volume   650.55607762
_cell_formula_units_Z   1
loop_
 _symmetry_equiv_pos_site_id
 _symmetry_equiv_pos_as_xyz
  1  'x, y, z'
loop_
 _atom_site_type_symbol
 _atom_site_label
 _atom_site_symmetry_multiplicity
 _atom_site_fract_x
 _atom_site_fract_y
 _atom_site_fract_z
 _atom_site_occupancy
  Yb  Yb0  1  0.767419  0.501389  0.806825  1
  Yb  Yb1  1  0.232581  0.498611  0.193175  1
  Th  Th2  1  0.436506  0.830842  0.806385  1
  Th  Th3  1  0.563494  0.169158  0.193615  1
  Al  Al4  1  0.480793  0.169362  0.944119  1
  Al  Al5  1  0.519207  0.830638  0.055881  1
  Al  Al6  1  0.021645  0.168030  0.559465  1
  Al  Al7  1  0.978355  0.831970  0.440535  1
  Al  Al8  1  0.354210  0.833006  0.556534  1
  Al  Al9  1  0.645790  0.166994  0.443466  1
  Al  Al10  1  0.618447  0.830148  0.331544  1
  Al  Al11  1  0.381553  0.169852  0.668456  1
  Al  Al12  1  0.051168  0.490176  0.668645  1
  Al  Al13  1  0.948832  0.509824  0.331355  1
  Al  Al14  1  0.734055  0.839180  0.667085  1
  Al  Al15  1  0.265945  0.160820  0.332915  1
  Al  Al16  1  0.145279  0.496923  0.947611  1
  Al  Al17  1  0.854721  0.503077  0.052389  1
  Al  Al18  1  0.819807  0.832789  0.955089  1
  Al  Al19  1  0.180193  0.167211  0.044911  1
  Al  Al20  1  0.313800  0.500533  0.441290  1
  Al  Al21  1  0.686200  0.499467  0.558710  1
  Al  Al22  1  0.099743  0.835097  0.182955  1
  Al  Al23  1  0.900257  0.164903  0.817045  1
  Al  Al24  1  0.304486  0.366656  0.815788  1
  Al  Al25  1  0.695514  0.633344  0.184212  1
  Al  Al26  1  0.101838  0.961371  0.816706  1
  Al  Al27  1  0.898162  0.038629  0.183294  1
  Pd  Pd28  1  0.500000  0.500000  0.000000  1
  Pt  Pt29  1  0.386484  0.507411  0.637830  1
  Pt  Pt30  1  0.613516  0.492589  0.362170  1
  Pt  Pt31  1  0.173350  0.830041  0.999881  1
  Pt  Pt32  1  0.826650  0.169959  0.000119  1
  Pt  Pt33  1  0.295149  0.834662  0.361751  1
  Pt  Pt34  1  0.704851  0.165338  0.638249  1
  Pt  Pt35  1  0.048694  0.826593  0.637288  1
  Pt  Pt36  1  0.951306  0.173407  0.362712  1
