# generated using pymatgen
data_Nb3Al(GaFe3)2
_symmetry_space_group_name_H-M   'P 1'
_cell_length_a   4.19265300
_cell_length_b   5.92743500
_cell_length_c   12.56755700
_cell_angle_alpha   90.00000000
_cell_angle_beta   90.00068357
_cell_angle_gamma   90.00000000
_symmetry_Int_Tables_number   1
_chemical_formula_structural   Nb3Al(GaFe3)2
_chemical_formula_sum   'Nb6 Al2 Ga4 Fe12'
_cell_volume   312.32488150
_cell_formula_units_Z   2
loop_
 _symmetry_equiv_pos_site_id
 _symmetry_equiv_pos_as_xyz
  1  'x, y, z'
loop_
 _atom_site_type_symbol
 _atom_site_label
 _atom_site_symmetry_multiplicity
 _atom_site_fract_x
 _atom_site_fract_y
 _atom_site_fract_z
 _atom_site_occupancy
  Nb  Nb0  1  0.999994  0.000000  0.000459  1
  Nb  Nb1  1  0.500133  0.500001  0.166749  1
  Nb  Nb2  1  0.000118  0.000000  0.333255  1
  Nb  Nb3  1  0.499993  0.500001  0.499541  1
  Nb  Nb4  1  0.999874  0.000000  0.666283  1
  Nb  Nb5  1  0.499858  0.500001  0.833714  1
  Al  Al6  1  0.999819  0.500001  0.666670  1
  Al  Al7  1  0.499822  0.000000  0.833330  1
  Ga  Ga8  1  0.999998  0.500001  0.000020  1
  Ga  Ga9  1  0.500202  0.000000  0.166679  1
  Ga  Ga10  1  0.000203  0.500001  0.333328  1
  Ga  Ga11  1  0.499998  0.000000  0.499975  1
  Fe  Fe12  1  0.499997  0.248832  0.999445  1
  Fe  Fe13  1  0.499997  0.751168  0.999445  1
  Fe  Fe14  1  0.000202  0.250331  0.166727  1
  Fe  Fe15  1  0.000202  0.749668  0.166727  1
  Fe  Fe16  1  0.500194  0.249675  0.333272  1
  Fe  Fe17  1  0.500194  0.750324  0.333272  1
  Fe  Fe18  1  0.999996  0.251170  0.500556  1
  Fe  Fe19  1  0.999996  0.748831  0.500556  1
  Fe  Fe20  1  0.499805  0.250731  0.667257  1
  Fe  Fe21  1  0.499805  0.749268  0.667257  1
  Fe  Fe22  1  0.999800  0.249274  0.832743  1
  Fe  Fe23  1  0.999800  0.750725  0.832743  1
