# generated using pymatgen
data_La8TbErRu4
_symmetry_space_group_name_H-M   'P 1'
_cell_length_a   6.68597065
_cell_length_b   7.26115129
_cell_length_c   9.05938852
_cell_angle_alpha   94.20652966
_cell_angle_beta   111.65443634
_cell_angle_gamma   89.99999440
_symmetry_Int_Tables_number   1
_chemical_formula_structural   La8TbErRu4
_chemical_formula_sum   'La8 Tb1 Er1 Ru4'
_cell_volume   407.49946510
_cell_formula_units_Z   1
loop_
 _symmetry_equiv_pos_site_id
 _symmetry_equiv_pos_as_xyz
  1  'x, y, z'
loop_
 _atom_site_type_symbol
 _atom_site_label
 _atom_site_symmetry_multiplicity
 _atom_site_fract_x
 _atom_site_fract_y
 _atom_site_fract_z
 _atom_site_occupancy
  La  La0  1  0.795352  0.591953  0.818024  1
  La  La1  1  0.977329  0.908047  0.181976  1
  La  La2  1  0.204347  0.406986  0.181760  1
  La  La3  1  0.022588  0.093014  0.818240  1
  La  La4  1  0.208568  0.682555  0.574065  1
  La  La5  1  0.634504  0.817445  0.425935  1
  La  La6  1  0.790949  0.316900  0.424952  1
  La  La7  1  0.365996  0.183100  0.575048  1
  Tb  Tb8  1  0.430286  0.750000  0.000000  1
  Er  Er9  1  0.569042  0.250000  0.000000  1
  Ru  Ru10  1  0.602655  0.922111  0.782219  1
  Ru  Ru11  1  0.820436  0.577889  0.217781  1
  Ru  Ru12  1  0.397877  0.079053  0.217806  1
  Ru  Ru13  1  0.180072  0.420947  0.782194  1
