# generated using pymatgen
data_Eu5AgPd2
_symmetry_space_group_name_H-M   'P 1'
_cell_length_a   9.39555571
_cell_length_b   9.39555580
_cell_length_c   9.39555591
_cell_angle_alpha   128.29089192
_cell_angle_beta   128.29089140
_cell_angle_gamma   76.15427199
_symmetry_Int_Tables_number   1
_chemical_formula_structural   Eu5AgPd2
_chemical_formula_sum   'Eu10 Ag2 Pd4'
_cell_volume   496.65027446
_cell_formula_units_Z   2
loop_
 _symmetry_equiv_pos_site_id
 _symmetry_equiv_pos_as_xyz
  1  'x, y, z'
loop_
 _atom_site_type_symbol
 _atom_site_label
 _atom_site_symmetry_multiplicity
 _atom_site_fract_x
 _atom_site_fract_y
 _atom_site_fract_z
 _atom_site_occupancy
  Eu  Eu0  1  0.470693  0.970693  0.168068  1
  Eu  Eu1  1  0.197376  0.697376  0.168068  1
  Eu  Eu2  1  0.529307  0.029307  0.831932  1
  Eu  Eu3  1  0.029307  0.197376  0.500000  1
  Eu  Eu4  1  0.697376  0.529307  0.500000  1
  Eu  Eu5  1  0.970693  0.802624  0.500000  1
  Eu  Eu6  1  0.000000  0.000000  0.000000  1
  Eu  Eu7  1  0.500000  0.500000  0.000000  1
  Eu  Eu8  1  0.802624  0.302624  0.831932  1
  Eu  Eu9  1  0.302624  0.470693  0.500000  1
  Ag  Ag10  1  0.750000  0.750000  0.000000  1
  Ag  Ag11  1  0.250000  0.250000  0.000000  1
  Pd  Pd12  1  0.129542  0.629542  0.759081  1
  Pd  Pd13  1  0.629542  0.870458  0.500000  1
  Pd  Pd14  1  0.370458  0.129542  0.500000  1
  Pd  Pd15  1  0.870458  0.370458  0.240919  1
