# generated using pymatgen
data_SrGd2(Si3Pd10)2
_symmetry_space_group_name_H-M   'P 1'
_cell_length_a   8.76847020
_cell_length_b   8.76847011
_cell_length_c   8.76847000
_cell_angle_alpha   60.00000041
_cell_angle_beta   60.00000074
_cell_angle_gamma   60.00000234
_symmetry_Int_Tables_number   1
_chemical_formula_structural   SrGd2(Si3Pd10)2
_chemical_formula_sum   'Sr1 Gd2 Si6 Pd20'
_cell_volume   476.71244550
_cell_formula_units_Z   1
loop_
 _symmetry_equiv_pos_site_id
 _symmetry_equiv_pos_as_xyz
  1  'x, y, z'
loop_
 _atom_site_type_symbol
 _atom_site_label
 _atom_site_symmetry_multiplicity
 _atom_site_fract_x
 _atom_site_fract_y
 _atom_site_fract_z
 _atom_site_occupancy
  Sr  Sr0  1  0.000000  0.000000  0.000000  1
  Gd  Gd1  1  0.249882  0.250222  0.249811  1
  Gd  Gd2  1  0.750118  0.749778  0.750189  1
  Si  Si3  1  0.733236  0.266782  0.266778  1
  Si  Si4  1  0.266764  0.733218  0.733222  1
  Si  Si5  1  0.266791  0.733202  0.266805  1
  Si  Si6  1  0.733209  0.266798  0.733195  1
  Si  Si7  1  0.266797  0.266802  0.733213  1
  Si  Si8  1  0.733203  0.733198  0.266787  1
  Pd  Pd9  1  0.384387  0.384478  0.384383  1
  Pd  Pd10  1  0.615613  0.615522  0.615617  1
  Pd  Pd11  1  0.384386  0.384424  0.846809  1
  Pd  Pd12  1  0.384390  0.846753  0.384381  1
  Pd  Pd13  1  0.615614  0.615576  0.153191  1
  Pd  Pd14  1  0.615610  0.153247  0.615619  1
  Pd  Pd15  1  0.846768  0.384426  0.384382  1
  Pd  Pd16  1  0.153232  0.615574  0.615618  1
  Pd  Pd17  1  0.347969  0.000021  0.000071  1
  Pd  Pd18  1  0.652031  0.999979  0.999929  1
  Pd  Pd19  1  0.999921  0.348097  0.652024  1
  Pd  Pd20  1  0.000079  0.651903  0.347976  1
  Pd  Pd21  1  0.000004  0.348095  0.999983  1
  Pd  Pd22  1  0.651953  0.000019  0.348007  1
  Pd  Pd23  1  0.999996  0.651905  0.000017  1
  Pd  Pd24  1  0.348047  0.999981  0.651993  1
  Pd  Pd25  1  0.000070  0.000028  0.347977  1
  Pd  Pd26  1  0.999930  0.999972  0.652023  1
  Pd  Pd27  1  0.652012  0.348102  0.999932  1
  Pd  Pd28  1  0.347988  0.651898  0.000068  1
