# generated using pymatgen
data_LuU3Mn4(Ge2Ru)3
_symmetry_space_group_name_H-M   'P 1'
_cell_length_a   7.10652175
_cell_length_b   7.01361005
_cell_length_c   7.10652124
_cell_angle_alpha   109.18566603
_cell_angle_beta   109.77616376
_cell_angle_gamma   109.18565727
_symmetry_Int_Tables_number   1
_chemical_formula_structural   LuU3Mn4(Ge2Ru)3
_chemical_formula_sum   'Lu1 U3 Mn4 Ge6 Ru3'
_cell_volume   273.55256327
_cell_formula_units_Z   1
loop_
 _symmetry_equiv_pos_site_id
 _symmetry_equiv_pos_as_xyz
  1  'x, y, z'
loop_
 _atom_site_type_symbol
 _atom_site_label
 _atom_site_symmetry_multiplicity
 _atom_site_fract_x
 _atom_site_fract_y
 _atom_site_fract_z
 _atom_site_occupancy
  Lu  Lu0  1  0.998028  0.498463  0.998028  1
  U  U1  1  0.004107  0.007209  0.504491  1
  U  U2  1  0.504491  0.007209  0.004107  1
  U  U3  1  0.504162  0.496038  0.504162  1
  Mn  Mn4  1  0.741876  0.244466  0.485281  1
  Mn  Mn5  1  0.740693  0.495442  0.256841  1
  Mn  Mn6  1  0.485281  0.244466  0.741876  1
  Mn  Mn7  1  0.256841  0.495442  0.740693  1
  Ge  Ge8  1  0.686921  0.677451  0.999197  1
  Ge  Ge9  1  0.312854  0.001577  0.312854  1
  Ge  Ge10  1  0.998414  0.316226  0.314433  1
  Ge  Ge11  1  0.314433  0.316226  0.998414  1
  Ge  Ge12  1  0.691483  0.013085  0.691483  1
  Ge  Ge13  1  0.999197  0.677451  0.686921  1
  Ru  Ru14  1  0.254022  0.755107  0.508925  1
  Ru  Ru15  1  0.508925  0.755107  0.254022  1
  Ru  Ru16  1  0.998272  0.999037  0.998272  1
