# generated using pymatgen
data_Nd2Sm4PtBr10
_symmetry_space_group_name_H-M   'P 1'
_cell_length_a   7.53979884
_cell_length_b   9.48048001
_cell_length_c   9.57982555
_cell_angle_alpha   107.85081142
_cell_angle_beta   96.56441244
_cell_angle_gamma   105.56503803
_symmetry_Int_Tables_number   1
_chemical_formula_structural   Nd2Sm4PtBr10
_chemical_formula_sum   'Nd2 Sm4 Pt1 Br10'
_cell_volume   613.30571560
_cell_formula_units_Z   1
loop_
 _symmetry_equiv_pos_site_id
 _symmetry_equiv_pos_as_xyz
  1  'x, y, z'
loop_
 _atom_site_type_symbol
 _atom_site_label
 _atom_site_symmetry_multiplicity
 _atom_site_fract_x
 _atom_site_fract_y
 _atom_site_fract_z
 _atom_site_occupancy
  Nd  Nd0  1  0.871082  0.952660  0.251282  1
  Nd  Nd1  1  0.128918  0.047340  0.748718  1
  Sm  Sm2  1  0.364127  0.136717  0.177476  1
  Sm  Sm3  1  0.635873  0.863283  0.822524  1
  Sm  Sm4  1  0.969544  0.300904  0.093188  1
  Sm  Sm5  1  0.030456  0.699096  0.906812  1
  Pt  Pt6  1  0.000000  0.000000  0.000000  1
  Br  Br7  1  0.349196  0.450079  0.268155  1
  Br  Br8  1  0.650804  0.549921  0.731845  1
  Br  Br9  1  0.916947  0.630853  0.172389  1
  Br  Br10  1  0.083053  0.369147  0.827611  1
  Br  Br11  1  0.450677  0.823511  0.084151  1
  Br  Br12  1  0.549323  0.176489  0.915849  1
  Br  Br13  1  0.255714  0.083422  0.450482  1
  Br  Br14  1  0.744286  0.916578  0.549518  1
  Br  Br15  1  0.784899  0.257511  0.342814  1
  Br  Br16  1  0.215101  0.742489  0.657186  1
