# generated using pymatgen
data_La2Th2CoNiB20
_symmetry_space_group_name_H-M   'P 1'
_cell_length_a   4.20281300
_cell_length_b   5.65453171
_cell_length_c   11.26261170
_cell_angle_alpha   90.16116702
_cell_angle_beta   90.00000000
_cell_angle_gamma   90.00000000
_symmetry_Int_Tables_number   1
_chemical_formula_structural   La2Th2CoNiB20
_chemical_formula_sum   'La2 Th2 Co1 Ni1 B20'
_cell_volume   267.65422531
_cell_formula_units_Z   1
loop_
 _symmetry_equiv_pos_site_id
 _symmetry_equiv_pos_as_xyz
  1  'x, y, z'
loop_
 _atom_site_type_symbol
 _atom_site_label
 _atom_site_symmetry_multiplicity
 _atom_site_fract_x
 _atom_site_fract_y
 _atom_site_fract_z
 _atom_site_occupancy
  La  La0  1  0.500000  0.306996  0.863812  1
  La  La1  1  0.500000  0.693004  0.136188  1
  Th  Th2  1  0.500000  0.801985  0.634707  1
  Th  Th3  1  0.500000  0.198015  0.365293  1
  Co  Co4  1  0.000000  0.500000  0.500000  1
  Ni  Ni5  1  0.000000  0.000000  0.000000  1
  B  B6  1  0.000000  0.127475  0.539654  1
  B  B7  1  0.000000  0.872525  0.460346  1
  B  B8  1  0.000000  0.625421  0.957836  1
  B  B9  1  0.000000  0.374579  0.042164  1
  B  B10  1  0.000000  0.153787  0.696651  1
  B  B11  1  0.000000  0.846213  0.303349  1
  B  B12  1  0.299535  0.202914  0.115284  1
  B  B13  1  0.299535  0.797086  0.884716  1
  B  B14  1  0.700268  0.701850  0.387638  1
  B  B15  1  0.700268  0.298150  0.612362  1
  B  B16  1  0.700465  0.797086  0.884716  1
  B  B17  1  0.700465  0.202914  0.115284  1
  B  B18  1  0.299732  0.298150  0.612362  1
  B  B19  1  0.299732  0.701850  0.387638  1
  B  B20  1  0.000000  0.036387  0.188693  1
  B  B21  1  0.000000  0.963613  0.811307  1
  B  B22  1  0.000000  0.535144  0.313784  1
  B  B23  1  0.000000  0.464856  0.686216  1
  B  B24  1  0.000000  0.346630  0.198107  1
  B  B25  1  0.000000  0.653370  0.801893  1
