# generated using pymatgen
data_LuHg4Se2Cl5
_symmetry_space_group_name_H-M   'P 1'
_cell_length_a   8.48083652
_cell_length_b   10.31485900
_cell_length_c   9.15218871
_cell_angle_alpha   90.00000000
_cell_angle_beta   113.41867395
_cell_angle_gamma   90.00000000
_symmetry_Int_Tables_number   1
_chemical_formula_structural   LuHg4Se2Cl5
_chemical_formula_sum   'Lu2 Hg8 Se4 Cl10'
_cell_volume   734.66991548
_cell_formula_units_Z   2
loop_
 _symmetry_equiv_pos_site_id
 _symmetry_equiv_pos_as_xyz
  1  'x, y, z'
loop_
 _atom_site_type_symbol
 _atom_site_label
 _atom_site_symmetry_multiplicity
 _atom_site_fract_x
 _atom_site_fract_y
 _atom_site_fract_z
 _atom_site_occupancy
  Lu  Lu0  1  0.497912  0.429438  0.499116  1
  Lu  Lu1  1  0.502088  0.929438  0.500884  1
  Hg  Hg2  1  0.928069  0.179872  0.330997  1
  Hg  Hg3  1  0.071931  0.679872  0.669003  1
  Hg  Hg4  1  0.955513  0.669568  0.358373  1
  Hg  Hg5  1  0.044487  0.169568  0.641627  1
  Hg  Hg6  1  0.495421  0.182979  0.987983  1
  Hg  Hg7  1  0.504579  0.682979  0.012017  1
  Hg  Hg8  1  0.806947  0.432924  0.005214  1
  Hg  Hg9  1  0.193053  0.932924  0.994786  1
  Se  Se10  1  0.805256  0.185921  0.020037  1
  Se  Se11  1  0.194744  0.685921  0.979963  1
  Se  Se12  1  0.184851  0.177389  0.951955  1
  Se  Se13  1  0.815149  0.677389  0.048045  1
  Cl  Cl14  1  0.823474  0.925774  0.678850  1
  Cl  Cl15  1  0.176526  0.425774  0.321150  1
  Cl  Cl16  1  0.822951  0.436519  0.692226  1
  Cl  Cl17  1  0.177049  0.936519  0.307774  1
  Cl  Cl18  1  0.423129  0.455712  0.749068  1
  Cl  Cl19  1  0.576871  0.955712  0.250932  1
  Cl  Cl20  1  0.589642  0.398256  0.265028  1
  Cl  Cl21  1  0.410358  0.898256  0.734972  1
  Cl  Cl22  1  0.496931  0.179249  0.545804  1
  Cl  Cl23  1  0.503069  0.679249  0.454196  1
