# generated using pymatgen
data_NbZn6In5Rh12
_symmetry_space_group_name_H-M   'P 1'
_cell_length_a   4.44137500
_cell_length_b   6.26415200
_cell_length_c   13.35657700
_cell_angle_alpha   89.99985390
_cell_angle_beta   90.00102649
_cell_angle_gamma   90.00023501
_symmetry_Int_Tables_number   1
_chemical_formula_structural   NbZn6In5Rh12
_chemical_formula_sum   'Nb1 Zn6 In5 Rh12'
_cell_volume   371.59931362
_cell_formula_units_Z   1
loop_
 _symmetry_equiv_pos_site_id
 _symmetry_equiv_pos_as_xyz
  1  'x, y, z'
loop_
 _atom_site_type_symbol
 _atom_site_label
 _atom_site_symmetry_multiplicity
 _atom_site_fract_x
 _atom_site_fract_y
 _atom_site_fract_z
 _atom_site_occupancy
  Nb  Nb0  1  0.500079  0.499992  0.833336  1
  Zn  Zn1  1  0.000003  0.500006  0.999573  1
  Zn  Zn2  1  0.499924  0.999990  0.168757  1
  Zn  Zn3  1  0.999938  0.500000  0.333339  1
  Zn  Zn4  1  0.499998  0.999990  0.497936  1
  Zn  Zn5  1  0.000056  0.500007  0.667083  1
  Zn  Zn6  1  0.500082  0.999988  0.833340  1
  In  In7  1  0.000000  0.000008  0.001212  1
  In  In8  1  0.499899  0.499988  0.166190  1
  In  In9  1  0.999934  0.000018  0.333376  1
  In  In10  1  0.499998  0.499995  0.500380  1
  In  In11  1  0.000065  0.000019  0.665508  1
  Rh  Rh12  1  0.500006  0.254772  0.994519  1
  Rh  Rh13  1  0.500006  0.745246  0.994526  1
  Rh  Rh14  1  0.999932  0.250839  0.165488  1
  Rh  Rh15  1  0.999933  0.749147  0.165487  1
  Rh  Rh16  1  0.499945  0.251289  0.333326  1
  Rh  Rh17  1  0.499954  0.748722  0.333327  1
  Rh  Rh18  1  0.999997  0.250819  0.501174  1
  Rh  Rh19  1  0.999997  0.749169  0.501174  1
  Rh  Rh20  1  0.500051  0.254807  0.672150  1
  Rh  Rh21  1  0.500041  0.745214  0.672142  1
  Rh  Rh22  1  0.000079  0.256419  0.833329  1
  Rh  Rh23  1  0.000080  0.743560  0.833328  1
