# generated using pymatgen
data_La7Pr9(DySi4)4
_symmetry_space_group_name_H-M   'P 1'
_cell_length_a   7.86758431
_cell_length_b   7.86940938
_cell_length_c   15.41458722
_cell_angle_alpha   90.01721935
_cell_angle_beta   89.99140414
_cell_angle_gamma   90.03117347
_symmetry_Int_Tables_number   1
_chemical_formula_structural   La7Pr9(DySi4)4
_chemical_formula_sum   'La7 Pr9 Dy4 Si16'
_cell_volume   954.36687045
_cell_formula_units_Z   1
loop_
 _symmetry_equiv_pos_site_id
 _symmetry_equiv_pos_as_xyz
  1  'x, y, z'
loop_
 _atom_site_type_symbol
 _atom_site_label
 _atom_site_symmetry_multiplicity
 _atom_site_fract_x
 _atom_site_fract_y
 _atom_site_fract_z
 _atom_site_occupancy
  La  La0  1  0.377967  0.013410  0.445332  1
  La  La1  1  0.486518  0.877909  0.695391  1
  La  La2  1  0.513261  0.122242  0.195358  1
  La  La3  1  0.877977  0.486577  0.304605  1
  La  La4  1  0.122084  0.513616  0.804776  1
  La  La5  1  0.622194  0.986286  0.945438  1
  La  La6  1  0.013437  0.377925  0.554606  1
  Pr  Pr7  1  0.987125  0.621362  0.054791  1
  Pr  Pr8  1  0.125037  0.975961  0.878930  1
  Pr  Pr9  1  0.524112  0.625353  0.128799  1
  Pr  Pr10  1  0.476135  0.374786  0.628867  1
  Pr  Pr11  1  0.625357  0.524225  0.871209  1
  Pr  Pr12  1  0.374713  0.476071  0.371059  1
  Pr  Pr13  1  0.874814  0.023918  0.378812  1
  Pr  Pr14  1  0.976030  0.125096  0.121043  1
  Pr  Pr15  1  0.023980  0.874788  0.621146  1
  Dy  Dy16  1  0.309709  0.310222  0.000042  1
  Dy  Dy17  1  0.189966  0.809790  0.249978  1
  Dy  Dy18  1  0.809948  0.190045  0.750028  1
  Dy  Dy19  1  0.690021  0.690063  0.500027  1
  Si  Si20  1  0.187687  0.171710  0.709160  1
  Si  Si21  1  0.327822  0.687489  0.959251  1
  Si  Si22  1  0.671735  0.312341  0.459154  1
  Si  Si23  1  0.687823  0.328555  0.040911  1
  Si  Si24  1  0.312328  0.671742  0.540860  1
  Si  Si25  1  0.812605  0.828159  0.208918  1
  Si  Si26  1  0.171569  0.187713  0.290836  1
  Si  Si27  1  0.828257  0.812511  0.790764  1
  Si  Si28  1  0.286542  0.920671  0.063678  1
  Si  Si29  1  0.579118  0.786614  0.313613  1
  Si  Si30  1  0.420865  0.213225  0.813665  1
  Si  Si31  1  0.786682  0.579056  0.686303  1
  Si  Si32  1  0.213153  0.421167  0.186173  1
  Si  Si33  1  0.713256  0.079186  0.563701  1
  Si  Si34  1  0.921025  0.287032  0.936439  1
  Si  Si35  1  0.079147  0.713186  0.436337  1
