# generated using pymatgen
data_K3SbF8
_symmetry_space_group_name_H-M   'P 1'
_cell_length_a   8.42945900
_cell_length_b   8.42945820
_cell_length_c   6.38786200
_cell_angle_alpha   90.00000000
_cell_angle_beta   90.00000000
_cell_angle_gamma   119.99999921
_symmetry_Int_Tables_number   1
_chemical_formula_structural   K3SbF8
_chemical_formula_sum   'K6 Sb2 F16'
_cell_volume   393.08414281
_cell_formula_units_Z   2
loop_
 _symmetry_equiv_pos_site_id
 _symmetry_equiv_pos_as_xyz
  1  'x, y, z'
loop_
 _atom_site_type_symbol
 _atom_site_label
 _atom_site_symmetry_multiplicity
 _atom_site_fract_x
 _atom_site_fract_y
 _atom_site_fract_z
 _atom_site_occupancy
  K  K0  1  0.153260  0.306520  0.245805  1
  K  K1  1  0.846740  0.693480  0.745806  1
  K  K2  1  0.693480  0.846740  0.245805  1
  K  K3  1  0.153260  0.846740  0.245805  1
  K  K4  1  0.846740  0.153260  0.745806  1
  K  K5  1  0.306520  0.153260  0.745806  1
  Sb  Sb6  1  0.333333  0.666667  0.734205  1
  Sb  Sb7  1  0.666667  0.333333  0.234205  1
  F  F8  1  0.000000  0.000000  0.004650  1
  F  F9  1  0.000000  0.000000  0.504650  1
  F  F10  1  0.437317  0.562683  0.534913  1
  F  F11  1  0.562683  0.437317  0.034913  1
  F  F12  1  0.437317  0.874635  0.534913  1
  F  F13  1  0.125365  0.562683  0.534913  1
  F  F14  1  0.874635  0.437317  0.034913  1
  F  F15  1  0.562683  0.125365  0.034913  1
  F  F16  1  0.333333  0.666667  0.048599  1
  F  F17  1  0.666667  0.333333  0.548599  1
  F  F18  1  0.202235  0.797765  0.818514  1
  F  F19  1  0.797765  0.202235  0.318514  1
  F  F20  1  0.202235  0.404469  0.818514  1
  F  F21  1  0.595531  0.797765  0.818514  1
  F  F22  1  0.404469  0.202235  0.318514  1
  F  F23  1  0.797765  0.595531  0.318514  1
