# generated using pymatgen
data_ZrTa2(MoP)3
_symmetry_space_group_name_H-M   'P 1'
_cell_length_a   6.86604966
_cell_length_b   6.84715597
_cell_length_c   3.38241700
_cell_angle_alpha   90.00000000
_cell_angle_beta   90.00000000
_cell_angle_gamma   119.90900848
_symmetry_Int_Tables_number   1
_chemical_formula_structural   ZrTa2(MoP)3
_chemical_formula_sum   'Zr1 Ta2 Mo3 P3'
_cell_volume   137.83909452
_cell_formula_units_Z   1
loop_
 _symmetry_equiv_pos_site_id
 _symmetry_equiv_pos_as_xyz
  1  'x, y, z'
loop_
 _atom_site_type_symbol
 _atom_site_label
 _atom_site_symmetry_multiplicity
 _atom_site_fract_x
 _atom_site_fract_y
 _atom_site_fract_z
 _atom_site_occupancy
  Zr  Zr0  1  0.000000  0.595636  0.500000  1
  Ta  Ta1  1  0.402492  0.402046  0.500000  1
  Ta  Ta2  1  0.597508  0.999555  0.500000  1
  Mo  Mo3  1  0.000000  0.251789  0.000000  1
  Mo  Mo4  1  0.258632  0.005741  0.000000  1
  Mo  Mo5  1  0.741368  0.747109  0.000000  1
  P  P6  1  0.661795  0.329631  0.000000  1
  P  P7  1  0.338205  0.667837  0.000000  1
  P  P8  1  0.000000  0.000657  0.500000  1
