# generated using pymatgen
data_La8Si15Hg
_symmetry_space_group_name_H-M   'P 1'
_cell_length_a   8.33299000
_cell_length_b   8.33298997
_cell_length_c   8.77223200
_cell_angle_alpha   90.00000000
_cell_angle_beta   90.00000000
_cell_angle_gamma   120.00000010
_symmetry_Int_Tables_number   1
_chemical_formula_structural   La8Si15Hg
_chemical_formula_sum   'La8 Si15 Hg1'
_cell_volume   527.52428826
_cell_formula_units_Z   1
loop_
 _symmetry_equiv_pos_site_id
 _symmetry_equiv_pos_as_xyz
  1  'x, y, z'
loop_
 _atom_site_type_symbol
 _atom_site_label
 _atom_site_symmetry_multiplicity
 _atom_site_fract_x
 _atom_site_fract_y
 _atom_site_fract_z
 _atom_site_occupancy
  La  La0  1  0.495927  0.504073  0.742159  1
  La  La1  1  0.496560  0.503440  0.257545  1
  La  La2  1  0.008145  0.504073  0.742159  1
  La  La3  1  0.006880  0.503440  0.257545  1
  La  La4  1  0.495927  0.991855  0.742159  1
  La  La5  1  0.496560  0.993120  0.257545  1
  La  La6  1  0.000000  0.000000  0.748226  1
  La  La7  1  0.000000  0.000000  0.252548  1
  Si  Si8  1  0.841230  0.158770  0.001930  1
  Si  Si9  1  0.167665  0.832335  0.999055  1
  Si  Si10  1  0.317541  0.158770  0.001930  1
  Si  Si11  1  0.167063  0.832937  0.499469  1
  Si  Si12  1  0.664671  0.832335  0.999055  1
  Si  Si13  1  0.832808  0.167192  0.500665  1
  Si  Si14  1  0.841230  0.682459  0.001930  1
  Si  Si15  1  0.665872  0.832937  0.499469  1
  Si  Si16  1  0.167665  0.335329  0.999055  1
  Si  Si17  1  0.334382  0.167192  0.500665  1
  Si  Si18  1  0.167063  0.334128  0.499469  1
  Si  Si19  1  0.832808  0.665618  0.500665  1
  Si  Si20  1  0.333333  0.666667  0.000856  1
  Si  Si21  1  0.333333  0.666667  0.499151  1
  Si  Si22  1  0.666667  0.333333  0.500346  1
  Hg  Hg23  1  0.666667  0.333333  0.996402  1
