# generated using pymatgen
data_YbTa5(SnRu2)6
_symmetry_space_group_name_H-M   'P 1'
_cell_length_a   4.43398000
_cell_length_b   6.73049000
_cell_length_c   13.27863700
_cell_angle_alpha   90.00000000
_cell_angle_beta   90.00107777
_cell_angle_gamma   90.00000000
_symmetry_Int_Tables_number   1
_chemical_formula_structural   YbTa5(SnRu2)6
_chemical_formula_sum   'Yb1 Ta5 Sn6 Ru12'
_cell_volume   396.27247906
_cell_formula_units_Z   1
loop_
 _symmetry_equiv_pos_site_id
 _symmetry_equiv_pos_as_xyz
  1  'x, y, z'
loop_
 _atom_site_type_symbol
 _atom_site_label
 _atom_site_symmetry_multiplicity
 _atom_site_fract_x
 _atom_site_fract_y
 _atom_site_fract_z
 _atom_site_occupancy
  Yb  Yb0  1  0.000000  0.000000  0.000000  1
  Ta  Ta1  1  0.499968  0.500001  0.167856  1
  Ta  Ta2  1  0.999972  0.000000  0.331182  1
  Ta  Ta3  1  0.500000  0.500001  0.500000  1
  Ta  Ta4  1  0.000027  0.000000  0.668818  1
  Ta  Ta5  1  0.500031  0.500001  0.832144  1
  Sn  Sn6  1  0.000000  0.500001  0.000000  1
  Sn  Sn7  1  0.499953  0.000000  0.164659  1
  Sn  Sn8  1  0.999948  0.500001  0.336499  1
  Sn  Sn9  1  0.500000  0.000000  0.500000  1
  Sn  Sn10  1  0.000052  0.500001  0.663502  1
  Sn  Sn11  1  0.500047  0.000000  0.835340  1
  Ru  Ru12  1  0.500000  0.270058  0.000000  1
  Ru  Ru13  1  0.500000  0.729942  0.000000  1
  Ru  Ru14  1  0.999936  0.258281  0.174716  1
  Ru  Ru15  1  0.999936  0.741720  0.174716  1
  Ru  Ru16  1  0.499954  0.247855  0.335903  1
  Ru  Ru17  1  0.499954  0.752145  0.335903  1
  Ru  Ru18  1  0.000000  0.248784  0.500000  1
  Ru  Ru19  1  0.000000  0.751217  0.500000  1
  Ru  Ru20  1  0.500046  0.247855  0.664097  1
  Ru  Ru21  1  0.500046  0.752145  0.664097  1
  Ru  Ru22  1  0.000066  0.258281  0.825284  1
  Ru  Ru23  1  0.000066  0.741720  0.825284  1
