# generated using pymatgen
data_PrY7(Si4W3)4
_symmetry_space_group_name_H-M   'P 1'
_cell_length_a   6.80003082
_cell_length_b   6.96197202
_cell_length_c   12.93466701
_cell_angle_alpha   89.90626569
_cell_angle_beta   90.01687300
_cell_angle_gamma   89.93627382
_symmetry_Int_Tables_number   1
_chemical_formula_structural   PrY7(Si4W3)4
_chemical_formula_sum   'Pr1 Y7 Si16 W12'
_cell_volume   612.34692111
_cell_formula_units_Z   1
loop_
 _symmetry_equiv_pos_site_id
 _symmetry_equiv_pos_as_xyz
  1  'x, y, z'
loop_
 _atom_site_type_symbol
 _atom_site_label
 _atom_site_symmetry_multiplicity
 _atom_site_fract_x
 _atom_site_fract_y
 _atom_site_fract_z
 _atom_site_occupancy
  Pr  Pr0  1  0.996965  0.833869  0.592193  1
  Y  Y1  1  0.495964  0.667196  0.593573  1
  Y  Y2  1  0.996184  0.832463  0.906337  1
  Y  Y3  1  0.504384  0.332284  0.093733  1
  Y  Y4  1  0.004597  0.167199  0.405558  1
  Y  Y5  1  0.504407  0.333198  0.405730  1
  Y  Y6  1  0.003948  0.167931  0.093645  1
  Y  Y7  1  0.495722  0.667262  0.907420  1
  Si  Si8  1  0.658813  0.957409  0.451109  1
  Si  Si9  1  0.161061  0.542873  0.047551  1
  Si  Si10  1  0.338753  0.042953  0.953254  1
  Si  Si11  1  0.837646  0.453049  0.546904  1
  Si  Si12  1  0.343166  0.045448  0.546517  1
  Si  Si13  1  0.839247  0.457535  0.952727  1
  Si  Si14  1  0.661213  0.957159  0.047437  1
  Si  Si15  1  0.161549  0.540795  0.451019  1
  Si  Si16  1  0.463628  0.369838  0.750640  1
  Si  Si17  1  0.963299  0.133458  0.751444  1
  Si  Si18  1  0.535847  0.630625  0.249454  1
  Si  Si19  1  0.035943  0.869118  0.249990  1
  Si  Si20  1  0.693818  0.868499  0.751503  1
  Si  Si21  1  0.198376  0.629295  0.751454  1
  Si  Si22  1  0.303635  0.132105  0.249749  1
  Si  Si23  1  0.803393  0.367682  0.249640  1
  W  W24  1  0.666272  0.164569  0.626781  1
  W  W25  1  0.168326  0.336904  0.875139  1
  W  W26  1  0.331526  0.836722  0.125748  1
  W  W27  1  0.830953  0.661685  0.373067  1
  W  W28  1  0.332681  0.836402  0.373334  1
  W  W29  1  0.832235  0.663068  0.125649  1
  W  W30  1  0.667500  0.163779  0.875052  1
  W  W31  1  0.168420  0.336648  0.625980  1
  W  W32  1  0.833481  0.497797  0.750618  1
  W  W33  1  0.334852  0.003495  0.751003  1
  W  W34  1  0.166109  0.501163  0.249595  1
  W  W35  1  0.666085  0.998523  0.249454  1
