# generated using pymatgen
data_Tm3MgZn(InAu)2
_symmetry_space_group_name_H-M   'P 1'
_cell_length_a   7.71705938
_cell_length_b   7.71705829
_cell_length_c   3.90418300
_cell_angle_alpha   90.00000000
_cell_angle_beta   90.00000000
_cell_angle_gamma   120.03606397
_symmetry_Int_Tables_number   1
_chemical_formula_structural   Tm3MgZn(InAu)2
_chemical_formula_sum   'Tm3 Mg1 Zn1 In2 Au2'
_cell_volume   201.28271484
_cell_formula_units_Z   1
loop_
 _symmetry_equiv_pos_site_id
 _symmetry_equiv_pos_as_xyz
  1  'x, y, z'
loop_
 _atom_site_type_symbol
 _atom_site_label
 _atom_site_symmetry_multiplicity
 _atom_site_fract_x
 _atom_site_fract_y
 _atom_site_fract_z
 _atom_site_occupancy
  Tm  Tm0  1  0.405975  0.405975  0.500000  1
  Tm  Tm1  1  0.593365  0.002580  0.500000  1
  Tm  Tm2  1  0.002580  0.593365  0.500000  1
  Mg  Mg3  1  0.746484  0.746484  0.000000  1
  Zn  Zn4  1  0.990677  0.990677  0.500000  1
  In  In5  1  0.250825  0.997388  0.000000  1
  In  In6  1  0.997388  0.250825  0.000000  1
  Au  Au7  1  0.668171  0.344533  0.000000  1
  Au  Au8  1  0.344533  0.668171  0.000000  1
