# generated using pymatgen
data_Ta10Si2B3P
_symmetry_space_group_name_H-M   'P 1'
_cell_length_a   7.32379104
_cell_length_b   7.32379122
_cell_length_c   7.35183576
_cell_angle_alpha   129.06361303
_cell_angle_beta   129.06361337
_cell_angle_gamma   74.62164212
_symmetry_Int_Tables_number   1
_chemical_formula_structural   Ta10Si2B3P
_chemical_formula_sum   'Ta10 Si2 B3 P1'
_cell_volume   231.97081494
_cell_formula_units_Z   1
loop_
 _symmetry_equiv_pos_site_id
 _symmetry_equiv_pos_as_xyz
  1  'x, y, z'
loop_
 _atom_site_type_symbol
 _atom_site_label
 _atom_site_symmetry_multiplicity
 _atom_site_fract_x
 _atom_site_fract_y
 _atom_site_fract_z
 _atom_site_occupancy
  Ta  Ta0  1  0.995482  0.000890  0.996372  1
  Ta  Ta1  1  0.814195  0.976666  0.506450  1
  Ta  Ta2  1  0.302138  0.802138  0.817378  1
  Ta  Ta3  1  0.192254  0.029783  0.506450  1
  Ta  Ta4  1  0.529783  0.692254  0.506450  1
  Ta  Ta5  1  0.015239  0.515239  0.817378  1
  Ta  Ta6  1  0.692070  0.192070  0.165443  1
  Ta  Ta7  1  0.973373  0.473373  0.165443  1
  Ta  Ta8  1  0.500890  0.495482  0.996372  1
  Ta  Ta9  1  0.476666  0.314195  0.506450  1
  Si  Si10  1  0.751895  0.751895  0.003789  1
  Si  Si11  1  0.251895  0.251895  0.003789  1
  B  B12  1  0.882123  0.615315  0.497439  1
  B  B13  1  0.631830  0.131830  0.763658  1
  B  B14  1  0.115315  0.382123  0.497439  1
  P  P15  1  0.374850  0.874850  0.249701  1
