# generated using pymatgen
data_YbEr2Ag(Pt2O7)2
_symmetry_space_group_name_H-M   'P 1'
_cell_length_a   7.29247477
_cell_length_b   7.29521109
_cell_length_c   7.17236032
_cell_angle_alpha   59.59012167
_cell_angle_beta   59.44445661
_cell_angle_gamma   60.01241987
_symmetry_Int_Tables_number   1
_chemical_formula_structural   YbEr2Ag(Pt2O7)2
_chemical_formula_sum   'Yb1 Er2 Ag1 Pt4 O14'
_cell_volume   267.84966929
_cell_formula_units_Z   1
loop_
 _symmetry_equiv_pos_site_id
 _symmetry_equiv_pos_as_xyz
  1  'x, y, z'
loop_
 _atom_site_type_symbol
 _atom_site_label
 _atom_site_symmetry_multiplicity
 _atom_site_fract_x
 _atom_site_fract_y
 _atom_site_fract_z
 _atom_site_occupancy
  Yb  Yb0  1  0.625000  0.125000  0.625000  1
  Er  Er1  1  0.625000  0.625000  0.625000  1
  Er  Er2  1  0.125000  0.625000  0.625000  1
  Ag  Ag3  1  0.625000  0.625000  0.125000  1
  Pt  Pt4  1  0.625000  0.125000  0.125000  1
  Pt  Pt5  1  0.125000  0.125000  0.125000  1
  Pt  Pt6  1  0.125000  0.625000  0.125000  1
  Pt  Pt7  1  0.125000  0.125000  0.625000  1
  O  O8  1  0.032186  0.465793  0.469836  1
  O  O9  1  0.793005  0.791559  0.219500  1
  O  O10  1  0.793765  0.203709  0.208761  1
  O  O11  1  0.748719  0.735771  0.766790  1
  O  O12  1  0.054062  0.458441  0.030500  1
  O  O13  1  0.462686  0.029218  0.467376  1
  O  O14  1  0.040720  0.029218  0.467376  1
  O  O15  1  0.501281  0.514229  0.483210  1
  O  O16  1  0.209280  0.220782  0.782624  1
  O  O17  1  0.195938  0.791559  0.219500  1
  O  O18  1  0.787314  0.220782  0.782624  1
  O  O19  1  0.456235  0.046291  0.041239  1
  O  O20  1  0.456995  0.458441  0.030500  1
  O  O21  1  0.217814  0.784207  0.780164  1
