# generated using pymatgen
data_TmPa(Cu5Sn)2
_symmetry_space_group_name_H-M   'P 1'
_cell_length_a   5.01082400
_cell_length_b   8.22033342
_cell_length_c   10.53621466
_cell_angle_alpha   90.22559286
_cell_angle_beta   90.00000000
_cell_angle_gamma   90.00000000
_symmetry_Int_Tables_number   1
_chemical_formula_structural   TmPa(Cu5Sn)2
_chemical_formula_sum   'Tm2 Pa2 Cu20 Sn4'
_cell_volume   433.99010322
_cell_formula_units_Z   2
loop_
 _symmetry_equiv_pos_site_id
 _symmetry_equiv_pos_as_xyz
  1  'x, y, z'
loop_
 _atom_site_type_symbol
 _atom_site_label
 _atom_site_symmetry_multiplicity
 _atom_site_fract_x
 _atom_site_fract_y
 _atom_site_fract_z
 _atom_site_occupancy
  Tm  Tm0  1  0.750000  0.754280  0.558555  1
  Tm  Tm1  1  0.250000  0.246005  0.442133  1
  Pa  Pa2  1  0.750000  0.249900  0.939486  1
  Pa  Pa3  1  0.250000  0.749018  0.059664  1
  Cu  Cu4  1  0.250000  0.818779  0.744350  1
  Cu  Cu5  1  0.750000  0.181929  0.257413  1
  Cu  Cu6  1  0.750000  0.683231  0.240710  1
  Cu  Cu7  1  0.250000  0.317674  0.757024  1
  Cu  Cu8  1  0.501544  0.571704  0.813020  1
  Cu  Cu9  1  0.498197  0.427513  0.187218  1
  Cu  Cu10  1  0.498169  0.928613  0.313345  1
  Cu  Cu11  1  0.001803  0.427513  0.187218  1
  Cu  Cu12  1  0.501917  0.071097  0.686992  1
  Cu  Cu13  1  0.998456  0.571704  0.813020  1
  Cu  Cu14  1  0.998083  0.071097  0.686992  1
  Cu  Cu15  1  0.001831  0.928613  0.313345  1
  Cu  Cu16  1  0.250000  0.917527  0.517646  1
  Cu  Cu17  1  0.750000  0.081512  0.482769  1
  Cu  Cu18  1  0.750000  0.579843  0.017813  1
  Cu  Cu19  1  0.250000  0.417270  0.981794  1
  Cu  Cu20  1  0.250000  0.564840  0.601683  1
  Cu  Cu21  1  0.750000  0.438287  0.397995  1
  Cu  Cu22  1  0.750000  0.937753  0.102895  1
  Cu  Cu23  1  0.250000  0.064833  0.897121  1
  Sn  Sn24  1  0.250000  0.634487  0.359926  1
  Sn  Sn25  1  0.750000  0.365939  0.639288  1
  Sn  Sn26  1  0.750000  0.865101  0.858903  1
  Sn  Sn27  1  0.250000  0.133934  0.141683  1
