# generated using pymatgen
data_MgTa2Mo(PO4)6
_symmetry_space_group_name_H-M   'P 1'
_cell_length_a   8.73463069
_cell_length_b   8.73421321
_cell_length_c   9.02352062
_cell_angle_alpha   89.91309665
_cell_angle_beta   61.14072307
_cell_angle_gamma   120.01764308
_symmetry_Int_Tables_number   1
_chemical_formula_structural   MgTa2Mo(PO4)6
_chemical_formula_sum   'Mg1 Ta2 Mo1 P6 O24'
_cell_volume   494.52142862
_cell_formula_units_Z   1
loop_
 _symmetry_equiv_pos_site_id
 _symmetry_equiv_pos_as_xyz
  1  'x, y, z'
loop_
 _atom_site_type_symbol
 _atom_site_label
 _atom_site_symmetry_multiplicity
 _atom_site_fract_x
 _atom_site_fract_y
 _atom_site_fract_z
 _atom_site_occupancy
  Mg  Mg0  1  0.217552  0.359685  0.422474  1
  Ta  Ta1  1  0.783930  0.141085  0.075152  1
  Ta  Ta2  1  0.784083  0.641369  0.574887  1
  Mo  Mo3  1  0.212110  0.856752  0.930896  1
  P  P4  1  0.281074  0.032835  0.253842  1
  P  P5  1  0.713160  0.747303  0.252040  1
  P  P6  1  0.280982  0.248318  0.746611  1
  P  P7  1  0.722427  0.974684  0.744175  1
  P  P8  1  0.008510  0.534666  0.743712  1
  P  P9  1  0.996992  0.463688  0.254635  1
  O  O10  1  0.486921  0.059571  0.220340  1
  O  O11  1  0.867474  0.366210  0.914925  1
  O  O12  1  0.891445  0.144068  0.584281  1
  O  O13  1  0.853378  0.559304  0.723617  1
  O  O14  1  0.113646  0.631833  0.086134  1
  O  O15  1  0.090793  0.851709  0.415595  1
  O  O16  1  0.157288  0.455255  0.263736  1
  O  O17  1  0.133193  0.715612  0.787669  1
  O  O18  1  0.164677  0.525106  0.581238  1
  O  O19  1  0.276159  0.198842  0.270227  1
  O  O20  1  0.281766  0.987168  0.084013  1
  O  O21  1  0.714104  0.924467  0.225445  1
  O  O22  1  0.532722  0.575751  0.266491  1
  O  O23  1  0.268821  0.252233  0.588428  1
  O  O24  1  0.847646  0.491430  0.419376  1
  O  O25  1  0.086198  0.218356  0.921336  1
  O  O26  1  0.929994  0.800484  0.078752  1
  O  O27  1  0.495099  0.915234  0.792198  1
  O  O28  1  0.734784  0.734693  0.412054  1
  O  O29  1  0.483412  0.425393  0.721303  1
  O  O30  1  0.297791  0.081530  0.786746  1
  O  O31  1  0.721422  0.997891  0.915225  1
  O  O32  1  0.722423  0.797895  0.717601  1
  O  O33  1  0.848027  0.289582  0.224845  1
