# generated using pymatgen
data_TbY3Fe4(CoO5)4
_symmetry_space_group_name_H-M   'P 1'
_cell_length_a   5.77342200
_cell_length_b   7.30509713
_cell_length_c   8.52845915
_cell_angle_alpha   90.02154252
_cell_angle_beta   90.00000000
_cell_angle_gamma   90.00000000
_symmetry_Int_Tables_number   1
_chemical_formula_structural   TbY3Fe4(CoO5)4
_chemical_formula_sum   'Tb1 Y3 Fe4 Co4 O20'
_cell_volume   359.69122294
_cell_formula_units_Z   1
loop_
 _symmetry_equiv_pos_site_id
 _symmetry_equiv_pos_as_xyz
  1  'x, y, z'
loop_
 _atom_site_type_symbol
 _atom_site_label
 _atom_site_symmetry_multiplicity
 _atom_site_fract_x
 _atom_site_fract_y
 _atom_site_fract_z
 _atom_site_occupancy
  Tb  Tb0  1  0.500000  0.366053  0.330094  1
  Y  Y1  1  0.500000  0.634698  0.670046  1
  Y  Y2  1  0.500000  0.134429  0.830077  1
  Y  Y3  1  0.500000  0.865438  0.169696  1
  Fe  Fe4  1  0.000000  0.109883  0.146874  1
  Fe  Fe5  1  0.000000  0.889884  0.852950  1
  Fe  Fe6  1  0.000000  0.390114  0.646993  1
  Fe  Fe7  1  0.000000  0.610242  0.353298  1
  Co  Co8  1  0.250182  0.999969  0.499916  1
  Co  Co9  1  0.749818  0.999969  0.499916  1
  Co  Co10  1  0.749788  0.500027  0.999968  1
  Co  Co11  1  0.250212  0.500027  0.999968  1
  O  O12  1  0.233449  0.999993  0.999989  1
  O  O13  1  0.766551  0.999993  0.999989  1
  O  O14  1  0.766925  0.500146  0.500351  1
  O  O15  1  0.233075  0.500146  0.500351  1
  O  O16  1  0.000000  0.353267  0.068599  1
  O  O17  1  0.000000  0.646613  0.931507  1
  O  O18  1  0.000000  0.146425  0.568319  1
  O  O19  1  0.000000  0.853028  0.431469  1
  O  O20  1  0.258593  0.104678  0.297901  1
  O  O21  1  0.741236  0.894789  0.702225  1
  O  O22  1  0.258764  0.894789  0.702225  1
  O  O23  1  0.741275  0.394801  0.797791  1
  O  O24  1  0.741407  0.104678  0.297901  1
  O  O25  1  0.258663  0.605482  0.202054  1
  O  O26  1  0.741337  0.605482  0.202054  1
  O  O27  1  0.258725  0.394801  0.797791  1
  O  O28  1  0.500000  0.341925  0.055440  1
  O  O29  1  0.500000  0.658109  0.943855  1
  O  O30  1  0.500000  0.157998  0.556307  1
  O  O31  1  0.500000  0.842126  0.444086  1
