# generated using pymatgen
data_Th8Si12Rh3Au
_symmetry_space_group_name_H-M   'P 1'
_cell_length_a   8.25959200
_cell_length_b   8.25959107
_cell_length_c   8.48313500
_cell_angle_alpha   90.00000000
_cell_angle_beta   90.00000000
_cell_angle_gamma   119.99999572
_symmetry_Int_Tables_number   1
_chemical_formula_structural   Th8Si12Rh3Au
_chemical_formula_sum   'Th8 Si12 Rh3 Au1'
_cell_volume   501.19204574
_cell_formula_units_Z   1
loop_
 _symmetry_equiv_pos_site_id
 _symmetry_equiv_pos_as_xyz
  1  'x, y, z'
loop_
 _atom_site_type_symbol
 _atom_site_label
 _atom_site_symmetry_multiplicity
 _atom_site_fract_x
 _atom_site_fract_y
 _atom_site_fract_z
 _atom_site_occupancy
  Th  Th0  1  0.000000  0.000000  0.748797  1
  Th  Th1  1  0.000000  0.000000  0.251527  1
  Th  Th2  1  0.496356  0.503644  0.745899  1
  Th  Th3  1  0.496356  0.992714  0.745899  1
  Th  Th4  1  0.007286  0.503644  0.745899  1
  Th  Th5  1  0.497802  0.502198  0.253985  1
  Th  Th6  1  0.004396  0.502198  0.253985  1
  Th  Th7  1  0.497802  0.995604  0.253985  1
  Si  Si8  1  0.837785  0.162215  0.999984  1
  Si  Si9  1  0.837785  0.675569  0.999984  1
  Si  Si10  1  0.324431  0.162215  0.999984  1
  Si  Si11  1  0.832909  0.167091  0.500397  1
  Si  Si12  1  0.832909  0.665820  0.500397  1
  Si  Si13  1  0.334180  0.167091  0.500397  1
  Si  Si14  1  0.165464  0.834536  0.499746  1
  Si  Si15  1  0.669072  0.834536  0.499746  1
  Si  Si16  1  0.165464  0.330928  0.499746  1
  Si  Si17  1  0.167920  0.832080  0.000216  1
  Si  Si18  1  0.664159  0.832080  0.000216  1
  Si  Si19  1  0.167920  0.335841  0.000216  1
  Rh  Rh20  1  0.666667  0.333333  0.502601  1
  Rh  Rh21  1  0.333333  0.666667  0.497349  1
  Rh  Rh22  1  0.333333  0.666667  0.002521  1
  Au  Au23  1  0.666667  0.333333  0.996522  1
