# generated using pymatgen
data_Yb8NbGe16Mo11
_symmetry_space_group_name_H-M   'P 1'
_cell_length_a   6.86693693
_cell_length_b   7.03229976
_cell_length_c   13.27544500
_cell_angle_alpha   90.00000000
_cell_angle_beta   90.00000000
_cell_angle_gamma   90.01379641
_symmetry_Int_Tables_number   1
_chemical_formula_structural   Yb8NbGe16Mo11
_chemical_formula_sum   'Yb8 Nb1 Ge16 Mo11'
_cell_volume   641.07598546
_cell_formula_units_Z   1
loop_
 _symmetry_equiv_pos_site_id
 _symmetry_equiv_pos_as_xyz
  1  'x, y, z'
loop_
 _atom_site_type_symbol
 _atom_site_label
 _atom_site_symmetry_multiplicity
 _atom_site_fract_x
 _atom_site_fract_y
 _atom_site_fract_z
 _atom_site_occupancy
  Yb  Yb0  1  0.492981  0.329254  0.090414  1
  Yb  Yb1  1  0.993053  0.170434  0.410020  1
  Yb  Yb2  1  0.507428  0.670749  0.590698  1
  Yb  Yb3  1  0.007529  0.829919  0.909556  1
  Yb  Yb4  1  0.507428  0.670749  0.909302  1
  Yb  Yb5  1  0.007529  0.829919  0.590444  1
  Yb  Yb6  1  0.492981  0.329254  0.409586  1
  Yb  Yb7  1  0.993053  0.170434  0.089980  1
  Nb  Nb8  1  0.840786  0.515589  0.250000  1
  Ge  Ge9  1  0.809528  0.647158  0.750000  1
  Ge  Ge10  1  0.309529  0.853895  0.750000  1
  Ge  Ge11  1  0.195164  0.350570  0.250000  1
  Ge  Ge12  1  0.690876  0.143069  0.250000  1
  Ge  Ge13  1  0.532543  0.380351  0.750000  1
  Ge  Ge14  1  0.033471  0.120603  0.750000  1
  Ge  Ge15  1  0.462909  0.620415  0.250000  1
  Ge  Ge16  1  0.968372  0.882983  0.250000  1
  Ge  Ge17  1  0.669551  0.044675  0.545336  1
  Ge  Ge18  1  0.168794  0.455366  0.954433  1
  Ge  Ge19  1  0.330486  0.954983  0.045172  1
  Ge  Ge20  1  0.829896  0.544352  0.456817  1
  Ge  Ge21  1  0.330486  0.954983  0.454828  1
  Ge  Ge22  1  0.829896  0.544352  0.043183  1
  Ge  Ge23  1  0.669551  0.044675  0.954664  1
  Ge  Ge24  1  0.168794  0.455366  0.545567  1
  Mo  Mo25  1  0.661130  0.016158  0.750000  1
  Mo  Mo26  1  0.160308  0.484151  0.750000  1
  Mo  Mo27  1  0.339655  0.983940  0.250000  1
  Mo  Mo28  1  0.838093  0.336672  0.630417  1
  Mo  Mo29  1  0.339093  0.163502  0.870294  1
  Mo  Mo30  1  0.160595  0.664375  0.128864  1
  Mo  Mo31  1  0.660365  0.836277  0.371207  1
  Mo  Mo32  1  0.160595  0.664375  0.371136  1
  Mo  Mo33  1  0.660365  0.836277  0.128793  1
  Mo  Mo34  1  0.838093  0.336672  0.869583  1
  Mo  Mo35  1  0.339093  0.163502  0.629706  1
