# generated using pymatgen
data_Sc12Fe3Tc
_symmetry_space_group_name_H-M   'P 1'
_cell_length_a   5.82944400
_cell_length_b   8.48503500
_cell_length_c   13.34011700
_cell_angle_alpha   90.00000000
_cell_angle_beta   90.00000000
_cell_angle_gamma   90.00000000
_symmetry_Int_Tables_number   1
_chemical_formula_structural   Sc12Fe3Tc
_chemical_formula_sum   'Sc24 Fe6 Tc2'
_cell_volume   659.84269236
_cell_formula_units_Z   2
loop_
 _symmetry_equiv_pos_site_id
 _symmetry_equiv_pos_as_xyz
  1  'x, y, z'
loop_
 _atom_site_type_symbol
 _atom_site_label
 _atom_site_symmetry_multiplicity
 _atom_site_fract_x
 _atom_site_fract_y
 _atom_site_fract_z
 _atom_site_occupancy
  Sc  Sc0  1  0.529115  0.750000  0.351887  1
  Sc  Sc1  1  0.029115  0.250000  0.148113  1
  Sc  Sc2  1  0.455861  0.250000  0.649985  1
  Sc  Sc3  1  0.955861  0.750000  0.850015  1
  Sc  Sc4  1  0.776598  0.750000  0.104351  1
  Sc  Sc5  1  0.276598  0.250000  0.395649  1
  Sc  Sc6  1  0.211681  0.250000  0.887291  1
  Sc  Sc7  1  0.711681  0.750000  0.612709  1
  Sc  Sc8  1  0.416006  0.934233  0.790937  1
  Sc  Sc9  1  0.916006  0.065767  0.709063  1
  Sc  Sc10  1  0.578337  0.435758  0.216359  1
  Sc  Sc11  1  0.078337  0.564242  0.283641  1
  Sc  Sc12  1  0.578337  0.064242  0.216359  1
  Sc  Sc13  1  0.078337  0.935758  0.283641  1
  Sc  Sc14  1  0.416006  0.565767  0.790937  1
  Sc  Sc15  1  0.916006  0.434233  0.709063  1
  Sc  Sc16  1  0.250803  0.938554  0.539032  1
  Sc  Sc17  1  0.750803  0.061446  0.960968  1
  Sc  Sc18  1  0.765327  0.436647  0.463584  1
  Sc  Sc19  1  0.265327  0.563353  0.036416  1
  Sc  Sc20  1  0.765327  0.063353  0.463584  1
  Sc  Sc21  1  0.265327  0.936647  0.036416  1
  Sc  Sc22  1  0.250803  0.561446  0.539032  1
  Sc  Sc23  1  0.750803  0.438554  0.960968  1
  Fe  Fe24  1  0.067454  0.250000  0.561040  1
  Fe  Fe25  1  0.567454  0.750000  0.938960  1
  Fe  Fe26  1  0.371656  0.750000  0.182269  1
  Fe  Fe27  1  0.871656  0.250000  0.317731  1
  Fe  Fe28  1  0.634537  0.250000  0.818208  1
  Fe  Fe29  1  0.134537  0.750000  0.681792  1
  Tc  Tc30  1  0.932155  0.750000  0.441649  1
  Tc  Tc31  1  0.432155  0.250000  0.058351  1
