# generated using pymatgen
data_Sm4Ga3Os3Ru2
_symmetry_space_group_name_H-M   'P 1'
_cell_length_a   5.39269400
_cell_length_b   5.39269487
_cell_length_c   9.03018000
_cell_angle_alpha   90.00000000
_cell_angle_beta   90.00000000
_cell_angle_gamma   119.99999468
_symmetry_Int_Tables_number   1
_chemical_formula_structural   Sm4Ga3Os3Ru2
_chemical_formula_sum   'Sm4 Ga3 Os3 Ru2'
_cell_volume   227.42525341
_cell_formula_units_Z   1
loop_
 _symmetry_equiv_pos_site_id
 _symmetry_equiv_pos_as_xyz
  1  'x, y, z'
loop_
 _atom_site_type_symbol
 _atom_site_label
 _atom_site_symmetry_multiplicity
 _atom_site_fract_x
 _atom_site_fract_y
 _atom_site_fract_z
 _atom_site_occupancy
  Sm  Sm0  1  0.666667  0.333334  0.063894  1
  Sm  Sm1  1  0.666667  0.333334  0.436106  1
  Sm  Sm2  1  0.333334  0.666668  0.557393  1
  Sm  Sm3  1  0.333334  0.666668  0.942607  1
  Ga  Ga4  1  0.328726  0.164363  0.749999  1
  Ga  Ga5  1  0.835636  0.164363  0.749999  1
  Ga  Ga6  1  0.835636  0.671272  0.749999  1
  Os  Os7  1  0.169524  0.339049  0.250000  1
  Os  Os8  1  0.169524  0.830476  0.250000  1
  Os  Os9  1  0.660952  0.830476  0.250000  1
  Ru  Ru10  1  0.000000  0.000000  0.001272  1
  Ru  Ru11  1  0.000000  0.000000  0.498728  1
