# generated using pymatgen
data_Nd8DyRh6
_symmetry_space_group_name_H-M   'P 1'
_cell_length_a   7.59812514
_cell_length_b   7.59812567
_cell_length_c   7.59812648
_cell_angle_alpha   71.27775914
_cell_angle_beta   71.27775954
_cell_angle_gamma   71.27775655
_symmetry_Int_Tables_number   1
_chemical_formula_structural   Nd8DyRh6
_chemical_formula_sum   'Nd8 Dy1 Rh6'
_cell_volume   381.66561655
_cell_formula_units_Z   1
loop_
 _symmetry_equiv_pos_site_id
 _symmetry_equiv_pos_as_xyz
  1  'x, y, z'
loop_
 _atom_site_type_symbol
 _atom_site_label
 _atom_site_symmetry_multiplicity
 _atom_site_fract_x
 _atom_site_fract_y
 _atom_site_fract_z
 _atom_site_occupancy
  Nd  Nd0  1  0.798363  0.798363  0.798363  1
  Nd  Nd1  1  0.201637  0.201637  0.201637  1
  Nd  Nd2  1  0.162957  0.390317  0.666448  1
  Nd  Nd3  1  0.666448  0.162957  0.390317  1
  Nd  Nd4  1  0.390317  0.666448  0.162957  1
  Nd  Nd5  1  0.837043  0.609683  0.333552  1
  Nd  Nd6  1  0.333552  0.837043  0.609683  1
  Nd  Nd7  1  0.609683  0.333552  0.837043  1
  Dy  Dy8  1  0.000000  0.000000  0.000000  1
  Rh  Rh9  1  0.958726  0.159544  0.596196  1
  Rh  Rh10  1  0.596196  0.958726  0.159544  1
  Rh  Rh11  1  0.159544  0.596196  0.958726  1
  Rh  Rh12  1  0.041274  0.840456  0.403804  1
  Rh  Rh13  1  0.403804  0.041274  0.840456  1
  Rh  Rh14  1  0.840456  0.403804  0.041274  1
