# generated using pymatgen
data_Li2Cr2Co10As7
_symmetry_space_group_name_H-M   'P 1'
_cell_length_a   3.63835900
_cell_length_b   9.29983664
_cell_length_c   9.36179638
_cell_angle_alpha   120.25890042
_cell_angle_beta   90.00000000
_cell_angle_gamma   90.00000000
_symmetry_Int_Tables_number   1
_chemical_formula_structural   Li2Cr2Co10As7
_chemical_formula_sum   'Li2 Cr2 Co10 As7'
_cell_volume   273.60986987
_cell_formula_units_Z   1
loop_
 _symmetry_equiv_pos_site_id
 _symmetry_equiv_pos_as_xyz
  1  'x, y, z'
loop_
 _atom_site_type_symbol
 _atom_site_label
 _atom_site_symmetry_multiplicity
 _atom_site_fract_x
 _atom_site_fract_y
 _atom_site_fract_z
 _atom_site_occupancy
  Li  Li0  1  0.000000  0.672617  0.338208  1
  Li  Li1  1  0.500000  0.333193  0.667994  1
  Cr  Cr2  1  0.500000  0.776413  0.900152  1
  Cr  Cr3  1  0.500000  0.127396  0.225297  1
  Co  Co4  1  0.000000  0.568747  0.945449  1
  Co  Co5  1  0.000000  0.374278  0.427398  1
  Co  Co6  1  0.000000  0.051525  0.623647  1
  Co  Co7  1  0.500000  0.093583  0.870541  1
  Co  Co8  1  0.000000  0.884223  0.159645  1
  Co  Co9  1  0.000000  0.281863  0.118130  1
  Co  Co10  1  0.000000  0.836118  0.720275  1
  Co  Co11  1  0.500000  0.952170  0.387384  1
  Co  Co12  1  0.500000  0.432466  0.046216  1
  Co  Co13  1  0.500000  0.613270  0.567382  1
  As  As14  1  0.000000  0.002858  0.997095  1
  As  As15  1  0.500000  0.709229  0.129076  1
  As  As16  1  0.500000  0.424244  0.290851  1
  As  As17  1  0.500000  0.873504  0.585019  1
  As  As18  1  0.000000  0.574520  0.702856  1
  As  As19  1  0.000000  0.126668  0.423955  1
  As  As20  1  0.000000  0.291111  0.873431  1
