# generated using pymatgen
data_MgIn5CoIr
_symmetry_space_group_name_H-M   'P 1'
_cell_length_a   6.97986188
_cell_length_b   7.05232715
_cell_length_c   7.09459600
_cell_angle_alpha   90.00000000
_cell_angle_beta   90.00000000
_cell_angle_gamma   90.23688707
_symmetry_Int_Tables_number   1
_chemical_formula_structural   MgIn5CoIr
_chemical_formula_sum   'Mg2 In10 Co2 Ir2'
_cell_volume   349.22332032
_cell_formula_units_Z   2
loop_
 _symmetry_equiv_pos_site_id
 _symmetry_equiv_pos_as_xyz
  1  'x, y, z'
loop_
 _atom_site_type_symbol
 _atom_site_label
 _atom_site_symmetry_multiplicity
 _atom_site_fract_x
 _atom_site_fract_y
 _atom_site_fract_z
 _atom_site_occupancy
  Mg  Mg0  1  0.500000  0.500000  0.000000  1
  Mg  Mg1  1  0.500000  0.500000  0.500000  1
  In  In2  1  0.000000  0.000000  0.000000  1
  In  In3  1  0.830410  0.344808  0.247377  1
  In  In4  1  0.169590  0.655193  0.247377  1
  In  In5  1  0.355064  0.162794  0.266986  1
  In  In6  1  0.644938  0.837206  0.266986  1
  In  In7  1  0.000000  0.000000  0.500000  1
  In  In8  1  0.355063  0.162794  0.733014  1
  In  In9  1  0.644937  0.837206  0.733014  1
  In  In10  1  0.830410  0.344808  0.752623  1
  In  In11  1  0.169590  0.655193  0.752623  1
  Co  Co12  1  0.653885  0.144369  0.500000  1
  Co  Co13  1  0.346115  0.855630  0.500000  1
  Ir  Ir14  1  0.150426  0.347554  0.000000  1
  Ir  Ir15  1  0.849573  0.652446  0.000000  1
