# generated using pymatgen
data_MnCr2CoP2
_symmetry_space_group_name_H-M   'P 1'
_cell_length_a   3.54903000
_cell_length_b   5.77029500
_cell_length_c   6.59664400
_cell_angle_alpha   90.00000000
_cell_angle_beta   90.00000000
_cell_angle_gamma   90.00000000
_symmetry_Int_Tables_number   1
_chemical_formula_structural   MnCr2CoP2
_chemical_formula_sum   'Mn2 Cr4 Co2 P4'
_cell_volume   135.09234306
_cell_formula_units_Z   2
loop_
 _symmetry_equiv_pos_site_id
 _symmetry_equiv_pos_as_xyz
  1  'x, y, z'
loop_
 _atom_site_type_symbol
 _atom_site_label
 _atom_site_symmetry_multiplicity
 _atom_site_fract_x
 _atom_site_fract_y
 _atom_site_fract_z
 _atom_site_occupancy
  Mn  Mn0  1  0.750000  0.641211  0.558255  1
  Mn  Mn1  1  0.750000  0.141211  0.941745  1
  Cr  Cr2  1  0.750000  0.527041  0.171789  1
  Cr  Cr3  1  0.750000  0.027041  0.328211  1
  Cr  Cr4  1  0.250000  0.476848  0.828426  1
  Cr  Cr5  1  0.250000  0.976848  0.671574  1
  Co  Co6  1  0.250000  0.353950  0.434063  1
  Co  Co7  1  0.250000  0.853950  0.065937  1
  P  P8  1  0.750000  0.263123  0.623656  1
  P  P9  1  0.750000  0.763122  0.876344  1
  P  P10  1  0.250000  0.737828  0.377550  1
  P  P11  1  0.250000  0.237827  0.122450  1
