# generated using pymatgen
data_Sm3Ho7C4I15
_symmetry_space_group_name_H-M   'P 1'
_cell_length_a   9.57401798
_cell_length_b   10.35989244
_cell_length_c   11.51081966
_cell_angle_alpha   93.37220314
_cell_angle_beta   114.15418465
_cell_angle_gamma   109.62958134
_symmetry_Int_Tables_number   1
_chemical_formula_structural   Sm3Ho7C4I15
_chemical_formula_sum   'Sm3 Ho7 C4 I15'
_cell_volume   955.27382347
_cell_formula_units_Z   1
loop_
 _symmetry_equiv_pos_site_id
 _symmetry_equiv_pos_as_xyz
  1  'x, y, z'
loop_
 _atom_site_type_symbol
 _atom_site_label
 _atom_site_symmetry_multiplicity
 _atom_site_fract_x
 _atom_site_fract_y
 _atom_site_fract_z
 _atom_site_occupancy
  Sm  Sm0  1  0.701269  0.567267  0.043684  1
  Sm  Sm1  1  0.298505  0.433567  0.955916  1
  Sm  Sm2  1  0.657433  0.257808  0.838726  1
  Ho  Ho3  1  0.590703  0.540524  0.336806  1
  Ho  Ho4  1  0.349926  0.740168  0.160497  1
  Ho  Ho5  1  0.766048  0.873136  0.251139  1
  Ho  Ho6  1  0.527232  0.186109  0.099602  1
  Ho  Ho7  1  0.236409  0.125735  0.750868  1
  Ho  Ho8  1  0.407105  0.458919  0.662779  1
  Ho  Ho9  1  0.473386  0.815104  0.900330  1
  C  C10  1  0.483005  0.299802  0.941420  1
  C  C11  1  0.516751  0.702446  0.059329  1
  C  C12  1  0.453854  0.365286  0.833952  1
  C  C13  1  0.544881  0.635353  0.166321  1
  I  I14  1  0.213098  0.906609  0.939031  1
  I  I15  1  0.110905  0.192373  0.477536  1
  I  I16  1  0.161801  0.562118  0.700467  1
  I  I17  1  0.402119  0.969150  0.652861  1
  I  I18  1  0.705821  0.738928  0.815715  1
  I  I19  1  0.292485  0.261010  0.182534  1
  I  I20  1  0.837649  0.438088  0.299952  1
  I  I21  1  0.886966  0.806000  0.524036  1
  I  I22  1  0.356200  0.627367  0.407729  1
  I  I23  1  0.047751  0.837407  0.221944  1
  I  I24  1  0.789562  0.092051  0.066217  1
  I  I25  1  0.640729  0.375762  0.586364  1
  I  I26  1  0.953236  0.162792  0.779022  1
  I  I27  1  0.589845  0.023980  0.342902  1
  I  I28  1  0.005326  0.505142  0.002318  1
