# generated using pymatgen
data_K8VFeSe8
_symmetry_space_group_name_H-M   'P 1'
_cell_length_a   8.43616816
_cell_length_b   10.00658700
_cell_length_c   14.88271200
_cell_angle_alpha   90.00000000
_cell_angle_beta   91.59171338
_cell_angle_gamma   90.00000000
_symmetry_Int_Tables_number   1
_chemical_formula_structural   K8VFeSe8
_chemical_formula_sum   'K16 V2 Fe2 Se16'
_cell_volume   1255.87285390
_cell_formula_units_Z   2
loop_
 _symmetry_equiv_pos_site_id
 _symmetry_equiv_pos_as_xyz
  1  'x, y, z'
loop_
 _atom_site_type_symbol
 _atom_site_label
 _atom_site_symmetry_multiplicity
 _atom_site_fract_x
 _atom_site_fract_y
 _atom_site_fract_z
 _atom_site_occupancy
  K  K0  1  0.000000  0.000000  0.000000  1
  K  K1  1  0.500000  0.000000  0.500000  1
  K  K2  1  0.000000  0.500000  0.000000  1
  K  K3  1  0.500000  0.500000  0.500000  1
  K  K4  1  0.991639  0.750000  0.441250  1
  K  K5  1  0.477266  0.250000  0.086208  1
  K  K6  1  0.008361  0.250000  0.558750  1
  K  K7  1  0.522734  0.750000  0.913792  1
  K  K8  1  0.847467  0.060313  0.280178  1
  K  K9  1  0.340234  0.960924  0.229459  1
  K  K10  1  0.152533  0.560313  0.719822  1
  K  K11  1  0.659766  0.460924  0.770541  1
  K  K12  1  0.152533  0.939687  0.719822  1
  K  K13  1  0.659766  0.039076  0.770541  1
  K  K14  1  0.847467  0.439687  0.280178  1
  K  K15  1  0.340234  0.539076  0.229459  1
  V  V16  1  0.738700  0.750000  0.164022  1
  V  V17  1  0.261300  0.250000  0.835978  1
  Fe  Fe18  1  0.759134  0.750000  0.669404  1
  Fe  Fe19  1  0.240866  0.250000  0.330596  1
  Se  Se20  1  0.987927  0.250000  0.828400  1
  Se  Se21  1  0.529350  0.250000  0.316444  1
  Se  Se22  1  0.470650  0.750000  0.683556  1
  Se  Se23  1  0.012073  0.750000  0.171600  1
  Se  Se24  1  0.649511  0.561291  0.089921  1
  Se  Se25  1  0.160406  0.449158  0.407560  1
  Se  Se26  1  0.350489  0.061291  0.910079  1
  Se  Se27  1  0.839594  0.949158  0.592440  1
  Se  Se28  1  0.350489  0.438709  0.910079  1
  Se  Se29  1  0.839594  0.550842  0.592440  1
  Se  Se30  1  0.649511  0.938709  0.089921  1
  Se  Se31  1  0.160406  0.050842  0.407560  1
  Se  Se32  1  0.639835  0.750000  0.307036  1
  Se  Se33  1  0.120904  0.250000  0.175709  1
  Se  Se34  1  0.360165  0.250000  0.692964  1
  Se  Se35  1  0.879096  0.750000  0.824291  1
