# generated using pymatgen
data_Y4HgPt3Pb2
_symmetry_space_group_name_H-M   'P 1'
_cell_length_a   8.19457000
_cell_length_b   8.19456957
_cell_length_c   3.58546500
_cell_angle_alpha   90.00000000
_cell_angle_beta   90.00000000
_cell_angle_gamma   89.14979526
_symmetry_Int_Tables_number   1
_chemical_formula_structural   Y4HgPt3Pb2
_chemical_formula_sum   'Y4 Hg1 Pt3 Pb2'
_cell_volume   240.74095953
_cell_formula_units_Z   1
loop_
 _symmetry_equiv_pos_site_id
 _symmetry_equiv_pos_as_xyz
  1  'x, y, z'
loop_
 _atom_site_type_symbol
 _atom_site_label
 _atom_site_symmetry_multiplicity
 _atom_site_fract_x
 _atom_site_fract_y
 _atom_site_fract_z
 _atom_site_occupancy
  Y  Y0  1  0.645010  0.145010  0.500000  1
  Y  Y1  1  0.193503  0.342560  0.500000  1
  Y  Y2  1  0.842560  0.693503  0.500000  1
  Y  Y3  1  0.329902  0.829902  0.500000  1
  Hg  Hg4  1  0.870770  0.370770  0.000000  1
  Pt  Pt5  1  0.365736  0.120834  0.000000  1
  Pt  Pt6  1  0.620834  0.865736  0.000000  1
  Pt  Pt7  1  0.122788  0.622788  0.000000  1
  Pb  Pb8  1  0.005893  0.003001  0.000000  1
  Pb  Pb9  1  0.503001  0.505893  0.000000  1
