# generated using pymatgen
data_Y6Tm10CdNi4Ag3
_symmetry_space_group_name_H-M   'P 1'
_cell_length_a   9.39274420
_cell_length_b   9.41030662
_cell_length_c   9.41030600
_cell_angle_alpha   59.99999513
_cell_angle_beta   59.93812382
_cell_angle_gamma   59.93812770
_symmetry_Int_Tables_number   1
_chemical_formula_structural   Y6Tm10CdNi4Ag3
_chemical_formula_sum   'Y6 Tm10 Cd1 Ni4 Ag3'
_cell_volume   587.59515061
_cell_formula_units_Z   1
loop_
 _symmetry_equiv_pos_site_id
 _symmetry_equiv_pos_as_xyz
  1  'x, y, z'
loop_
 _atom_site_type_symbol
 _atom_site_label
 _atom_site_symmetry_multiplicity
 _atom_site_fract_x
 _atom_site_fract_y
 _atom_site_fract_z
 _atom_site_occupancy
  Y  Y0  1  0.185396  0.813091  0.813091  1
  Y  Y1  1  0.813876  0.186659  0.186659  1
  Y  Y2  1  0.813876  0.186659  0.812806  1
  Y  Y3  1  0.185396  0.813091  0.188424  1
  Y  Y4  1  0.813876  0.812806  0.186659  1
  Y  Y5  1  0.185396  0.188424  0.813091  1
  Tm  Tm6  1  0.600190  0.598369  0.598369  1
  Tm  Tm7  1  0.600190  0.598369  0.203071  1
  Tm  Tm8  1  0.600190  0.203071  0.598369  1
  Tm  Tm9  1  0.197831  0.600723  0.600723  1
  Tm  Tm10  1  0.061771  0.437743  0.437743  1
  Tm  Tm11  1  0.436583  0.063044  0.063044  1
  Tm  Tm12  1  0.436583  0.063044  0.437328  1
  Tm  Tm13  1  0.061771  0.437743  0.062741  1
  Tm  Tm14  1  0.436583  0.437328  0.063044  1
  Tm  Tm15  1  0.061771  0.062741  0.437743  1
  Cd  Cd16  1  0.515406  0.828198  0.828198  1
  Ni  Ni17  1  0.390491  0.393459  0.393459  1
  Ni  Ni18  1  0.390491  0.393459  0.822593  1
  Ni  Ni19  1  0.390491  0.822593  0.393459  1
  Ni  Ni20  1  0.824973  0.391676  0.391676  1
  Ag  Ag21  1  0.832289  0.831798  0.831798  1
  Ag  Ag22  1  0.832289  0.831798  0.504115  1
  Ag  Ag23  1  0.832289  0.504115  0.831798  1
