# generated using pymatgen
data_Nb6Si5PW6
_symmetry_space_group_name_H-M   'P 1'
_cell_length_a   7.72342290
_cell_length_b   7.72181447
_cell_length_c   7.72342302
_cell_angle_alpha   126.41593657
_cell_angle_beta   128.76016248
_cell_angle_gamma   77.31289141
_symmetry_Int_Tables_number   1
_chemical_formula_structural   Nb6Si5PW6
_chemical_formula_sum   'Nb6 Si5 P1 W6'
_cell_volume   280.42801079
_cell_formula_units_Z   1
loop_
 _symmetry_equiv_pos_site_id
 _symmetry_equiv_pos_as_xyz
  1  'x, y, z'
loop_
 _atom_site_type_symbol
 _atom_site_label
 _atom_site_symmetry_multiplicity
 _atom_site_fract_x
 _atom_site_fract_y
 _atom_site_fract_z
 _atom_site_occupancy
  Nb  Nb0  1  0.548422  0.091346  0.042924  1
  Nb  Nb1  1  0.448870  0.498462  0.549592  1
  Nb  Nb2  1  0.951637  0.495991  0.044354  1
  Nb  Nb3  1  0.050416  0.097698  0.547282  1
  Nb  Nb4  1  0.751074  0.901068  0.649993  1
  Nb  Nb5  1  0.250014  0.896930  0.146914  1
  Si  Si6  1  0.249364  0.497628  0.748264  1
  Si  Si7  1  0.332958  0.829678  0.495779  1
  Si  Si8  1  0.665501  0.164013  0.495410  1
  Si  Si9  1  0.833899  0.829678  0.996720  1
  Si  Si10  1  0.168603  0.164013  0.998513  1
  P  P11  1  0.749707  0.495740  0.246034  1
  W  W12  1  0.503919  0.241077  0.744909  1
  W  W13  1  0.996167  0.241077  0.237157  1
  W  W14  1  0.122775  0.752244  0.619505  1
  W  W15  1  0.866463  0.496656  0.619186  1
  W  W16  1  0.632739  0.752244  0.129469  1
  W  W17  1  0.377471  0.496656  0.130193  1
