# generated using pymatgen
data_Dy3Tl2CdAg2Rh
_symmetry_space_group_name_H-M   'P 1'
_cell_length_a   8.06412406
_cell_length_b   8.08610001
_cell_length_c   3.75615200
_cell_angle_alpha   90.00000000
_cell_angle_beta   90.00000000
_cell_angle_gamma   120.64762306
_symmetry_Int_Tables_number   1
_chemical_formula_structural   Dy3Tl2CdAg2Rh
_chemical_formula_sum   'Dy3 Tl2 Cd1 Ag2 Rh1'
_cell_volume   210.71662065
_cell_formula_units_Z   1
loop_
 _symmetry_equiv_pos_site_id
 _symmetry_equiv_pos_as_xyz
  1  'x, y, z'
loop_
 _atom_site_type_symbol
 _atom_site_label
 _atom_site_symmetry_multiplicity
 _atom_site_fract_x
 _atom_site_fract_y
 _atom_site_fract_z
 _atom_site_occupancy
  Dy  Dy0  1  0.037328  0.613975  0.500000  1
  Dy  Dy1  1  0.581359  0.965711  0.500000  1
  Dy  Dy2  1  0.386690  0.420919  0.500000  1
  Tl  Tl3  1  0.989319  0.267605  0.000000  1
  Tl  Tl4  1  0.277997  0.008368  0.000000  1
  Cd  Cd5  1  0.728700  0.721558  0.000000  1
  Ag  Ag6  1  0.993813  0.992921  0.500000  1
  Ag  Ag7  1  0.668658  0.341297  0.000000  1
  Rh  Rh8  1  0.336139  0.667646  0.000000  1
