# generated using pymatgen
data_Nb4Si4TcPt3
_symmetry_space_group_name_H-M   'P 1'
_cell_length_a   3.82253000
_cell_length_b   6.50930100
_cell_length_c   7.43536349
_cell_angle_alpha   89.55859602
_cell_angle_beta   90.00000000
_cell_angle_gamma   90.00000000
_symmetry_Int_Tables_number   1
_chemical_formula_structural   Nb4Si4TcPt3
_chemical_formula_sum   'Nb4 Si4 Tc1 Pt3'
_cell_volume   185.00121212
_cell_formula_units_Z   1
loop_
 _symmetry_equiv_pos_site_id
 _symmetry_equiv_pos_as_xyz
  1  'x, y, z'
loop_
 _atom_site_type_symbol
 _atom_site_label
 _atom_site_symmetry_multiplicity
 _atom_site_fract_x
 _atom_site_fract_y
 _atom_site_fract_z
 _atom_site_occupancy
  Nb  Nb0  1  0.750000  0.482207  0.323258  1
  Nb  Nb1  1  0.250000  0.025047  0.835987  1
  Nb  Nb2  1  0.750000  0.969245  0.162240  1
  Nb  Nb3  1  0.250000  0.527696  0.676547  1
  Si  Si4  1  0.250000  0.267171  0.127767  1
  Si  Si5  1  0.250000  0.766846  0.369508  1
  Si  Si6  1  0.750000  0.733837  0.876624  1
  Si  Si7  1  0.750000  0.236082  0.626749  1
  Tc  Tc8  1  0.250000  0.641412  0.062351  1
  Pt  Pt9  1  0.250000  0.149260  0.437872  1
  Pt  Pt10  1  0.750000  0.849617  0.564444  1
  Pt  Pt11  1  0.750000  0.351580  0.936654  1
