# generated using pymatgen
data_AcLaHo(Si3Pd10)2
_symmetry_space_group_name_H-M   'P 1'
_cell_length_a   8.79757487
_cell_length_b   8.79757610
_cell_length_c   8.79757400
_cell_angle_alpha   60.00000037
_cell_angle_beta   59.99999574
_cell_angle_gamma   60.00000179
_symmetry_Int_Tables_number   1
_chemical_formula_structural   AcLaHo(Si3Pd10)2
_chemical_formula_sum   'Ac1 La1 Ho1 Si6 Pd20'
_cell_volume   481.47520572
_cell_formula_units_Z   1
loop_
 _symmetry_equiv_pos_site_id
 _symmetry_equiv_pos_as_xyz
  1  'x, y, z'
loop_
 _atom_site_type_symbol
 _atom_site_label
 _atom_site_symmetry_multiplicity
 _atom_site_fract_x
 _atom_site_fract_y
 _atom_site_fract_z
 _atom_site_occupancy
  Ac  Ac0  1  0.250000  0.250000  0.250000  1
  La  La1  1  0.750000  0.750000  0.750000  1
  Ho  Ho2  1  0.000000  0.000000  0.000000  1
  Si  Si3  1  0.734273  0.265727  0.265727  1
  Si  Si4  1  0.265727  0.734273  0.734273  1
  Si  Si5  1  0.265727  0.734273  0.265727  1
  Si  Si6  1  0.734273  0.265727  0.734273  1
  Si  Si7  1  0.265727  0.265727  0.734273  1
  Si  Si8  1  0.734273  0.734273  0.265727  1
  Pd  Pd9  1  0.387361  0.387361  0.387361  1
  Pd  Pd10  1  0.614891  0.614891  0.614891  1
  Pd  Pd11  1  0.387361  0.387361  0.837917  1
  Pd  Pd12  1  0.387361  0.837917  0.387361  1
  Pd  Pd13  1  0.614891  0.614891  0.155326  1
  Pd  Pd14  1  0.614891  0.155326  0.614891  1
  Pd  Pd15  1  0.837917  0.387361  0.387361  1
  Pd  Pd16  1  0.155326  0.614891  0.614891  1
  Pd  Pd17  1  0.345947  0.999052  0.999052  1
  Pd  Pd18  1  0.655950  0.999052  0.999052  1
  Pd  Pd19  1  0.999052  0.345947  0.655950  1
  Pd  Pd20  1  0.999052  0.655950  0.345947  1
  Pd  Pd21  1  0.999052  0.345947  0.999052  1
  Pd  Pd22  1  0.655950  0.999052  0.345947  1
  Pd  Pd23  1  0.999052  0.655950  0.999052  1
  Pd  Pd24  1  0.345947  0.999052  0.655950  1
  Pd  Pd25  1  0.999052  0.999052  0.345947  1
  Pd  Pd26  1  0.999052  0.999052  0.655950  1
  Pd  Pd27  1  0.655950  0.345947  0.999052  1
  Pd  Pd28  1  0.345947  0.655950  0.999052  1
