# generated using pymatgen
data_Ca2TbNdAl8
_symmetry_space_group_name_H-M   'P 1'
_cell_length_a   9.66533140
_cell_length_b   9.66533160
_cell_length_c   9.66533213
_cell_angle_alpha   34.13082652
_cell_angle_beta   34.13082105
_cell_angle_gamma   34.13081828
_symmetry_Int_Tables_number   1
_chemical_formula_structural   Ca2TbNdAl8
_chemical_formula_sum   'Ca2 Tb1 Nd1 Al8'
_cell_volume   253.43252116
_cell_formula_units_Z   1
loop_
 _symmetry_equiv_pos_site_id
 _symmetry_equiv_pos_as_xyz
  1  'x, y, z'
loop_
 _atom_site_type_symbol
 _atom_site_label
 _atom_site_symmetry_multiplicity
 _atom_site_fract_x
 _atom_site_fract_y
 _atom_site_fract_z
 _atom_site_occupancy
  Ca  Ca0  1  0.187521  0.187521  0.187521  1
  Ca  Ca1  1  0.813005  0.813005  0.813005  1
  Tb  Tb2  1  0.311397  0.311397  0.311397  1
  Nd  Nd3  1  0.688112  0.688112  0.688112  1
  Al  Al4  1  0.999602  0.999602  0.999602  1
  Al  Al5  1  0.500318  0.500318  0.500318  1
  Al  Al6  1  0.744225  0.249953  0.249953  1
  Al  Al7  1  0.255499  0.750207  0.750207  1
  Al  Al8  1  0.249953  0.744225  0.249953  1
  Al  Al9  1  0.750207  0.255499  0.750207  1
  Al  Al10  1  0.249953  0.249953  0.744225  1
  Al  Al11  1  0.750207  0.750207  0.255499  1
