# generated using pymatgen
data_CeEr7BePd24
_symmetry_space_group_name_H-M   'P 1'
_cell_length_a   8.26828654
_cell_length_b   8.26828607
_cell_length_c   8.26828601
_cell_angle_alpha   89.96687076
_cell_angle_beta   90.03312347
_cell_angle_gamma   90.03312392
_symmetry_Int_Tables_number   1
_chemical_formula_structural   CeEr7BePd24
_chemical_formula_sum   'Ce1 Er7 Be1 Pd24'
_cell_volume   565.25743880
_cell_formula_units_Z   1
loop_
 _symmetry_equiv_pos_site_id
 _symmetry_equiv_pos_as_xyz
  1  'x, y, z'
loop_
 _atom_site_type_symbol
 _atom_site_label
 _atom_site_symmetry_multiplicity
 _atom_site_fract_x
 _atom_site_fract_y
 _atom_site_fract_z
 _atom_site_occupancy
  Ce  Ce0  1  0.746646  0.253354  0.253354  1
  Er  Er1  1  0.250816  0.251205  0.251205  1
  Er  Er2  1  0.748572  0.749032  0.749032  1
  Er  Er3  1  0.748795  0.749184  0.251205  1
  Er  Er4  1  0.748795  0.251205  0.749184  1
  Er  Er5  1  0.250968  0.251428  0.749032  1
  Er  Er6  1  0.250968  0.749032  0.251428  1
  Er  Er7  1  0.251619  0.748381  0.748381  1
  Be  Be8  1  0.001762  0.998238  0.998238  1
  Pd  Pd9  1  0.254020  0.499803  0.000035  1
  Pd  Pd10  1  0.746082  0.499512  0.000774  1
  Pd  Pd11  1  0.999226  0.253918  0.499512  1
  Pd  Pd12  1  0.500488  0.253918  0.000774  1
  Pd  Pd13  1  0.999965  0.745980  0.499803  1
  Pd  Pd14  1  0.500197  0.745980  0.000035  1
  Pd  Pd15  1  0.500488  0.000774  0.253918  1
  Pd  Pd16  1  0.254020  0.000035  0.499803  1
  Pd  Pd17  1  0.500197  0.000035  0.745980  1
  Pd  Pd18  1  0.746082  0.000774  0.499512  1
  Pd  Pd19  1  0.999226  0.499512  0.253918  1
  Pd  Pd20  1  0.999965  0.499803  0.745980  1
  Pd  Pd21  1  0.250191  0.499819  0.499819  1
  Pd  Pd22  1  0.749488  0.500170  0.500170  1
  Pd  Pd23  1  0.499830  0.250512  0.500170  1
  Pd  Pd24  1  0.500181  0.749809  0.499819  1
  Pd  Pd25  1  0.499830  0.500170  0.250512  1
  Pd  Pd26  1  0.500181  0.499819  0.749809  1
  Pd  Pd27  1  0.268330  0.999866  0.999866  1
  Pd  Pd28  1  0.732911  0.000053  0.000053  1
  Pd  Pd29  1  0.999947  0.267089  0.000053  1
  Pd  Pd30  1  0.000134  0.731670  0.999866  1
  Pd  Pd31  1  0.999947  0.000053  0.267089  1
  Pd  Pd32  1  0.000134  0.999866  0.731670  1
