# generated using pymatgen
data_Sc2Ti4TcAs6Ru5
_symmetry_space_group_name_H-M   'P 1'
_cell_length_a   7.54645495
_cell_length_b   7.55211067
_cell_length_c   7.54461761
_cell_angle_alpha   127.79397232
_cell_angle_beta   121.04467764
_cell_angle_gamma   82.57009554
_symmetry_Int_Tables_number   1
_chemical_formula_structural   Sc2Ti4TcAs6Ru5
_chemical_formula_sum   'Sc2 Ti4 Tc1 As6 Ru5'
_cell_volume   279.82022520
_cell_formula_units_Z   1
loop_
 _symmetry_equiv_pos_site_id
 _symmetry_equiv_pos_as_xyz
  1  'x, y, z'
loop_
 _atom_site_type_symbol
 _atom_site_label
 _atom_site_symmetry_multiplicity
 _atom_site_fract_x
 _atom_site_fract_y
 _atom_site_fract_z
 _atom_site_occupancy
  Sc  Sc0  1  0.472102  0.241194  0.270501  1
  Sc  Sc1  1  0.526632  0.795557  0.766487  1
  Ti  Ti2  1  0.740835  0.667028  0.410523  1
  Ti  Ti3  1  0.260779  0.672692  0.926752  1
  Ti  Ti4  1  0.054519  0.846842  0.291524  1
  Ti  Ti5  1  0.943720  0.240362  0.794202  1
  Tc  Tc6  1  0.663284  0.491364  0.906327  1
  As  As7  1  0.847182  0.583645  0.754723  1
  As  As8  1  0.152281  0.906935  0.734576  1
  As  As9  1  0.677065  0.910759  0.254434  1
  As  As10  1  0.323634  0.576016  0.231532  1
  As  As11  1  0.281677  0.293477  0.510879  1
  As  As12  1  0.717627  0.226812  0.010688  1
  Ru  Ru13  1  0.334920  0.240517  0.828826  1
  Ru  Ru14  1  0.916766  0.248705  0.413399  1
  Ru  Ru15  1  0.082042  0.496077  0.328315  1
  Ru  Ru16  1  0.003416  0.006378  0.007721  1
  Ru  Ru17  1  0.501519  0.996038  0.498992  1
