# generated using pymatgen
data_Ba14CdBi11
_symmetry_space_group_name_H-M   'P 1'
_cell_length_a   18.28576848
_cell_length_b   18.28577785
_cell_length_c   18.28578400
_cell_angle_alpha   94.39898146
_cell_angle_beta   117.49359848
_cell_angle_gamma   117.49361902
_symmetry_Int_Tables_number   1
_chemical_formula_structural   Ba14CdBi11
_chemical_formula_sum   'Ba56 Cd4 Bi44'
_cell_volume   4472.92213169
_cell_formula_units_Z   4
loop_
 _symmetry_equiv_pos_site_id
 _symmetry_equiv_pos_as_xyz
  1  'x, y, z'
loop_
 _atom_site_type_symbol
 _atom_site_label
 _atom_site_symmetry_multiplicity
 _atom_site_fract_x
 _atom_site_fract_y
 _atom_site_fract_z
 _atom_site_occupancy
  Ba  Ba0  1  0.101801  0.124481  0.977636  1
  Ba  Ba1  1  0.353878  0.250001  0.603877  1
  Ba  Ba2  1  0.030782  0.785078  0.401558  1
  Ba  Ba3  1  0.087498  0.522324  0.751474  1
  Ba  Ba4  1  0.646122  0.749999  0.396123  1
  Ba  Ba5  1  0.646122  0.396123  0.250000  1
  Ba  Ba6  1  0.883520  0.754295  0.785079  1
  Ba  Ba7  1  0.398198  0.375834  0.022680  1
  Ba  Ba8  1  0.270852  0.336025  0.748526  1
  Ba  Ba9  1  0.087499  0.065174  0.336026  1
  Ba  Ba10  1  0.912501  0.934826  0.663974  1
  Ba  Ba11  1  0.729148  0.663975  0.251474  1
  Ba  Ba12  1  0.646846  0.124166  0.522363  1
  Ba  Ba13  1  0.853155  0.977636  0.375835  1
  Ba  Ba14  1  0.146121  0.749999  0.896121  1
  Ba  Ba15  1  0.601802  0.624166  0.977320  1
  Ba  Ba16  1  0.729148  0.565174  0.477675  1
  Ba  Ba17  1  0.587498  0.251473  0.022325  1
  Ba  Ba18  1  0.398199  0.522363  0.375517  1
  Ba  Ba19  1  0.229149  0.977675  0.065174  1
  Ba  Ba20  1  0.412502  0.748527  0.977675  1
  Ba  Ba21  1  0.146846  0.624482  0.522681  1
  Ba  Ba22  1  0.383521  0.285079  0.254296  1
  Ba  Ba23  1  0.530784  0.129226  0.245704  1
  Ba  Ba24  1  0.912502  0.477676  0.248526  1
  Ba  Ba25  1  0.587499  0.836025  0.565173  1
  Ba  Ba26  1  0.883522  0.629225  0.098441  1
  Ba  Ba27  1  0.116478  0.370775  0.901559  1
  Ba  Ba28  1  0.353154  0.875834  0.477637  1
  Ba  Ba29  1  0.469216  0.870774  0.754296  1
  Ba  Ba30  1  0.353154  0.977319  0.875518  1
  Ba  Ba31  1  0.898199  0.875519  0.022364  1
  Ba  Ba32  1  0.853154  0.375518  0.477319  1
  Ba  Ba33  1  0.853879  0.250001  0.103879  1
  Ba  Ba34  1  0.898198  0.522680  0.875835  1
  Ba  Ba35  1  0.101802  0.477320  0.124165  1
  Ba  Ba36  1  0.116480  0.245705  0.214921  1
  Ba  Ba37  1  0.530783  0.901558  0.285078  1
  Ba  Ba38  1  0.601801  0.477637  0.624483  1
  Ba  Ba39  1  0.229149  0.751474  0.163976  1
  Ba  Ba40  1  0.616478  0.401558  0.870774  1
  Ba  Ba41  1  0.383522  0.598442  0.129226  1
  Ba  Ba42  1  0.030784  0.745705  0.629227  1
  Ba  Ba43  1  0.969218  0.214922  0.598442  1
  Ba  Ba44  1  0.770851  0.248526  0.836024  1
  Ba  Ba45  1  0.353878  0.603877  0.750000  1
  Ba  Ba46  1  0.412501  0.163975  0.434827  1
  Ba  Ba47  1  0.146845  0.022364  0.624165  1
  Ba  Ba48  1  0.646846  0.022681  0.124482  1
  Ba  Ba49  1  0.853880  0.103878  0.750001  1
  Ba  Ba50  1  0.616479  0.714921  0.745704  1
  Ba  Ba51  1  0.270852  0.434826  0.522325  1
  Ba  Ba52  1  0.146120  0.896122  0.249999  1
  Ba  Ba53  1  0.469217  0.098442  0.714922  1
  Ba  Ba54  1  0.770851  0.022325  0.934826  1
  Ba  Ba55  1  0.969216  0.254295  0.370773  1
  Cd  Cd56  1  0.749999  0.874999  0.124998  1
  Cd  Cd57  1  0.750000  0.375000  0.624999  1
  Cd  Cd58  1  0.250000  0.625000  0.375001  1
  Cd  Cd59  1  0.250001  0.125001  0.875002  1
  Bi  Bi60  1  0.485956  0.492978  0.742978  1
  Bi  Bi61  1  0.394325  0.914886  0.073360  1
  Bi  Bi62  1  0.514044  0.507022  0.257022  1
  Bi  Bi63  1  0.105673  0.179034  0.520559  1
  Bi  Bi64  1  0.894327  0.573360  0.414886  1
  Bi  Bi65  1  0.750000  0.992979  0.507021  1
  Bi  Bi66  1  0.605675  0.085114  0.926640  1
  Bi  Bi67  1  0.394326  0.979439  0.320965  1
  Bi  Bi68  1  0.384853  0.682513  0.576081  1
  Bi  Bi69  1  0.658474  0.679035  0.573360  1
  Bi  Bi70  1  0.750000  0.125000  0.375000  1
  Bi  Bi71  1  0.894327  0.820966  0.479441  1
  Bi  Bi72  1  0.106432  0.423920  0.308771  1
  Bi  Bi73  1  0.884851  0.308770  0.702338  1
  Bi  Bi74  1  0.884850  0.076079  0.182513  1
  Bi  Bi75  1  0.615148  0.797661  0.191228  1
  Bi  Bi76  1  0.393566  0.191229  0.076081  1
  Bi  Bi77  1  0.606434  0.297661  0.682513  1
  Bi  Bi78  1  0.393566  0.702339  0.317487  1
  Bi  Bi79  1  0.250000  0.374999  0.125000  1
  Bi  Bi80  1  0.106433  0.182513  0.797661  1
  Bi  Bi81  1  0.250000  0.007021  0.492979  1
  Bi  Bi82  1  0.115149  0.691230  0.297662  1
  Bi  Bi83  1  0.750000  0.625001  0.875000  1
  Bi  Bi84  1  0.115150  0.923921  0.817487  1
  Bi  Bi85  1  0.105673  0.426640  0.585114  1
  Bi  Bi86  1  0.250000  0.875000  0.625000  1
  Bi  Bi87  1  0.605674  0.020561  0.679035  1
  Bi  Bi88  1  0.841525  0.926639  0.820965  1
  Bi  Bi89  1  0.341526  0.320965  0.426640  1
  Bi  Bi90  1  0.841525  0.414886  0.020559  1
  Bi  Bi91  1  0.893567  0.817487  0.202339  1
  Bi  Bi92  1  0.158475  0.585114  0.979441  1
  Bi  Bi93  1  0.249999  0.742978  0.757022  1
  Bi  Bi94  1  0.893568  0.576080  0.691229  1
  Bi  Bi95  1  0.750001  0.257022  0.242978  1
  Bi  Bi96  1  0.615147  0.317487  0.423919  1
  Bi  Bi97  1  0.384852  0.202339  0.808772  1
  Bi  Bi98  1  0.658474  0.479440  0.085113  1
  Bi  Bi99  1  0.341526  0.520560  0.914887  1
  Bi  Bi100  1  0.158475  0.073361  0.179035  1
  Bi  Bi101  1  0.014043  0.757022  0.007021  1
  Bi  Bi102  1  0.985957  0.242978  0.992979  1
  Bi  Bi103  1  0.606434  0.808771  0.923919  1
