# generated using pymatgen
data_Tb3Th11(Tc2Os)2
_symmetry_space_group_name_H-M   'P 1'
_cell_length_a   9.86522507
_cell_length_b   9.94018827
_cell_length_c   6.38313983
_cell_angle_alpha   89.88016294
_cell_angle_beta   90.02356639
_cell_angle_gamma   120.18610165
_symmetry_Int_Tables_number   1
_chemical_formula_structural   Tb3Th11(Tc2Os)2
_chemical_formula_sum   'Tb3 Th11 Tc4 Os2'
_cell_volume   541.06326058
_cell_formula_units_Z   1
loop_
 _symmetry_equiv_pos_site_id
 _symmetry_equiv_pos_as_xyz
  1  'x, y, z'
loop_
 _atom_site_type_symbol
 _atom_site_label
 _atom_site_symmetry_multiplicity
 _atom_site_fract_x
 _atom_site_fract_y
 _atom_site_fract_z
 _atom_site_occupancy
  Tb  Tb0  1  0.460430  0.535975  0.295336  1
  Tb  Tb1  1  0.071784  0.534588  0.299499  1
  Tb  Tb2  1  0.927086  0.462758  0.797313  1
  Th  Th3  1  0.250551  0.126827  0.509318  1
  Th  Th4  1  0.541797  0.079080  0.797869  1
  Th  Th5  1  0.750563  0.873855  0.011187  1
  Th  Th6  1  0.667325  0.334506  0.271378  1
  Th  Th7  1  0.124148  0.870195  0.009723  1
  Th  Th8  1  0.463263  0.922931  0.299051  1
  Th  Th9  1  0.538175  0.463201  0.798678  1
  Th  Th10  1  0.874827  0.126821  0.512248  1
  Th  Th11  1  0.124272  0.251392  0.012495  1
  Th  Th12  1  0.873711  0.750294  0.510844  1
  Th  Th13  1  0.331560  0.664772  0.769391  1
  Tc  Tc14  1  0.813213  0.635470  0.047373  1
  Tc  Tc15  1  0.814133  0.177059  0.048967  1
  Tc  Tc16  1  0.631803  0.817456  0.548215  1
  Tc  Tc17  1  0.368909  0.186363  0.041544  1
  Os  Os18  1  0.185715  0.368891  0.556291  1
  Os  Os19  1  0.186736  0.817566  0.547274  1
