# generated using pymatgen
data_Ho5Hf(Be2Ir5)2
_symmetry_space_group_name_H-M   'P 1'
_cell_length_a   9.80861800
_cell_length_b   9.80861800
_cell_length_c   3.31502000
_cell_angle_alpha   90.00000000
_cell_angle_beta   90.00000000
_cell_angle_gamma   90.00000000
_symmetry_Int_Tables_number   1
_chemical_formula_structural   Ho5Hf(Be2Ir5)2
_chemical_formula_sum   'Ho5 Hf1 Be4 Ir10'
_cell_volume   318.93471632
_cell_formula_units_Z   1
loop_
 _symmetry_equiv_pos_site_id
 _symmetry_equiv_pos_as_xyz
  1  'x, y, z'
loop_
 _atom_site_type_symbol
 _atom_site_label
 _atom_site_symmetry_multiplicity
 _atom_site_fract_x
 _atom_site_fract_y
 _atom_site_fract_z
 _atom_site_occupancy
  Ho  Ho0  1  0.175936  0.676193  0.000000  1
  Ho  Ho1  1  0.323807  0.175936  0.000000  1
  Ho  Ho2  1  0.824064  0.323807  0.000000  1
  Ho  Ho3  1  0.500000  0.500000  0.000000  1
  Ho  Ho4  1  0.676193  0.824064  0.000000  1
  Hf  Hf5  1  0.000000  0.000000  0.000000  1
  Be  Be6  1  0.379466  0.879922  0.000000  1
  Be  Be7  1  0.120078  0.379466  0.000000  1
  Be  Be8  1  0.879922  0.620534  0.000000  1
  Be  Be9  1  0.620534  0.120078  0.000000  1
  Ir  Ir10  1  0.216636  0.933210  0.500000  1
  Ir  Ir11  1  0.933210  0.783364  0.500000  1
  Ir  Ir12  1  0.427367  0.724028  0.500000  1
  Ir  Ir13  1  0.572633  0.275972  0.500000  1
  Ir  Ir14  1  0.724028  0.572633  0.500000  1
  Ir  Ir15  1  0.275972  0.427367  0.500000  1
  Ir  Ir16  1  0.066790  0.216636  0.500000  1
  Ir  Ir17  1  0.000000  0.500000  0.500000  1
  Ir  Ir18  1  0.500000  0.000000  0.500000  1
  Ir  Ir19  1  0.783364  0.066790  0.500000  1
