# generated using pymatgen
data_Np2Ga3Ir2
_symmetry_space_group_name_H-M   'P 1'
_cell_length_a   5.35289336
_cell_length_b   5.35289252
_cell_length_c   6.91599867
_cell_angle_alpha   110.79217271
_cell_angle_beta   110.79216964
_cell_angle_gamma   46.73090412
_symmetry_Int_Tables_number   1
_chemical_formula_structural   Np2Ga3Ir2
_chemical_formula_sum   'Np2 Ga3 Ir2'
_cell_volume   133.06937528
_cell_formula_units_Z   1
loop_
 _symmetry_equiv_pos_site_id
 _symmetry_equiv_pos_as_xyz
  1  'x, y, z'
loop_
 _atom_site_type_symbol
 _atom_site_label
 _atom_site_symmetry_multiplicity
 _atom_site_fract_x
 _atom_site_fract_y
 _atom_site_fract_z
 _atom_site_occupancy
  Np  Np0  1  0.148756  0.148756  0.273182  1
  Np  Np1  1  0.851244  0.851244  0.726818  1
  Ga  Ga2  1  0.376158  0.376158  0.059119  1
  Ga  Ga3  1  0.500000  0.500000  0.500000  1
  Ga  Ga4  1  0.623842  0.623842  0.940881  1
  Ir  Ir5  1  0.857746  0.857746  0.297084  1
  Ir  Ir6  1  0.142253  0.142253  0.702915  1
