# generated using pymatgen
data_Ho2V3Co9As7
_symmetry_space_group_name_H-M   'P 1'
_cell_length_a   3.75530800
_cell_length_b   9.36739608
_cell_length_c   9.36739700
_cell_angle_alpha   119.99999970
_cell_angle_beta   90.00000000
_cell_angle_gamma   90.00000000
_symmetry_Int_Tables_number   1
_chemical_formula_structural   Ho2V3Co9As7
_chemical_formula_sum   'Ho2 V3 Co9 As7'
_cell_volume   285.37373928
_cell_formula_units_Z   1
loop_
 _symmetry_equiv_pos_site_id
 _symmetry_equiv_pos_as_xyz
  1  'x, y, z'
loop_
 _atom_site_type_symbol
 _atom_site_label
 _atom_site_symmetry_multiplicity
 _atom_site_fract_x
 _atom_site_fract_y
 _atom_site_fract_z
 _atom_site_occupancy
  Ho  Ho0  1  0.000000  0.666667  0.333333  1
  Ho  Ho1  1  0.500000  0.333333  0.666667  1
  V  V2  1  0.500000  0.782060  0.899064  1
  V  V3  1  0.500000  0.117004  0.217940  1
  V  V4  1  0.500000  0.100936  0.882996  1
  Co  Co5  1  0.000000  0.569428  0.940783  1
  Co  Co6  1  0.000000  0.371354  0.430572  1
  Co  Co7  1  0.000000  0.059217  0.628646  1
  Co  Co8  1  0.000000  0.878162  0.157714  1
  Co  Co9  1  0.000000  0.279552  0.121838  1
  Co  Co10  1  0.000000  0.842286  0.720448  1
  Co  Co11  1  0.500000  0.949973  0.382783  1
  Co  Co12  1  0.500000  0.432809  0.050027  1
  Co  Co13  1  0.500000  0.617217  0.567191  1
  As  As14  1  0.000000  0.000000  0.000000  1
  As  As15  1  0.500000  0.707931  0.118352  1
  As  As16  1  0.500000  0.410421  0.292069  1
  As  As17  1  0.500000  0.881648  0.589579  1
  As  As18  1  0.000000  0.586862  0.701902  1
  As  As19  1  0.000000  0.115040  0.413138  1
  As  As20  1  0.000000  0.298098  0.884960  1
