# generated using pymatgen
data_Sr9Y(PN5)2
_symmetry_space_group_name_H-M   'P 1'
_cell_length_a   7.49322649
_cell_length_b   7.49322589
_cell_length_c   8.57715782
_cell_angle_alpha   76.49683201
_cell_angle_beta   76.49683323
_cell_angle_gamma   95.32292243
_symmetry_Int_Tables_number   1
_chemical_formula_structural   Sr9Y(PN5)2
_chemical_formula_sum   'Sr9 Y1 P2 N10'
_cell_volume   449.77745930
_cell_formula_units_Z   1
loop_
 _symmetry_equiv_pos_site_id
 _symmetry_equiv_pos_as_xyz
  1  'x, y, z'
loop_
 _atom_site_type_symbol
 _atom_site_label
 _atom_site_symmetry_multiplicity
 _atom_site_fract_x
 _atom_site_fract_y
 _atom_site_fract_z
 _atom_site_occupancy
  Sr  Sr0  1  0.600242  0.600242  0.628844  1
  Sr  Sr1  1  0.677296  0.677296  0.998627  1
  Sr  Sr2  1  0.327379  0.327379  0.997008  1
  Sr  Sr3  1  0.924947  0.924947  0.199887  1
  Sr  Sr4  1  0.073151  0.073151  0.796393  1
  Sr  Sr5  1  0.551910  0.087885  0.758331  1
  Sr  Sr6  1  0.914897  0.444191  0.244127  1
  Sr  Sr7  1  0.444191  0.914897  0.244127  1
  Sr  Sr8  1  0.087885  0.551910  0.758331  1
  Y  Y9  1  0.421589  0.421589  0.359241  1
  P  P10  1  0.756040  0.242043  0.003819  1
  P  P11  1  0.242043  0.756040  0.003819  1
  N  N12  1  0.648578  0.648578  0.322139  1
  N  N13  1  0.341732  0.341732  0.645505  1
  N  N14  1  0.719762  0.023584  0.990822  1
  N  N15  1  0.975081  0.275685  0.018510  1
  N  N16  1  0.275685  0.975081  0.018510  1
  N  N17  1  0.023584  0.719762  0.990822  1
  N  N18  1  0.391697  0.726331  0.836519  1
  N  N19  1  0.274269  0.601713  0.174049  1
  N  N20  1  0.601713  0.274269  0.174049  1
  N  N21  1  0.726331  0.391697  0.836519  1
