# generated using pymatgen
data_Y2Ho6Cd2CoRu
_symmetry_space_group_name_H-M   'P 1'
_cell_length_a   9.66053333
_cell_length_b   9.58839989
_cell_length_c   9.58839997
_cell_angle_alpha   59.40041751
_cell_angle_beta   59.42537707
_cell_angle_gamma   59.42538112
_symmetry_Int_Tables_number   1
_chemical_formula_structural   Y2Ho6Cd2CoRu
_chemical_formula_sum   'Y4 Ho12 Cd4 Co2 Ru2'
_cell_volume   619.69667901
_cell_formula_units_Z   2
loop_
 _symmetry_equiv_pos_site_id
 _symmetry_equiv_pos_as_xyz
  1  'x, y, z'
loop_
 _atom_site_type_symbol
 _atom_site_label
 _atom_site_symmetry_multiplicity
 _atom_site_fract_x
 _atom_site_fract_y
 _atom_site_fract_z
 _atom_site_occupancy
  Y  Y0  1  0.937985  0.939076  0.559613  1
  Y  Y1  1  0.810898  0.188157  0.188157  1
  Y  Y2  1  0.937308  0.562910  0.562910  1
  Y  Y3  1  0.937985  0.559613  0.939076  1
  Ho  Ho4  1  0.814706  0.807848  0.185716  1
  Ho  Ho5  1  0.340951  0.348362  0.348362  1
  Ho  Ho6  1  0.556535  0.942245  0.942245  1
  Ho  Ho7  1  0.562971  0.938760  0.559343  1
  Ho  Ho8  1  0.189388  0.810514  0.810514  1
  Ho  Ho9  1  0.189395  0.186317  0.807599  1
  Ho  Ho10  1  0.343620  0.353024  0.961329  1
  Ho  Ho11  1  0.343620  0.961329  0.353024  1
  Ho  Ho12  1  0.814706  0.185716  0.807848  1
  Ho  Ho13  1  0.562971  0.559343  0.938760  1
  Ho  Ho14  1  0.189395  0.807599  0.186317  1
  Ho  Ho15  1  0.965330  0.348658  0.348658  1
  Cd  Cd16  1  0.580299  0.579728  0.257731  1
  Cd  Cd17  1  0.258489  0.579775  0.579775  1
  Cd  Cd18  1  0.580918  0.579794  0.579794  1
  Cd  Cd19  1  0.580299  0.257731  0.579728  1
  Co  Co20  1  0.140430  0.580381  0.143360  1
  Co  Co21  1  0.140430  0.143360  0.580381  1
  Ru  Ru22  1  0.577824  0.140999  0.140999  1
  Ru  Ru23  1  0.143548  0.138767  0.138767  1
