# generated using pymatgen
data_Zr8Si4Pt9Rh5
_symmetry_space_group_name_H-M   'P 1'
_cell_length_a   4.00884200
_cell_length_b   6.51492999
_cell_length_c   16.58833603
_cell_angle_alpha   90.20857804
_cell_angle_beta   90.00000000
_cell_angle_gamma   90.00000000
_symmetry_Int_Tables_number   1
_chemical_formula_structural   Zr8Si4Pt9Rh5
_chemical_formula_sum   'Zr8 Si4 Pt9 Rh5'
_cell_volume   433.24009204
_cell_formula_units_Z   1
loop_
 _symmetry_equiv_pos_site_id
 _symmetry_equiv_pos_as_xyz
  1  'x, y, z'
loop_
 _atom_site_type_symbol
 _atom_site_label
 _atom_site_symmetry_multiplicity
 _atom_site_fract_x
 _atom_site_fract_y
 _atom_site_fract_z
 _atom_site_occupancy
  Zr  Zr0  1  0.000000  0.280022  0.461163  1
  Zr  Zr1  1  0.000000  0.719978  0.538837  1
  Zr  Zr2  1  0.000000  0.773894  0.036953  1
  Zr  Zr3  1  0.000000  0.226106  0.963047  1
  Zr  Zr4  1  0.000000  0.527843  0.287020  1
  Zr  Zr5  1  0.000000  0.472157  0.712980  1
  Zr  Zr6  1  0.000000  0.026004  0.210616  1
  Zr  Zr7  1  0.000000  0.973996  0.789384  1
  Si  Si8  1  0.500000  0.841118  0.310066  1
  Si  Si9  1  0.500000  0.158882  0.689934  1
  Si  Si10  1  0.500000  0.339855  0.188845  1
  Si  Si11  1  0.500000  0.660145  0.811155  1
  Pt  Pt12  1  0.500000  0.589888  0.420174  1
  Pt  Pt13  1  0.500000  0.410112  0.579826  1
  Pt  Pt14  1  0.500000  0.088464  0.079721  1
  Pt  Pt15  1  0.500000  0.911536  0.920279  1
  Pt  Pt16  1  0.500000  0.000000  0.500000  1
  Pt  Pt17  1  0.500000  0.217222  0.329751  1
  Pt  Pt18  1  0.500000  0.782778  0.670249  1
  Pt  Pt19  1  0.500000  0.714469  0.169099  1
  Pt  Pt20  1  0.500000  0.285531  0.830901  1
  Rh  Rh21  1  0.000000  0.909200  0.383054  1
  Rh  Rh22  1  0.000000  0.090800  0.616946  1
  Rh  Rh23  1  0.000000  0.407836  0.117276  1
  Rh  Rh24  1  0.000000  0.592164  0.882724  1
  Rh  Rh25  1  0.500000  0.500000  0.000000  1
