# generated using pymatgen
data_Pr5IrPdO12
_symmetry_space_group_name_H-M   'P 1'
_cell_length_a   7.15791343
_cell_length_b   7.15791254
_cell_length_c   7.62276206
_cell_angle_alpha   74.55819789
_cell_angle_beta   74.55820013
_cell_angle_gamma   50.94157518
_symmetry_Int_Tables_number   1
_chemical_formula_structural   Pr5IrPdO12
_chemical_formula_sum   'Pr5 Ir1 Pd1 O12'
_cell_volume   289.78026312
_cell_formula_units_Z   1
loop_
 _symmetry_equiv_pos_site_id
 _symmetry_equiv_pos_as_xyz
  1  'x, y, z'
loop_
 _atom_site_type_symbol
 _atom_site_label
 _atom_site_symmetry_multiplicity
 _atom_site_fract_x
 _atom_site_fract_y
 _atom_site_fract_z
 _atom_site_occupancy
  Pr  Pr0  1  0.311352  0.296196  0.358203  1
  Pr  Pr1  1  0.703804  0.688648  0.641797  1
  Pr  Pr2  1  0.696680  0.691580  0.165158  1
  Pr  Pr3  1  0.308420  0.303320  0.834842  1
  Pr  Pr4  1  0.002577  0.997423  0.500000  1
  Ir  Ir5  1  0.241239  0.758761  0.000000  1
  Pd  Pd6  1  0.748590  0.251410  0.000000  1
  O  O7  1  0.099650  0.597299  0.574215  1
  O  O8  1  0.998777  0.000435  0.172369  1
  O  O9  1  0.402701  0.900350  0.425785  1
  O  O10  1  0.494858  0.505820  0.174464  1
  O  O11  1  0.102176  0.584278  0.079280  1
  O  O12  1  0.908360  0.401421  0.421987  1
  O  O13  1  0.999565  0.001223  0.827631  1
  O  O14  1  0.598579  0.091639  0.578013  1
  O  O15  1  0.494180  0.505142  0.825536  1
  O  O16  1  0.570274  0.097503  0.081674  1
  O  O17  1  0.415722  0.897824  0.920720  1
  O  O18  1  0.902497  0.429726  0.918326  1
