# generated using pymatgen
data_RbSc3Te5
_symmetry_space_group_name_H-M   'P 1'
_cell_length_a   4.19330400
_cell_length_b   12.77903300
_cell_length_c   22.64786600
_cell_angle_alpha   90.00000000
_cell_angle_beta   90.00000000
_cell_angle_gamma   90.00000000
_symmetry_Int_Tables_number   1
_chemical_formula_structural   RbSc3Te5
_chemical_formula_sum   'Rb4 Sc12 Te20'
_cell_volume   1213.61693160
_cell_formula_units_Z   4
loop_
 _symmetry_equiv_pos_site_id
 _symmetry_equiv_pos_as_xyz
  1  'x, y, z'
loop_
 _atom_site_type_symbol
 _atom_site_label
 _atom_site_symmetry_multiplicity
 _atom_site_fract_x
 _atom_site_fract_y
 _atom_site_fract_z
 _atom_site_occupancy
  Rb  Rb0  1  0.250000  0.354095  0.088855  1
  Rb  Rb1  1  0.750000  0.645905  0.911145  1
  Rb  Rb2  1  0.750000  0.854095  0.411145  1
  Rb  Rb3  1  0.250000  0.145905  0.588855  1
  Sc  Sc4  1  0.250000  0.453717  0.697618  1
  Sc  Sc5  1  0.750000  0.546283  0.302382  1
  Sc  Sc6  1  0.750000  0.953717  0.802382  1
  Sc  Sc7  1  0.250000  0.046283  0.197618  1
  Sc  Sc8  1  0.250000  0.796411  0.674765  1
  Sc  Sc9  1  0.750000  0.203589  0.325235  1
  Sc  Sc10  1  0.750000  0.296411  0.825235  1
  Sc  Sc11  1  0.250000  0.703589  0.174765  1
  Sc  Sc12  1  0.250000  0.392093  0.443782  1
  Sc  Sc13  1  0.750000  0.607907  0.556218  1
  Sc  Sc14  1  0.750000  0.892093  0.056218  1
  Sc  Sc15  1  0.250000  0.107907  0.943782  1
  Te  Te16  1  0.250000  0.445145  0.568685  1
  Te  Te17  1  0.750000  0.554855  0.431315  1
  Te  Te18  1  0.750000  0.945145  0.931315  1
  Te  Te19  1  0.250000  0.054855  0.068685  1
  Te  Te20  1  0.250000  0.769134  0.546562  1
  Te  Te21  1  0.750000  0.230866  0.453438  1
  Te  Te22  1  0.750000  0.269134  0.953438  1
  Te  Te23  1  0.250000  0.730866  0.046562  1
  Te  Te24  1  0.250000  0.799005  0.802904  1
  Te  Te25  1  0.750000  0.200995  0.197096  1
  Te  Te26  1  0.750000  0.299005  0.697096  1
  Te  Te27  1  0.250000  0.700995  0.302904  1
  Te  Te28  1  0.250000  0.453493  0.826372  1
  Te  Te29  1  0.750000  0.546507  0.173628  1
  Te  Te30  1  0.750000  0.953493  0.673628  1
  Te  Te31  1  0.250000  0.046507  0.326372  1
  Te  Te32  1  0.250000  0.375265  0.313432  1
  Te  Te33  1  0.750000  0.624735  0.686568  1
  Te  Te34  1  0.750000  0.875265  0.186568  1
  Te  Te35  1  0.250000  0.124735  0.813432  1
