# generated using pymatgen
data_La4Co5RuO19
_symmetry_space_group_name_H-M   'P 1'
_cell_length_a   7.64424550
_cell_length_b   7.59600700
_cell_length_c   7.64424449
_cell_angle_alpha   109.49061669
_cell_angle_beta   109.42087963
_cell_angle_gamma   109.76003796
_symmetry_Int_Tables_number   1
_chemical_formula_structural   La4Co5RuO19
_chemical_formula_sum   'La4 Co5 Ru1 O19'
_cell_volume   340.59604734
_cell_formula_units_Z   1
loop_
 _symmetry_equiv_pos_site_id
 _symmetry_equiv_pos_as_xyz
  1  'x, y, z'
loop_
 _atom_site_type_symbol
 _atom_site_label
 _atom_site_symmetry_multiplicity
 _atom_site_fract_x
 _atom_site_fract_y
 _atom_site_fract_z
 _atom_site_occupancy
  La  La0  1  0.012030  0.016523  0.334664  1
  La  La1  1  0.003525  0.330892  0.999409  1
  La  La2  1  0.668517  0.669108  0.672633  1
  La  La3  1  0.318143  0.983477  0.995509  1
  Co  Co4  1  0.337775  0.500000  0.837775  1
  Co  Co5  1  0.846412  0.342958  0.506193  1
  Co  Co6  1  0.498803  0.155232  0.652793  1
  Co  Co7  1  0.163236  0.657042  0.503453  1
  Co  Co8  1  0.497561  0.844768  0.343571  1
  Ru  Ru9  1  0.660761  0.500000  0.160761  1
  O  O10  1  0.350504  0.000000  0.350504  1
  O  O11  1  0.347633  0.348163  0.991919  1
  O  O12  1  0.996427  0.640828  0.643487  1
  O  O13  1  0.643757  0.651837  0.999470  1
  O  O14  1  0.002660  0.359172  0.355600  1
  O  O15  1  0.640323  0.000000  0.640323  1
  O  O16  1  0.000418  0.000000  0.000418  1
  O  O17  1  0.366799  0.324061  0.622897  1
  O  O18  1  0.043681  0.301442  0.678388  1
  O  O19  1  0.742852  0.379413  0.701614  1
  O  O20  1  0.376946  0.698558  0.742238  1
  O  O21  1  0.259185  0.954685  0.636405  1
  O  O22  1  0.614733  0.358863  0.320246  1
  O  O23  1  0.322200  0.620587  0.363438  1
  O  O24  1  0.681719  0.045315  0.304499  1
  O  O25  1  0.961382  0.641137  0.255871  1
  O  O26  1  0.702138  0.746879  0.387926  1
  O  O27  1  0.641047  0.253121  0.955257  1
  O  O28  1  0.298835  0.675939  0.042739  1
