# generated using pymatgen
data_Ba6YNi(BO3)6
_symmetry_space_group_name_H-M   'P 1'
_cell_length_a   8.14368547
_cell_length_b   8.14368377
_cell_length_c   8.14368507
_cell_angle_alpha   105.80421729
_cell_angle_beta   105.80421501
_cell_angle_gamma   105.80421635
_symmetry_Int_Tables_number   1
_chemical_formula_structural   Ba6YNi(BO3)6
_chemical_formula_sum   'Ba6 Y1 Ni1 B6 O18'
_cell_volume   463.67922433
_cell_formula_units_Z   1
loop_
 _symmetry_equiv_pos_site_id
 _symmetry_equiv_pos_as_xyz
  1  'x, y, z'
loop_
 _atom_site_type_symbol
 _atom_site_label
 _atom_site_symmetry_multiplicity
 _atom_site_fract_x
 _atom_site_fract_y
 _atom_site_fract_z
 _atom_site_occupancy
  Ba  Ba0  1  0.348202  0.727919  0.828205  1
  Ba  Ba1  1  0.828205  0.348202  0.727919  1
  Ba  Ba2  1  0.727919  0.828205  0.348202  1
  Ba  Ba3  1  0.651798  0.272081  0.171795  1
  Ba  Ba4  1  0.171795  0.651798  0.272081  1
  Ba  Ba5  1  0.272081  0.171795  0.651798  1
  Y  Y6  1  0.000000  0.000000  0.000000  1
  Ni  Ni7  1  0.500000  0.500000  0.500000  1
  B  B8  1  0.375453  0.052722  0.294935  1
  B  B9  1  0.294935  0.375453  0.052722  1
  B  B10  1  0.052722  0.294935  0.375453  1
  B  B11  1  0.705065  0.624547  0.947278  1
  B  B12  1  0.947278  0.705065  0.624547  1
  B  B13  1  0.624547  0.947278  0.705065  1
  O  O14  1  0.430296  0.493297  0.223896  1
  O  O15  1  0.223896  0.430296  0.493297  1
  O  O16  1  0.812408  0.010347  0.737591  1
  O  O17  1  0.010347  0.737591  0.812408  1
  O  O18  1  0.737591  0.812408  0.010347  1
  O  O19  1  0.262409  0.187592  0.989653  1
  O  O20  1  0.187592  0.989653  0.262409  1
  O  O21  1  0.989653  0.262409  0.187592  1
  O  O22  1  0.553958  0.060085  0.800203  1
  O  O23  1  0.060085  0.800203  0.553958  1
  O  O24  1  0.800203  0.553958  0.060085  1
  O  O25  1  0.446042  0.939915  0.199797  1
  O  O26  1  0.939915  0.199797  0.446042  1
  O  O27  1  0.199797  0.446042  0.939915  1
  O  O28  1  0.506703  0.776104  0.569704  1
  O  O29  1  0.776104  0.569704  0.506703  1
  O  O30  1  0.569704  0.506703  0.776104  1
  O  O31  1  0.493297  0.223896  0.430296  1
