# generated using pymatgen
data_Li4La15YbOs4
_symmetry_space_group_name_H-M   'P 1'
_cell_length_a   10.10121493
_cell_length_b   10.10121417
_cell_length_c   10.06871000
_cell_angle_alpha   60.10638859
_cell_angle_beta   60.10639108
_cell_angle_gamma   60.00555825
_symmetry_Int_Tables_number   1
_chemical_formula_structural   Li4La15YbOs4
_chemical_formula_sum   'Li4 La15 Yb1 Os4'
_cell_volume   727.64715697
_cell_formula_units_Z   1
loop_
 _symmetry_equiv_pos_site_id
 _symmetry_equiv_pos_as_xyz
  1  'x, y, z'
loop_
 _atom_site_type_symbol
 _atom_site_label
 _atom_site_symmetry_multiplicity
 _atom_site_fract_x
 _atom_site_fract_y
 _atom_site_fract_z
 _atom_site_occupancy
  Li  Li0  1  0.232392  0.923230  0.922186  1
  Li  Li1  1  0.923063  0.923061  0.924439  1
  Li  Li2  1  0.923061  0.923061  0.229444  1
  Li  Li3  1  0.923234  0.232386  0.922188  1
  La  La4  1  0.558080  0.942051  0.557206  1
  La  La5  1  0.558079  0.942058  0.942662  1
  La  La6  1  0.685599  0.685598  0.314400  1
  La  La7  1  0.156680  0.156687  0.529604  1
  La  La8  1  0.309480  0.687118  0.687820  1
  La  La9  1  0.156680  0.156687  0.157029  1
  La  La10  1  0.532638  0.156446  0.155459  1
  La  La11  1  0.309481  0.687119  0.315579  1
  La  La12  1  0.312145  0.312138  0.687857  1
  La  La13  1  0.687116  0.309477  0.687827  1
  La  La14  1  0.942057  0.558073  0.557200  1
  La  La15  1  0.555512  0.555500  0.944493  1
  La  La16  1  0.156455  0.532646  0.155452  1
  La  La17  1  0.687122  0.309474  0.315574  1
  La  La18  1  0.942062  0.558073  0.942669  1
  Yb  Yb19  1  0.941672  0.941668  0.558332  1
  Os  Os20  1  0.914185  0.367322  0.359246  1
  Os  Os21  1  0.362958  0.362961  0.912576  1
  Os  Os22  1  0.367290  0.914203  0.359253  1
  Os  Os23  1  0.362960  0.362961  0.361503  1
