# generated using pymatgen
data_Er2Tm8Si5Sn
_symmetry_space_group_name_H-M   'P 1'
_cell_length_a   8.42303013
_cell_length_b   8.42302852
_cell_length_c   6.28013300
_cell_angle_alpha   90.00000000
_cell_angle_beta   90.00000000
_cell_angle_gamma   120.20161841
_symmetry_Int_Tables_number   1
_chemical_formula_structural   Er2Tm8Si5Sn
_chemical_formula_sum   'Er2 Tm8 Si5 Sn1'
_cell_volume   385.07930378
_cell_formula_units_Z   1
loop_
 _symmetry_equiv_pos_site_id
 _symmetry_equiv_pos_as_xyz
  1  'x, y, z'
loop_
 _atom_site_type_symbol
 _atom_site_label
 _atom_site_symmetry_multiplicity
 _atom_site_fract_x
 _atom_site_fract_y
 _atom_site_fract_z
 _atom_site_occupancy
  Er  Er0  1  0.765713  0.765713  0.250000  1
  Er  Er1  1  0.240465  0.240465  0.750000  1
  Tm  Tm2  1  0.673674  0.331602  0.503004  1
  Tm  Tm3  1  0.331602  0.673674  0.503004  1
  Tm  Tm4  1  0.331602  0.673674  0.996996  1
  Tm  Tm5  1  0.673674  0.331602  0.996996  1
  Tm  Tm6  1  0.240056  0.989356  0.250000  1
  Tm  Tm7  1  0.989356  0.240056  0.250000  1
  Tm  Tm8  1  0.756616  0.998848  0.750000  1
  Tm  Tm9  1  0.998848  0.756616  0.750000  1
  Si  Si10  1  0.604180  0.998714  0.250000  1
  Si  Si11  1  0.998714  0.604180  0.250000  1
  Si  Si12  1  0.605760  0.605760  0.750000  1
  Si  Si13  1  0.393825  0.001275  0.750000  1
  Si  Si14  1  0.001275  0.393825  0.750000  1
  Sn  Sn15  1  0.394639  0.394639  0.250000  1
