# generated using pymatgen
data_Ho3Al12(FePd)2
_symmetry_space_group_name_H-M   'P 1'
_cell_length_a   8.79690967
_cell_length_b   8.79690851
_cell_length_c   9.43692203
_cell_angle_alpha   90.03801311
_cell_angle_beta   89.96198636
_cell_angle_gamma   119.92045983
_symmetry_Int_Tables_number   1
_chemical_formula_structural   Ho3Al12(FePd)2
_chemical_formula_sum   'Ho6 Al24 Fe4 Pd4'
_cell_volume   632.94883900
_cell_formula_units_Z   2
loop_
 _symmetry_equiv_pos_site_id
 _symmetry_equiv_pos_as_xyz
  1  'x, y, z'
loop_
 _atom_site_type_symbol
 _atom_site_label
 _atom_site_symmetry_multiplicity
 _atom_site_fract_x
 _atom_site_fract_y
 _atom_site_fract_z
 _atom_site_occupancy
  Ho  Ho0  1  0.190650  0.385276  0.253363  1
  Ho  Ho1  1  0.809350  0.614724  0.746637  1
  Ho  Ho2  1  0.614724  0.809350  0.253363  1
  Ho  Ho3  1  0.385276  0.190650  0.746637  1
  Ho  Ho4  1  0.193213  0.806787  0.251167  1
  Ho  Ho5  1  0.806787  0.193213  0.748833  1
  Al  Al6  1  0.333401  0.666599  0.027512  1
  Al  Al7  1  0.666599  0.333401  0.972488  1
  Al  Al8  1  0.672373  0.327627  0.523799  1
  Al  Al9  1  0.327627  0.672373  0.476201  1
  Al  Al10  1  0.152279  0.321036  0.574222  1
  Al  Al11  1  0.847721  0.678964  0.425778  1
  Al  Al12  1  0.678964  0.847721  0.574222  1
  Al  Al13  1  0.841990  0.683789  0.079676  1
  Al  Al14  1  0.321036  0.152279  0.425778  1
  Al  Al15  1  0.158010  0.316211  0.920324  1
  Al  Al16  1  0.161918  0.838082  0.573275  1
  Al  Al17  1  0.316211  0.158010  0.079676  1
  Al  Al18  1  0.838082  0.161918  0.426725  1
  Al  Al19  1  0.683789  0.841990  0.920324  1
  Al  Al20  1  0.841091  0.158909  0.080240  1
  Al  Al21  1  0.158909  0.841091  0.919760  1
  Al  Al22  1  0.561069  0.121974  0.258875  1
  Al  Al23  1  0.438931  0.878026  0.741125  1
  Al  Al24  1  0.878026  0.438931  0.258875  1
  Al  Al25  1  0.121974  0.561069  0.741125  1
  Al  Al26  1  0.563956  0.436044  0.250225  1
  Al  Al27  1  0.436044  0.563956  0.749775  1
  Al  Al28  1  0.999645  0.000355  0.250824  1
  Al  Al29  1  0.000355  0.999645  0.749176  1
  Fe  Fe30  1  0.500000  0.000000  0.500000  1
  Fe  Fe31  1  0.000000  0.500000  0.500000  1
  Fe  Fe32  1  0.000000  0.000000  0.000000  1
  Fe  Fe33  1  0.000000  0.000000  0.500000  1
  Pd  Pd34  1  0.500000  0.000000  0.000000  1
  Pd  Pd35  1  0.000000  0.500000  0.000000  1
  Pd  Pd36  1  0.500000  0.500000  0.000000  1
  Pd  Pd37  1  0.500000  0.500000  0.500000  1
