# generated using pymatgen
data_DyEr3(ZrPb)6
_symmetry_space_group_name_H-M   'P 1'
_cell_length_a   8.82568105
_cell_length_b   8.78885781
_cell_length_c   6.09359200
_cell_angle_alpha   90.00000000
_cell_angle_beta   90.00000000
_cell_angle_gamma   119.74418631
_symmetry_Int_Tables_number   1
_chemical_formula_structural   DyEr3(ZrPb)6
_chemical_formula_sum   'Dy1 Er3 Zr6 Pb6'
_cell_volume   410.39155087
_cell_formula_units_Z   1
loop_
 _symmetry_equiv_pos_site_id
 _symmetry_equiv_pos_as_xyz
  1  'x, y, z'
loop_
 _atom_site_type_symbol
 _atom_site_label
 _atom_site_symmetry_multiplicity
 _atom_site_fract_x
 _atom_site_fract_y
 _atom_site_fract_z
 _atom_site_occupancy
  Dy  Dy0  1  0.001818  0.761911  0.750000  1
  Er  Er1  1  0.757399  0.755857  0.250000  1
  Er  Er2  1  0.002678  0.238491  0.250000  1
  Er  Er3  1  0.759230  0.002017  0.750000  1
  Zr  Zr4  1  0.331008  0.665978  0.500080  1
  Zr  Zr5  1  0.247851  0.002231  0.250000  1
  Zr  Zr6  1  0.662708  0.331562  0.500438  1
  Zr  Zr7  1  0.331008  0.665978  0.999920  1
  Zr  Zr8  1  0.249663  0.247651  0.750000  1
  Zr  Zr9  1  0.662708  0.331562  0.999562  1
  Pb  Pb10  1  0.601670  0.603161  0.750000  1
  Pb  Pb11  1  0.394617  0.002257  0.750000  1
  Pb  Pb12  1  0.601008  0.999645  0.250000  1
  Pb  Pb13  1  0.002508  0.394334  0.750000  1
  Pb  Pb14  1  0.392046  0.390957  0.250000  1
  Pb  Pb15  1  0.002082  0.606408  0.250000  1
