# generated using pymatgen
data_Pr5Ti3(P3Ir4)4
_symmetry_space_group_name_H-M   'P 1'
_cell_length_a   12.87051700
_cell_length_b   12.87051753
_cell_length_c   4.00572900
_cell_angle_alpha   90.00000000
_cell_angle_beta   90.00000000
_cell_angle_gamma   120.00000122
_symmetry_Int_Tables_number   1
_chemical_formula_structural   Pr5Ti3(P3Ir4)4
_chemical_formula_sum   'Pr5 Ti3 P12 Ir16'
_cell_volume   574.65103576
_cell_formula_units_Z   1
loop_
 _symmetry_equiv_pos_site_id
 _symmetry_equiv_pos_as_xyz
  1  'x, y, z'
loop_
 _atom_site_type_symbol
 _atom_site_label
 _atom_site_symmetry_multiplicity
 _atom_site_fract_x
 _atom_site_fract_y
 _atom_site_fract_z
 _atom_site_occupancy
  Pr  Pr0  1  0.333333  0.666667  0.500000  1
  Pr  Pr1  1  0.666667  0.333333  0.500000  1
  Pr  Pr2  1  0.000000  0.811047  0.000000  1
  Pr  Pr3  1  0.188953  0.188953  0.000000  1
  Pr  Pr4  1  0.811047  0.000000  0.000000  1
  Ti  Ti5  1  0.000000  0.445763  0.500000  1
  Ti  Ti6  1  0.554237  0.554237  0.500000  1
  Ti  Ti7  1  0.445763  0.000000  0.500000  1
  P  P8  1  0.000000  0.636069  0.500000  1
  P  P9  1  0.363931  0.363931  0.500000  1
  P  P10  1  0.636069  0.000000  0.500000  1
  P  P11  1  0.518175  0.684297  0.000000  1
  P  P12  1  0.315703  0.833879  0.000000  1
  P  P13  1  0.166121  0.481825  0.000000  1
  P  P14  1  0.481825  0.166121  0.000000  1
  P  P15  1  0.684297  0.518175  0.000000  1
  P  P16  1  0.833879  0.315703  0.000000  1
  P  P17  1  0.000000  0.178605  0.500000  1
  P  P18  1  0.821395  0.821395  0.500000  1
  P  P19  1  0.178605  0.000000  0.500000  1
  Ir  Ir20  1  0.511300  0.869277  0.000000  1
  Ir  Ir21  1  0.130723  0.642024  0.000000  1
  Ir  Ir22  1  0.357976  0.488700  0.000000  1
  Ir  Ir23  1  0.488700  0.357976  0.000000  1
  Ir  Ir24  1  0.869277  0.511300  0.000000  1
  Ir  Ir25  1  0.642024  0.130723  0.000000  1
  Ir  Ir26  1  0.000000  0.285481  0.000000  1
  Ir  Ir27  1  0.714519  0.714519  0.000000  1
  Ir  Ir28  1  0.285481  0.000000  0.000000  1
  Ir  Ir29  1  0.623738  0.801349  0.500000  1
  Ir  Ir30  1  0.198651  0.822389  0.500000  1
  Ir  Ir31  1  0.177611  0.376262  0.500000  1
  Ir  Ir32  1  0.376262  0.177611  0.500000  1
  Ir  Ir33  1  0.801349  0.623738  0.500000  1
  Ir  Ir34  1  0.822389  0.198651  0.500000  1
  Ir  Ir35  1  0.000000  0.000000  0.500000  1
