# generated using pymatgen
data_Tm9Th3Tc3Ru
_symmetry_space_group_name_H-M   'P 1'
_cell_length_a   6.31952780
_cell_length_b   7.28931395
_cell_length_c   9.29403800
_cell_angle_alpha   90.00000000
_cell_angle_beta   90.00000000
_cell_angle_gamma   89.79530976
_symmetry_Int_Tables_number   1
_chemical_formula_structural   Tm9Th3Tc3Ru
_chemical_formula_sum   'Tm9 Th3 Tc3 Ru1'
_cell_volume   428.12733462
_cell_formula_units_Z   1
loop_
 _symmetry_equiv_pos_site_id
 _symmetry_equiv_pos_as_xyz
  1  'x, y, z'
loop_
 _atom_site_type_symbol
 _atom_site_label
 _atom_site_symmetry_multiplicity
 _atom_site_fract_x
 _atom_site_fract_y
 _atom_site_fract_z
 _atom_site_occupancy
  Tm  Tm0  1  0.868287  0.542284  0.250000  1
  Tm  Tm1  1  0.164391  0.175492  0.067593  1
  Tm  Tm2  1  0.833444  0.822474  0.934898  1
  Tm  Tm3  1  0.666177  0.328062  0.935934  1
  Tm  Tm4  1  0.833444  0.822474  0.565102  1
  Tm  Tm5  1  0.331331  0.674354  0.068566  1
  Tm  Tm6  1  0.164391  0.175492  0.432407  1
  Tm  Tm7  1  0.331331  0.674354  0.431434  1
  Tm  Tm8  1  0.666177  0.328062  0.564066  1
  Th  Th9  1  0.641602  0.045568  0.250000  1
  Th  Th10  1  0.361404  0.951678  0.750000  1
  Th  Th11  1  0.136938  0.452970  0.750000  1
  Tc  Tc12  1  0.477342  0.368474  0.250000  1
  Tc  Tc13  1  0.518737  0.626864  0.750000  1
  Tc  Tc14  1  0.978404  0.127705  0.750000  1
  Ru  Ru15  1  0.026599  0.883694  0.250000  1
