# generated using pymatgen
data_PrTh7(Si4Mo3)4
_symmetry_space_group_name_H-M   'P 1'
_cell_length_a   7.01514644
_cell_length_b   7.08244348
_cell_length_c   13.17478802
_cell_angle_alpha   90.16193517
_cell_angle_beta   89.99538816
_cell_angle_gamma   89.96627681
_symmetry_Int_Tables_number   1
_chemical_formula_structural   PrTh7(Si4Mo3)4
_chemical_formula_sum   'Pr1 Th7 Si16 Mo12'
_cell_volume   654.57842064
_cell_formula_units_Z   1
loop_
 _symmetry_equiv_pos_site_id
 _symmetry_equiv_pos_as_xyz
  1  'x, y, z'
loop_
 _atom_site_type_symbol
 _atom_site_label
 _atom_site_symmetry_multiplicity
 _atom_site_fract_x
 _atom_site_fract_y
 _atom_site_fract_z
 _atom_site_occupancy
  Pr  Pr0  1  0.994826  0.165053  0.094247  1
  Th  Th1  1  0.491401  0.338274  0.095681  1
  Th  Th2  1  0.992237  0.162296  0.404617  1
  Th  Th3  1  0.508278  0.664776  0.595342  1
  Th  Th4  1  0.007641  0.836080  0.904271  1
  Th  Th5  1  0.509155  0.662065  0.904717  1
  Th  Th6  1  0.009882  0.837742  0.594909  1
  Th  Th7  1  0.490352  0.334289  0.404356  1
  Si  Si8  1  0.656580  0.049479  0.548957  1
  Si  Si9  1  0.153327  0.449860  0.950483  1
  Si  Si10  1  0.344264  0.951514  0.048659  1
  Si  Si11  1  0.842124  0.547241  0.452480  1
  Si  Si12  1  0.347625  0.947933  0.450372  1
  Si  Si13  1  0.845978  0.548123  0.048778  1
  Si  Si14  1  0.655014  0.048892  0.951900  1
  Si  Si15  1  0.155689  0.450487  0.548735  1
  Si  Si16  1  0.539074  0.350701  0.748458  1
  Si  Si17  1  0.038946  0.149104  0.751377  1
  Si  Si18  1  0.459878  0.649896  0.254395  1
  Si  Si19  1  0.961570  0.853339  0.247868  1
  Si  Si20  1  0.816630  0.615627  0.749298  1
  Si  Si21  1  0.315196  0.885730  0.750612  1
  Si  Si22  1  0.181412  0.386607  0.250009  1
  Si  Si23  1  0.686481  0.115440  0.248309  1
  Mo  Mo24  1  0.832970  0.336336  0.625137  1
  Mo  Mo25  1  0.335420  0.164462  0.874300  1
  Mo  Mo26  1  0.168109  0.663204  0.125417  1
  Mo  Mo27  1  0.677215  0.839484  0.374709  1
  Mo  Mo28  1  0.161269  0.662241  0.375154  1
  Mo  Mo29  1  0.661139  0.832822  0.125524  1
  Mo  Mo30  1  0.827736  0.339379  0.872938  1
  Mo  Mo31  1  0.331767  0.161396  0.625462  1
  Mo  Mo32  1  0.671102  0.997270  0.750285  1
  Mo  Mo33  1  0.171596  0.501454  0.749613  1
  Mo  Mo34  1  0.331217  0.999948  0.251270  1
  Mo  Mo35  1  0.826902  0.501453  0.251361  1
