# generated using pymatgen
data_La7YAlPd24
_symmetry_space_group_name_H-M   'P 1'
_cell_length_a   8.53195802
_cell_length_b   8.53195802
_cell_length_c   8.53195802
_cell_angle_alpha   89.99413056
_cell_angle_beta   90.00586944
_cell_angle_gamma   90.00586944
_symmetry_Int_Tables_number   1
_chemical_formula_structural   La7YAlPd24
_chemical_formula_sum   'La7 Y1 Al1 Pd24'
_cell_volume   621.07796775
_cell_formula_units_Z   1
loop_
 _symmetry_equiv_pos_site_id
 _symmetry_equiv_pos_as_xyz
  1  'x, y, z'
loop_
 _atom_site_type_symbol
 _atom_site_label
 _atom_site_symmetry_multiplicity
 _atom_site_fract_x
 _atom_site_fract_y
 _atom_site_fract_z
 _atom_site_occupancy
  La  La0  1  0.252909  0.252624  0.252624  1
  La  La1  1  0.747603  0.747574  0.747574  1
  La  La2  1  0.747376  0.747091  0.252624  1
  La  La3  1  0.747376  0.252624  0.747091  1
  La  La4  1  0.252426  0.252397  0.747574  1
  La  La5  1  0.252426  0.747574  0.252397  1
  La  La6  1  0.252401  0.747599  0.747599  1
  Y  Y7  1  0.747660  0.252340  0.252340  1
  Al  Al8  1  0.000014  0.999986  0.999986  1
  Pd  Pd9  1  0.260011  0.499749  0.000004  1
  Pd  Pd10  1  0.739778  0.497789  0.002796  1
  Pd  Pd11  1  0.997204  0.260222  0.497789  1
  Pd  Pd12  1  0.502211  0.260222  0.002796  1
  Pd  Pd13  1  0.999996  0.739989  0.499749  1
  Pd  Pd14  1  0.500251  0.739989  0.000004  1
  Pd  Pd15  1  0.502211  0.002796  0.260222  1
  Pd  Pd16  1  0.260011  0.000004  0.499749  1
  Pd  Pd17  1  0.500251  0.000004  0.739989  1
  Pd  Pd18  1  0.739778  0.002796  0.497789  1
  Pd  Pd19  1  0.997204  0.497789  0.260222  1
  Pd  Pd20  1  0.999996  0.499749  0.739989  1
  Pd  Pd21  1  0.253088  0.499977  0.499977  1
  Pd  Pd22  1  0.746859  0.497304  0.497304  1
  Pd  Pd23  1  0.502696  0.253141  0.497304  1
  Pd  Pd24  1  0.500023  0.746912  0.499977  1
  Pd  Pd25  1  0.502696  0.497304  0.253141  1
  Pd  Pd26  1  0.500023  0.499977  0.746912  1
  Pd  Pd27  1  0.291694  0.000127  0.000127  1
  Pd  Pd28  1  0.709684  0.002802  0.002802  1
  Pd  Pd29  1  0.997198  0.290316  0.002802  1
  Pd  Pd30  1  0.999873  0.708306  0.000127  1
  Pd  Pd31  1  0.997198  0.002802  0.290316  1
  Pd  Pd32  1  0.999873  0.000127  0.708306  1
