# generated using pymatgen
data_La6Hg7Os
_symmetry_space_group_name_H-M   'P 1'
_cell_length_a   8.54273795
_cell_length_b   8.54273934
_cell_length_c   8.54273900
_cell_angle_alpha   113.24971626
_cell_angle_beta   113.24972026
_cell_angle_gamma   113.24972239
_symmetry_Int_Tables_number   1
_chemical_formula_structural   La6Hg7Os
_chemical_formula_sum   'La6 Hg7 Os1'
_cell_volume   398.96282851
_cell_formula_units_Z   1
loop_
 _symmetry_equiv_pos_site_id
 _symmetry_equiv_pos_as_xyz
  1  'x, y, z'
loop_
 _atom_site_type_symbol
 _atom_site_label
 _atom_site_symmetry_multiplicity
 _atom_site_fract_x
 _atom_site_fract_y
 _atom_site_fract_z
 _atom_site_occupancy
  La  La0  1  0.994484  0.637431  0.754752  1
  La  La1  1  0.754752  0.994484  0.637431  1
  La  La2  1  0.637431  0.754752  0.994484  1
  La  La3  1  0.005516  0.362569  0.245248  1
  La  La4  1  0.245248  0.005516  0.362569  1
  La  La5  1  0.362569  0.245248  0.005516  1
  Hg  Hg6  1  0.500000  0.500000  0.500000  1
  Hg  Hg7  1  0.894192  0.733348  0.401847  1
  Hg  Hg8  1  0.401847  0.894192  0.733348  1
  Hg  Hg9  1  0.733348  0.401847  0.894192  1
  Hg  Hg10  1  0.105808  0.266652  0.598153  1
  Hg  Hg11  1  0.598153  0.105808  0.266652  1
  Hg  Hg12  1  0.266652  0.598153  0.105808  1
  Os  Os13  1  0.000000  0.000000  0.000000  1
