# generated using pymatgen
data_Tb12Co4PdPb
_symmetry_space_group_name_H-M   'P 1'
_cell_length_a   8.37040582
_cell_length_b   8.37054642
_cell_length_c   8.37040504
_cell_angle_alpha   111.38666935
_cell_angle_beta   109.64795769
_cell_angle_gamma   107.40288333
_symmetry_Int_Tables_number   1
_chemical_formula_structural   Tb12Co4PdPb
_chemical_formula_sum   'Tb12 Co4 Pd1 Pb1'
_cell_volume   450.92247871
_cell_formula_units_Z   1
loop_
 _symmetry_equiv_pos_site_id
 _symmetry_equiv_pos_as_xyz
  1  'x, y, z'
loop_
 _atom_site_type_symbol
 _atom_site_label
 _atom_site_symmetry_multiplicity
 _atom_site_fract_x
 _atom_site_fract_y
 _atom_site_fract_z
 _atom_site_occupancy
  Tb  Tb0  1  0.414045  0.217141  0.196913  1
  Tb  Tb1  1  0.585955  0.782859  0.803087  1
  Tb  Tb2  1  0.020228  0.217141  0.803096  1
  Tb  Tb3  1  0.979772  0.782859  0.196904  1
  Tb  Tb4  1  0.182572  0.289912  0.472485  1
  Tb  Tb5  1  0.817428  0.710088  0.527515  1
  Tb  Tb6  1  0.182573  0.710088  0.892659  1
  Tb  Tb7  1  0.817427  0.289912  0.107341  1
  Tb  Tb8  1  0.321853  0.633731  0.311878  1
  Tb  Tb9  1  0.678147  0.366269  0.688122  1
  Tb  Tb10  1  0.321862  0.009984  0.688122  1
  Tb  Tb11  1  0.678138  0.990016  0.311878  1
  Co  Co12  1  0.356881  0.000000  0.356881  1
  Co  Co13  1  0.643119  0.000000  0.643119  1
  Co  Co14  1  0.113165  0.613167  0.500002  1
  Co  Co15  1  0.886835  0.386833  0.499998  1
  Pd  Pd16  1  0.000000  0.000000  0.000000  1
  Pb  Pb17  1  0.500000  0.500000  0.000000  1
