# generated using pymatgen
data_TbSm3Co8(PRu)12
_symmetry_space_group_name_H-M   'P 1'
_cell_length_a   3.79708700
_cell_length_b   10.64189706
_cell_length_c   12.14985606
_cell_angle_alpha   90.01170327
_cell_angle_beta   90.00000000
_cell_angle_gamma   90.00000000
_symmetry_Int_Tables_number   1
_chemical_formula_structural   TbSm3Co8(PRu)12
_chemical_formula_sum   'Tb1 Sm3 Co8 P12 Ru12'
_cell_volume   490.95391246
_cell_formula_units_Z   1
loop_
 _symmetry_equiv_pos_site_id
 _symmetry_equiv_pos_as_xyz
  1  'x, y, z'
loop_
 _atom_site_type_symbol
 _atom_site_label
 _atom_site_symmetry_multiplicity
 _atom_site_fract_x
 _atom_site_fract_y
 _atom_site_fract_z
 _atom_site_occupancy
  Tb  Tb0  1  0.750000  0.084546  0.793496  1
  Sm  Sm1  1  0.250000  0.584425  0.706720  1
  Sm  Sm2  1  0.250000  0.915606  0.206568  1
  Sm  Sm3  1  0.750000  0.415501  0.293360  1
  Co  Co4  1  0.250000  0.888119  0.695695  1
  Co  Co5  1  0.250000  0.612742  0.194931  1
  Co  Co6  1  0.750000  0.112773  0.305244  1
  Co  Co7  1  0.750000  0.386784  0.804892  1
  Co  Co8  1  0.250000  0.462594  0.935129  1
  Co  Co9  1  0.250000  0.037016  0.435955  1
  Co  Co10  1  0.750000  0.536885  0.064505  1
  Co  Co11  1  0.750000  0.963418  0.565281  1
  P  P12  1  0.250000  0.425466  0.111322  1
  P  P13  1  0.250000  0.074249  0.612755  1
  P  P14  1  0.750000  0.574478  0.888425  1
  P  P15  1  0.750000  0.925633  0.388844  1
  P  P16  1  0.250000  0.272347  0.870945  1
  P  P17  1  0.250000  0.226402  0.371500  1
  P  P18  1  0.750000  0.726704  0.128372  1
  P  P19  1  0.750000  0.773432  0.628520  1
  P  P20  1  0.250000  0.602817  0.387958  1
  P  P21  1  0.250000  0.898287  0.887209  1
  P  P22  1  0.750000  0.397142  0.612127  1
  P  P23  1  0.750000  0.102902  0.112007  1
  Ru  Ru24  1  0.250000  0.706130  0.985973  1
  Ru  Ru25  1  0.250000  0.794354  0.486336  1
  Ru  Ru26  1  0.750000  0.293924  0.013565  1
  Ru  Ru27  1  0.750000  0.205786  0.513900  1
  Ru  Ru28  1  0.250000  0.404830  0.486931  1
  Ru  Ru29  1  0.250000  0.095107  0.985272  1
  Ru  Ru30  1  0.750000  0.595058  0.513329  1
  Ru  Ru31  1  0.750000  0.905484  0.012955  1
  Ru  Ru32  1  0.250000  0.222830  0.179637  1
  Ru  Ru33  1  0.250000  0.275721  0.680310  1
  Ru  Ru34  1  0.750000  0.777263  0.819998  1
  Ru  Ru35  1  0.750000  0.723248  0.320034  1
