# generated using pymatgen
data_TbU4Se5O4
_symmetry_space_group_name_H-M   'P 1'
_cell_length_a   3.91627492
_cell_length_b   3.91627505
_cell_length_c   18.42868749
_cell_angle_alpha   96.09946494
_cell_angle_beta   96.09946536
_cell_angle_gamma   90.00000708
_symmetry_Int_Tables_number   1
_chemical_formula_structural   TbU4Se5O4
_chemical_formula_sum   'Tb1 U4 Se5 O4'
_cell_volume   279.43534455
_cell_formula_units_Z   1
loop_
 _symmetry_equiv_pos_site_id
 _symmetry_equiv_pos_as_xyz
  1  'x, y, z'
loop_
 _atom_site_type_symbol
 _atom_site_label
 _atom_site_symmetry_multiplicity
 _atom_site_fract_x
 _atom_site_fract_y
 _atom_site_fract_z
 _atom_site_occupancy
  Tb  Tb0  1  0.500001  0.500001  0.000000  1
  U  U1  1  0.118014  0.118014  0.236028  1
  U  U2  1  0.688886  0.688886  0.377770  1
  U  U3  1  0.311114  0.311114  0.622230  1
  U  U4  1  0.881986  0.881986  0.763972  1
  Se  Se5  1  0.000000  0.000000  0.000000  1
  Se  Se6  1  0.579341  0.579341  0.158682  1
  Se  Se7  1  0.223631  0.223631  0.447263  1
  Se  Se8  1  0.776369  0.776369  0.552738  1
  Se  Se9  1  0.420660  0.420660  0.841319  1
  O  O10  1  0.651771  0.151771  0.303541  1
  O  O11  1  0.151771  0.651771  0.303541  1
  O  O12  1  0.848230  0.348230  0.696459  1
  O  O13  1  0.348230  0.848230  0.696459  1
