# generated using pymatgen
data_Lu10Bi4IrAu
_symmetry_space_group_name_H-M   'P 1'
_cell_length_a   8.01828500
_cell_length_b   9.06183400
_cell_length_c   12.29304000
_cell_angle_alpha   90.00000000
_cell_angle_beta   90.00000000
_cell_angle_gamma   90.00000000
_symmetry_Int_Tables_number   1
_chemical_formula_structural   Lu10Bi4IrAu
_chemical_formula_sum   'Lu20 Bi8 Ir2 Au2'
_cell_volume   893.21680575
_cell_formula_units_Z   2
loop_
 _symmetry_equiv_pos_site_id
 _symmetry_equiv_pos_as_xyz
  1  'x, y, z'
loop_
 _atom_site_type_symbol
 _atom_site_label
 _atom_site_symmetry_multiplicity
 _atom_site_fract_x
 _atom_site_fract_y
 _atom_site_fract_z
 _atom_site_occupancy
  Lu  Lu0  1  0.824440  0.557350  0.065434  1
  Lu  Lu1  1  0.675560  0.942650  0.565434  1
  Lu  Lu2  1  0.174696  0.037310  0.934040  1
  Lu  Lu3  1  0.325304  0.462690  0.434040  1
  Lu  Lu4  1  0.174696  0.462690  0.934040  1
  Lu  Lu5  1  0.325304  0.037310  0.434040  1
  Lu  Lu6  1  0.824440  0.942650  0.065434  1
  Lu  Lu7  1  0.675560  0.557350  0.565434  1
  Lu  Lu8  1  0.162891  0.750000  0.208099  1
  Lu  Lu9  1  0.337109  0.750000  0.708099  1
  Lu  Lu10  1  0.830182  0.250000  0.783100  1
  Lu  Lu11  1  0.669818  0.250000  0.283100  1
  Lu  Lu12  1  0.441968  0.750000  0.000032  1
  Lu  Lu13  1  0.058032  0.750000  0.500032  1
  Lu  Lu14  1  0.545271  0.250000  0.996989  1
  Lu  Lu15  1  0.954729  0.250000  0.496989  1
  Lu  Lu16  1  0.619041  0.750000  0.307025  1
  Lu  Lu17  1  0.880959  0.750000  0.807025  1
  Lu  Lu18  1  0.369538  0.250000  0.701930  1
  Lu  Lu19  1  0.130462  0.250000  0.201930  1
  Bi  Bi20  1  0.931653  0.511182  0.327975  1
  Bi  Bi21  1  0.568347  0.988818  0.827975  1
  Bi  Bi22  1  0.066449  0.012029  0.671259  1
  Bi  Bi23  1  0.433551  0.487971  0.171259  1
  Bi  Bi24  1  0.066449  0.487971  0.671259  1
  Bi  Bi25  1  0.433551  0.012029  0.171259  1
  Bi  Bi26  1  0.931653  0.988818  0.327975  1
  Bi  Bi27  1  0.568347  0.511182  0.827975  1
  Ir  Ir28  1  0.423749  0.750000  0.490118  1
  Ir  Ir29  1  0.076251  0.750000  0.990118  1
  Au  Au30  1  0.583595  0.250000  0.515289  1
  Au  Au31  1  0.916405  0.250000  0.015289  1
