# generated using pymatgen
data_Ho2TmHg5
_symmetry_space_group_name_H-M   'P 1'
_cell_length_a   6.35735077
_cell_length_b   6.35735011
_cell_length_c   10.09861700
_cell_angle_alpha   90.00000000
_cell_angle_beta   90.00000000
_cell_angle_gamma   105.46778660
_symmetry_Int_Tables_number   1
_chemical_formula_structural   Ho2TmHg5
_chemical_formula_sum   'Ho4 Tm2 Hg10'
_cell_volume   393.36196337
_cell_formula_units_Z   2
loop_
 _symmetry_equiv_pos_site_id
 _symmetry_equiv_pos_as_xyz
  1  'x, y, z'
loop_
 _atom_site_type_symbol
 _atom_site_label
 _atom_site_symmetry_multiplicity
 _atom_site_fract_x
 _atom_site_fract_y
 _atom_site_fract_z
 _atom_site_occupancy
  Ho  Ho0  1  0.215905  0.784095  0.500000  1
  Ho  Ho1  1  0.215905  0.784095  0.000000  1
  Ho  Ho2  1  0.784095  0.215905  0.500000  1
  Ho  Ho3  1  0.784095  0.215905  0.000000  1
  Tm  Tm4  1  0.571454  0.571454  0.250000  1
  Tm  Tm5  1  0.428546  0.428546  0.750000  1
  Hg  Hg6  1  0.973579  0.973579  0.250000  1
  Hg  Hg7  1  0.026421  0.026421  0.750000  1
  Hg  Hg8  1  0.293163  0.293163  0.030688  1
  Hg  Hg9  1  0.706837  0.706837  0.969312  1
  Hg  Hg10  1  0.293163  0.293163  0.469312  1
  Hg  Hg11  1  0.706837  0.706837  0.530688  1
  Hg  Hg12  1  0.482401  0.038242  0.250000  1
  Hg  Hg13  1  0.961758  0.517599  0.750000  1
  Hg  Hg14  1  0.517599  0.961758  0.750000  1
  Hg  Hg15  1  0.038242  0.482401  0.250000  1
