# generated using pymatgen
data_Tb12Nd4CdIn(AgPt2)2
_symmetry_space_group_name_H-M   'P 1'
_cell_length_a   9.76006282
_cell_length_b   9.75605921
_cell_length_c   9.74262800
_cell_angle_alpha   60.07271449
_cell_angle_beta   60.03191126
_cell_angle_gamma   59.99987826
_symmetry_Int_Tables_number   1
_chemical_formula_structural   Tb12Nd4CdIn(AgPt2)2
_chemical_formula_sum   'Tb12 Nd4 Cd1 In1 Ag2 Pt4'
_cell_volume   656.49375775
_cell_formula_units_Z   1
loop_
 _symmetry_equiv_pos_site_id
 _symmetry_equiv_pos_as_xyz
  1  'x, y, z'
loop_
 _atom_site_type_symbol
 _atom_site_label
 _atom_site_symmetry_multiplicity
 _atom_site_fract_x
 _atom_site_fract_y
 _atom_site_fract_z
 _atom_site_occupancy
  Tb  Tb0  1  0.352533  0.351239  0.350883  1
  Tb  Tb1  1  0.351884  0.351852  0.945458  1
  Tb  Tb2  1  0.353863  0.940851  0.352764  1
  Tb  Tb3  1  0.940230  0.354336  0.352456  1
  Tb  Tb4  1  0.810584  0.189112  0.191778  1
  Tb  Tb5  1  0.187833  0.812623  0.810204  1
  Tb  Tb6  1  0.188219  0.812171  0.189266  1
  Tb  Tb7  1  0.810199  0.189280  0.808763  1
  Tb  Tb8  1  0.191297  0.190431  0.809345  1
  Tb  Tb9  1  0.811543  0.811473  0.188272  1
  Tb  Tb10  1  0.937622  0.558331  0.561096  1
  Tb  Tb11  1  0.559176  0.936824  0.942845  1
  Nd  Nd12  1  0.563264  0.932202  0.565634  1
  Nd  Nd13  1  0.933249  0.562992  0.938218  1
  Nd  Nd14  1  0.563419  0.562877  0.937087  1
  Nd  Nd15  1  0.936952  0.934105  0.564459  1
  Cd  Cd16  1  0.261140  0.581199  0.578002  1
  In  In17  1  0.580286  0.260951  0.580148  1
  Ag  Ag18  1  0.586084  0.580868  0.580478  1
  Ag  Ag19  1  0.580854  0.586725  0.252187  1
  Pt  Pt20  1  0.145165  0.142534  0.143621  1
  Pt  Pt21  1  0.142413  0.145313  0.568765  1
  Pt  Pt22  1  0.141756  0.569960  0.145442  1
  Pt  Pt23  1  0.570434  0.141749  0.142826  1
