# generated using pymatgen
data_Tb3CeS3N2
_symmetry_space_group_name_H-M   'P 1'
_cell_length_a   6.77720400
_cell_length_b   6.77720386
_cell_length_c   10.04247251
_cell_angle_alpha   52.55245216
_cell_angle_beta   52.55245295
_cell_angle_gamma   32.99933393
_symmetry_Int_Tables_number   1
_chemical_formula_structural   Tb3CeS3N2
_chemical_formula_sum   'Tb3 Ce1 S3 N2'
_cell_volume   194.24106688
_cell_formula_units_Z   1
loop_
 _symmetry_equiv_pos_site_id
 _symmetry_equiv_pos_as_xyz
  1  'x, y, z'
loop_
 _atom_site_type_symbol
 _atom_site_label
 _atom_site_symmetry_multiplicity
 _atom_site_fract_x
 _atom_site_fract_y
 _atom_site_fract_z
 _atom_site_occupancy
  Tb  Tb0  1  0.755709  0.755709  0.348755  1
  Tb  Tb1  1  0.565506  0.565506  0.136071  1
  Tb  Tb2  1  0.433229  0.433229  0.865211  1
  Ce  Ce3  1  0.248280  0.248280  0.643468  1
  S  S4  1  0.998784  0.998784  0.002258  1
  S  S5  1  0.829554  0.829554  0.784414  1
  S  S6  1  0.168487  0.168487  0.221352  1
  N  N7  1  0.352193  0.352193  0.361738  1
  N  N8  1  0.648258  0.648258  0.636732  1
