# generated using pymatgen
data_Tm4FeB4Ir9
_symmetry_space_group_name_H-M   'P 1'
_cell_length_a   10.71388591
_cell_length_b   10.71388556
_cell_length_c   10.71388636
_cell_angle_alpha   29.68520373
_cell_angle_beta   29.68520911
_cell_angle_gamma   29.68520200
_symmetry_Int_Tables_number   1
_chemical_formula_structural   Tm4FeB4Ir9
_chemical_formula_sum   'Tm4 Fe1 B4 Ir9'
_cell_volume   267.04702424
_cell_formula_units_Z   1
loop_
 _symmetry_equiv_pos_site_id
 _symmetry_equiv_pos_as_xyz
  1  'x, y, z'
loop_
 _atom_site_type_symbol
 _atom_site_label
 _atom_site_symmetry_multiplicity
 _atom_site_fract_x
 _atom_site_fract_y
 _atom_site_fract_z
 _atom_site_occupancy
  Tm  Tm0  1  0.151404  0.151404  0.151404  1
  Tm  Tm1  1  0.949649  0.949649  0.949649  1
  Tm  Tm2  1  0.848596  0.848596  0.848596  1
  Tm  Tm3  1  0.050351  0.050351  0.050351  1
  Fe  Fe4  1  0.500000  0.500000  0.500000  1
  B  B5  1  0.615426  0.615426  0.615426  1
  B  B6  1  0.717937  0.717937  0.717937  1
  B  B7  1  0.384574  0.384574  0.384574  1
  B  B8  1  0.282063  0.282063  0.282063  1
  Ir  Ir9  1  0.401835  0.899466  0.401835  1
  Ir  Ir10  1  0.899466  0.401835  0.401835  1
  Ir  Ir11  1  0.500000  0.500000  0.000000  1
  Ir  Ir12  1  0.500000  0.000000  0.500000  1
  Ir  Ir13  1  0.000000  0.500000  0.500000  1
  Ir  Ir14  1  0.598165  0.100534  0.598165  1
  Ir  Ir15  1  0.598165  0.598165  0.100534  1
  Ir  Ir16  1  0.100534  0.598165  0.598165  1
  Ir  Ir17  1  0.401835  0.401835  0.899466  1
