# generated using pymatgen
data_La2NiAgHg
_symmetry_space_group_name_H-M   'P 1'
_cell_length_a   8.12587800
_cell_length_b   8.12587778
_cell_length_c   3.80796400
_cell_angle_alpha   90.00000000
_cell_angle_beta   90.00000000
_cell_angle_gamma   87.71135449
_symmetry_Int_Tables_number   1
_chemical_formula_structural   La2NiAgHg
_chemical_formula_sum   'La4 Ni2 Ag2 Hg2'
_cell_volume   251.23888364
_cell_formula_units_Z   2
loop_
 _symmetry_equiv_pos_site_id
 _symmetry_equiv_pos_as_xyz
  1  'x, y, z'
loop_
 _atom_site_type_symbol
 _atom_site_label
 _atom_site_symmetry_multiplicity
 _atom_site_fract_x
 _atom_site_fract_y
 _atom_site_fract_z
 _atom_site_occupancy
  La  La0  1  0.661888  0.161888  0.500000  1
  La  La1  1  0.338112  0.838112  0.500000  1
  La  La2  1  0.198458  0.301542  0.500000  1
  La  La3  1  0.801542  0.698458  0.500000  1
  Ni  Ni4  1  0.613466  0.886534  0.000000  1
  Ni  Ni5  1  0.386534  0.113466  0.000000  1
  Ag  Ag6  1  0.121513  0.621513  0.000000  1
  Ag  Ag7  1  0.878487  0.378487  0.000000  1
  Hg  Hg8  1  0.500000  0.500000  0.000000  1
  Hg  Hg9  1  0.000000  0.000000  0.000000  1
