# generated using pymatgen
data_Tb2Pr6Sc11Si16Ag
_symmetry_space_group_name_H-M   'P 1'
_cell_length_a   7.16397525
_cell_length_b   7.52309832
_cell_length_c   14.22648905
_cell_angle_alpha   90.00179365
_cell_angle_beta   90.00983110
_cell_angle_gamma   90.16867878
_symmetry_Int_Tables_number   1
_chemical_formula_structural   Tb2Pr6Sc11Si16Ag
_chemical_formula_sum   'Tb2 Pr6 Sc11 Si16 Ag1'
_cell_volume   766.73742135
_cell_formula_units_Z   1
loop_
 _symmetry_equiv_pos_site_id
 _symmetry_equiv_pos_as_xyz
  1  'x, y, z'
loop_
 _atom_site_type_symbol
 _atom_site_label
 _atom_site_symmetry_multiplicity
 _atom_site_fract_x
 _atom_site_fract_y
 _atom_site_fract_z
 _atom_site_occupancy
  Tb  Tb0  1  0.011678  0.176309  0.400740  1
  Tb  Tb1  1  0.512093  0.326046  0.400375  1
  Pr  Pr2  1  0.491423  0.680842  0.899056  1
  Pr  Pr3  1  0.490109  0.682037  0.598807  1
  Pr  Pr4  1  0.979839  0.827433  0.599411  1
  Pr  Pr5  1  0.980805  0.827944  0.898413  1
  Pr  Pr6  1  0.510842  0.329568  0.098613  1
  Pr  Pr7  1  0.012116  0.173306  0.098405  1
  Sc  Sc8  1  0.334963  0.173689  0.624165  1
  Sc  Sc9  1  0.671617  0.822156  0.374530  1
  Sc  Sc10  1  0.171319  0.676436  0.376131  1
  Sc  Sc11  1  0.827070  0.315580  0.874899  1
  Sc  Sc12  1  0.827676  0.314990  0.624588  1
  Sc  Sc13  1  0.840882  0.499840  0.251621  1
  Sc  Sc14  1  0.340446  0.000531  0.251574  1
  Sc  Sc15  1  0.335317  0.172467  0.874795  1
  Sc  Sc16  1  0.171857  0.676497  0.126172  1
  Sc  Sc17  1  0.672245  0.822264  0.127826  1
  Sc  Sc18  1  0.158452  0.495159  0.749697  1
  Si  Si19  1  0.278946  0.883314  0.749286  1
  Si  Si20  1  0.467866  0.620209  0.251915  1
  Si  Si21  1  0.042890  0.124167  0.749535  1
  Si  Si22  1  0.531686  0.384869  0.749337  1
  Si  Si23  1  0.152867  0.460919  0.538455  1
  Si  Si24  1  0.968057  0.877278  0.251894  1
  Si  Si25  1  0.711760  0.121341  0.253299  1
  Si  Si26  1  0.849891  0.537173  0.038087  1
  Si  Si27  1  0.348835  0.962747  0.039549  1
  Si  Si28  1  0.153243  0.464943  0.959779  1
  Si  Si29  1  0.654201  0.045735  0.528631  1
  Si  Si30  1  0.345433  0.969494  0.458555  1
  Si  Si31  1  0.846807  0.530414  0.459862  1
  Si  Si32  1  0.791235  0.596008  0.749344  1
  Si  Si33  1  0.211743  0.380325  0.253662  1
  Si  Si34  1  0.653527  0.040808  0.969061  1
  Ag  Ag35  1  0.650264  0.007159  0.749931  1
