# generated using pymatgen
data_Ho2Tm14MgCo4Ag3
_symmetry_space_group_name_H-M   'P 1'
_cell_length_a   9.30279373
_cell_length_b   9.30919662
_cell_length_c   9.31103300
_cell_angle_alpha   59.99347786
_cell_angle_beta   59.97070127
_cell_angle_gamma   59.93183500
_symmetry_Int_Tables_number   1
_chemical_formula_structural   Ho2Tm14MgCo4Ag3
_chemical_formula_sum   'Ho2 Tm14 Mg1 Co4 Ag3'
_cell_volume   569.72686182
_cell_formula_units_Z   1
loop_
 _symmetry_equiv_pos_site_id
 _symmetry_equiv_pos_as_xyz
  1  'x, y, z'
loop_
 _atom_site_type_symbol
 _atom_site_label
 _atom_site_symmetry_multiplicity
 _atom_site_fract_x
 _atom_site_fract_y
 _atom_site_fract_z
 _atom_site_occupancy
  Ho  Ho0  1  0.562942  0.564012  0.936523  1
  Ho  Ho1  1  0.935145  0.938218  0.563319  1
  Tm  Tm2  1  0.346441  0.345506  0.345520  1
  Tm  Tm3  1  0.346441  0.345506  0.962533  1
  Tm  Tm4  1  0.346791  0.962450  0.345380  1
  Tm  Tm5  1  0.951738  0.349381  0.349440  1
  Tm  Tm6  1  0.810118  0.188611  0.188858  1
  Tm  Tm7  1  0.185644  0.813970  0.814108  1
  Tm  Tm8  1  0.185644  0.813970  0.186278  1
  Tm  Tm9  1  0.810118  0.188611  0.812414  1
  Tm  Tm10  1  0.185878  0.186520  0.813801  1
  Tm  Tm11  1  0.809925  0.812196  0.188940  1
  Tm  Tm12  1  0.935904  0.561623  0.561791  1
  Tm  Tm13  1  0.561530  0.937930  0.937778  1
  Tm  Tm14  1  0.561530  0.937930  0.562763  1
  Tm  Tm15  1  0.935904  0.561623  0.940683  1
  Mg  Mg16  1  0.287438  0.570769  0.570896  1
  Co  Co17  1  0.138825  0.143226  0.141886  1
  Co  Co18  1  0.138825  0.143226  0.576062  1
  Co  Co19  1  0.137793  0.576014  0.143096  1
  Co  Co20  1  0.575738  0.140847  0.141708  1
  Ag  Ag21  1  0.583711  0.583224  0.581529  1
  Ag  Ag22  1  0.583711  0.583224  0.251535  1
  Ag  Ag23  1  0.582266  0.251417  0.583159  1
