# generated using pymatgen
data_LiNd9Si5Sn
_symmetry_space_group_name_H-M   'P 1'
_cell_length_a   9.11028569
_cell_length_b   9.11028533
_cell_length_c   9.11028500
_cell_angle_alpha   129.22228663
_cell_angle_beta   129.22230102
_cell_angle_gamma   74.65315511
_symmetry_Int_Tables_number   1
_chemical_formula_structural   LiNd9Si5Sn
_chemical_formula_sum   'Li1 Nd9 Si5 Sn1'
_cell_volume   442.13547871
_cell_formula_units_Z   1
loop_
 _symmetry_equiv_pos_site_id
 _symmetry_equiv_pos_as_xyz
  1  'x, y, z'
loop_
 _atom_site_type_symbol
 _atom_site_label
 _atom_site_symmetry_multiplicity
 _atom_site_fract_x
 _atom_site_fract_y
 _atom_site_fract_z
 _atom_site_occupancy
  Li  Li0  1  0.510562  0.510562  0.000000  1
  Nd  Nd1  1  0.820818  0.315328  0.856462  1
  Nd  Nd2  1  0.196018  0.668355  0.142330  1
  Nd  Nd3  1  0.458867  0.964356  0.143538  1
  Nd  Nd4  1  0.315328  0.458867  0.494510  1
  Nd  Nd5  1  0.053686  0.196018  0.527663  1
  Nd  Nd6  1  0.526025  0.053686  0.857670  1
  Nd  Nd7  1  0.668355  0.526025  0.472337  1
  Nd  Nd8  1  0.964356  0.820818  0.505490  1
  Nd  Nd9  1  0.984452  0.984452  0.000000  1
  Si  Si10  1  0.112137  0.616990  0.726294  1
  Si  Si11  1  0.890697  0.385843  0.273706  1
  Si  Si12  1  0.616990  0.890697  0.504853  1
  Si  Si13  1  0.385843  0.112137  0.495147  1
  Si  Si14  1  0.241589  0.241589  0.000000  1
  Sn  Sn15  1  0.754276  0.754276  0.000000  1
