# generated using pymatgen
data_TbDySi2(Os2C)2
_symmetry_space_group_name_H-M   'P 1'
_cell_length_a   5.89233839
_cell_length_b   5.89233792
_cell_length_c   7.13878700
_cell_angle_alpha   90.00000000
_cell_angle_beta   90.00000000
_cell_angle_gamma   141.56539481
_symmetry_Int_Tables_number   1
_chemical_formula_structural   TbDySi2(Os2C)2
_chemical_formula_sum   'Tb1 Dy1 Si2 Os4 C2'
_cell_volume   154.07260507
_cell_formula_units_Z   1
loop_
 _symmetry_equiv_pos_site_id
 _symmetry_equiv_pos_as_xyz
  1  'x, y, z'
loop_
 _atom_site_type_symbol
 _atom_site_label
 _atom_site_symmetry_multiplicity
 _atom_site_fract_x
 _atom_site_fract_y
 _atom_site_fract_z
 _atom_site_occupancy
  Tb  Tb0  1  0.547834  0.452166  0.250000  1
  Dy  Dy1  1  0.452216  0.547784  0.750000  1
  Si  Si2  1  0.269109  0.730891  0.250000  1
  Si  Si3  1  0.730946  0.269054  0.750000  1
  Os  Os4  1  0.834579  0.165421  0.057999  1
  Os  Os5  1  0.165421  0.834579  0.941526  1
  Os  Os6  1  0.165421  0.834579  0.558474  1
  Os  Os7  1  0.834579  0.165421  0.442001  1
  C  C8  1  0.999947  0.000053  0.999387  1
  C  C9  1  0.999947  0.000053  0.500613  1
