# generated using pymatgen
data_Sc6NiIrC8
_symmetry_space_group_name_H-M   'P 1'
_cell_length_a   6.66158512
_cell_length_b   6.66158483
_cell_length_c   5.61099184
_cell_angle_alpha   84.03441332
_cell_angle_beta   84.03440541
_cell_angle_gamma   130.16327646
_symmetry_Int_Tables_number   1
_chemical_formula_structural   Sc6NiIrC8
_chemical_formula_sum   'Sc6 Ni1 Ir1 C8'
_cell_volume   184.40595621
_cell_formula_units_Z   1
loop_
 _symmetry_equiv_pos_site_id
 _symmetry_equiv_pos_as_xyz
  1  'x, y, z'
loop_
 _atom_site_type_symbol
 _atom_site_label
 _atom_site_symmetry_multiplicity
 _atom_site_fract_x
 _atom_site_fract_y
 _atom_site_fract_z
 _atom_site_occupancy
  Sc  Sc0  1  0.750710  0.750710  0.751100  1
  Sc  Sc1  1  0.315197  0.692387  0.497091  1
  Sc  Sc2  1  0.184704  0.807778  0.002843  1
  Sc  Sc3  1  0.692387  0.315197  0.497091  1
  Sc  Sc4  1  0.249075  0.249075  0.249062  1
  Sc  Sc5  1  0.807778  0.184704  0.002843  1
  Ni  Ni6  1  0.748062  0.748062  0.252072  1
  Ir  Ir7  1  0.251417  0.251417  0.748512  1
  C  C8  1  0.293232  0.546392  0.919712  1
  C  C9  1  0.546392  0.293232  0.919712  1
  C  C10  1  0.456748  0.708489  0.084681  1
  C  C11  1  0.708489  0.456748  0.084681  1
  C  C12  1  0.206929  0.954023  0.579984  1
  C  C13  1  0.791680  0.043178  0.415315  1
  C  C14  1  0.954023  0.206929  0.579984  1
  C  C15  1  0.043178  0.791680  0.415315  1
