# generated using pymatgen
data_YbTh3(PdPt3)3
_symmetry_space_group_name_H-M   'P 1'
_cell_length_a   5.92872800
_cell_length_b   5.92872795
_cell_length_c   9.73978900
_cell_angle_alpha   90.00000000
_cell_angle_beta   90.00000000
_cell_angle_gamma   120.00000029
_symmetry_Int_Tables_number   1
_chemical_formula_structural   YbTh3(PdPt3)3
_chemical_formula_sum   'Yb1 Th3 Pd3 Pt9'
_cell_volume   296.48534222
_cell_formula_units_Z   1
loop_
 _symmetry_equiv_pos_site_id
 _symmetry_equiv_pos_as_xyz
  1  'x, y, z'
loop_
 _atom_site_type_symbol
 _atom_site_label
 _atom_site_symmetry_multiplicity
 _atom_site_fract_x
 _atom_site_fract_y
 _atom_site_fract_z
 _atom_site_occupancy
  Yb  Yb0  1  0.333333  0.666667  0.250000  1
  Th  Th1  1  0.000000  0.000000  0.493867  1
  Th  Th2  1  0.000000  0.000000  0.006133  1
  Th  Th3  1  0.666667  0.333333  0.750000  1
  Pd  Pd4  1  0.823335  0.646670  0.250000  1
  Pd  Pd5  1  0.353330  0.176665  0.250000  1
  Pd  Pd6  1  0.823335  0.176665  0.250000  1
  Pt  Pt7  1  0.499131  0.500869  0.496788  1
  Pt  Pt8  1  0.499131  0.998263  0.496788  1
  Pt  Pt9  1  0.001737  0.500869  0.496788  1
  Pt  Pt10  1  0.499131  0.500869  0.003212  1
  Pt  Pt11  1  0.499131  0.998263  0.003212  1
  Pt  Pt12  1  0.001737  0.500869  0.003212  1
  Pt  Pt13  1  0.173390  0.346779  0.750000  1
  Pt  Pt14  1  0.653221  0.826610  0.750000  1
  Pt  Pt15  1  0.173390  0.826610  0.750000  1
