# generated using pymatgen
data_Er11Lu(IrPd)2
_symmetry_space_group_name_H-M   'P 1'
_cell_length_a   6.39092300
_cell_length_b   7.09719903
_cell_length_c   9.32742000
_cell_angle_alpha   90.00000000
_cell_angle_beta   90.00000000
_cell_angle_gamma   90.00526360
_symmetry_Int_Tables_number   1
_chemical_formula_structural   Er11Lu(IrPd)2
_chemical_formula_sum   'Er11 Lu1 Ir2 Pd2'
_cell_volume   423.06987345
_cell_formula_units_Z   1
loop_
 _symmetry_equiv_pos_site_id
 _symmetry_equiv_pos_as_xyz
  1  'x, y, z'
loop_
 _atom_site_type_symbol
 _atom_site_label
 _atom_site_symmetry_multiplicity
 _atom_site_fract_x
 _atom_site_fract_y
 _atom_site_fract_z
 _atom_site_occupancy
  Er  Er0  1  0.330664  0.677288  0.059591  1
  Er  Er1  1  0.177120  0.183563  0.437732  1
  Er  Er2  1  0.669211  0.322945  0.559453  1
  Er  Er3  1  0.822966  0.816584  0.938019  1
  Er  Er4  1  0.669211  0.322945  0.940547  1
  Er  Er5  1  0.822966  0.816584  0.561981  1
  Er  Er6  1  0.330664  0.677288  0.440409  1
  Er  Er7  1  0.177120  0.183563  0.062268  1
  Er  Er8  1  0.627288  0.037081  0.250000  1
  Er  Er9  1  0.134839  0.476968  0.750000  1
  Er  Er10  1  0.372491  0.963338  0.750000  1
  Lu  Lu11  1  0.865051  0.522613  0.250000  1
  Ir  Ir12  1  0.452442  0.387329  0.250000  1
  Ir  Ir13  1  0.549172  0.613545  0.750000  1
  Pd  Pd14  1  0.048115  0.884829  0.250000  1
  Pd  Pd15  1  0.950679  0.113540  0.750000  1
