# generated using pymatgen
data_Y8Tm12Si15Bi
_symmetry_space_group_name_H-M   'P 1'
_cell_length_a   7.35393712
_cell_length_b   7.60467788
_cell_length_c   14.41999600
_cell_angle_alpha   90.06100508
_cell_angle_beta   88.67743261
_cell_angle_gamma   90.15283708
_symmetry_Int_Tables_number   1
_chemical_formula_structural   Y8Tm12Si15Bi
_chemical_formula_sum   'Y8 Tm12 Si15 Bi1'
_cell_volume   806.21040347
_cell_formula_units_Z   1
loop_
 _symmetry_equiv_pos_site_id
 _symmetry_equiv_pos_as_xyz
  1  'x, y, z'
loop_
 _atom_site_type_symbol
 _atom_site_label
 _atom_site_symmetry_multiplicity
 _atom_site_fract_x
 _atom_site_fract_y
 _atom_site_fract_z
 _atom_site_occupancy
  Y  Y0  1  0.014759  0.179007  0.096206  1
  Y  Y1  1  0.984835  0.821933  0.904132  1
  Y  Y2  1  0.484995  0.678316  0.904015  1
  Y  Y3  1  0.996102  0.827271  0.598849  1
  Y  Y4  1  0.514844  0.321962  0.097607  1
  Y  Y5  1  0.997534  0.173040  0.399914  1
  Y  Y6  1  0.511577  0.313707  0.397896  1
  Y  Y7  1  0.512363  0.688135  0.601444  1
  Tm  Tm8  1  0.167369  0.505896  0.755174  1
  Tm  Tm9  1  0.830721  0.492102  0.251804  1
  Tm  Tm10  1  0.330600  0.009694  0.250701  1
  Tm  Tm11  1  0.672442  0.991841  0.751128  1
  Tm  Tm12  1  0.353309  0.154374  0.627477  1
  Tm  Tm13  1  0.652681  0.828789  0.376499  1
  Tm  Tm14  1  0.147444  0.684222  0.370402  1
  Tm  Tm15  1  0.666515  0.819204  0.122075  1
  Tm  Tm16  1  0.833344  0.327336  0.623949  1
  Tm  Tm17  1  0.331535  0.178970  0.877510  1
  Tm  Tm18  1  0.830951  0.320338  0.877329  1
  Tm  Tm19  1  0.167723  0.680355  0.123031  1
  Si  Si20  1  0.043041  0.111407  0.750942  1
  Si  Si21  1  0.954581  0.894254  0.245975  1
  Si  Si22  1  0.456289  0.609250  0.248543  1
  Si  Si23  1  0.539675  0.391989  0.751655  1
  Si  Si24  1  0.287763  0.866465  0.753819  1
  Si  Si25  1  0.713103  0.127538  0.246062  1
  Si  Si26  1  0.212419  0.373315  0.248127  1
  Si  Si27  1  0.789846  0.629379  0.752508  1
  Si  Si28  1  0.805919  0.537851  0.457634  1
  Si  Si29  1  0.314931  0.965332  0.458482  1
  Si  Si30  1  0.844087  0.531536  0.039164  1
  Si  Si31  1  0.687238  0.035438  0.540340  1
  Si  Si32  1  0.154677  0.468223  0.961955  1
  Si  Si33  1  0.655249  0.031872  0.961262  1
  Si  Si34  1  0.343824  0.969458  0.039711  1
  Bi  Bi35  1  0.195709  0.460196  0.536680  1
