# generated using pymatgen
data_Dy12TlCo2AgRu2
_symmetry_space_group_name_H-M   'P 1'
_cell_length_a   8.41078713
_cell_length_b   8.41078680
_cell_length_c   8.41078641
_cell_angle_alpha   112.48434185
_cell_angle_beta   110.75408626
_cell_angle_gamma   105.26069312
_symmetry_Int_Tables_number   1
_chemical_formula_structural   Dy12TlCo2AgRu2
_chemical_formula_sum   'Dy12 Tl1 Co2 Ag1 Ru2'
_cell_volume   456.07377524
_cell_formula_units_Z   1
loop_
 _symmetry_equiv_pos_site_id
 _symmetry_equiv_pos_as_xyz
  1  'x, y, z'
loop_
 _atom_site_type_symbol
 _atom_site_label
 _atom_site_symmetry_multiplicity
 _atom_site_fract_x
 _atom_site_fract_y
 _atom_site_fract_z
 _atom_site_occupancy
  Dy  Dy0  1  0.433171  0.237780  0.195393  1
  Dy  Dy1  1  0.566829  0.762220  0.804607  1
  Dy  Dy2  1  0.042387  0.237780  0.804607  1
  Dy  Dy3  1  0.957613  0.762220  0.195393  1
  Dy  Dy4  1  0.182988  0.284578  0.467566  1
  Dy  Dy5  1  0.817012  0.715422  0.532434  1
  Dy  Dy6  1  0.182988  0.715422  0.898410  1
  Dy  Dy7  1  0.817012  0.284578  0.101590  1
  Dy  Dy8  1  0.322603  0.640378  0.317775  1
  Dy  Dy9  1  0.677397  0.359622  0.682225  1
  Dy  Dy10  1  0.322603  0.004827  0.682225  1
  Dy  Dy11  1  0.677397  0.995173  0.317775  1
  Tl  Tl12  1  0.500000  0.500000  0.000000  1
  Co  Co13  1  0.111319  0.611319  0.500000  1
  Co  Co14  1  0.888681  0.388681  0.500000  1
  Ag  Ag15  1  0.000000  0.000000  0.000000  1
  Ru  Ru16  1  0.328478  0.000000  0.328478  1
  Ru  Ru17  1  0.671522  0.000000  0.671522  1
