# generated using pymatgen
data_Pr16MgCo4Ag3
_symmetry_space_group_name_H-M   'P 1'
_cell_length_a   9.79272369
_cell_length_b   9.79272275
_cell_length_c   9.79272262
_cell_angle_alpha   60.44044783
_cell_angle_beta   60.44044899
_cell_angle_gamma   60.44044941
_symmetry_Int_Tables_number   1
_chemical_formula_structural   Pr16MgCo4Ag3
_chemical_formula_sum   'Pr16 Mg1 Co4 Ag3'
_cell_volume   670.65429620
_cell_formula_units_Z   1
loop_
 _symmetry_equiv_pos_site_id
 _symmetry_equiv_pos_as_xyz
  1  'x, y, z'
loop_
 _atom_site_type_symbol
 _atom_site_label
 _atom_site_symmetry_multiplicity
 _atom_site_fract_x
 _atom_site_fract_y
 _atom_site_fract_z
 _atom_site_occupancy
  Pr  Pr0  1  0.287779  0.903913  0.903913  1
  Pr  Pr1  1  0.687566  0.687566  0.312980  1
  Pr  Pr2  1  0.903913  0.903913  0.287779  1
  Pr  Pr3  1  0.309923  0.688999  0.309923  1
  Pr  Pr4  1  0.688999  0.309923  0.309923  1
  Pr  Pr5  1  0.060756  0.439281  0.439281  1
  Pr  Pr6  1  0.442065  0.058394  0.058394  1
  Pr  Pr7  1  0.058394  0.058394  0.442065  1
  Pr  Pr8  1  0.309923  0.309923  0.688999  1
  Pr  Pr9  1  0.439281  0.060756  0.439281  1
  Pr  Pr10  1  0.901414  0.901414  0.901414  1
  Pr  Pr11  1  0.439281  0.439281  0.060756  1
  Pr  Pr12  1  0.312980  0.687566  0.687566  1
  Pr  Pr13  1  0.687566  0.312980  0.687566  1
  Pr  Pr14  1  0.058394  0.442065  0.058394  1
  Pr  Pr15  1  0.903913  0.287779  0.903913  1
  Mg  Mg16  1  0.680621  0.680621  0.680621  1
  Co  Co17  1  0.109556  0.109556  0.109556  1
  Co  Co18  1  0.107900  0.107900  0.672394  1
  Co  Co19  1  0.672394  0.107900  0.107900  1
  Co  Co20  1  0.107900  0.672394  0.107900  1
  Ag  Ag21  1  0.668531  0.668531  0.992419  1
  Ag  Ag22  1  0.992419  0.668531  0.668531  1
  Ag  Ag23  1  0.668531  0.992419  0.668531  1
