# generated using pymatgen
data_Y2Ho2Al24Pd7Au2
_symmetry_space_group_name_H-M   'P 1'
_cell_length_a   7.57915536
_cell_length_b   7.59813566
_cell_length_c   13.16640401
_cell_angle_alpha   84.53427495
_cell_angle_beta   78.98649619
_cell_angle_gamma   59.92664560
_symmetry_Int_Tables_number   1
_chemical_formula_structural   Y2Ho2Al24Pd7Au2
_chemical_formula_sum   'Y2 Ho2 Al24 Pd7 Au2'
_cell_volume   644.06658518
_cell_formula_units_Z   1
loop_
 _symmetry_equiv_pos_site_id
 _symmetry_equiv_pos_as_xyz
  1  'x, y, z'
loop_
 _atom_site_type_symbol
 _atom_site_label
 _atom_site_symmetry_multiplicity
 _atom_site_fract_x
 _atom_site_fract_y
 _atom_site_fract_z
 _atom_site_occupancy
  Y  Y0  1  0.392385  0.169551  0.809112  1
  Y  Y1  1  0.607615  0.830449  0.190888  1
  Ho  Ho2  1  0.733844  0.498574  0.809641  1
  Ho  Ho3  1  0.266156  0.501426  0.190359  1
  Al  Al4  1  0.682749  0.834507  0.944849  1
  Al  Al5  1  0.317251  0.165493  0.055151  1
  Al  Al6  1  0.145236  0.838767  0.562514  1
  Al  Al7  1  0.854764  0.161233  0.437486  1
  Al  Al8  1  0.486894  0.160205  0.560045  1
  Al  Al9  1  0.513106  0.839795  0.439955  1
  Al  Al10  1  0.223574  0.160004  0.325680  1
  Al  Al11  1  0.776426  0.839996  0.674320  1
  Al  Al12  1  0.439876  0.507073  0.674734  1
  Al  Al13  1  0.560124  0.492927  0.325266  1
  Al  Al14  1  0.108810  0.153920  0.673064  1
  Al  Al15  1  0.891190  0.846080  0.326936  1
  Al  Al16  1  0.353553  0.498947  0.944494  1
  Al  Al17  1  0.646447  0.501053  0.055506  1
  Al  Al18  1  0.015293  0.167418  0.954307  1
  Al  Al19  1  0.984707  0.832582  0.045693  1
  Al  Al20  1  0.195097  0.499712  0.437014  1
  Al  Al21  1  0.804903  0.500288  0.562986  1
  Al  Al22  1  0.731631  0.164272  0.183373  1
  Al  Al23  1  0.268369  0.835728  0.816627  1
  Al  Al24  1  0.060055  0.634630  0.818153  1
  Al  Al25  1  0.939945  0.365370  0.181847  1
  Al  Al26  1  0.853650  0.043397  0.816270  1
  Al  Al27  1  0.146350  0.956603  0.183730  1
  Pd  Pd28  1  0.656886  0.171753  0.999742  1
  Pd  Pd29  1  0.343114  0.828247  0.000258  1
  Pd  Pd30  1  0.537371  0.167027  0.362461  1
  Pd  Pd31  1  0.462629  0.832973  0.637539  1
  Pd  Pd32  1  0.779191  0.175639  0.636895  1
  Pd  Pd33  1  0.220809  0.824361  0.363105  1
  Pd  Pd34  1  0.000000  0.500000  0.000000  1
  Au  Au35  1  0.119675  0.491022  0.637941  1
  Au  Au36  1  0.880325  0.508978  0.362059  1
