# generated using pymatgen
data_Zr10Ga5SnSe
_symmetry_space_group_name_H-M   'P 1'
_cell_length_a   5.84406027
_cell_length_b   8.33934403
_cell_length_c   8.30982093
_cell_angle_alpha   119.87366851
_cell_angle_beta   89.86242569
_cell_angle_gamma   90.06749290
_symmetry_Int_Tables_number   1
_chemical_formula_structural   Zr10Ga5SnSe
_chemical_formula_sum   'Zr10 Ga5 Sn1 Se1'
_cell_volume   351.17134597
_cell_formula_units_Z   1
loop_
 _symmetry_equiv_pos_site_id
 _symmetry_equiv_pos_as_xyz
  1  'x, y, z'
loop_
 _atom_site_type_symbol
 _atom_site_label
 _atom_site_symmetry_multiplicity
 _atom_site_fract_x
 _atom_site_fract_y
 _atom_site_fract_z
 _atom_site_occupancy
  Zr  Zr0  1  0.502537  0.344786  0.673213  1
  Zr  Zr1  1  0.502536  0.655215  0.328434  1
  Zr  Zr2  1  0.997390  0.659439  0.331749  1
  Zr  Zr3  1  0.997392  0.340546  0.672322  1
  Zr  Zr4  1  0.766687  0.259265  0.999297  1
  Zr  Zr5  1  0.766674  0.740746  0.739982  1
  Zr  Zr6  1  0.764275  0.999970  0.257537  1
  Zr  Zr7  1  0.234877  0.735354  0.991293  1
  Zr  Zr8  1  0.234906  0.264685  0.255933  1
  Zr  Zr9  1  0.225579  0.999980  0.750428  1
  Ga  Ga10  1  0.751151  0.612273  0.002679  1
  Ga  Ga11  1  0.751162  0.387780  0.390315  1
  Ga  Ga12  1  0.747699  0.999930  0.608795  1
  Ga  Ga13  1  0.249810  0.389713  0.997371  1
  Ga  Ga14  1  0.249795  0.610373  0.607581  1
  Sn  Sn15  1  0.256174  0.999947  0.392738  1
  Se  Se16  1  0.501355  0.000001  0.000335  1
