# generated using pymatgen
data_ErTaNi4As3
_symmetry_space_group_name_H-M   'P 1'
_cell_length_a   3.90542600
_cell_length_b   11.15446300
_cell_length_c   12.73403600
_cell_angle_alpha   90.00000000
_cell_angle_beta   90.00000000
_cell_angle_gamma   90.00000000
_symmetry_Int_Tables_number   1
_chemical_formula_structural   ErTaNi4As3
_chemical_formula_sum   'Er4 Ta4 Ni16 As12'
_cell_volume   554.73191655
_cell_formula_units_Z   4
loop_
 _symmetry_equiv_pos_site_id
 _symmetry_equiv_pos_as_xyz
  1  'x, y, z'
loop_
 _atom_site_type_symbol
 _atom_site_label
 _atom_site_symmetry_multiplicity
 _atom_site_fract_x
 _atom_site_fract_y
 _atom_site_fract_z
 _atom_site_occupancy
  Er  Er0  1  0.250000  0.578635  0.705039  1
  Er  Er1  1  0.250000  0.921365  0.205039  1
  Er  Er2  1  0.750000  0.421365  0.294961  1
  Er  Er3  1  0.750000  0.078635  0.794961  1
  Ta  Ta4  1  0.250000  0.701630  0.990060  1
  Ta  Ta5  1  0.250000  0.798370  0.490060  1
  Ta  Ta6  1  0.750000  0.298370  0.009940  1
  Ta  Ta7  1  0.750000  0.201630  0.509940  1
  Ni  Ni8  1  0.250000  0.401010  0.486538  1
  Ni  Ni9  1  0.250000  0.098990  0.986538  1
  Ni  Ni10  1  0.750000  0.598990  0.513462  1
  Ni  Ni11  1  0.750000  0.901010  0.013462  1
  Ni  Ni12  1  0.250000  0.215729  0.170958  1
  Ni  Ni13  1  0.250000  0.284271  0.670958  1
  Ni  Ni14  1  0.750000  0.784271  0.829042  1
  Ni  Ni15  1  0.750000  0.715729  0.329042  1
  Ni  Ni16  1  0.250000  0.881792  0.701485  1
  Ni  Ni17  1  0.250000  0.618208  0.201485  1
  Ni  Ni18  1  0.750000  0.118208  0.298515  1
  Ni  Ni19  1  0.750000  0.381792  0.798515  1
  Ni  Ni20  1  0.250000  0.465529  0.933506  1
  Ni  Ni21  1  0.250000  0.034471  0.433506  1
  Ni  Ni22  1  0.750000  0.534471  0.066494  1
  Ni  Ni23  1  0.750000  0.965529  0.566494  1
  As  As24  1  0.250000  0.420226  0.119441  1
  As  As25  1  0.250000  0.079774  0.619441  1
  As  As26  1  0.750000  0.579774  0.880559  1
  As  As27  1  0.750000  0.920226  0.380559  1
  As  As28  1  0.250000  0.265812  0.861430  1
  As  As29  1  0.250000  0.234188  0.361430  1
  As  As30  1  0.750000  0.734188  0.138570  1
  As  As31  1  0.750000  0.765812  0.638570  1
  As  As32  1  0.250000  0.594073  0.392536  1
  As  As33  1  0.250000  0.905927  0.892536  1
  As  As34  1  0.750000  0.405927  0.607464  1
  As  As35  1  0.750000  0.094073  0.107464  1
