# generated using pymatgen
data_Ho15ErMgNi4Ag3
_symmetry_space_group_name_H-M   'P 1'
_cell_length_a   9.43956930
_cell_length_b   9.43869698
_cell_length_c   9.43453100
_cell_angle_alpha   60.01459589
_cell_angle_beta   60.01765097
_cell_angle_gamma   60.04571345
_symmetry_Int_Tables_number   1
_chemical_formula_structural   Ho15ErMgNi4Ag3
_chemical_formula_sum   'Ho15 Er1 Mg1 Ni4 Ag3'
_cell_volume   594.73736616
_cell_formula_units_Z   1
loop_
 _symmetry_equiv_pos_site_id
 _symmetry_equiv_pos_as_xyz
  1  'x, y, z'
loop_
 _atom_site_type_symbol
 _atom_site_label
 _atom_site_symmetry_multiplicity
 _atom_site_fract_x
 _atom_site_fract_y
 _atom_site_fract_z
 _atom_site_occupancy
  Ho  Ho0  1  0.183304  0.815278  0.814746  1
  Ho  Ho1  1  0.813483  0.186045  0.185726  1
  Ho  Ho2  1  0.813483  0.186045  0.814745  1
  Ho  Ho3  1  0.183304  0.815278  0.186673  1
  Ho  Ho4  1  0.813765  0.815388  0.185423  1
  Ho  Ho5  1  0.183721  0.186529  0.814875  1
  Ho  Ho6  1  0.598208  0.597902  0.596960  1
  Ho  Ho7  1  0.598208  0.597902  0.206930  1
  Ho  Ho8  1  0.599067  0.205500  0.597717  1
  Ho  Ho9  1  0.194276  0.602065  0.601829  1
  Ho  Ho10  1  0.059641  0.439622  0.440055  1
  Ho  Ho11  1  0.436818  0.062838  0.062973  1
  Ho  Ho12  1  0.436818  0.062838  0.437371  1
  Ho  Ho13  1  0.059641  0.439622  0.060683  1
  Ho  Ho14  1  0.437439  0.437629  0.062465  1
  Er  Er15  1  0.058605  0.059935  0.440731  1
  Mg  Mg16  1  0.536084  0.821104  0.821406  1
  Ni  Ni17  1  0.390914  0.393976  0.394787  1
  Ni  Ni18  1  0.390914  0.393976  0.820323  1
  Ni  Ni19  1  0.388214  0.822474  0.394656  1
  Ni  Ni20  1  0.822654  0.391286  0.393029  1
  Ag  Ag21  1  0.833747  0.833984  0.833639  1
  Ag  Ag22  1  0.833747  0.833984  0.498629  1
  Ag  Ag23  1  0.833942  0.498801  0.833628  1
