# generated using pymatgen
data_Tb5Hf3(Ni4As3)4
_symmetry_space_group_name_H-M   'P 1'
_cell_length_a   12.73000900
_cell_length_b   12.73000909
_cell_length_c   3.92571800
_cell_angle_alpha   90.00000000
_cell_angle_beta   90.00000000
_cell_angle_gamma   120.00000236
_symmetry_Int_Tables_number   1
_chemical_formula_structural   Tb5Hf3(Ni4As3)4
_chemical_formula_sum   'Tb5 Hf3 Ni16 As12'
_cell_volume   550.94360333
_cell_formula_units_Z   1
loop_
 _symmetry_equiv_pos_site_id
 _symmetry_equiv_pos_as_xyz
  1  'x, y, z'
loop_
 _atom_site_type_symbol
 _atom_site_label
 _atom_site_symmetry_multiplicity
 _atom_site_fract_x
 _atom_site_fract_y
 _atom_site_fract_z
 _atom_site_occupancy
  Tb  Tb0  1  0.184494  0.184494  0.500000  1
  Tb  Tb1  1  0.815506  0.000000  0.500000  1
  Tb  Tb2  1  0.000000  0.815506  0.500000  1
  Tb  Tb3  1  0.333333  0.666667  0.000000  1
  Tb  Tb4  1  0.666667  0.333333  0.000000  1
  Hf  Hf5  1  0.564218  0.564218  0.000000  1
  Hf  Hf6  1  0.435782  0.000000  0.000000  1
  Hf  Hf7  1  0.000000  0.435782  0.000000  1
  Ni  Ni8  1  0.722219  0.722219  0.500000  1
  Ni  Ni9  1  0.277781  0.000000  0.500000  1
  Ni  Ni10  1  0.000000  0.277781  0.500000  1
  Ni  Ni11  1  0.182403  0.376880  0.000000  1
  Ni  Ni12  1  0.623120  0.805523  0.000000  1
  Ni  Ni13  1  0.194477  0.817597  0.000000  1
  Ni  Ni14  1  0.805523  0.623120  0.000000  1
  Ni  Ni15  1  0.817597  0.194477  0.000000  1
  Ni  Ni16  1  0.376880  0.182403  0.000000  1
  Ni  Ni17  1  0.363271  0.483341  0.500000  1
  Ni  Ni18  1  0.516659  0.879932  0.500000  1
  Ni  Ni19  1  0.120068  0.636729  0.500000  1
  Ni  Ni20  1  0.879932  0.516659  0.500000  1
  Ni  Ni21  1  0.636729  0.120068  0.500000  1
  Ni  Ni22  1  0.483341  0.363271  0.500000  1
  Ni  Ni23  1  0.000000  0.000000  0.000000  1
  As  As24  1  0.821798  0.821798  0.000000  1
  As  As25  1  0.178202  0.000000  0.000000  1
  As  As26  1  0.000000  0.178202  0.000000  1
  As  As27  1  0.172025  0.479154  0.500000  1
  As  As28  1  0.520846  0.692872  0.500000  1
  As  As29  1  0.307128  0.827975  0.500000  1
  As  As30  1  0.692872  0.520846  0.500000  1
  As  As31  1  0.827975  0.307128  0.500000  1
  As  As32  1  0.479154  0.172025  0.500000  1
  As  As33  1  0.356601  0.356601  0.000000  1
  As  As34  1  0.643399  0.000000  0.000000  1
  As  As35  1  0.000000  0.643399  0.000000  1
