# generated using pymatgen
data_La2GaCoBr
_symmetry_space_group_name_H-M   'P 1'
_cell_length_a   4.18619800
_cell_length_b   4.18619816
_cell_length_c   16.93615900
_cell_angle_alpha   90.00000000
_cell_angle_beta   90.00000000
_cell_angle_gamma   119.99999872
_symmetry_Int_Tables_number   1
_chemical_formula_structural   La2GaCoBr
_chemical_formula_sum   'La4 Ga2 Co2 Br2'
_cell_volume   257.03076457
_cell_formula_units_Z   2
loop_
 _symmetry_equiv_pos_site_id
 _symmetry_equiv_pos_as_xyz
  1  'x, y, z'
loop_
 _atom_site_type_symbol
 _atom_site_label
 _atom_site_symmetry_multiplicity
 _atom_site_fract_x
 _atom_site_fract_y
 _atom_site_fract_z
 _atom_site_occupancy
  La  La0  1  0.000000  0.000000  0.609084  1
  La  La1  1  0.000000  0.000000  0.388883  1
  La  La2  1  0.000000  0.000000  0.109084  1
  La  La3  1  0.000000  0.000000  0.888883  1
  Ga  Ga4  1  0.666667  0.333333  0.998473  1
  Ga  Ga5  1  0.333333  0.666667  0.498473  1
  Co  Co6  1  0.666667  0.333333  0.502469  1
  Co  Co7  1  0.333333  0.666667  0.002469  1
  Br  Br8  1  0.666667  0.333333  0.251092  1
  Br  Br9  1  0.333333  0.666667  0.751092  1
