# generated using pymatgen
data_Pr12OsPd2Ru
_symmetry_space_group_name_H-M   'P 1'
_cell_length_a   6.59350843
_cell_length_b   7.45437775
_cell_length_c   10.05794800
_cell_angle_alpha   90.00000000
_cell_angle_beta   90.00000000
_cell_angle_gamma   90.17730789
_symmetry_Int_Tables_number   1
_chemical_formula_structural   Pr12OsPd2Ru
_chemical_formula_sum   'Pr12 Os1 Pd2 Ru1'
_cell_volume   494.35083133
_cell_formula_units_Z   1
loop_
 _symmetry_equiv_pos_site_id
 _symmetry_equiv_pos_as_xyz
  1  'x, y, z'
loop_
 _atom_site_type_symbol
 _atom_site_label
 _atom_site_symmetry_multiplicity
 _atom_site_fract_x
 _atom_site_fract_y
 _atom_site_fract_z
 _atom_site_occupancy
  Pr  Pr0  1  0.327217  0.682848  0.060788  1
  Pr  Pr1  1  0.162181  0.169809  0.433044  1
  Pr  Pr2  1  0.663131  0.328738  0.566351  1
  Pr  Pr3  1  0.826386  0.817796  0.938381  1
  Pr  Pr4  1  0.663131  0.328738  0.933649  1
  Pr  Pr5  1  0.826386  0.817796  0.561619  1
  Pr  Pr6  1  0.327217  0.682848  0.439212  1
  Pr  Pr7  1  0.162181  0.169809  0.066956  1
  Pr  Pr8  1  0.871178  0.538240  0.250000  1
  Pr  Pr9  1  0.646143  0.027103  0.250000  1
  Pr  Pr10  1  0.144976  0.475442  0.750000  1
  Pr  Pr11  1  0.371557  0.960416  0.750000  1
  Os  Os12  1  0.569383  0.616975  0.750000  1
  Pd  Pd13  1  0.429423  0.386352  0.250000  1
  Pd  Pd14  1  0.936764  0.115101  0.750000  1
  Ru  Ru15  1  0.072748  0.881994  0.250000  1
