# generated using pymatgen
data_Ti8CrTc4Pt3
_symmetry_space_group_name_H-M   'P 1'
_cell_length_a   6.18237000
_cell_length_b   6.18238100
_cell_length_c   6.32859800
_cell_angle_alpha   89.99989934
_cell_angle_beta   89.99974350
_cell_angle_gamma   89.99982392
_symmetry_Int_Tables_number   1
_chemical_formula_structural   Ti8CrTc4Pt3
_chemical_formula_sum   'Ti8 Cr1 Tc4 Pt3'
_cell_volume   241.89019707
_cell_formula_units_Z   1
loop_
 _symmetry_equiv_pos_site_id
 _symmetry_equiv_pos_as_xyz
  1  'x, y, z'
loop_
 _atom_site_type_symbol
 _atom_site_label
 _atom_site_symmetry_multiplicity
 _atom_site_fract_x
 _atom_site_fract_y
 _atom_site_fract_z
 _atom_site_occupancy
  Ti  Ti0  1  0.495671  0.004342  0.244377  1
  Ti  Ti1  1  0.495669  0.495648  0.244378  1
  Ti  Ti2  1  0.004367  0.004353  0.244422  1
  Ti  Ti3  1  0.004367  0.495648  0.244422  1
  Ti  Ti4  1  0.004350  0.004349  0.755581  1
  Ti  Ti5  1  0.004357  0.495635  0.755583  1
  Ti  Ti6  1  0.495654  0.004343  0.755629  1
  Ti  Ti7  1  0.495653  0.495656  0.755632  1
  Cr  Cr8  1  0.249896  0.250009  0.999924  1
  Tc  Tc9  1  0.749923  0.249997  0.000012  1
  Tc  Tc10  1  0.250028  0.750031  0.000014  1
  Tc  Tc11  1  0.750029  0.250015  0.500007  1
  Tc  Tc12  1  0.249994  0.749978  0.500010  1
  Pt  Pt13  1  0.750025  0.750007  0.000006  1
  Pt  Pt14  1  0.749959  0.750003  0.500006  1
  Pt  Pt15  1  0.250062  0.249982  0.499998  1
