# generated using pymatgen
data_Hf3ZrNbSi4
_symmetry_space_group_name_H-M   'P 1'
_cell_length_a   7.02414500
_cell_length_b   7.02414500
_cell_length_c   12.84224100
_cell_angle_alpha   90.00000000
_cell_angle_beta   90.00000000
_cell_angle_gamma   90.00000000
_symmetry_Int_Tables_number   1
_chemical_formula_structural   Hf3ZrNbSi4
_chemical_formula_sum   'Hf12 Zr4 Nb4 Si16'
_cell_volume   633.61835851
_cell_formula_units_Z   4
loop_
 _symmetry_equiv_pos_site_id
 _symmetry_equiv_pos_as_xyz
  1  'x, y, z'
loop_
 _atom_site_type_symbol
 _atom_site_label
 _atom_site_symmetry_multiplicity
 _atom_site_fract_x
 _atom_site_fract_y
 _atom_site_fract_z
 _atom_site_occupancy
  Hf  Hf0  1  0.846872  0.501949  0.968171  1
  Hf  Hf1  1  0.153128  0.498051  0.468171  1
  Hf  Hf2  1  0.001949  0.653128  0.718171  1
  Hf  Hf3  1  0.998051  0.346872  0.218171  1
  Hf  Hf4  1  0.496500  0.354763  0.126060  1
  Hf  Hf5  1  0.503500  0.645237  0.626060  1
  Hf  Hf6  1  0.854763  0.003500  0.876060  1
  Hf  Hf7  1  0.145237  0.996500  0.376060  1
  Hf  Hf8  1  0.645509  0.503369  0.373741  1
  Hf  Hf9  1  0.354491  0.496631  0.873741  1
  Hf  Hf10  1  0.003369  0.854491  0.123741  1
  Hf  Hf11  1  0.996631  0.145509  0.623741  1
  Zr  Zr12  1  0.497493  0.153787  0.531651  1
  Zr  Zr13  1  0.502507  0.846213  0.031651  1
  Zr  Zr14  1  0.653787  0.002507  0.281651  1
  Zr  Zr15  1  0.346213  0.997493  0.781651  1
  Nb  Nb16  1  0.675910  0.325467  0.750146  1
  Nb  Nb17  1  0.324090  0.674533  0.250146  1
  Nb  Nb18  1  0.825467  0.824090  0.500146  1
  Nb  Nb19  1  0.174533  0.175910  0.000146  1
  Si  Si20  1  0.797747  0.147564  0.072170  1
  Si  Si21  1  0.202253  0.852436  0.572170  1
  Si  Si22  1  0.647564  0.702253  0.822170  1
  Si  Si23  1  0.352436  0.297747  0.322170  1
  Si  Si24  1  0.855034  0.204374  0.427824  1
  Si  Si25  1  0.144966  0.795626  0.927824  1
  Si  Si26  1  0.704374  0.644966  0.177824  1
  Si  Si27  1  0.295626  0.355034  0.677824  1
  Si  Si28  1  0.549072  0.199608  0.935570  1
  Si  Si29  1  0.450928  0.800392  0.435570  1
  Si  Si30  1  0.699608  0.950928  0.685570  1
  Si  Si31  1  0.300392  0.049072  0.185570  1
  Si  Si32  1  0.802739  0.452611  0.564668  1
  Si  Si33  1  0.197261  0.547389  0.064668  1
  Si  Si34  1  0.952611  0.697261  0.314668  1
  Si  Si35  1  0.047389  0.302739  0.814668  1
