# generated using pymatgen
data_Rb2Ge(PO3)4
_symmetry_space_group_name_H-M   'P 1'
_cell_length_a   9.02797555
_cell_length_b   9.02797617
_cell_length_c   7.99371045
_cell_angle_alpha   80.74668792
_cell_angle_beta   80.74668572
_cell_angle_gamma   96.16401730
_symmetry_Int_Tables_number   1
_chemical_formula_structural   Rb2Ge(PO3)4
_chemical_formula_sum   'Rb4 Ge2 P8 O24'
_cell_volume   628.71208961
_cell_formula_units_Z   2
loop_
 _symmetry_equiv_pos_site_id
 _symmetry_equiv_pos_as_xyz
  1  'x, y, z'
loop_
 _atom_site_type_symbol
 _atom_site_label
 _atom_site_symmetry_multiplicity
 _atom_site_fract_x
 _atom_site_fract_y
 _atom_site_fract_z
 _atom_site_occupancy
  Rb  Rb0  1  0.496406  0.753290  0.433021  1
  Rb  Rb1  1  0.753290  0.496406  0.933021  1
  Rb  Rb2  1  0.473860  0.206785  0.579983  1
  Rb  Rb3  1  0.206785  0.473860  0.079983  1
  Ge  Ge4  1  0.139699  0.852473  0.758531  1
  Ge  Ge5  1  0.852473  0.139699  0.258531  1
  P  P6  1  0.817128  0.968185  0.683283  1
  P  P7  1  0.968185  0.817128  0.183283  1
  P  P8  1  0.517800  0.842405  0.924890  1
  P  P9  1  0.842405  0.517800  0.424890  1
  P  P10  1  0.492280  0.122034  0.085947  1
  P  P11  1  0.122034  0.492280  0.585947  1
  P  P12  1  0.187362  0.028101  0.305873  1
  P  P13  1  0.028101  0.187362  0.805873  1
  O  O14  1  0.498590  0.680963  0.014633  1
  O  O15  1  0.680963  0.498590  0.514633  1
  O  O16  1  0.433480  0.892752  0.783938  1
  O  O17  1  0.892752  0.433480  0.283938  1
  O  O18  1  0.700971  0.890313  0.853557  1
  O  O19  1  0.890313  0.700971  0.353557  1
  O  O20  1  0.494372  0.942619  0.077510  1
  O  O21  1  0.942619  0.494372  0.577510  1
  O  O22  1  0.570070  0.151217  0.232182  1
  O  O23  1  0.151217  0.570070  0.732182  1
  O  O24  1  0.536167  0.223013  0.913983  1
  O  O25  1  0.223013  0.536167  0.413983  1
  O  O26  1  0.308777  0.124520  0.146068  1
  O  O27  1  0.124520  0.308777  0.646068  1
  O  O28  1  0.260819  0.974969  0.455923  1
  O  O29  1  0.974969  0.260819  0.955923  1
  O  O30  1  0.061709  0.125821  0.332030  1
  O  O31  1  0.125821  0.061709  0.832030  1
  O  O32  1  0.127643  0.881863  0.228813  1
  O  O33  1  0.881863  0.127643  0.728813  1
  O  O34  1  0.740201  0.003128  0.530585  1
  O  O35  1  0.003128  0.740201  0.030585  1
  O  O36  1  0.941100  0.867117  0.667249  1
  O  O37  1  0.867117  0.941100  0.167249  1
