# generated using pymatgen
data_Ce7Pr(OsC2)4
_symmetry_space_group_name_H-M   'P 1'
_cell_length_a   5.30063700
_cell_length_b   6.49588260
_cell_length_c   9.92804746
_cell_angle_alpha   89.80370288
_cell_angle_beta   90.00000000
_cell_angle_gamma   90.00000000
_symmetry_Int_Tables_number   1
_chemical_formula_structural   Ce7Pr(OsC2)4
_chemical_formula_sum   'Ce7 Pr1 Os4 C8'
_cell_volume   341.84365781
_cell_formula_units_Z   1
loop_
 _symmetry_equiv_pos_site_id
 _symmetry_equiv_pos_as_xyz
  1  'x, y, z'
loop_
 _atom_site_type_symbol
 _atom_site_label
 _atom_site_symmetry_multiplicity
 _atom_site_fract_x
 _atom_site_fract_y
 _atom_site_fract_z
 _atom_site_occupancy
  Ce  Ce0  1  0.750000  0.304734  0.455304  1
  Ce  Ce1  1  0.750000  0.805455  0.044638  1
  Ce  Ce2  1  0.250000  0.195799  0.956973  1
  Ce  Ce3  1  0.250000  0.517343  0.219233  1
  Ce  Ce4  1  0.750000  0.481881  0.775823  1
  Ce  Ce5  1  0.750000  0.982296  0.724875  1
  Ce  Ce6  1  0.250000  0.018462  0.272197  1
  Pr  Pr7  1  0.250000  0.701124  0.545456  1
  Os  Os8  1  0.250000  0.730370  0.861820  1
  Os  Os9  1  0.750000  0.271573  0.138029  1
  Os  Os10  1  0.750000  0.769538  0.360271  1
  Os  Os11  1  0.250000  0.232202  0.639537  1
  C  C12  1  0.250000  0.468400  0.760368  1
  C  C13  1  0.750000  0.528985  0.244749  1
  C  C14  1  0.750000  0.029869  0.253890  1
  C  C15  1  0.250000  0.974976  0.748618  1
  C  C16  1  0.250000  0.829387  0.053060  1
  C  C17  1  0.750000  0.169351  0.947351  1
  C  C18  1  0.750000  0.670706  0.549912  1
  C  C19  1  0.250000  0.317549  0.447897  1
