# generated using pymatgen
data_La2InAgPt
_symmetry_space_group_name_H-M   'P 1'
_cell_length_a   3.94047000
_cell_length_b   8.20447162
_cell_length_c   8.20447200
_cell_angle_alpha   89.09669109
_cell_angle_beta   90.00000000
_cell_angle_gamma   90.00000000
_symmetry_Int_Tables_number   1
_chemical_formula_structural   La2InAgPt
_chemical_formula_sum   'La4 In2 Ag2 Pt2'
_cell_volume   265.21330276
_cell_formula_units_Z   2
loop_
 _symmetry_equiv_pos_site_id
 _symmetry_equiv_pos_as_xyz
  1  'x, y, z'
loop_
 _atom_site_type_symbol
 _atom_site_label
 _atom_site_symmetry_multiplicity
 _atom_site_fract_x
 _atom_site_fract_y
 _atom_site_fract_z
 _atom_site_occupancy
  La  La0  1  0.500000  0.164477  0.664477  1
  La  La1  1  0.500000  0.835523  0.335523  1
  La  La2  1  0.500000  0.310875  0.189125  1
  La  La3  1  0.500000  0.689125  0.810875  1
  In  In4  1  0.000000  0.500000  0.500000  1
  In  In5  1  0.000000  0.000000  0.000000  1
  Ag  Ag6  1  0.000000  0.623367  0.123367  1
  Ag  Ag7  1  0.000000  0.376633  0.876633  1
  Pt  Pt8  1  0.000000  0.873782  0.626218  1
  Pt  Pt9  1  0.000000  0.126218  0.373782  1
