# generated using pymatgen
data_PrSm(SiRh2)2
_symmetry_space_group_name_H-M   'P 1'
_cell_length_a   9.12339772
_cell_length_b   9.12339711
_cell_length_c   4.15657300
_cell_angle_alpha   90.00000000
_cell_angle_beta   90.00000000
_cell_angle_gamma   154.54912574
_symmetry_Int_Tables_number   1
_chemical_formula_structural   PrSm(SiRh2)2
_chemical_formula_sum   'Pr1 Sm1 Si2 Rh4'
_cell_volume   148.67960668
_cell_formula_units_Z   1
loop_
 _symmetry_equiv_pos_site_id
 _symmetry_equiv_pos_as_xyz
  1  'x, y, z'
loop_
 _atom_site_type_symbol
 _atom_site_label
 _atom_site_symmetry_multiplicity
 _atom_site_fract_x
 _atom_site_fract_y
 _atom_site_fract_z
 _atom_site_occupancy
  Pr  Pr0  1  0.902487  0.097513  0.250000  1
  Sm  Sm1  1  0.099111  0.900889  0.750000  1
  Si  Si2  1  0.320799  0.679201  0.750000  1
  Si  Si3  1  0.678156  0.321844  0.250000  1
  Rh  Rh4  1  0.546897  0.453103  0.250000  1
  Rh  Rh5  1  0.454255  0.545745  0.750000  1
  Rh  Rh6  1  0.249279  0.750721  0.250000  1
  Rh  Rh7  1  0.749015  0.250985  0.750000  1
