# generated using pymatgen
data_Tb2Tm14MgNi4Ag3
_symmetry_space_group_name_H-M   'P 1'
_cell_length_a   9.36952853
_cell_length_b   9.38104447
_cell_length_c   9.38644500
_cell_angle_alpha   59.98095819
_cell_angle_beta   59.94026084
_cell_angle_gamma   59.94286953
_symmetry_Int_Tables_number   1
_chemical_formula_structural   Tb2Tm14MgNi4Ag3
_chemical_formula_sum   'Tb2 Tm14 Mg1 Ni4 Ag3'
_cell_volume   582.78517431
_cell_formula_units_Z   1
loop_
 _symmetry_equiv_pos_site_id
 _symmetry_equiv_pos_as_xyz
  1  'x, y, z'
loop_
 _atom_site_type_symbol
 _atom_site_label
 _atom_site_symmetry_multiplicity
 _atom_site_fract_x
 _atom_site_fract_y
 _atom_site_fract_z
 _atom_site_occupancy
  Tb  Tb0  1  0.600056  0.203848  0.598047  1
  Tb  Tb1  1  0.193246  0.602663  0.602045  1
  Tm  Tm2  1  0.183574  0.814861  0.815112  1
  Tm  Tm3  1  0.813153  0.185932  0.185446  1
  Tm  Tm4  1  0.813153  0.185932  0.815469  1
  Tm  Tm5  1  0.183574  0.814861  0.186452  1
  Tm  Tm6  1  0.812993  0.814921  0.186043  1
  Tm  Tm7  1  0.182940  0.186399  0.815330  1
  Tm  Tm8  1  0.059086  0.439578  0.439771  1
  Tm  Tm9  1  0.435886  0.062939  0.063823  1
  Tm  Tm10  1  0.435886  0.062939  0.437353  1
  Tm  Tm11  1  0.059086  0.439578  0.061565  1
  Tm  Tm12  1  0.436317  0.437577  0.063053  1
  Tm  Tm13  1  0.059886  0.061401  0.439357  1
  Tm  Tm14  1  0.599328  0.598140  0.597638  1
  Tm  Tm15  1  0.599328  0.598140  0.204893  1
  Mg  Mg16  1  0.536778  0.820012  0.821606  1
  Ni  Ni17  1  0.391093  0.394001  0.391414  1
  Ni  Ni18  1  0.391093  0.394001  0.823495  1
  Ni  Ni19  1  0.392520  0.822306  0.392588  1
  Ni  Ni20  1  0.822719  0.394290  0.391497  1
  Ag  Ag21  1  0.832959  0.833880  0.835405  1
  Ag  Ag22  1  0.832959  0.833880  0.497757  1
  Ag  Ag23  1  0.832387  0.497922  0.834846  1
