# generated using pymatgen
data_TlAg2Sn(Pt2O7)2
_symmetry_space_group_name_H-M   'P 1'
_cell_length_a   7.24245900
_cell_length_b   7.24245728
_cell_length_c   7.36847000
_cell_angle_alpha   59.44619875
_cell_angle_beta   59.44620678
_cell_angle_gamma   59.22472689
_symmetry_Int_Tables_number   1
_chemical_formula_structural   TlAg2Sn(Pt2O7)2
_chemical_formula_sum   'Tl1 Ag2 Sn1 Pt4 O14'
_cell_volume   269.38992545
_cell_formula_units_Z   1
loop_
 _symmetry_equiv_pos_site_id
 _symmetry_equiv_pos_as_xyz
  1  'x, y, z'
loop_
 _atom_site_type_symbol
 _atom_site_label
 _atom_site_symmetry_multiplicity
 _atom_site_fract_x
 _atom_site_fract_y
 _atom_site_fract_z
 _atom_site_occupancy
  Tl  Tl0  1  0.625000  0.625000  0.125000  1
  Ag  Ag1  1  0.625000  0.125000  0.625000  1
  Ag  Ag2  1  0.125000  0.625000  0.625000  1
  Sn  Sn3  1  0.625000  0.625000  0.625000  1
  Pt  Pt4  1  0.125000  0.125000  0.125000  1
  Pt  Pt5  1  0.625000  0.125000  0.125000  1
  Pt  Pt6  1  0.125000  0.625000  0.125000  1
  Pt  Pt7  1  0.125000  0.125000  0.625000  1
  O  O8  1  0.021090  0.461614  0.457819  1
  O  O9  1  0.786228  0.786228  0.222765  1
  O  O10  1  0.787249  0.213150  0.207100  1
  O  O11  1  0.461614  0.021090  0.457819  1
  O  O12  1  0.753909  0.753909  0.722483  1
  O  O13  1  0.044042  0.044042  0.456740  1
  O  O14  1  0.036850  0.462751  0.042900  1
  O  O15  1  0.788386  0.228910  0.792181  1
  O  O16  1  0.213150  0.787249  0.207100  1
  O  O17  1  0.205958  0.205958  0.793260  1
  O  O18  1  0.496091  0.496091  0.527517  1
  O  O19  1  0.462751  0.036850  0.042900  1
  O  O20  1  0.463772  0.463772  0.027235  1
  O  O21  1  0.228910  0.788386  0.792181  1
