# generated using pymatgen
data_Sm3ZnAu5
_symmetry_space_group_name_H-M   'P 1'
_cell_length_a   8.58937307
_cell_length_b   8.58937353
_cell_length_c   13.49138000
_cell_angle_alpha   90.00000000
_cell_angle_beta   90.00000000
_cell_angle_gamma   127.23408250
_symmetry_Int_Tables_number   1
_chemical_formula_structural   Sm3ZnAu5
_chemical_formula_sum   'Sm12 Zn4 Au20'
_cell_volume   792.47434297
_cell_formula_units_Z   4
loop_
 _symmetry_equiv_pos_site_id
 _symmetry_equiv_pos_as_xyz
  1  'x, y, z'
loop_
 _atom_site_type_symbol
 _atom_site_label
 _atom_site_symmetry_multiplicity
 _atom_site_fract_x
 _atom_site_fract_y
 _atom_site_fract_z
 _atom_site_occupancy
  Sm  Sm0  1  0.928370  0.071630  0.250000  1
  Sm  Sm1  1  0.071630  0.928370  0.750000  1
  Sm  Sm2  1  0.319863  0.680137  0.250000  1
  Sm  Sm3  1  0.680137  0.319863  0.750000  1
  Sm  Sm4  1  0.629993  0.370007  0.461816  1
  Sm  Sm5  1  0.370007  0.629993  0.538184  1
  Sm  Sm6  1  0.629993  0.370007  0.038184  1
  Sm  Sm7  1  0.370007  0.629993  0.961816  1
  Sm  Sm8  1  0.882704  0.117296  0.951482  1
  Sm  Sm9  1  0.117296  0.882704  0.048518  1
  Sm  Sm10  1  0.882704  0.117296  0.548518  1
  Sm  Sm11  1  0.117296  0.882704  0.451482  1
  Zn  Zn12  1  0.720891  0.279109  0.250000  1
  Zn  Zn13  1  0.279109  0.720891  0.750000  1
  Zn  Zn14  1  0.532355  0.467645  0.250000  1
  Zn  Zn15  1  0.467645  0.532355  0.750000  1
  Au  Au16  1  0.321809  0.067430  0.250000  1
  Au  Au17  1  0.067430  0.321809  0.750000  1
  Au  Au18  1  0.678191  0.932570  0.750000  1
  Au  Au19  1  0.932570  0.678191  0.250000  1
  Au  Au20  1  0.569130  0.002436  0.395821  1
  Au  Au21  1  0.002436  0.569130  0.604179  1
  Au  Au22  1  0.569130  0.002436  0.104179  1
  Au  Au23  1  0.002436  0.569130  0.895821  1
  Au  Au24  1  0.430870  0.997564  0.604179  1
  Au  Au25  1  0.997564  0.430870  0.395821  1
  Au  Au26  1  0.430870  0.997564  0.895821  1
  Au  Au27  1  0.997564  0.430870  0.104179  1
  Au  Au28  1  0.687039  0.742608  0.393804  1
  Au  Au29  1  0.742608  0.687039  0.606196  1
  Au  Au30  1  0.687039  0.742608  0.106196  1
  Au  Au31  1  0.742608  0.687039  0.893804  1
  Au  Au32  1  0.312961  0.257392  0.606196  1
  Au  Au33  1  0.257392  0.312961  0.393804  1
  Au  Au34  1  0.312961  0.257392  0.893804  1
  Au  Au35  1  0.257392  0.312961  0.106196  1
