# generated using pymatgen
data_Ta2CdHgO7
_symmetry_space_group_name_H-M   'P 1'
_cell_length_a   7.46801371
_cell_length_b   7.46801406
_cell_length_c   7.40230000
_cell_angle_alpha   60.29065747
_cell_angle_beta   60.29065595
_cell_angle_gamma   60.60197622
_symmetry_Int_Tables_number   1
_chemical_formula_structural   Ta2CdHgO7
_chemical_formula_sum   'Ta4 Cd2 Hg2 O14'
_cell_volume   294.51693314
_cell_formula_units_Z   2
loop_
 _symmetry_equiv_pos_site_id
 _symmetry_equiv_pos_as_xyz
  1  'x, y, z'
loop_
 _atom_site_type_symbol
 _atom_site_label
 _atom_site_symmetry_multiplicity
 _atom_site_fract_x
 _atom_site_fract_y
 _atom_site_fract_z
 _atom_site_occupancy
  Ta  Ta0  1  0.625000  0.625000  0.625000  1
  Ta  Ta1  1  0.125000  0.625000  0.625000  1
  Ta  Ta2  1  0.625000  0.625000  0.125000  1
  Ta  Ta3  1  0.625000  0.125000  0.625000  1
  Cd  Cd4  1  0.625000  0.125000  0.125000  1
  Cd  Cd5  1  0.125000  0.625000  0.125000  1
  Hg  Hg6  1  0.125000  0.125000  0.125000  1
  Hg  Hg7  1  0.125000  0.125000  0.625000  1
  O  O8  1  0.557201  0.557201  0.942799  1
  O  O9  1  0.312611  0.312611  0.687389  1
  O  O10  1  0.939128  0.563982  0.941383  1
  O  O11  1  0.939128  0.563982  0.555506  1
  O  O12  1  0.563982  0.939128  0.941383  1
  O  O13  1  0.563982  0.939128  0.555506  1
  O  O14  1  0.310872  0.686018  0.308617  1
  O  O15  1  0.686018  0.310872  0.694494  1
  O  O16  1  0.248544  0.248544  0.251456  1
  O  O17  1  0.001456  0.001456  0.998544  1
  O  O18  1  0.937389  0.937389  0.562611  1
  O  O19  1  0.686018  0.310872  0.308617  1
  O  O20  1  0.310872  0.686018  0.694494  1
  O  O21  1  0.692799  0.692799  0.307201  1
