# generated using pymatgen
data_SmEr2RuI3
_symmetry_space_group_name_H-M   'P 1'
_cell_length_a   4.22377700
_cell_length_b   8.94106349
_cell_length_c   12.28398844
_cell_angle_alpha   95.15952089
_cell_angle_beta   90.00000000
_cell_angle_gamma   90.00000000
_symmetry_Int_Tables_number   1
_chemical_formula_structural   SmEr2RuI3
_chemical_formula_sum   'Sm2 Er4 Ru2 I6'
_cell_volume   462.02587901
_cell_formula_units_Z   2
loop_
 _symmetry_equiv_pos_site_id
 _symmetry_equiv_pos_as_xyz
  1  'x, y, z'
loop_
 _atom_site_type_symbol
 _atom_site_label
 _atom_site_symmetry_multiplicity
 _atom_site_fract_x
 _atom_site_fract_y
 _atom_site_fract_z
 _atom_site_occupancy
  Sm  Sm0  1  0.750000  0.273735  0.605730  1
  Sm  Sm1  1  0.250000  0.726265  0.394270  1
  Er  Er2  1  0.750000  0.881155  0.625519  1
  Er  Er3  1  0.250000  0.118845  0.374481  1
  Er  Er4  1  0.750000  0.892900  0.183746  1
  Er  Er5  1  0.250000  0.107100  0.816254  1
  Ru  Ru6  1  0.750000  0.938826  0.404614  1
  Ru  Ru7  1  0.250000  0.061174  0.595386  1
  I  I8  1  0.750000  0.414874  0.363562  1
  I  I9  1  0.250000  0.585126  0.636438  1
  I  I10  1  0.750000  0.867893  0.889022  1
  I  I11  1  0.250000  0.132107  0.110978  1
  I  I12  1  0.750000  0.358836  0.871195  1
  I  I13  1  0.250000  0.641164  0.128805  1
