# generated using pymatgen
data_MgPd2PbO7
_symmetry_space_group_name_H-M   'P 1'
_cell_length_a   7.12588473
_cell_length_b   7.21486685
_cell_length_c   7.12588515
_cell_angle_alpha   59.58605192
_cell_angle_beta   59.29856513
_cell_angle_gamma   59.58605783
_symmetry_Int_Tables_number   1
_chemical_formula_structural   MgPd2PbO7
_chemical_formula_sum   'Mg2 Pd4 Pb2 O14'
_cell_volume   256.04645643
_cell_formula_units_Z   2
loop_
 _symmetry_equiv_pos_site_id
 _symmetry_equiv_pos_as_xyz
  1  'x, y, z'
loop_
 _atom_site_type_symbol
 _atom_site_label
 _atom_site_symmetry_multiplicity
 _atom_site_fract_x
 _atom_site_fract_y
 _atom_site_fract_z
 _atom_site_occupancy
  Mg  Mg0  1  0.125000  0.625000  0.625000  1
  Mg  Mg1  1  0.625000  0.625000  0.125000  1
  Pd  Pd2  1  0.625000  0.125000  0.125000  1
  Pd  Pd3  1  0.125000  0.625000  0.125000  1
  Pd  Pd4  1  0.125000  0.125000  0.625000  1
  Pd  Pd5  1  0.125000  0.125000  0.125000  1
  Pb  Pb6  1  0.625000  0.125000  0.625000  1
  Pb  Pb7  1  0.625000  0.625000  0.625000  1
  O  O8  1  0.782636  0.784737  0.213288  1
  O  O9  1  0.213288  0.219340  0.782636  1
  O  O10  1  0.785686  0.214314  0.785686  1
  O  O11  1  0.217897  0.782103  0.217897  1
  O  O12  1  0.213288  0.784737  0.782636  1
  O  O13  1  0.782636  0.219340  0.213288  1
  O  O14  1  0.467364  0.465263  0.036712  1
  O  O15  1  0.036712  0.030660  0.467364  1
  O  O16  1  0.464314  0.035686  0.464314  1
  O  O17  1  0.032103  0.467897  0.032103  1
  O  O18  1  0.036712  0.465263  0.467364  1
  O  O19  1  0.467364  0.030660  0.036712  1
  O  O20  1  0.494554  0.505446  0.494554  1
  O  O21  1  0.755446  0.744554  0.755446  1
