# generated using pymatgen
data_Lu12CuNi4Bi
_symmetry_space_group_name_H-M   'P 1'
_cell_length_a   8.15844959
_cell_length_b   8.15844983
_cell_length_c   8.15844900
_cell_angle_alpha   110.28808632
_cell_angle_beta   111.28541624
_cell_angle_gamma   106.87264245
_symmetry_Int_Tables_number   1
_chemical_formula_structural   Lu12CuNi4Bi
_chemical_formula_sum   'Lu12 Cu1 Ni4 Bi1'
_cell_volume   417.34937261
_cell_formula_units_Z   1
loop_
 _symmetry_equiv_pos_site_id
 _symmetry_equiv_pos_as_xyz
  1  'x, y, z'
loop_
 _atom_site_type_symbol
 _atom_site_label
 _atom_site_symmetry_multiplicity
 _atom_site_fract_x
 _atom_site_fract_y
 _atom_site_fract_z
 _atom_site_occupancy
  Lu  Lu0  1  0.286923  0.179132  0.466055  1
  Lu  Lu1  1  0.713077  0.820868  0.533945  1
  Lu  Lu2  1  0.286923  0.820868  0.107790  1
  Lu  Lu3  1  0.713077  0.179132  0.892210  1
  Lu  Lu4  1  0.627008  0.320206  0.306803  1
  Lu  Lu5  1  0.372992  0.679794  0.693197  1
  Lu  Lu6  1  0.013402  0.320206  0.693197  1
  Lu  Lu7  1  0.986598  0.679794  0.306803  1
  Lu  Lu8  1  0.218293  0.417320  0.199028  1
  Lu  Lu9  1  0.781707  0.582680  0.800972  1
  Lu  Lu10  1  0.218293  0.019266  0.800972  1
  Lu  Lu11  1  0.781707  0.980734  0.199028  1
  Cu  Cu12  1  0.000000  0.000000  0.000000  1
  Ni  Ni13  1  0.000000  0.360811  0.360811  1
  Ni  Ni14  1  0.000000  0.639189  0.639189  1
  Ni  Ni15  1  0.376432  0.876432  0.500000  1
  Ni  Ni16  1  0.623568  0.123568  0.500000  1
  Bi  Bi17  1  0.500000  0.500000  0.000000  1
