# generated using pymatgen
data_Tb2NiB8Ir
_symmetry_space_group_name_H-M   'P 1'
_cell_length_a   6.92167250
_cell_length_b   6.92167182
_cell_length_c   6.92167148
_cell_angle_alpha   113.24604453
_cell_angle_beta   111.25865669
_cell_angle_gamma   104.04835272
_symmetry_Int_Tables_number   1
_chemical_formula_structural   Tb2NiB8Ir
_chemical_formula_sum   'Tb4 Ni2 B16 Ir2'
_cell_volume   253.49882215
_cell_formula_units_Z   2
loop_
 _symmetry_equiv_pos_site_id
 _symmetry_equiv_pos_as_xyz
  1  'x, y, z'
loop_
 _atom_site_type_symbol
 _atom_site_label
 _atom_site_symmetry_multiplicity
 _atom_site_fract_x
 _atom_site_fract_y
 _atom_site_fract_z
 _atom_site_occupancy
  Tb  Tb0  1  0.209238  0.209238  0.000000  1
  Tb  Tb1  1  0.790762  0.790762  0.000000  1
  Tb  Tb2  1  0.749132  0.249132  0.500000  1
  Tb  Tb3  1  0.250868  0.750868  0.500000  1
  Ni  Ni4  1  0.744347  0.500000  0.244347  1
  Ni  Ni5  1  0.255653  0.500000  0.755653  1
  B  B6  1  0.108495  0.273505  0.382000  1
  B  B7  1  0.891505  0.726495  0.618000  1
  B  B8  1  0.891505  0.273505  0.165011  1
  B  B9  1  0.108495  0.726495  0.834989  1
  B  B10  1  0.731051  0.889224  0.620275  1
  B  B11  1  0.268949  0.110776  0.379725  1
  B  B12  1  0.731051  0.110776  0.841827  1
  B  B13  1  0.268949  0.889224  0.158173  1
  B  B14  1  0.413890  0.418948  0.528866  1
  B  B15  1  0.890082  0.885025  0.471134  1
  B  B16  1  0.586110  0.114975  0.005057  1
  B  B17  1  0.109918  0.581052  0.994943  1
  B  B18  1  0.586110  0.581052  0.471134  1
  B  B19  1  0.109918  0.114975  0.528866  1
  B  B20  1  0.890082  0.418948  0.005057  1
  B  B21  1  0.413890  0.885025  0.994943  1
  Ir  Ir22  1  0.500000  0.276010  0.776010  1
  Ir  Ir23  1  0.500000  0.723990  0.223990  1
