# generated using pymatgen
data_YBiIr2O7
_symmetry_space_group_name_H-M   'P 1'
_cell_length_a   7.31539086
_cell_length_b   7.31539109
_cell_length_c   7.31539165
_cell_angle_alpha   119.65384882
_cell_angle_beta   120.26131220
_cell_angle_gamma   90.07428940
_symmetry_Int_Tables_number   1
_chemical_formula_structural   YBiIr2O7
_chemical_formula_sum   'Y2 Bi2 Ir4 O14'
_cell_volume   276.98765993
_cell_formula_units_Z   2
loop_
 _symmetry_equiv_pos_site_id
 _symmetry_equiv_pos_as_xyz
  1  'x, y, z'
loop_
 _atom_site_type_symbol
 _atom_site_label
 _atom_site_symmetry_multiplicity
 _atom_site_fract_x
 _atom_site_fract_y
 _atom_site_fract_z
 _atom_site_occupancy
  Y  Y0  1  0.500000  0.500000  0.000000  1
  Y  Y1  1  0.000000  0.500000  0.500000  1
  Bi  Bi2  1  0.500000  0.500000  0.500000  1
  Bi  Bi3  1  0.500000  0.000000  0.000000  1
  Ir  Ir4  1  0.000000  0.000000  0.500000  1
  Ir  Ir5  1  0.000000  0.500000  0.000000  1
  Ir  Ir6  1  0.000000  0.000000  0.000000  1
  Ir  Ir7  1  0.500000  0.000000  0.500000  1
  O  O8  1  0.334978  0.090275  0.669759  1
  O  O9  1  0.920516  0.090275  0.255297  1
  O  O10  1  0.914364  0.664364  0.250000  1
  O  O11  1  0.920516  0.665217  0.830241  1
  O  O12  1  0.334978  0.665217  0.244703  1
  O  O13  1  0.331124  0.081124  0.250000  1
  O  O14  1  0.665022  0.909725  0.330241  1
  O  O15  1  0.079484  0.909725  0.744703  1
  O  O16  1  0.085636  0.335636  0.750000  1
  O  O17  1  0.079484  0.334783  0.169759  1
  O  O18  1  0.665022  0.334783  0.755297  1
  O  O19  1  0.668876  0.918876  0.750000  1
  O  O20  1  0.630450  0.380450  0.250000  1
  O  O21  1  0.369550  0.619550  0.750000  1
