# generated using pymatgen
data_Er4Si4IrRu
_symmetry_space_group_name_H-M   'P 1'
_cell_length_a   5.66126567
_cell_length_b   5.66126567
_cell_length_c   10.00661501
_cell_angle_alpha   116.74038166
_cell_angle_beta   116.74038112
_cell_angle_gamma   43.54620146
_symmetry_Int_Tables_number   1
_chemical_formula_structural   Er4Si4IrRu
_chemical_formula_sum   'Er4 Si4 Ir1 Ru1'
_cell_volume   193.28398616
_cell_formula_units_Z   1
loop_
 _symmetry_equiv_pos_site_id
 _symmetry_equiv_pos_as_xyz
  1  'x, y, z'
loop_
 _atom_site_type_symbol
 _atom_site_label
 _atom_site_symmetry_multiplicity
 _atom_site_fract_x
 _atom_site_fract_y
 _atom_site_fract_z
 _atom_site_occupancy
  Er  Er0  1  0.005109  0.005109  0.177041  1
  Er  Er1  1  0.814454  0.814454  0.390319  1
  Er  Er2  1  0.184533  0.184533  0.607819  1
  Er  Er3  1  0.995861  0.995861  0.822573  1
  Si  Si4  1  0.640532  0.640532  0.062822  1
  Si  Si5  1  0.509624  0.509624  0.377424  1
  Si  Si6  1  0.492592  0.492592  0.623005  1
  Si  Si7  1  0.357049  0.357049  0.935367  1
  Ir  Ir8  1  0.272237  0.272237  0.127335  1
  Ru  Ru9  1  0.728007  0.728007  0.876298  1
