# generated using pymatgen
data_Cs2BeBr4
_symmetry_space_group_name_H-M   'P 1'
_cell_length_a   7.72176100
_cell_length_b   10.40658300
_cell_length_c   13.50080500
_cell_angle_alpha   90.00000000
_cell_angle_beta   90.00000000
_cell_angle_gamma   90.00000000
_symmetry_Int_Tables_number   1
_chemical_formula_structural   Cs2BeBr4
_chemical_formula_sum   'Cs8 Be4 Br16'
_cell_volume   1084.88616866
_cell_formula_units_Z   4
loop_
 _symmetry_equiv_pos_site_id
 _symmetry_equiv_pos_as_xyz
  1  'x, y, z'
loop_
 _atom_site_type_symbol
 _atom_site_label
 _atom_site_symmetry_multiplicity
 _atom_site_fract_x
 _atom_site_fract_y
 _atom_site_fract_z
 _atom_site_occupancy
  Cs  Cs0  1  0.250000  0.147793  0.601253  1
  Cs  Cs1  1  0.250000  0.647793  0.898747  1
  Cs  Cs2  1  0.750000  0.852207  0.398747  1
  Cs  Cs3  1  0.750000  0.352207  0.101253  1
  Cs  Cs4  1  0.250000  0.477823  0.325002  1
  Cs  Cs5  1  0.250000  0.977823  0.174998  1
  Cs  Cs6  1  0.750000  0.522177  0.674998  1
  Cs  Cs7  1  0.750000  0.022177  0.825002  1
  Be  Be8  1  0.250000  0.243262  0.919653  1
  Be  Be9  1  0.250000  0.743262  0.580347  1
  Be  Be10  1  0.750000  0.756738  0.080347  1
  Be  Be11  1  0.750000  0.256738  0.419653  1
  Br  Br12  1  0.250000  0.532400  0.597071  1
  Br  Br13  1  0.250000  0.032400  0.902929  1
  Br  Br14  1  0.750000  0.467600  0.402929  1
  Br  Br15  1  0.750000  0.967600  0.097071  1
  Br  Br16  1  0.250000  0.301818  0.076704  1
  Br  Br17  1  0.250000  0.801818  0.423296  1
  Br  Br18  1  0.750000  0.698182  0.923296  1
  Br  Br19  1  0.750000  0.198182  0.576704  1
  Br  Br20  1  0.983731  0.677214  0.151434  1
  Br  Br21  1  0.516269  0.177214  0.348566  1
  Br  Br22  1  0.483731  0.322786  0.848566  1
  Br  Br23  1  0.016269  0.822786  0.651434  1
  Br  Br24  1  0.016269  0.322786  0.848566  1
  Br  Br25  1  0.483731  0.822786  0.651434  1
  Br  Br26  1  0.516269  0.677214  0.151434  1
  Br  Br27  1  0.983731  0.177214  0.348566  1
