# generated using pymatgen
data_Dy3ErMg2Ir3
_symmetry_space_group_name_H-M   'P 1'
_cell_length_a   7.39635400
_cell_length_b   7.40930322
_cell_length_c   4.11564500
_cell_angle_alpha   90.00000000
_cell_angle_beta   90.00000000
_cell_angle_gamma   119.94221239
_symmetry_Int_Tables_number   1
_chemical_formula_structural   Dy3ErMg2Ir3
_chemical_formula_sum   'Dy3 Er1 Mg2 Ir3'
_cell_volume   195.44123305
_cell_formula_units_Z   1
loop_
 _symmetry_equiv_pos_site_id
 _symmetry_equiv_pos_as_xyz
  1  'x, y, z'
loop_
 _atom_site_type_symbol
 _atom_site_label
 _atom_site_symmetry_multiplicity
 _atom_site_fract_x
 _atom_site_fract_y
 _atom_site_fract_z
 _atom_site_occupancy
  Dy  Dy0  1  0.391919  0.000000  0.500001  1
  Dy  Dy1  1  0.013777  0.427847  0.500001  1
  Dy  Dy2  1  0.585929  0.572153  0.500001  1
  Er  Er3  1  0.750958  0.000000  0.000000  1
  Mg  Mg4  1  0.248451  0.249014  0.000000  1
  Mg  Mg5  1  0.999438  0.750986  0.000000  1
  Ir  Ir6  1  0.670395  0.332808  0.000000  1
  Ir  Ir7  1  0.337587  0.667192  0.000000  1
  Ir  Ir8  1  0.001547  0.000000  0.500001  1
