# generated using pymatgen
data_K4ZrS4
_symmetry_space_group_name_H-M   'P 1'
_cell_length_a   8.16482100
_cell_length_b   9.95505000
_cell_length_c   14.60541900
_cell_angle_alpha   90.00000000
_cell_angle_beta   90.00000000
_cell_angle_gamma   90.00000000
_symmetry_Int_Tables_number   1
_chemical_formula_structural   K4ZrS4
_chemical_formula_sum   'K16 Zr4 S16'
_cell_volume   1187.14600175
_cell_formula_units_Z   4
loop_
 _symmetry_equiv_pos_site_id
 _symmetry_equiv_pos_as_xyz
  1  'x, y, z'
loop_
 _atom_site_type_symbol
 _atom_site_label
 _atom_site_symmetry_multiplicity
 _atom_site_fract_x
 _atom_site_fract_y
 _atom_site_fract_z
 _atom_site_occupancy
  K  K0  1  0.000000  0.000000  0.000000  1
  K  K1  1  0.500000  0.000000  0.500000  1
  K  K2  1  0.000000  0.500000  0.000000  1
  K  K3  1  0.500000  0.500000  0.500000  1
  K  K4  1  0.986957  0.750000  0.427952  1
  K  K5  1  0.486957  0.250000  0.072048  1
  K  K6  1  0.013043  0.250000  0.572048  1
  K  K7  1  0.513043  0.750000  0.927952  1
  K  K8  1  0.841297  0.057268  0.275984  1
  K  K9  1  0.341297  0.942732  0.224016  1
  K  K10  1  0.158703  0.557268  0.724016  1
  K  K11  1  0.658703  0.442732  0.775984  1
  K  K12  1  0.158703  0.942732  0.724016  1
  K  K13  1  0.658703  0.057268  0.775984  1
  K  K14  1  0.841297  0.442732  0.275984  1
  K  K15  1  0.341297  0.557268  0.224016  1
  Zr  Zr16  1  0.754389  0.750000  0.667145  1
  Zr  Zr17  1  0.245611  0.250000  0.332855  1
  Zr  Zr18  1  0.745611  0.750000  0.167145  1
  Zr  Zr19  1  0.254389  0.250000  0.832855  1
  S  S20  1  0.957357  0.250000  0.824521  1
  S  S21  1  0.542643  0.250000  0.324521  1
  S  S22  1  0.457357  0.750000  0.675479  1
  S  S23  1  0.042643  0.750000  0.175479  1
  S  S24  1  0.654018  0.548667  0.090981  1
  S  S25  1  0.154018  0.451333  0.409019  1
  S  S26  1  0.345982  0.048667  0.909019  1
  S  S27  1  0.845982  0.951333  0.590981  1
  S  S28  1  0.345982  0.451333  0.909019  1
  S  S29  1  0.845982  0.548667  0.590981  1
  S  S30  1  0.654018  0.951333  0.090981  1
  S  S31  1  0.154018  0.048667  0.409019  1
  S  S32  1  0.627122  0.750000  0.320206  1
  S  S33  1  0.127122  0.250000  0.179794  1
  S  S34  1  0.372878  0.250000  0.679794  1
  S  S35  1  0.872878  0.750000  0.820206  1
