# generated using pymatgen
data_Sr4NpU7N16
_symmetry_space_group_name_H-M   'P 1'
_cell_length_a   10.12821709
_cell_length_b   3.51873800
_cell_length_c   11.93020900
_cell_angle_alpha   90.00000000
_cell_angle_beta   89.99355957
_cell_angle_gamma   90.00000000
_symmetry_Int_Tables_number   1
_chemical_formula_structural   Sr4NpU7N16
_chemical_formula_sum   'Sr4 Np1 U7 N16'
_cell_volume   425.17525616
_cell_formula_units_Z   1
loop_
 _symmetry_equiv_pos_site_id
 _symmetry_equiv_pos_as_xyz
  1  'x, y, z'
loop_
 _atom_site_type_symbol
 _atom_site_label
 _atom_site_symmetry_multiplicity
 _atom_site_fract_x
 _atom_site_fract_y
 _atom_site_fract_z
 _atom_site_occupancy
  Sr  Sr0  1  0.750305  0.500001  0.145634  1
  Sr  Sr1  1  0.249436  0.500001  0.352939  1
  Sr  Sr2  1  0.750254  0.000000  0.646184  1
  Sr  Sr3  1  0.249784  0.000000  0.854824  1
  Np  Np4  1  0.077174  0.500001  0.113541  1
  U  U5  1  0.421840  0.000000  0.112399  1
  U  U6  1  0.923686  0.000000  0.387420  1
  U  U7  1  0.578201  0.500001  0.386183  1
  U  U8  1  0.421531  0.000000  0.613736  1
  U  U9  1  0.076538  0.500001  0.612632  1
  U  U10  1  0.576387  0.500001  0.887983  1
  U  U11  1  0.921816  0.000000  0.887833  1
  N  N12  1  0.614626  0.000000  0.007223  1
  N  N13  1  0.942499  0.000000  0.074156  1
  N  N14  1  0.212057  0.000000  0.166053  1
  N  N15  1  0.486093  0.500001  0.213597  1
  N  N16  1  0.986649  0.500001  0.286029  1
  N  N17  1  0.710851  0.000000  0.333192  1
  N  N18  1  0.442936  0.000000  0.424741  1
  N  N19  1  0.114766  0.000000  0.493096  1
  N  N20  1  0.885314  0.500001  0.507140  1
  N  N21  1  0.557139  0.500001  0.575201  1
  N  N22  1  0.289120  0.500001  0.666550  1
  N  N23  1  0.013635  0.000000  0.713936  1
  N  N24  1  0.513840  0.000000  0.786361  1
  N  N25  1  0.789131  0.500001  0.833927  1
  N  N26  1  0.058212  0.500001  0.925213  1
  N  N27  1  0.386191  0.500001  0.992286  1
