# generated using pymatgen
data_Hf2Ta(TiSi)3
_symmetry_space_group_name_H-M   'P 1'
_cell_length_a   6.92637148
_cell_length_b   6.93039679
_cell_length_c   3.62483400
_cell_angle_alpha   90.00000000
_cell_angle_beta   90.00000000
_cell_angle_gamma   120.01923778
_symmetry_Int_Tables_number   1
_chemical_formula_structural   Hf2Ta(TiSi)3
_chemical_formula_sum   'Hf2 Ta1 Ti3 Si3'
_cell_volume   150.66015621
_cell_formula_units_Z   1
loop_
 _symmetry_equiv_pos_site_id
 _symmetry_equiv_pos_as_xyz
  1  'x, y, z'
loop_
 _atom_site_type_symbol
 _atom_site_label
 _atom_site_symmetry_multiplicity
 _atom_site_fract_x
 _atom_site_fract_y
 _atom_site_fract_z
 _atom_site_occupancy
  Hf  Hf0  1  0.407286  0.406981  0.500000  1
  Hf  Hf1  1  0.592714  0.999696  0.500000  1
  Ta  Ta2  1  0.000000  0.594715  0.500000  1
  Ti  Ti3  1  0.747591  0.747076  0.000000  1
  Ti  Ti4  1  0.252409  0.999486  0.000000  1
  Ti  Ti5  1  0.000000  0.252036  0.000000  1
  Si  Si6  1  0.673152  0.338716  0.000000  1
  Si  Si7  1  0.326848  0.665564  0.000000  1
  Si  Si8  1  0.000000  0.995730  0.500000  1
