# generated using pymatgen
data_Cs4Na2DyInAs4
_symmetry_space_group_name_H-M   'P 1'
_cell_length_a   9.88448623
_cell_length_b   9.88448558
_cell_length_c   9.88448599
_cell_angle_alpha   137.49768131
_cell_angle_beta   138.87550819
_cell_angle_gamma   60.62442515
_symmetry_Int_Tables_number   1
_chemical_formula_structural   Cs4Na2DyInAs4
_chemical_formula_sum   'Cs4 Na2 Dy1 In1 As4'
_cell_volume   424.54082556
_cell_formula_units_Z   1
loop_
 _symmetry_equiv_pos_site_id
 _symmetry_equiv_pos_as_xyz
  1  'x, y, z'
loop_
 _atom_site_type_symbol
 _atom_site_label
 _atom_site_symmetry_multiplicity
 _atom_site_fract_x
 _atom_site_fract_y
 _atom_site_fract_z
 _atom_site_occupancy
  Cs  Cs0  1  0.671523  0.399656  0.716488  1
  Cs  Cs1  1  0.828477  0.044965  0.228134  1
  Cs  Cs2  1  0.183169  0.955035  0.783512  1
  Cs  Cs3  1  0.316831  0.600344  0.271866  1
  Na  Na4  1  0.750000  0.000000  0.750000  1
  Na  Na5  1  0.250000  0.000000  0.250000  1
  Dy  Dy6  1  0.750000  0.500000  0.250000  1
  In  In7  1  0.250000  0.500000  0.750000  1
  As  As8  1  0.402645  0.189911  0.776780  1
  As  As9  1  0.586869  0.810089  0.212734  1
  As  As10  1  0.097355  0.374134  0.287266  1
  As  As11  1  0.913131  0.625866  0.723220  1
