# generated using pymatgen
data_Sr2LiAlSi2
_symmetry_space_group_name_H-M   'P 1'
_cell_length_a   8.68719829
_cell_length_b   8.68719909
_cell_length_c   8.68719829
_cell_angle_alpha   137.49496462
_cell_angle_beta   137.04293740
_cell_angle_gamma   62.02523692
_symmetry_Int_Tables_number   1
_chemical_formula_structural   Sr2LiAlSi2
_chemical_formula_sum   'Sr4 Li2 Al2 Si4'
_cell_volume   298.29933074
_cell_formula_units_Z   2
loop_
 _symmetry_equiv_pos_site_id
 _symmetry_equiv_pos_as_xyz
  1  'x, y, z'
loop_
 _atom_site_type_symbol
 _atom_site_label
 _atom_site_symmetry_multiplicity
 _atom_site_fract_x
 _atom_site_fract_y
 _atom_site_fract_z
 _atom_site_occupancy
  Sr  Sr0  1  0.097133  0.838330  0.258803  1
  Sr  Sr1  1  0.902867  0.161670  0.741197  1
  Sr  Sr2  1  0.420472  0.661670  0.758803  1
  Sr  Sr3  1  0.579528  0.338330  0.241197  1
  Li  Li4  1  0.500000  0.250000  0.750000  1
  Li  Li5  1  0.500000  0.750000  0.250000  1
  Al  Al6  1  0.000000  0.250000  0.250000  1
  Al  Al7  1  0.000000  0.750000  0.750000  1
  Si  Si8  1  0.668150  0.898477  0.769672  1
  Si  Si9  1  0.128806  0.398477  0.730328  1
  Si  Si10  1  0.871194  0.601523  0.269672  1
  Si  Si11  1  0.331850  0.101523  0.230328  1
