# generated using pymatgen
data_TlHg2IrRh3PbO14
_symmetry_space_group_name_H-M   'P 1'
_cell_length_a   7.28798336
_cell_length_b   7.31634218
_cell_length_c   7.24477400
_cell_angle_alpha   60.32306058
_cell_angle_beta   60.19593176
_cell_angle_gamma   60.71503997
_symmetry_Int_Tables_number   1
_chemical_formula_structural   TlHg2IrRh3PbO14
_chemical_formula_sum   'Tl1 Hg2 Ir1 Rh3 Pb1 O14'
_cell_volume   275.68494604
_cell_formula_units_Z   1
loop_
 _symmetry_equiv_pos_site_id
 _symmetry_equiv_pos_as_xyz
  1  'x, y, z'
loop_
 _atom_site_type_symbol
 _atom_site_label
 _atom_site_symmetry_multiplicity
 _atom_site_fract_x
 _atom_site_fract_y
 _atom_site_fract_z
 _atom_site_occupancy
  Tl  Tl0  1  0.625000  0.125000  0.125000  1
  Hg  Hg1  1  0.125000  0.125000  0.625000  1
  Hg  Hg2  1  0.125000  0.125000  0.125000  1
  Ir  Ir3  1  0.625000  0.125000  0.625000  1
  Rh  Rh4  1  0.125000  0.625000  0.625000  1
  Rh  Rh5  1  0.625000  0.625000  0.125000  1
  Rh  Rh6  1  0.625000  0.625000  0.625000  1
  Pb  Pb7  1  0.125000  0.625000  0.125000  1
  O  O8  1  0.707372  0.710554  0.291037  1
  O  O9  1  0.311976  0.302068  0.692978  1
  O  O10  1  0.688006  0.300310  0.708758  1
  O  O11  1  0.299906  0.693475  0.297196  1
  O  O12  1  0.299906  0.693475  0.709423  1
  O  O13  1  0.688006  0.300310  0.302925  1
  O  O14  1  0.542628  0.539446  0.958963  1
  O  O15  1  0.938024  0.947932  0.557022  1
  O  O16  1  0.561994  0.949690  0.541242  1
  O  O17  1  0.950094  0.556525  0.952804  1
  O  O18  1  0.950094  0.556525  0.540577  1
  O  O19  1  0.561994  0.949690  0.947075  1
  O  O20  1  0.235223  0.236193  0.264291  1
  O  O21  1  0.014777  0.013807  0.985709  1
