# generated using pymatgen
data_ScTa2Re3SiGe2
_symmetry_space_group_name_H-M   'P 1'
_cell_length_a   7.03450484
_cell_length_b   7.03450419
_cell_length_c   3.31162300
_cell_angle_alpha   90.00000000
_cell_angle_beta   90.00000000
_cell_angle_gamma   120.61093019
_symmetry_Int_Tables_number   1
_chemical_formula_structural   ScTa2Re3SiGe2
_chemical_formula_sum   'Sc1 Ta2 Re3 Si1 Ge2'
_cell_volume   141.03662820
_cell_formula_units_Z   1
loop_
 _symmetry_equiv_pos_site_id
 _symmetry_equiv_pos_as_xyz
  1  'x, y, z'
loop_
 _atom_site_type_symbol
 _atom_site_label
 _atom_site_symmetry_multiplicity
 _atom_site_fract_x
 _atom_site_fract_y
 _atom_site_fract_z
 _atom_site_occupancy
  Sc  Sc0  1  0.398663  0.398663  0.500000  1
  Ta  Ta1  1  0.604369  0.002711  0.500000  1
  Ta  Ta2  1  0.002711  0.604369  0.500000  1
  Re  Re3  1  0.749840  0.749840  0.000000  1
  Re  Re4  1  0.251744  0.991608  0.000000  1
  Re  Re5  1  0.991608  0.251744  0.000000  1
  Si  Si6  1  0.002009  0.002009  0.500000  1
  Ge  Ge7  1  0.664742  0.334316  0.000000  1
  Ge  Ge8  1  0.334316  0.664742  0.000000  1
