# generated using pymatgen
data_TbHoNpO6
_symmetry_space_group_name_H-M   'P 1'
_cell_length_a   5.54623500
_cell_length_b   7.84329872
_cell_length_c   11.83910681
_cell_angle_alpha   73.95972841
_cell_angle_beta   90.00000000
_cell_angle_gamma   90.00000000
_symmetry_Int_Tables_number   1
_chemical_formula_structural   TbHoNpO6
_chemical_formula_sum   'Tb4 Ho4 Np4 O24'
_cell_volume   494.95982905
_cell_formula_units_Z   4
loop_
 _symmetry_equiv_pos_site_id
 _symmetry_equiv_pos_as_xyz
  1  'x, y, z'
loop_
 _atom_site_type_symbol
 _atom_site_label
 _atom_site_symmetry_multiplicity
 _atom_site_fract_x
 _atom_site_fract_y
 _atom_site_fract_z
 _atom_site_occupancy
  Tb  Tb0  1  0.745070  0.000000  0.750000  1
  Tb  Tb1  1  0.254930  0.000000  0.250000  1
  Tb  Tb2  1  0.695752  0.500000  0.750000  1
  Tb  Tb3  1  0.304248  0.500000  0.250000  1
  Ho  Ho4  1  0.186249  0.793793  0.579772  1
  Ho  Ho5  1  0.813751  0.793793  0.079772  1
  Ho  Ho6  1  0.186249  0.206207  0.920228  1
  Ho  Ho7  1  0.813751  0.206207  0.420228  1
  Np  Np8  1  0.255595  0.721629  0.886946  1
  Np  Np9  1  0.744405  0.721629  0.386946  1
  Np  Np10  1  0.255595  0.278371  0.613054  1
  Np  Np11  1  0.744405  0.278371  0.113054  1
  O  O12  1  0.046599  0.945147  0.896914  1
  O  O13  1  0.554365  0.847515  0.932269  1
  O  O14  1  0.953401  0.945147  0.396914  1
  O  O15  1  0.449337  0.799664  0.726238  1
  O  O16  1  0.445635  0.847515  0.432269  1
  O  O17  1  0.965324  0.713417  0.767591  1
  O  O18  1  0.550663  0.799664  0.226238  1
  O  O19  1  0.873775  0.629150  0.554930  1
  O  O20  1  0.384742  0.481407  0.884393  1
  O  O21  1  0.034676  0.713417  0.267591  1
  O  O22  1  0.384742  0.518593  0.615607  1
  O  O23  1  0.873775  0.370850  0.945070  1
  O  O24  1  0.126225  0.629150  0.054930  1
  O  O25  1  0.615258  0.481407  0.384393  1
  O  O26  1  0.965324  0.286583  0.732409  1
  O  O27  1  0.615258  0.518593  0.115607  1
  O  O28  1  0.126225  0.370850  0.445070  1
  O  O29  1  0.449337  0.200336  0.773762  1
  O  O30  1  0.034676  0.286583  0.232409  1
  O  O31  1  0.554365  0.152485  0.567731  1
  O  O32  1  0.550663  0.200336  0.273762  1
  O  O33  1  0.046599  0.054853  0.603086  1
  O  O34  1  0.445635  0.152485  0.067731  1
  O  O35  1  0.953401  0.054853  0.103086  1
