# generated using pymatgen
data_SmThNi7P4
_symmetry_space_group_name_H-M   'P 1'
_cell_length_a   3.76873100
_cell_length_b   9.19530300
_cell_length_c   10.36494700
_cell_angle_alpha   90.00000000
_cell_angle_beta   90.00000000
_cell_angle_gamma   90.00000000
_symmetry_Int_Tables_number   1
_chemical_formula_structural   SmThNi7P4
_chemical_formula_sum   'Sm2 Th2 Ni14 P8'
_cell_volume   359.19333558
_cell_formula_units_Z   2
loop_
 _symmetry_equiv_pos_site_id
 _symmetry_equiv_pos_as_xyz
  1  'x, y, z'
loop_
 _atom_site_type_symbol
 _atom_site_label
 _atom_site_symmetry_multiplicity
 _atom_site_fract_x
 _atom_site_fract_y
 _atom_site_fract_z
 _atom_site_occupancy
  Sm  Sm0  1  0.000000  0.441884  0.778805  1
  Sm  Sm1  1  0.500000  0.558116  0.278805  1
  Th  Th2  1  0.000000  0.061802  0.999468  1
  Th  Th3  1  0.500000  0.938198  0.499468  1
  Ni  Ni4  1  0.000000  0.081639  0.306611  1
  Ni  Ni5  1  0.500000  0.918361  0.806611  1
  Ni  Ni6  1  0.000000  0.194346  0.568900  1
  Ni  Ni7  1  0.500000  0.805654  0.068900  1
  Ni  Ni8  1  0.000000  0.401542  0.081224  1
  Ni  Ni9  1  0.500000  0.598458  0.581224  1
  Ni  Ni10  1  0.000000  0.440586  0.475834  1
  Ni  Ni11  1  0.500000  0.559414  0.975834  1
  Ni  Ni12  1  0.000000  0.753702  0.899765  1
  Ni  Ni13  1  0.500000  0.246298  0.399765  1
  Ni  Ni14  1  0.000000  0.776817  0.667347  1
  Ni  Ni15  1  0.500000  0.223183  0.167347  1
  Ni  Ni16  1  0.000000  0.815034  0.262439  1
  Ni  Ni17  1  0.500000  0.184966  0.762439  1
  P  P18  1  0.000000  0.025937  0.716635  1
  P  P19  1  0.500000  0.974063  0.216635  1
  P  P20  1  0.000000  0.317768  0.285212  1
  P  P21  1  0.500000  0.682232  0.785212  1
  P  P22  1  0.000000  0.654155  0.088216  1
  P  P23  1  0.500000  0.345845  0.588216  1
  P  P24  1  0.000000  0.685740  0.464851  1
  P  P25  1  0.500000  0.314260  0.964851  1
