# generated using pymatgen
data_LiP2H11
_symmetry_space_group_name_H-M   'P 1'
_cell_length_a   5.36359961
_cell_length_b   5.49890898
_cell_length_c   10.17120309
_cell_angle_alpha   102.44581341
_cell_angle_beta   76.73300270
_cell_angle_gamma   127.09700167
_symmetry_Int_Tables_number   1
_chemical_formula_structural   LiP2H11
_chemical_formula_sum   'Li1 P2 H11'
_cell_volume   231.73857799
_cell_formula_units_Z   1
loop_
 _symmetry_equiv_pos_site_id
 _symmetry_equiv_pos_as_xyz
  1  'x, y, z'
loop_
 _atom_site_type_symbol
 _atom_site_label
 _atom_site_symmetry_multiplicity
 _atom_site_fract_x
 _atom_site_fract_y
 _atom_site_fract_z
 _atom_site_occupancy
  Li  Li0  1  0.898297  0.719833  0.850083  1
  P  P1  1  0.482447  0.139919  0.836693  1
  P  P2  1  0.564572  0.921174  0.962187  1
  H  H3  1  0.980983  0.949683  0.294965  1
  H  H4  1  0.618800  0.054926  0.714193  1
  H  H5  1  0.966343  0.050063  0.262664  1
  H  H6  1  0.254266  0.686294  0.017541  1
  H  H7  1  0.039208  0.726107  0.619712  1
  H  H8  1  0.663726  0.400381  0.385996  1
  H  H9  1  0.627862  0.118751  0.085593  1
  H  H10  1  0.523869  0.357941  0.357451  1
  H  H11  1  0.877370  0.580547  0.611156  1
  H  H12  1  0.328694  0.807370  0.373736  1
  H  H13  1  0.276978  0.655943  0.334319  1
