# generated using pymatgen
data_NpH7Os
_symmetry_space_group_name_H-M   'P 1'
_cell_length_a   4.75638949
_cell_length_b   4.66077648
_cell_length_c   7.89418000
_cell_angle_alpha   90.00000000
_cell_angle_beta   90.00000000
_cell_angle_gamma   62.80861319
_symmetry_Int_Tables_number   1
_chemical_formula_structural   NpH7Os
_chemical_formula_sum   'Np2 H14 Os2'
_cell_volume   155.66155966
_cell_formula_units_Z   2
loop_
 _symmetry_equiv_pos_site_id
 _symmetry_equiv_pos_as_xyz
  1  'x, y, z'
loop_
 _atom_site_type_symbol
 _atom_site_label
 _atom_site_symmetry_multiplicity
 _atom_site_fract_x
 _atom_site_fract_y
 _atom_site_fract_z
 _atom_site_occupancy
  Np  Np0  1  0.000000  0.000000  0.000000  1
  Np  Np1  1  0.000000  0.000000  0.500000  1
  H  H2  1  0.792058  0.921182  0.250000  1
  H  H3  1  0.207942  0.078818  0.750000  1
  H  H4  1  0.701701  0.684058  0.460004  1
  H  H5  1  0.298299  0.315942  0.960004  1
  H  H6  1  0.298299  0.315942  0.539996  1
  H  H7  1  0.701701  0.684058  0.039996  1
  H  H8  1  0.497158  0.446523  0.356909  1
  H  H9  1  0.502842  0.553477  0.856909  1
  H  H10  1  0.502842  0.553477  0.643091  1
  H  H11  1  0.497158  0.446523  0.143091  1
  H  H12  1  0.296853  0.970574  0.250000  1
  H  H13  1  0.703147  0.029426  0.750000  1
  H  H14  1  0.027933  0.331587  0.250000  1
  H  H15  1  0.972067  0.668413  0.750000  1
  Os  Os16  1  0.655056  0.638769  0.250000  1
  Os  Os17  1  0.344944  0.361231  0.750000  1
