# generated using pymatgen
data_Pr2Er4CoI10
_symmetry_space_group_name_H-M   'P 1'
_cell_length_a   7.74642056
_cell_length_b   9.75135510
_cell_length_c   9.76092417
_cell_angle_alpha   106.85145475
_cell_angle_beta   96.11140548
_cell_angle_gamma   105.19024785
_symmetry_Int_Tables_number   1
_chemical_formula_structural   Pr2Er4CoI10
_chemical_formula_sum   'Pr2 Er4 Co1 I10'
_cell_volume   667.59102727
_cell_formula_units_Z   1
loop_
 _symmetry_equiv_pos_site_id
 _symmetry_equiv_pos_as_xyz
  1  'x, y, z'
loop_
 _atom_site_type_symbol
 _atom_site_label
 _atom_site_symmetry_multiplicity
 _atom_site_fract_x
 _atom_site_fract_y
 _atom_site_fract_z
 _atom_site_occupancy
  Pr  Pr0  1  0.885961  0.957567  0.231285  1
  Pr  Pr1  1  0.114039  0.042433  0.768715  1
  Er  Er2  1  0.029253  0.720165  0.915855  1
  Er  Er3  1  0.970747  0.279835  0.084145  1
  Er  Er4  1  0.660306  0.878378  0.840005  1
  Er  Er5  1  0.339694  0.121622  0.159995  1
  Co  Co6  1  0.000000  0.000000  0.000000  1
  I  I7  1  0.652733  0.554157  0.731603  1
  I  I8  1  0.347267  0.445843  0.268397  1
  I  I9  1  0.732737  0.911025  0.544121  1
  I  I10  1  0.267263  0.088975  0.455879  1
  I  I11  1  0.082294  0.378739  0.824787  1
  I  I12  1  0.917706  0.621261  0.175213  1
  I  I13  1  0.447049  0.817112  0.089050  1
  I  I14  1  0.552951  0.182888  0.910950  1
  I  I15  1  0.228690  0.738978  0.660141  1
  I  I16  1  0.771310  0.261022  0.339859  1
