# generated using pymatgen
data_Cd4P6SeN12
_symmetry_space_group_name_H-M   'P 1'
_cell_length_a   7.44150681
_cell_length_b   7.44150685
_cell_length_c   7.44150700
_cell_angle_alpha   109.47121832
_cell_angle_beta   109.47121843
_cell_angle_gamma   109.47122273
_symmetry_Int_Tables_number   1
_chemical_formula_structural   Cd4P6SeN12
_chemical_formula_sum   'Cd4 P6 Se1 N12'
_cell_volume   317.22016479
_cell_formula_units_Z   1
loop_
 _symmetry_equiv_pos_site_id
 _symmetry_equiv_pos_as_xyz
  1  'x, y, z'
loop_
 _atom_site_type_symbol
 _atom_site_label
 _atom_site_symmetry_multiplicity
 _atom_site_fract_x
 _atom_site_fract_y
 _atom_site_fract_z
 _atom_site_occupancy
  Cd  Cd0  1  0.653608  0.000000  0.000000  1
  Cd  Cd1  1  0.000000  0.000000  0.653608  1
  Cd  Cd2  1  0.000000  0.653608  0.000000  1
  Cd  Cd3  1  0.346392  0.346392  0.346392  1
  P  P4  1  0.250000  0.750000  0.500000  1
  P  P5  1  0.750000  0.250000  0.500000  1
  P  P6  1  0.750000  0.500000  0.250000  1
  P  P7  1  0.250000  0.500000  0.750000  1
  P  P8  1  0.500000  0.750000  0.250000  1
  P  P9  1  0.500000  0.250000  0.750000  1
  Se  Se10  1  0.000000  0.000000  0.000000  1
  N  N11  1  0.710049  0.287138  0.287138  1
  N  N12  1  0.287138  0.710049  0.287138  1
  N  N13  1  0.289951  0.577089  0.577089  1
  N  N14  1  0.577089  0.577089  0.289951  1
  N  N15  1  0.422911  0.712862  0.000000  1
  N  N16  1  0.000000  0.712862  0.422911  1
  N  N17  1  0.577089  0.289951  0.577089  1
  N  N18  1  0.712862  0.000000  0.422911  1
  N  N19  1  0.422911  0.000000  0.712862  1
  N  N20  1  0.712862  0.422911  0.000000  1
  N  N21  1  0.287138  0.287138  0.710049  1
  N  N22  1  0.000000  0.422911  0.712862  1
