# generated using pymatgen
data_Tm8Al2IrRu
_symmetry_space_group_name_H-M   'P 1'
_cell_length_a   9.41077345
_cell_length_b   9.41077349
_cell_length_c   9.42796300
_cell_angle_alpha   59.93956239
_cell_angle_beta   59.93956226
_cell_angle_gamma   59.85384439
_symmetry_Int_Tables_number   1
_chemical_formula_structural   Tm8Al2IrRu
_chemical_formula_sum   'Tm16 Al4 Ir2 Ru2'
_cell_volume   589.21669169
_cell_formula_units_Z   2
loop_
 _symmetry_equiv_pos_site_id
 _symmetry_equiv_pos_as_xyz
  1  'x, y, z'
loop_
 _atom_site_type_symbol
 _atom_site_label
 _atom_site_symmetry_multiplicity
 _atom_site_fract_x
 _atom_site_fract_y
 _atom_site_fract_z
 _atom_site_occupancy
  Tm  Tm0  1  0.601817  0.601817  0.602810  1
  Tm  Tm1  1  0.601817  0.601817  0.193556  1
  Tm  Tm2  1  0.599807  0.197942  0.601126  1
  Tm  Tm3  1  0.197942  0.599807  0.601126  1
  Tm  Tm4  1  0.056109  0.444129  0.446043  1
  Tm  Tm5  1  0.444129  0.056109  0.053718  1
  Tm  Tm6  1  0.444129  0.056109  0.446043  1
  Tm  Tm7  1  0.056109  0.444129  0.053718  1
  Tm  Tm8  1  0.444328  0.444328  0.055672  1
  Tm  Tm9  1  0.053874  0.053874  0.446126  1
  Tm  Tm10  1  0.188423  0.809545  0.811890  1
  Tm  Tm11  1  0.809545  0.188423  0.190141  1
  Tm  Tm12  1  0.809545  0.188423  0.811890  1
  Tm  Tm13  1  0.188423  0.809545  0.190141  1
  Tm  Tm14  1  0.810653  0.810653  0.189347  1
  Tm  Tm15  1  0.188867  0.188867  0.811133  1
  Al  Al16  1  0.827866  0.827866  0.826555  1
  Al  Al17  1  0.827866  0.827866  0.517711  1
  Al  Al18  1  0.828987  0.515761  0.827625  1
  Al  Al19  1  0.515761  0.828987  0.827625  1
  Ir  Ir20  1  0.392960  0.827484  0.389778  1
  Ir  Ir21  1  0.827484  0.392960  0.389778  1
  Ru  Ru22  1  0.391778  0.391778  0.387295  1
  Ru  Ru23  1  0.391778  0.391778  0.829149  1
