# generated using pymatgen
data_YbY(CoO2)6
_symmetry_space_group_name_H-M   'P 1'
_cell_length_a   4.92483666
_cell_length_b   5.52992443
_cell_length_c   8.50016800
_cell_angle_alpha   89.99999865
_cell_angle_beta   90.00010960
_cell_angle_gamma   73.17072104
_symmetry_Int_Tables_number   1
_chemical_formula_structural   YbY(CoO2)6
_chemical_formula_sum   'Yb1 Y1 Co6 O12'
_cell_volume   221.57888584
_cell_formula_units_Z   1
loop_
 _symmetry_equiv_pos_site_id
 _symmetry_equiv_pos_as_xyz
  1  'x, y, z'
loop_
 _atom_site_type_symbol
 _atom_site_label
 _atom_site_symmetry_multiplicity
 _atom_site_fract_x
 _atom_site_fract_y
 _atom_site_fract_z
 _atom_site_occupancy
  Yb  Yb0  1  0.500000  0.500000  0.666794  1
  Y  Y1  1  0.000000  0.500000  0.166560  1
  Co  Co2  1  0.500000  0.000000  0.166672  1
  Co  Co3  1  0.500000  0.000000  0.833770  1
  Co  Co4  1  0.499999  0.000001  0.499535  1
  Co  Co5  1  0.000000  0.000000  0.666672  1
  Co  Co6  1  0.999999  0.000000  0.335571  1
  Co  Co7  1  0.000001  0.000000  0.997792  1
  O  O8  1  0.773929  0.191231  0.166624  1
  O  O9  1  0.272255  0.186264  0.666598  1
  O  O10  1  0.226071  0.808769  0.166626  1
  O  O11  1  0.727744  0.813737  0.666599  1
  O  O12  1  0.268157  0.193753  0.001312  1
  O  O13  1  0.772288  0.187348  0.503677  1
  O  O14  1  0.268360  0.193709  0.332032  1
  O  O15  1  0.772521  0.187256  0.829738  1
  O  O16  1  0.731638  0.806291  0.332033  1
  O  O17  1  0.227479  0.812745  0.829738  1
  O  O18  1  0.731846  0.806247  0.001313  1
  O  O19  1  0.227712  0.812652  0.503678  1
