# generated using pymatgen
data_Tb3Ho9TcNi4Sn
_symmetry_space_group_name_H-M   'P 1'
_cell_length_a   8.30332832
_cell_length_b   8.28847124
_cell_length_c   8.28847009
_cell_angle_alpha   106.79065004
_cell_angle_beta   109.82671315
_cell_angle_gamma   111.75728124
_symmetry_Int_Tables_number   1
_chemical_formula_structural   Tb3Ho9TcNi4Sn
_chemical_formula_sum   'Tb3 Ho9 Tc1 Ni4 Sn1'
_cell_volume   438.70064714
_cell_formula_units_Z   1
loop_
 _symmetry_equiv_pos_site_id
 _symmetry_equiv_pos_as_xyz
  1  'x, y, z'
loop_
 _atom_site_type_symbol
 _atom_site_label
 _atom_site_symmetry_multiplicity
 _atom_site_fract_x
 _atom_site_fract_y
 _atom_site_fract_z
 _atom_site_occupancy
  Tb  Tb0  1  0.965763  0.785659  0.180102  1
  Tb  Tb1  1  0.033350  0.214179  0.819172  1
  Tb  Tb2  1  0.395751  0.214409  0.181342  1
  Ho  Ho3  1  0.690976  0.280289  0.971896  1
  Ho  Ho4  1  0.309574  0.719187  0.028247  1
  Ho  Ho5  1  0.690976  0.719081  0.410687  1
  Ho  Ho6  1  0.309574  0.281327  0.590386  1
  Ho  Ho7  1  0.806224  0.126123  0.320245  1
  Ho  Ho8  1  0.806224  0.485978  0.680101  1
  Ho  Ho9  1  0.194195  0.873360  0.679925  1
  Ho  Ho10  1  0.194195  0.514271  0.320835  1
  Ho  Ho11  1  0.603513  0.784633  0.818880  1
  Tc  Tc12  1  0.501307  0.501290  0.000016  1
  Ni  Ni13  1  0.861538  0.500135  0.361403  1
  Ni  Ni14  1  0.140451  0.501104  0.639346  1
  Ni  Ni15  1  0.997579  0.121427  0.120246  1
  Ni  Ni16  1  0.997579  0.877333  0.876151  1
  Sn  Sn17  1  0.501232  0.000213  0.501019  1
