# generated using pymatgen
data_Ca4La2VAsO12
_symmetry_space_group_name_H-M   'P 1'
_cell_length_a   7.45502680
_cell_length_b   7.45502630
_cell_length_c   5.66856809
_cell_angle_alpha   89.98395876
_cell_angle_beta   90.01604114
_cell_angle_gamma   104.86177369
_symmetry_Int_Tables_number   1
_chemical_formula_structural   Ca4La2VAsO12
_chemical_formula_sum   'Ca4 La2 V1 As1 O12'
_cell_volume   304.50532678
_cell_formula_units_Z   1
loop_
 _symmetry_equiv_pos_site_id
 _symmetry_equiv_pos_as_xyz
  1  'x, y, z'
loop_
 _atom_site_type_symbol
 _atom_site_label
 _atom_site_symmetry_multiplicity
 _atom_site_fract_x
 _atom_site_fract_y
 _atom_site_fract_z
 _atom_site_occupancy
  Ca  Ca0  1  0.297174  0.101874  0.766973  1
  Ca  Ca1  1  0.898126  0.702826  0.766973  1
  Ca  Ca2  1  0.101232  0.296946  0.267216  1
  Ca  Ca3  1  0.703054  0.898768  0.267216  1
  La  La4  1  0.600433  0.399567  0.246393  1
  La  La5  1  0.400934  0.599066  0.746060  1
  V  V6  1  0.813080  0.186920  0.802991  1
  As  As7  1  0.186498  0.813502  0.303919  1
  O  O8  1  0.348577  0.334846  0.509649  1
  O  O9  1  0.597696  0.099348  0.936554  1
  O  O10  1  0.098679  0.598827  0.434659  1
  O  O11  1  0.665154  0.651423  0.509649  1
  O  O12  1  0.199054  0.800946  0.998909  1
  O  O13  1  0.652199  0.665373  0.009373  1
  O  O14  1  0.801366  0.198634  0.491386  1
  O  O15  1  0.334627  0.347801  0.009373  1
  O  O16  1  0.048213  0.951787  0.404736  1
  O  O17  1  0.401173  0.901321  0.434659  1
  O  O18  1  0.952080  0.047920  0.904758  1
  O  O19  1  0.900652  0.402304  0.936554  1
