# generated using pymatgen
data_Al8Ni3Os4Rh
_symmetry_space_group_name_H-M   'P 1'
_cell_length_a   5.97556500
_cell_length_b   4.20819900
_cell_length_c   8.41839400
_cell_angle_alpha   90.00000000
_cell_angle_beta   89.99934050
_cell_angle_gamma   90.00000000
_symmetry_Int_Tables_number   1
_chemical_formula_structural   Al8Ni3Os4Rh
_chemical_formula_sum   'Al8 Ni3 Os4 Rh1'
_cell_volume   211.69202218
_cell_formula_units_Z   1
loop_
 _symmetry_equiv_pos_site_id
 _symmetry_equiv_pos_as_xyz
  1  'x, y, z'
loop_
 _atom_site_type_symbol
 _atom_site_label
 _atom_site_symmetry_multiplicity
 _atom_site_fract_x
 _atom_site_fract_y
 _atom_site_fract_z
 _atom_site_occupancy
  Al  Al0  1  0.000931  0.750000  0.125698  1
  Al  Al1  1  0.499067  0.750000  0.125732  1
  Al  Al2  1  0.000869  0.250001  0.375005  1
  Al  Al3  1  0.499125  0.250001  0.375043  1
  Al  Al4  1  0.499067  0.750000  0.624242  1
  Al  Al5  1  0.000942  0.750000  0.624280  1
  Al  Al6  1  0.497884  0.250001  0.874977  1
  Al  Al7  1  0.002115  0.250001  0.875025  1
  Ni  Ni8  1  0.250025  0.250001  0.126262  1
  Ni  Ni9  1  0.750025  0.750000  0.374993  1
  Ni  Ni10  1  0.249972  0.250001  0.623759  1
  Os  Os11  1  0.749981  0.250001  0.129425  1
  Os  Os12  1  0.249983  0.750000  0.374976  1
  Os  Os13  1  0.750017  0.250001  0.620599  1
  Os  Os14  1  0.250008  0.750000  0.875005  1
  Rh  Rh15  1  0.749988  0.750000  0.874980  1
