# generated using pymatgen
data_Sm3Tm2P12IrRu18
_symmetry_space_group_name_H-M   'P 1'
_cell_length_a   12.59930600
_cell_length_b   12.59930551
_cell_length_c   3.99651300
_cell_angle_alpha   90.00000000
_cell_angle_beta   90.00000000
_cell_angle_gamma   120.06236651
_symmetry_Int_Tables_number   1
_chemical_formula_structural   Sm3Tm2P12IrRu18
_chemical_formula_sum   'Sm3 Tm2 P12 Ir1 Ru18'
_cell_volume   549.07518731
_cell_formula_units_Z   1
loop_
 _symmetry_equiv_pos_site_id
 _symmetry_equiv_pos_as_xyz
  1  'x, y, z'
loop_
 _atom_site_type_symbol
 _atom_site_label
 _atom_site_symmetry_multiplicity
 _atom_site_fract_x
 _atom_site_fract_y
 _atom_site_fract_z
 _atom_site_occupancy
  Sm  Sm0  1  0.334019  0.667039  0.500000  1
  Sm  Sm1  1  0.667039  0.334019  0.500000  1
  Sm  Sm2  1  0.186369  0.186369  0.000000  1
  Tm  Tm3  1  0.813799  0.000063  0.000000  1
  Tm  Tm4  1  0.000063  0.813799  0.000000  1
  P  P5  1  0.306982  0.830028  0.000000  1
  P  P6  1  0.169507  0.475900  0.000000  1
  P  P7  1  0.524872  0.694157  0.000000  1
  P  P8  1  0.830028  0.306982  0.000000  1
  P  P9  1  0.475900  0.169507  0.000000  1
  P  P10  1  0.694157  0.524872  0.000000  1
  P  P11  1  0.375031  0.375031  0.500000  1
  P  P12  1  0.626158  0.999803  0.500000  1
  P  P13  1  0.999803  0.626158  0.500000  1
  P  P14  1  0.814867  0.814867  0.500000  1
  P  P15  1  0.184038  0.998117  0.500000  1
  P  P16  1  0.998117  0.184038  0.500000  1
  Ir  Ir17  1  0.997915  0.997915  0.500000  1
  Ru  Ru18  1  0.189952  0.814271  0.500000  1
  Ru  Ru19  1  0.183909  0.377121  0.500000  1
  Ru  Ru20  1  0.625294  0.809714  0.500000  1
  Ru  Ru21  1  0.814271  0.189952  0.500000  1
  Ru  Ru22  1  0.377121  0.183909  0.500000  1
  Ru  Ru23  1  0.809714  0.625294  0.500000  1
  Ru  Ru24  1  0.125443  0.634247  0.000000  1
  Ru  Ru25  1  0.366316  0.491505  0.000000  1
  Ru  Ru26  1  0.510061  0.875029  0.000000  1
  Ru  Ru27  1  0.634247  0.125443  0.000000  1
  Ru  Ru28  1  0.491505  0.366316  0.000000  1
  Ru  Ru29  1  0.875029  0.510061  0.000000  1
  Ru  Ru30  1  0.556434  0.556434  0.500000  1
  Ru  Ru31  1  0.443983  0.998738  0.500000  1
  Ru  Ru32  1  0.998738  0.443983  0.500000  1
  Ru  Ru33  1  0.719881  0.719881  0.000000  1
  Ru  Ru34  1  0.280908  0.998528  0.000000  1
  Ru  Ru35  1  0.998528  0.280908  0.000000  1
