# generated using pymatgen
data_Cs2Eu(GeO3)3
_symmetry_space_group_name_H-M   'P 1'
_cell_length_a   7.52335600
_cell_length_b   7.52335607
_cell_length_c   11.38321900
_cell_angle_alpha   90.00000000
_cell_angle_beta   90.00000000
_cell_angle_gamma   120.00000731
_symmetry_Int_Tables_number   1
_chemical_formula_structural   Cs2Eu(GeO3)3
_chemical_formula_sum   'Cs4 Eu2 Ge6 O18'
_cell_volume   557.98037071
_cell_formula_units_Z   2
loop_
 _symmetry_equiv_pos_site_id
 _symmetry_equiv_pos_as_xyz
  1  'x, y, z'
loop_
 _atom_site_type_symbol
 _atom_site_label
 _atom_site_symmetry_multiplicity
 _atom_site_fract_x
 _atom_site_fract_y
 _atom_site_fract_z
 _atom_site_occupancy
  Cs  Cs0  1  0.333333  0.666667  0.059104  1
  Cs  Cs1  1  0.666667  0.333333  0.559104  1
  Cs  Cs2  1  0.666667  0.333333  0.940896  1
  Cs  Cs3  1  0.333333  0.666667  0.440896  1
  Eu  Eu4  1  0.000000  0.000000  0.000000  1
  Eu  Eu5  1  0.000000  0.000000  0.500000  1
  Ge  Ge6  1  0.383599  0.249131  0.250000  1
  Ge  Ge7  1  0.134469  0.383599  0.750000  1
  Ge  Ge8  1  0.249131  0.865531  0.750000  1
  Ge  Ge9  1  0.750869  0.134469  0.250000  1
  Ge  Ge10  1  0.865531  0.616401  0.250000  1
  Ge  Ge11  1  0.616401  0.750869  0.750000  1
  O  O12  1  0.486492  0.078556  0.250000  1
  O  O13  1  0.407937  0.486492  0.750000  1
  O  O14  1  0.078556  0.592063  0.750000  1
  O  O15  1  0.921444  0.407937  0.250000  1
  O  O16  1  0.592063  0.513508  0.250000  1
  O  O17  1  0.513508  0.921444  0.750000  1
  O  O18  1  0.259065  0.229519  0.117263  1
  O  O19  1  0.029546  0.259065  0.617263  1
  O  O20  1  0.229519  0.970454  0.617263  1
  O  O21  1  0.770481  0.029546  0.117263  1
  O  O22  1  0.970454  0.740935  0.117263  1
  O  O23  1  0.740935  0.770481  0.617263  1
  O  O24  1  0.740935  0.770481  0.882737  1
  O  O25  1  0.970454  0.740935  0.382737  1
  O  O26  1  0.770481  0.029546  0.382737  1
  O  O27  1  0.229519  0.970454  0.882737  1
  O  O28  1  0.029546  0.259065  0.882737  1
  O  O29  1  0.259065  0.229519  0.382737  1
