# generated using pymatgen
data_Ho5In4CuPd
_symmetry_space_group_name_H-M   'P 1'
_cell_length_a   3.63218300
_cell_length_b   8.03696600
_cell_length_c   18.10498307
_cell_angle_alpha   90.05596470
_cell_angle_beta   90.00000000
_cell_angle_gamma   90.00000000
_symmetry_Int_Tables_number   1
_chemical_formula_structural   Ho5In4CuPd
_chemical_formula_sum   'Ho10 In8 Cu2 Pd2'
_cell_volume   528.51554836
_cell_formula_units_Z   2
loop_
 _symmetry_equiv_pos_site_id
 _symmetry_equiv_pos_as_xyz
  1  'x, y, z'
loop_
 _atom_site_type_symbol
 _atom_site_label
 _atom_site_symmetry_multiplicity
 _atom_site_fract_x
 _atom_site_fract_y
 _atom_site_fract_z
 _atom_site_occupancy
  Ho  Ho0  1  0.000000  0.500000  0.500000  1
  Ho  Ho1  1  0.000000  0.000000  0.000000  1
  Ho  Ho2  1  0.000000  0.744479  0.280377  1
  Ho  Ho3  1  0.000000  0.255521  0.719623  1
  Ho  Ho4  1  0.000000  0.755896  0.781352  1
  Ho  Ho5  1  0.000000  0.244104  0.218648  1
  Ho  Ho6  1  0.000000  0.618176  0.083401  1
  Ho  Ho7  1  0.000000  0.381824  0.916599  1
  Ho  Ho8  1  0.000000  0.881616  0.583344  1
  Ho  Ho9  1  0.000000  0.118384  0.416656  1
  In  In10  1  0.500000  0.707796  0.931785  1
  In  In11  1  0.500000  0.292204  0.068215  1
  In  In12  1  0.500000  0.792083  0.432401  1
  In  In13  1  0.500000  0.207917  0.567599  1
  In  In14  1  0.500000  0.576633  0.651263  1
  In  In15  1  0.500000  0.423367  0.348737  1
  In  In16  1  0.500000  0.922517  0.148692  1
  In  In17  1  0.500000  0.077483  0.851308  1
  Cu  Cu18  1  0.500000  0.529918  0.196769  1
  Cu  Cu19  1  0.500000  0.470082  0.803231  1
  Pd  Pd20  1  0.500000  0.970883  0.697667  1
  Pd  Pd21  1  0.500000  0.029117  0.302333  1
