# generated using pymatgen
data_Pa3GeSe2
_symmetry_space_group_name_H-M   'P 1'
_cell_length_a   6.99645614
_cell_length_b   6.99645598
_cell_length_c   6.99645651
_cell_angle_alpha   145.23293230
_cell_angle_beta   131.15033447
_cell_angle_gamma   61.34633083
_symmetry_Int_Tables_number   1
_chemical_formula_structural   Pa3GeSe2
_chemical_formula_sum   'Pa3 Ge1 Se2'
_cell_volume   145.56113224
_cell_formula_units_Z   1
loop_
 _symmetry_equiv_pos_site_id
 _symmetry_equiv_pos_as_xyz
  1  'x, y, z'
loop_
 _atom_site_type_symbol
 _atom_site_label
 _atom_site_symmetry_multiplicity
 _atom_site_fract_x
 _atom_site_fract_y
 _atom_site_fract_z
 _atom_site_occupancy
  Pa  Pa0  1  0.332190  0.332190  0.000000  1
  Pa  Pa1  1  0.000000  0.000000  0.000000  1
  Pa  Pa2  1  0.667810  0.667810  0.000000  1
  Ge  Ge3  1  0.500000  0.000000  0.500000  1
  Se  Se4  1  0.164846  0.664846  0.500000  1
  Se  Se5  1  0.835154  0.335154  0.500000  1
