# generated using pymatgen
data_KRbNp2(CuTe3)2
_symmetry_space_group_name_H-M   'P 1'
_cell_length_a   4.39030300
_cell_length_b   8.36062130
_cell_length_c   11.31111212
_cell_angle_alpha   90.34589508
_cell_angle_beta   90.00000000
_cell_angle_gamma   74.77807964
_symmetry_Int_Tables_number   1
_chemical_formula_structural   KRbNp2(CuTe3)2
_chemical_formula_sum   'K1 Rb1 Np2 Cu2 Te6'
_cell_volume   400.60781174
_cell_formula_units_Z   1
loop_
 _symmetry_equiv_pos_site_id
 _symmetry_equiv_pos_as_xyz
  1  'x, y, z'
loop_
 _atom_site_type_symbol
 _atom_site_label
 _atom_site_symmetry_multiplicity
 _atom_site_fract_x
 _atom_site_fract_y
 _atom_site_fract_z
 _atom_site_occupancy
  K  K0  1  0.749369  0.501262  0.749690  1
  Rb  Rb1  1  0.252229  0.495543  0.246896  1
  Np  Np2  1  0.997983  0.004032  0.495816  1
  Np  Np3  1  0.000281  0.999440  0.993867  1
  Cu  Cu4  1  0.529502  0.940995  0.244587  1
  Cu  Cu5  1  0.471896  0.056210  0.745097  1
  Te  Te6  1  0.622637  0.754726  0.433929  1
  Te  Te7  1  0.373378  0.253245  0.561402  1
  Te  Te8  1  0.625440  0.749120  0.055724  1
  Te  Te9  1  0.374663  0.250673  0.932338  1
  Te  Te10  1  0.933430  0.133140  0.244195  1
  Te  Te11  1  0.069193  0.861614  0.744282  1
