# generated using pymatgen
data_Al2SbW(SeO3)8
_symmetry_space_group_name_H-M   'P 1'
_cell_length_a   8.15795937
_cell_length_b   8.16990476
_cell_length_c   8.08659815
_cell_angle_alpha   89.44716464
_cell_angle_beta   90.43225151
_cell_angle_gamma   89.64324066
_symmetry_Int_Tables_number   1
_chemical_formula_structural   Al2SbW(SeO3)8
_chemical_formula_sum   'Al2 Sb1 W1 Se8 O24'
_cell_volume   538.91863316
_cell_formula_units_Z   1
loop_
 _symmetry_equiv_pos_site_id
 _symmetry_equiv_pos_as_xyz
  1  'x, y, z'
loop_
 _atom_site_type_symbol
 _atom_site_label
 _atom_site_symmetry_multiplicity
 _atom_site_fract_x
 _atom_site_fract_y
 _atom_site_fract_z
 _atom_site_occupancy
  Al  Al0  1  0.000000  0.500000  0.000000  1
  Al  Al1  1  0.500000  0.500000  0.500000  1
  Sb  Sb2  1  0.500000  0.000000  0.000000  1
  W  W3  1  0.000000  0.000000  0.500000  1
  Se  Se4  1  0.321610  0.668572  0.179043  1
  Se  Se5  1  0.810091  0.351102  0.309905  1
  Se  Se6  1  0.663026  0.809863  0.667969  1
  Se  Se7  1  0.168793  0.187313  0.835148  1
  Se  Se8  1  0.678390  0.331428  0.820957  1
  Se  Se9  1  0.189909  0.648898  0.690095  1
  Se  Se10  1  0.336974  0.190137  0.332031  1
  Se  Se11  1  0.831207  0.812687  0.164852  1
  O  O12  1  0.228354  0.544296  0.039727  1
  O  O13  1  0.730792  0.478188  0.454321  1
  O  O14  1  0.760369  0.938693  0.525663  1
  O  O15  1  0.257196  0.026419  0.957431  1
  O  O16  1  0.535056  0.962160  0.755836  1
  O  O17  1  0.455589  0.534195  0.269956  1
  O  O18  1  0.961727  0.471897  0.232291  1
  O  O19  1  0.018272  0.065040  0.741105  1
  O  O20  1  0.935774  0.224031  0.446752  1
  O  O21  1  0.524335  0.730059  0.535403  1
  O  O22  1  0.468848  0.760069  0.038298  1
  O  O23  1  0.050811  0.271059  0.983301  1
  O  O24  1  0.771646  0.455704  0.960273  1
  O  O25  1  0.269208  0.521812  0.545679  1
  O  O26  1  0.239631  0.061307  0.474337  1
  O  O27  1  0.742804  0.973581  0.042569  1
  O  O28  1  0.464944  0.037840  0.244164  1
  O  O29  1  0.544411  0.465805  0.730044  1
  O  O30  1  0.038273  0.528103  0.767709  1
  O  O31  1  0.981728  0.934960  0.258895  1
  O  O32  1  0.064226  0.775969  0.553248  1
  O  O33  1  0.475665  0.269941  0.464597  1
  O  O34  1  0.531152  0.239931  0.961702  1
  O  O35  1  0.949189  0.728941  0.016699  1
