# generated using pymatgen
data_Zr6GaSiBi
_symmetry_space_group_name_H-M   'P 1'
_cell_length_a   7.65503800
_cell_length_b   7.65503818
_cell_length_c   3.84535400
_cell_angle_alpha   90.00000000
_cell_angle_beta   90.00000000
_cell_angle_gamma   120.00000789
_symmetry_Int_Tables_number   1
_chemical_formula_structural   Zr6GaSiBi
_chemical_formula_sum   'Zr6 Ga1 Si1 Bi1'
_cell_volume   195.14689056
_cell_formula_units_Z   1
loop_
 _symmetry_equiv_pos_site_id
 _symmetry_equiv_pos_as_xyz
  1  'x, y, z'
loop_
 _atom_site_type_symbol
 _atom_site_label
 _atom_site_symmetry_multiplicity
 _atom_site_fract_x
 _atom_site_fract_y
 _atom_site_fract_z
 _atom_site_occupancy
  Zr  Zr0  1  0.399322  0.387093  0.500000  1
  Zr  Zr1  1  0.612907  0.012229  0.500000  1
  Zr  Zr2  1  0.987771  0.600678  0.500000  1
  Zr  Zr3  1  0.758587  0.747147  0.000000  1
  Zr  Zr4  1  0.252853  0.011440  0.000000  1
  Zr  Zr5  1  0.988560  0.241413  0.000000  1
  Ga  Ga6  1  0.666667  0.333333  0.000000  1
  Si  Si7  1  0.000000  0.000000  0.500000  1
  Bi  Bi8  1  0.333333  0.666667  0.000000  1
