# generated using pymatgen
data_Tb2Ho4CoTc
_symmetry_space_group_name_H-M   'P 1'
_cell_length_a   6.29430100
_cell_length_b   7.17976600
_cell_length_c   9.18243600
_cell_angle_alpha   90.00000000
_cell_angle_beta   90.00000000
_cell_angle_gamma   90.00000000
_symmetry_Int_Tables_number   1
_chemical_formula_structural   Tb2Ho4CoTc
_chemical_formula_sum   'Tb4 Ho8 Co2 Tc2'
_cell_volume   414.96905108
_cell_formula_units_Z   2
loop_
 _symmetry_equiv_pos_site_id
 _symmetry_equiv_pos_as_xyz
  1  'x, y, z'
loop_
 _atom_site_type_symbol
 _atom_site_label
 _atom_site_symmetry_multiplicity
 _atom_site_fract_x
 _atom_site_fract_y
 _atom_site_fract_z
 _atom_site_occupancy
  Tb  Tb0  1  0.370894  0.546707  0.250000  1
  Tb  Tb1  1  0.143203  0.040773  0.250000  1
  Tb  Tb2  1  0.870894  0.953293  0.750000  1
  Tb  Tb3  1  0.643203  0.459227  0.750000  1
  Ho  Ho4  1  0.668014  0.173332  0.063986  1
  Ho  Ho5  1  0.823322  0.681428  0.433103  1
  Ho  Ho6  1  0.323322  0.818572  0.933103  1
  Ho  Ho7  1  0.168014  0.326668  0.563986  1
  Ho  Ho8  1  0.668014  0.173332  0.436014  1
  Ho  Ho9  1  0.168014  0.326668  0.936014  1
  Ho  Ho10  1  0.323322  0.818572  0.566897  1
  Ho  Ho11  1  0.823322  0.681428  0.066897  1
  Co  Co12  1  0.541080  0.885591  0.250000  1
  Co  Co13  1  0.041080  0.614409  0.750000  1
  Tc  Tc14  1  0.962152  0.391247  0.250000  1
  Tc  Tc15  1  0.462152  0.108753  0.750000  1
