# generated using pymatgen
data_PrNd11Ir3Au
_symmetry_space_group_name_H-M   'P 1'
_cell_length_a   6.61307531
_cell_length_b   7.37325657
_cell_length_c   9.94950700
_cell_angle_alpha   90.00000000
_cell_angle_beta   90.00000000
_cell_angle_gamma   90.02654095
_symmetry_Int_Tables_number   1
_chemical_formula_structural   PrNd11Ir3Au
_chemical_formula_sum   'Pr1 Nd11 Ir3 Au1'
_cell_volume   485.13692408
_cell_formula_units_Z   1
loop_
 _symmetry_equiv_pos_site_id
 _symmetry_equiv_pos_as_xyz
  1  'x, y, z'
loop_
 _atom_site_type_symbol
 _atom_site_label
 _atom_site_symmetry_multiplicity
 _atom_site_fract_x
 _atom_site_fract_y
 _atom_site_fract_z
 _atom_site_occupancy
  Pr  Pr0  1  0.853651  0.517160  0.250000  1
  Nd  Nd1  1  0.339227  0.670331  0.060146  1
  Nd  Nd2  1  0.172415  0.187280  0.442588  1
  Nd  Nd3  1  0.673952  0.322762  0.566348  1
  Nd  Nd4  1  0.829692  0.824626  0.931796  1
  Nd  Nd5  1  0.673952  0.322762  0.933652  1
  Nd  Nd6  1  0.829692  0.824626  0.568204  1
  Nd  Nd7  1  0.339227  0.670331  0.439854  1
  Nd  Nd8  1  0.172415  0.187280  0.057412  1
  Nd  Nd9  1  0.621166  0.038957  0.250000  1
  Nd  Nd10  1  0.141387  0.463616  0.750000  1
  Nd  Nd11  1  0.360875  0.962346  0.750000  1
  Ir  Ir12  1  0.429291  0.381751  0.250000  1
  Ir  Ir13  1  0.940083  0.118950  0.750000  1
  Ir  Ir14  1  0.560877  0.618869  0.750000  1
  Au  Au15  1  0.062099  0.888351  0.250000  1
