# generated using pymatgen
data_Ho2Al8Co2SiRh
_symmetry_space_group_name_H-M   'P 1'
_cell_length_a   7.39309033
_cell_length_b   7.39309079
_cell_length_c   9.25031400
_cell_angle_alpha   90.00000000
_cell_angle_beta   90.00000000
_cell_angle_gamma   119.10344803
_symmetry_Int_Tables_number   1
_chemical_formula_structural   Ho2Al8Co2SiRh
_chemical_formula_sum   'Ho4 Al16 Co4 Si2 Rh2'
_cell_volume   441.76592509
_cell_formula_units_Z   2
loop_
 _symmetry_equiv_pos_site_id
 _symmetry_equiv_pos_as_xyz
  1  'x, y, z'
loop_
 _atom_site_type_symbol
 _atom_site_label
 _atom_site_symmetry_multiplicity
 _atom_site_fract_x
 _atom_site_fract_y
 _atom_site_fract_z
 _atom_site_occupancy
  Ho  Ho0  1  0.995364  0.680262  0.250000  1
  Ho  Ho1  1  0.004636  0.319738  0.750000  1
  Ho  Ho2  1  0.680262  0.995364  0.250000  1
  Ho  Ho3  1  0.319738  0.004636  0.750000  1
  Al  Al4  1  0.000216  0.342810  0.074415  1
  Al  Al5  1  0.999784  0.657190  0.925585  1
  Al  Al6  1  0.999784  0.657190  0.574415  1
  Al  Al7  1  0.342810  0.000216  0.425585  1
  Al  Al8  1  0.000216  0.342810  0.425585  1
  Al  Al9  1  0.657190  0.999784  0.574415  1
  Al  Al10  1  0.657190  0.999784  0.925585  1
  Al  Al11  1  0.342810  0.000216  0.074415  1
  Al  Al12  1  0.339637  0.339637  0.551081  1
  Al  Al13  1  0.660363  0.660363  0.448919  1
  Al  Al14  1  0.660363  0.660363  0.051081  1
  Al  Al15  1  0.339637  0.339637  0.948919  1
  Al  Al16  1  0.336198  0.558207  0.250000  1
  Al  Al17  1  0.663802  0.441793  0.750000  1
  Al  Al18  1  0.558207  0.336198  0.250000  1
  Al  Al19  1  0.441793  0.663802  0.750000  1
  Co  Co20  1  0.671211  0.328789  0.000000  1
  Co  Co21  1  0.328789  0.671211  0.000000  1
  Co  Co22  1  0.328789  0.671211  0.500000  1
  Co  Co23  1  0.671211  0.328789  0.500000  1
  Si  Si24  1  0.135022  0.135022  0.250000  1
  Si  Si25  1  0.864978  0.864978  0.750000  1
  Rh  Rh26  1  0.000000  0.000000  0.000000  1
  Rh  Rh27  1  0.000000  0.000000  0.500000  1
