# generated using pymatgen
data_Lu2Be2FeRh5
_symmetry_space_group_name_H-M   'P 1'
_cell_length_a   9.52715800
_cell_length_b   9.52715800
_cell_length_c   3.19680400
_cell_angle_alpha   90.00000000
_cell_angle_beta   90.00000000
_cell_angle_gamma   90.00000000
_symmetry_Int_Tables_number   1
_chemical_formula_structural   Lu2Be2FeRh5
_chemical_formula_sum   'Lu4 Be4 Fe2 Rh10'
_cell_volume   290.16347608
_cell_formula_units_Z   2
loop_
 _symmetry_equiv_pos_site_id
 _symmetry_equiv_pos_as_xyz
  1  'x, y, z'
loop_
 _atom_site_type_symbol
 _atom_site_label
 _atom_site_symmetry_multiplicity
 _atom_site_fract_x
 _atom_site_fract_y
 _atom_site_fract_z
 _atom_site_occupancy
  Lu  Lu0  1  0.824484  0.324484  0.000000  1
  Lu  Lu1  1  0.324484  0.175516  0.000000  1
  Lu  Lu2  1  0.675516  0.824484  0.000000  1
  Lu  Lu3  1  0.175516  0.675516  0.000000  1
  Be  Be4  1  0.623266  0.123266  0.000000  1
  Be  Be5  1  0.123266  0.376734  0.000000  1
  Be  Be6  1  0.876734  0.623266  0.000000  1
  Be  Be7  1  0.376734  0.876734  0.000000  1
  Fe  Fe8  1  0.000000  0.000000  0.000000  1
  Fe  Fe9  1  0.500000  0.500000  0.000000  1
  Rh  Rh10  1  0.068675  0.209161  0.500000  1
  Rh  Rh11  1  0.209161  0.931325  0.500000  1
  Rh  Rh12  1  0.790839  0.068675  0.500000  1
  Rh  Rh13  1  0.931325  0.790839  0.500000  1
  Rh  Rh14  1  0.431325  0.709161  0.500000  1
  Rh  Rh15  1  0.568675  0.290839  0.500000  1
  Rh  Rh16  1  0.709161  0.568675  0.500000  1
  Rh  Rh17  1  0.290839  0.431325  0.500000  1
  Rh  Rh18  1  0.500000  0.000000  0.500000  1
  Rh  Rh19  1  0.000000  0.500000  0.500000  1
