# generated using pymatgen
data_ErTm9Co4
_symmetry_space_group_name_H-M   'P 1'
_cell_length_a   6.25494446
_cell_length_b   6.88546537
_cell_length_c   8.39967972
_cell_angle_alpha   96.18782398
_cell_angle_beta   111.71639768
_cell_angle_gamma   89.93137233
_symmetry_Int_Tables_number   1
_chemical_formula_structural   ErTm9Co4
_chemical_formula_sum   'Er1 Tm9 Co4'
_cell_volume   333.83261180
_cell_formula_units_Z   1
loop_
 _symmetry_equiv_pos_site_id
 _symmetry_equiv_pos_as_xyz
  1  'x, y, z'
loop_
 _atom_site_type_symbol
 _atom_site_label
 _atom_site_symmetry_multiplicity
 _atom_site_fract_x
 _atom_site_fract_y
 _atom_site_fract_z
 _atom_site_occupancy
  Er  Er0  1  0.982316  0.912754  0.187284  1
  Tm  Tm1  1  0.795574  0.587836  0.813233  1
  Tm  Tm2  1  0.017804  0.087370  0.812740  1
  Tm  Tm3  1  0.204140  0.412075  0.186393  1
  Tm  Tm4  1  0.650602  0.816865  0.434624  1
  Tm  Tm5  1  0.216490  0.682301  0.565603  1
  Tm  Tm6  1  0.349357  0.183160  0.565858  1
  Tm  Tm7  1  0.783560  0.317481  0.434614  1
  Tm  Tm8  1  0.427999  0.750190  0.000021  1
  Tm  Tm9  1  0.571795  0.250004  0.999801  1
  Co  Co10  1  0.825091  0.571403  0.220120  1
  Co  Co11  1  0.603810  0.928319  0.779091  1
  Co  Co12  1  0.174761  0.428409  0.780063  1
  Co  Co13  1  0.396702  0.071831  0.220554  1
