# generated using pymatgen
data_Ca20AlSi8Bi3
_symmetry_space_group_name_H-M   'P 1'
_cell_length_a   7.78719200
_cell_length_b   7.78719200
_cell_length_c   15.06205000
_cell_angle_alpha   90.00000000
_cell_angle_beta   90.00000000
_cell_angle_gamma   90.00000000
_symmetry_Int_Tables_number   1
_chemical_formula_structural   Ca20AlSi8Bi3
_chemical_formula_sum   'Ca20 Al1 Si8 Bi3'
_cell_volume   913.36812296
_cell_formula_units_Z   1
loop_
 _symmetry_equiv_pos_site_id
 _symmetry_equiv_pos_as_xyz
  1  'x, y, z'
loop_
 _atom_site_type_symbol
 _atom_site_label
 _atom_site_symmetry_multiplicity
 _atom_site_fract_x
 _atom_site_fract_y
 _atom_site_fract_z
 _atom_site_occupancy
  Ca  Ca0  1  0.679827  0.167434  0.111604  1
  Ca  Ca1  1  0.173564  0.672789  0.615312  1
  Ca  Ca2  1  0.320173  0.832566  0.111604  1
  Ca  Ca3  1  0.826436  0.327211  0.615312  1
  Ca  Ca4  1  0.832566  0.679827  0.111604  1
  Ca  Ca5  1  0.327211  0.173564  0.615312  1
  Ca  Ca6  1  0.167434  0.320173  0.111604  1
  Ca  Ca7  1  0.672789  0.826436  0.615312  1
  Ca  Ca8  1  0.832566  0.320173  0.888396  1
  Ca  Ca9  1  0.327211  0.826436  0.384688  1
  Ca  Ca10  1  0.167434  0.679827  0.888396  1
  Ca  Ca11  1  0.672789  0.173564  0.384688  1
  Ca  Ca12  1  0.679827  0.832566  0.888396  1
  Ca  Ca13  1  0.173564  0.327211  0.384688  1
  Ca  Ca14  1  0.320173  0.167434  0.888396  1
  Ca  Ca15  1  0.826436  0.672789  0.384688  1
  Ca  Ca16  1  0.500000  0.500000  0.755747  1
  Ca  Ca17  1  0.000000  0.000000  0.246155  1
  Ca  Ca18  1  0.000000  0.000000  0.753845  1
  Ca  Ca19  1  0.500000  0.500000  0.244253  1
  Al  Al20  1  0.000000  0.000000  0.000000  1
  Si  Si21  1  0.612467  0.115019  0.749580  1
  Si  Si22  1  0.115019  0.612467  0.250420  1
  Si  Si23  1  0.884981  0.387533  0.250420  1
  Si  Si24  1  0.387533  0.884981  0.749580  1
  Si  Si25  1  0.884981  0.612467  0.749580  1
  Si  Si26  1  0.387533  0.115019  0.250420  1
  Si  Si27  1  0.115019  0.387533  0.749580  1
  Si  Si28  1  0.612467  0.884981  0.250420  1
  Bi  Bi29  1  0.500000  0.500000  0.500000  1
  Bi  Bi30  1  0.500000  0.500000  0.000000  1
  Bi  Bi31  1  0.000000  0.000000  0.500000  1
