# generated using pymatgen
data_Gd16Ho3CdIr12
_symmetry_space_group_name_H-M   'P 1'
_cell_length_a   10.91064800
_cell_length_b   10.91064800
_cell_length_c   6.32793300
_cell_angle_alpha   90.00000000
_cell_angle_beta   90.00000000
_cell_angle_gamma   90.00000000
_symmetry_Int_Tables_number   1
_chemical_formula_structural   Gd16Ho3CdIr12
_chemical_formula_sum   'Gd16 Ho3 Cd1 Ir12'
_cell_volume   753.29131750
_cell_formula_units_Z   1
loop_
 _symmetry_equiv_pos_site_id
 _symmetry_equiv_pos_as_xyz
  1  'x, y, z'
loop_
 _atom_site_type_symbol
 _atom_site_label
 _atom_site_symmetry_multiplicity
 _atom_site_fract_x
 _atom_site_fract_y
 _atom_site_fract_z
 _atom_site_occupancy
  Gd  Gd0  1  0.280981  0.084368  0.378643  1
  Gd  Gd1  1  0.289784  0.911607  0.878234  1
  Gd  Gd2  1  0.710216  0.088393  0.878234  1
  Gd  Gd3  1  0.719019  0.915632  0.378643  1
  Gd  Gd4  1  0.588690  0.790929  0.880434  1
  Gd  Gd5  1  0.587557  0.209348  0.376526  1
  Gd  Gd6  1  0.412443  0.790652  0.376526  1
  Gd  Gd7  1  0.411310  0.209071  0.880434  1
  Gd  Gd8  1  0.209348  0.412443  0.623474  1
  Gd  Gd9  1  0.209071  0.588690  0.119566  1
  Gd  Gd10  1  0.790929  0.411310  0.119566  1
  Gd  Gd11  1  0.790652  0.587557  0.623474  1
  Gd  Gd12  1  0.911607  0.710216  0.121766  1
  Gd  Gd13  1  0.915632  0.280981  0.621357  1
  Gd  Gd14  1  0.084368  0.719019  0.621357  1
  Gd  Gd15  1  0.088393  0.289784  0.121766  1
  Ho  Ho16  1  0.000000  0.000000  0.000000  1
  Ho  Ho17  1  0.500000  0.500000  0.000000  1
  Ho  Ho18  1  0.500000  0.500000  0.500000  1
  Cd  Cd19  1  0.000000  0.000000  0.500000  1
  Ir  Ir20  1  0.845572  0.156323  0.241550  1
  Ir  Ir21  1  0.843677  0.845572  0.758450  1
  Ir  Ir22  1  0.156323  0.154428  0.758450  1
  Ir  Ir23  1  0.154428  0.843677  0.241550  1
  Ir  Ir24  1  0.653032  0.347293  0.747706  1
  Ir  Ir25  1  0.652707  0.653032  0.252294  1
  Ir  Ir26  1  0.347293  0.346968  0.252294  1
  Ir  Ir27  1  0.346968  0.652707  0.747706  1
  Ir  Ir28  1  0.500000  0.000000  0.123875  1
  Ir  Ir29  1  0.500000  0.000000  0.618951  1
  Ir  Ir30  1  0.000000  0.500000  0.876125  1
  Ir  Ir31  1  0.000000  0.500000  0.381049  1
