# generated using pymatgen
data_CeDy15(CdCo)4
_symmetry_space_group_name_H-M   'P 1'
_cell_length_a   9.46769578
_cell_length_b   9.51108373
_cell_length_c   9.46769600
_cell_angle_alpha   60.15078900
_cell_angle_beta   59.99999924
_cell_angle_gamma   60.15079125
_symmetry_Int_Tables_number   1
_chemical_formula_structural   CeDy15(CdCo)4
_chemical_formula_sum   'Ce1 Dy15 Cd4 Co4'
_cell_volume   604.21248316
_cell_formula_units_Z   1
loop_
 _symmetry_equiv_pos_site_id
 _symmetry_equiv_pos_as_xyz
  1  'x, y, z'
loop_
 _atom_site_type_symbol
 _atom_site_label
 _atom_site_symmetry_multiplicity
 _atom_site_fract_x
 _atom_site_fract_y
 _atom_site_fract_z
 _atom_site_occupancy
  Ce  Ce0  1  0.159979  0.520063  0.159979  1
  Dy  Dy1  1  0.687309  0.313930  0.687309  1
  Dy  Dy2  1  0.687309  0.313930  0.311453  1
  Dy  Dy3  1  0.937548  0.563056  0.561848  1
  Dy  Dy4  1  0.541789  0.151384  0.153413  1
  Dy  Dy5  1  0.153413  0.151384  0.541789  1
  Dy  Dy6  1  0.936864  0.937033  0.563052  1
  Dy  Dy7  1  0.312191  0.688801  0.312191  1
  Dy  Dy8  1  0.563052  0.937033  0.936864  1
  Dy  Dy9  1  0.563052  0.937033  0.563052  1
  Dy  Dy10  1  0.686817  0.688801  0.312191  1
  Dy  Dy11  1  0.561848  0.563056  0.937548  1
  Dy  Dy12  1  0.937548  0.563056  0.937548  1
  Dy  Dy13  1  0.312191  0.688801  0.686817  1
  Dy  Dy14  1  0.153413  0.151384  0.153413  1
  Dy  Dy15  1  0.311453  0.313930  0.687309  1
  Cd  Cd16  1  0.920052  0.239844  0.920052  1
  Cd  Cd17  1  0.920191  0.918149  0.920191  1
  Cd  Cd18  1  0.920191  0.918149  0.241470  1
  Cd  Cd19  1  0.241470  0.918149  0.920191  1
  Co  Co20  1  0.352428  0.366379  0.928766  1
  Co  Co21  1  0.358702  0.923895  0.358702  1
  Co  Co22  1  0.928766  0.366379  0.352428  1
  Co  Co23  1  0.352428  0.366379  0.352428  1
