# generated using pymatgen
data_LaPr4P12Ru16Rh3
_symmetry_space_group_name_H-M   'P 1'
_cell_length_a   12.68557000
_cell_length_b   12.68561488
_cell_length_c   4.03299100
_cell_angle_alpha   90.00000000
_cell_angle_beta   90.00000000
_cell_angle_gamma   120.00011514
_symmetry_Int_Tables_number   1
_chemical_formula_structural   LaPr4P12Ru16Rh3
_chemical_formula_sum   'La1 Pr4 P12 Ru16 Rh3'
_cell_volume   562.05509534
_cell_formula_units_Z   1
loop_
 _symmetry_equiv_pos_site_id
 _symmetry_equiv_pos_as_xyz
  1  'x, y, z'
loop_
 _atom_site_type_symbol
 _atom_site_label
 _atom_site_symmetry_multiplicity
 _atom_site_fract_x
 _atom_site_fract_y
 _atom_site_fract_z
 _atom_site_occupancy
  La  La0  1  0.000000  0.817372  0.500000  1
  Pr  Pr1  1  0.183242  0.183388  0.500000  1
  Pr  Pr2  1  0.816758  0.000146  0.500000  1
  Pr  Pr3  1  0.333299  0.666499  0.000000  1
  Pr  Pr4  1  0.666701  0.333198  0.000000  1
  P  P5  1  0.810296  0.810875  0.000000  1
  P  P6  1  0.189704  0.000579  0.000000  1
  P  P7  1  0.000000  0.189125  0.000000  1
  P  P8  1  0.175614  0.476705  0.500000  1
  P  P9  1  0.523080  0.698771  0.500000  1
  P  P10  1  0.301176  0.824414  0.500000  1
  P  P11  1  0.698824  0.523239  0.500000  1
  P  P12  1  0.824386  0.301092  0.500000  1
  P  P13  1  0.476920  0.175692  0.500000  1
  P  P14  1  0.373179  0.373189  0.000000  1
  P  P15  1  0.626821  0.000010  0.000000  1
  P  P16  1  0.000000  0.626282  0.000000  1
  Ru  Ru17  1  0.711595  0.711840  0.500000  1
  Ru  Ru18  1  0.288405  0.000245  0.500000  1
  Ru  Ru19  1  0.000000  0.288068  0.500000  1
  Ru  Ru20  1  0.185427  0.379198  0.000000  1
  Ru  Ru21  1  0.620757  0.806226  0.000000  1
  Ru  Ru22  1  0.194031  0.814582  0.000000  1
  Ru  Ru23  1  0.805969  0.620551  0.000000  1
  Ru  Ru24  1  0.814573  0.193771  0.000000  1
  Ru  Ru25  1  0.379243  0.185468  0.000000  1
  Ru  Ru26  1  0.369116  0.492201  0.500000  1
  Ru  Ru27  1  0.507779  0.876823  0.500000  1
  Ru  Ru28  1  0.123131  0.630737  0.500000  1
  Ru  Ru29  1  0.876869  0.507606  0.500000  1
  Ru  Ru30  1  0.630884  0.123084  0.500000  1
  Ru  Ru31  1  0.492221  0.369043  0.500000  1
  Ru  Ru32  1  0.000000  0.000013  0.000000  1
  Rh  Rh33  1  0.553447  0.553510  0.000000  1
  Rh  Rh34  1  0.446553  0.000063  0.000000  1
  Rh  Rh35  1  0.000000  0.446396  0.000000  1
