# generated using pymatgen
data_Y2Al2Ga7Ir3
_symmetry_space_group_name_H-M   'P 1'
_cell_length_a   7.57545147
_cell_length_b   7.57545262
_cell_length_c   9.53308900
_cell_angle_alpha   90.00000000
_cell_angle_beta   90.00000000
_cell_angle_gamma   119.74589162
_symmetry_Int_Tables_number   1
_chemical_formula_structural   Y2Al2Ga7Ir3
_chemical_formula_sum   'Y4 Al4 Ga14 Ir6'
_cell_volume   474.99357979
_cell_formula_units_Z   2
loop_
 _symmetry_equiv_pos_site_id
 _symmetry_equiv_pos_as_xyz
  1  'x, y, z'
loop_
 _atom_site_type_symbol
 _atom_site_label
 _atom_site_symmetry_multiplicity
 _atom_site_fract_x
 _atom_site_fract_y
 _atom_site_fract_z
 _atom_site_occupancy
  Y  Y0  1  0.000725  0.669679  0.250000  1
  Y  Y1  1  0.999275  0.330321  0.750000  1
  Y  Y2  1  0.669679  0.000725  0.250000  1
  Y  Y3  1  0.330321  0.999275  0.750000  1
  Al  Al4  1  0.331855  0.331855  0.553211  1
  Al  Al5  1  0.668145  0.668145  0.446789  1
  Al  Al6  1  0.668145  0.668145  0.053211  1
  Al  Al7  1  0.331855  0.331855  0.946789  1
  Ga  Ga8  1  0.127291  0.127291  0.250000  1
  Ga  Ga9  1  0.872709  0.872709  0.750000  1
  Ga  Ga10  1  0.000264  0.335167  0.079401  1
  Ga  Ga11  1  0.999736  0.664833  0.920599  1
  Ga  Ga12  1  0.999736  0.664833  0.579401  1
  Ga  Ga13  1  0.335167  0.000264  0.420599  1
  Ga  Ga14  1  0.000264  0.335167  0.420599  1
  Ga  Ga15  1  0.664833  0.999736  0.579401  1
  Ga  Ga16  1  0.664833  0.999736  0.920599  1
  Ga  Ga17  1  0.335167  0.000264  0.079401  1
  Ga  Ga18  1  0.346379  0.549387  0.250000  1
  Ga  Ga19  1  0.653621  0.450613  0.750000  1
  Ga  Ga20  1  0.549387  0.346379  0.250000  1
  Ga  Ga21  1  0.450613  0.653621  0.750000  1
  Ir  Ir22  1  0.669345  0.330655  0.000000  1
  Ir  Ir23  1  0.330655  0.669345  0.000000  1
  Ir  Ir24  1  0.330655  0.669345  0.500000  1
  Ir  Ir25  1  0.669345  0.330655  0.500000  1
  Ir  Ir26  1  0.000000  0.000000  0.000000  1
  Ir  Ir27  1  0.000000  0.000000  0.500000  1
