# generated using pymatgen
data_Lu4BiC2S
_symmetry_space_group_name_H-M   'P 1'
_cell_length_a   3.56980100
_cell_length_b   3.56980131
_cell_length_c   13.85481800
_cell_angle_alpha   90.00000000
_cell_angle_beta   90.00000000
_cell_angle_gamma   119.99998785
_symmetry_Int_Tables_number   1
_chemical_formula_structural   Lu4BiC2S
_chemical_formula_sum   'Lu4 Bi1 C2 S1'
_cell_volume   152.90425165
_cell_formula_units_Z   1
loop_
 _symmetry_equiv_pos_site_id
 _symmetry_equiv_pos_as_xyz
  1  'x, y, z'
loop_
 _atom_site_type_symbol
 _atom_site_label
 _atom_site_symmetry_multiplicity
 _atom_site_fract_x
 _atom_site_fract_y
 _atom_site_fract_z
 _atom_site_occupancy
  Lu  Lu0  1  0.666666  0.333333  0.066774  1
  Lu  Lu1  1  0.666666  0.333333  0.433226  1
  Lu  Lu2  1  0.333333  0.666667  0.617369  1
  Lu  Lu3  1  0.333333  0.666667  0.882631  1
  Bi  Bi4  1  0.333333  0.666667  0.250000  1
  C  C5  1  0.000000  0.000000  0.978435  1
  C  C6  1  0.000000  0.000000  0.521565  1
  S  S7  1  0.666666  0.333333  0.750000  1
