# generated using pymatgen
data_Pa4Al18VRh5
_symmetry_space_group_name_H-M   'P 1'
_cell_length_a   7.60118063
_cell_length_b   7.60118088
_cell_length_c   9.34295257
_cell_angle_alpha   89.62709850
_cell_angle_beta   89.62709834
_cell_angle_gamma   118.29144312
_symmetry_Int_Tables_number   1
_chemical_formula_structural   Pa4Al18VRh5
_chemical_formula_sum   'Pa4 Al18 V1 Rh5'
_cell_volume   475.29626190
_cell_formula_units_Z   1
loop_
 _symmetry_equiv_pos_site_id
 _symmetry_equiv_pos_as_xyz
  1  'x, y, z'
loop_
 _atom_site_type_symbol
 _atom_site_label
 _atom_site_symmetry_multiplicity
 _atom_site_fract_x
 _atom_site_fract_y
 _atom_site_fract_z
 _atom_site_occupancy
  Pa  Pa0  1  0.994446  0.690912  0.744393  1
  Pa  Pa1  1  0.005554  0.309088  0.255607  1
  Pa  Pa2  1  0.690912  0.994446  0.744393  1
  Pa  Pa3  1  0.309088  0.005554  0.255607  1
  Al  Al4  1  0.142953  0.142953  0.750180  1
  Al  Al5  1  0.857047  0.857047  0.249820  1
  Al  Al6  1  0.007681  0.343972  0.581154  1
  Al  Al7  1  0.992319  0.656028  0.418846  1
  Al  Al8  1  0.997793  0.656256  0.078270  1
  Al  Al9  1  0.343744  0.002207  0.921730  1
  Al  Al10  1  0.002207  0.343744  0.921730  1
  Al  Al11  1  0.656256  0.997793  0.078270  1
  Al  Al12  1  0.656028  0.992319  0.418846  1
  Al  Al13  1  0.343972  0.007681  0.581154  1
  Al  Al14  1  0.334630  0.334630  0.045222  1
  Al  Al15  1  0.665370  0.665370  0.954778  1
  Al  Al16  1  0.664592  0.664592  0.542776  1
  Al  Al17  1  0.335408  0.335408  0.457224  1
  Al  Al18  1  0.346520  0.559599  0.751042  1
  Al  Al19  1  0.653480  0.440401  0.248958  1
  Al  Al20  1  0.559599  0.346520  0.751042  1
  Al  Al21  1  0.440401  0.653480  0.248958  1
  V  V22  1  0.000000  0.000000  0.500000  1
  Rh  Rh23  1  0.674225  0.325775  0.500000  1
  Rh  Rh24  1  0.325775  0.674225  0.500000  1
  Rh  Rh25  1  0.327304  0.672696  0.000000  1
  Rh  Rh26  1  0.672696  0.327304  0.000000  1
  Rh  Rh27  1  0.000000  0.000000  0.000000  1
