# generated using pymatgen
data_Dy5Tc5(P6Ir7)2
_symmetry_space_group_name_H-M   'P 1'
_cell_length_a   12.62704849
_cell_length_b   12.72415672
_cell_length_c   3.98252100
_cell_angle_alpha   90.00000000
_cell_angle_beta   90.00000000
_cell_angle_gamma   120.14222141
_symmetry_Int_Tables_number   1
_chemical_formula_structural   Dy5Tc5(P6Ir7)2
_chemical_formula_sum   'Dy5 Tc5 P12 Ir14'
_cell_volume   553.34422719
_cell_formula_units_Z   1
loop_
 _symmetry_equiv_pos_site_id
 _symmetry_equiv_pos_as_xyz
  1  'x, y, z'
loop_
 _atom_site_type_symbol
 _atom_site_label
 _atom_site_symmetry_multiplicity
 _atom_site_fract_x
 _atom_site_fract_y
 _atom_site_fract_z
 _atom_site_occupancy
  Dy  Dy0  1  0.334356  0.667966  0.500000  1
  Dy  Dy1  1  0.666598  0.333403  0.500000  1
  Dy  Dy2  1  0.999359  0.811073  0.000000  1
  Dy  Dy3  1  0.186622  0.185024  0.000000  1
  Dy  Dy4  1  0.810824  0.998694  0.000000  1
  Tc  Tc5  1  0.996819  0.450348  0.500000  1
  Tc  Tc6  1  0.548311  0.544900  0.500000  1
  Tc  Tc7  1  0.456821  0.008783  0.500000  1
  Tc  Tc8  1  0.620850  0.799353  0.500000  1
  Tc  Tc9  1  0.201019  0.821968  0.500000  1
  P  P10  1  0.006362  0.639835  0.500000  1
  P  P11  1  0.363645  0.364793  0.500000  1
  P  P12  1  0.633151  0.993590  0.500000  1
  P  P13  1  0.520197  0.693715  0.000000  1
  P  P14  1  0.308270  0.829919  0.000000  1
  P  P15  1  0.169778  0.483303  0.000000  1
  P  P16  1  0.483438  0.169531  0.000000  1
  P  P17  1  0.685885  0.516449  0.000000  1
  P  P18  1  0.832234  0.314796  0.000000  1
  P  P19  1  0.999006  0.176639  0.500000  1
  P  P20  1  0.817176  0.820434  0.500000  1
  P  P21  1  0.177291  0.993791  0.500000  1
  Ir  Ir22  1  0.507816  0.874351  0.000000  1
  Ir  Ir23  1  0.127768  0.636127  0.000000  1
  Ir  Ir24  1  0.361702  0.493871  0.000000  1
  Ir  Ir25  1  0.490853  0.359234  0.000000  1
  Ir  Ir26  1  0.866150  0.506501  0.000000  1
  Ir  Ir27  1  0.643094  0.136191  0.000000  1
  Ir  Ir28  1  0.000356  0.285706  0.000000  1
  Ir  Ir29  1  0.716340  0.711076  0.000000  1
  Ir  Ir30  1  0.287365  0.005150  0.000000  1
  Ir  Ir31  1  0.179898  0.374947  0.500000  1
  Ir  Ir32  1  0.374241  0.183474  0.500000  1
  Ir  Ir33  1  0.807301  0.622739  0.500000  1
  Ir  Ir34  1  0.819416  0.192983  0.500000  1
  Ir  Ir35  1  0.999687  0.999341  0.500000  1
