# generated using pymatgen
data_Pr2PaS5
_symmetry_space_group_name_H-M   'P 1'
_cell_length_a   7.54410013
_cell_length_b   8.12786700
_cell_length_c   12.06266320
_cell_angle_alpha   89.99995985
_cell_angle_beta   90.02108906
_cell_angle_gamma   90.00000000
_symmetry_Int_Tables_number   1
_chemical_formula_structural   Pr2PaS5
_chemical_formula_sum   'Pr8 Pa4 S20'
_cell_volume   739.65160700
_cell_formula_units_Z   4
loop_
 _symmetry_equiv_pos_site_id
 _symmetry_equiv_pos_as_xyz
  1  'x, y, z'
loop_
 _atom_site_type_symbol
 _atom_site_label
 _atom_site_symmetry_multiplicity
 _atom_site_fract_x
 _atom_site_fract_y
 _atom_site_fract_z
 _atom_site_occupancy
  Pr  Pr0  1  0.528392  0.500078  0.322819  1
  Pr  Pr1  1  0.971609  0.999930  0.822834  1
  Pr  Pr2  1  0.471621  0.000091  0.677183  1
  Pr  Pr3  1  0.028384  0.499920  0.177165  1
  Pr  Pr4  1  0.471622  0.499909  0.677183  1
  Pr  Pr5  1  0.028384  0.000080  0.177165  1
  Pr  Pr6  1  0.528392  0.999922  0.322819  1
  Pr  Pr7  1  0.971608  0.500070  0.822833  1
  Pa  Pa8  1  0.069432  0.749999  0.493243  1
  Pa  Pa9  1  0.430606  0.750001  0.993256  1
  Pa  Pa10  1  0.930595  0.250001  0.506746  1
  Pa  Pa11  1  0.569373  0.249999  0.006733  1
  S  S12  1  0.836288  0.959598  0.594444  1
  S  S13  1  0.663672  0.540386  0.094430  1
  S  S14  1  0.163694  0.459547  0.405561  1
  S  S15  1  0.336337  0.040419  0.905573  1
  S  S16  1  0.163694  0.040453  0.405561  1
  S  S17  1  0.336337  0.459580  0.905573  1
  S  S18  1  0.836288  0.540402  0.594444  1
  S  S19  1  0.663672  0.959614  0.094430  1
  S  S20  1  0.833561  0.750000  0.313926  1
  S  S21  1  0.666432  0.750000  0.813923  1
  S  S22  1  0.166421  0.250000  0.686056  1
  S  S23  1  0.333578  0.250000  0.186066  1
  S  S24  1  0.449766  0.750000  0.498343  1
  S  S25  1  0.050253  0.750000  0.998348  1
  S  S26  1  0.550262  0.250000  0.501652  1
  S  S27  1  0.949730  0.250000  0.001653  1
  S  S28  1  0.191422  0.750000  0.711727  1
  S  S29  1  0.308575  0.750000  0.211715  1
  S  S30  1  0.808583  0.250000  0.288297  1
  S  S31  1  0.691418  0.250000  0.788299  1
