# generated using pymatgen
data_Ho6ErFeBr12
_symmetry_space_group_name_H-M   'P 1'
_cell_length_a   9.15940429
_cell_length_b   9.15940421
_cell_length_c   9.15940365
_cell_angle_alpha   107.06560423
_cell_angle_beta   107.06560221
_cell_angle_gamma   107.06559353
_symmetry_Int_Tables_number   1
_chemical_formula_structural   Ho6ErFeBr12
_chemical_formula_sum   'Ho6 Er1 Fe1 Br12'
_cell_volume   638.80329161
_cell_formula_units_Z   1
loop_
 _symmetry_equiv_pos_site_id
 _symmetry_equiv_pos_as_xyz
  1  'x, y, z'
loop_
 _atom_site_type_symbol
 _atom_site_label
 _atom_site_symmetry_multiplicity
 _atom_site_fract_x
 _atom_site_fract_y
 _atom_site_fract_z
 _atom_site_occupancy
  Ho  Ho0  1  0.905374  0.979971  0.699318  1
  Ho  Ho1  1  0.699318  0.905374  0.979971  1
  Ho  Ho2  1  0.979971  0.699318  0.905374  1
  Ho  Ho3  1  0.094626  0.020029  0.300682  1
  Ho  Ho4  1  0.300682  0.094626  0.020029  1
  Ho  Ho5  1  0.020029  0.300682  0.094626  1
  Er  Er6  1  0.500000  0.500000  0.500000  1
  Fe  Fe7  1  0.000000  0.000000  0.000000  1
  Br  Br8  1  0.832628  0.613221  0.536870  1
  Br  Br9  1  0.536870  0.832628  0.613221  1
  Br  Br10  1  0.613221  0.536870  0.832628  1
  Br  Br11  1  0.167372  0.386779  0.463130  1
  Br  Br12  1  0.463130  0.167372  0.386779  1
  Br  Br13  1  0.386779  0.463130  0.167372  1
  Br  Br14  1  0.929113  0.321470  0.775732  1
  Br  Br15  1  0.775732  0.929113  0.321470  1
  Br  Br16  1  0.321470  0.775732  0.929113  1
  Br  Br17  1  0.070887  0.678530  0.224268  1
  Br  Br18  1  0.224268  0.070887  0.678530  1
  Br  Br19  1  0.678530  0.224268  0.070887  1
