# generated using pymatgen
data_Yb2Dy7ZrIr6
_symmetry_space_group_name_H-M   'P 1'
_cell_length_a   10.83240629
_cell_length_b   10.87004100
_cell_length_c   6.29787000
_cell_angle_alpha   90.00000000
_cell_angle_beta   90.20446434
_cell_angle_gamma   90.00000000
_symmetry_Int_Tables_number   1
_chemical_formula_structural   Yb2Dy7ZrIr6
_chemical_formula_sum   'Yb4 Dy14 Zr2 Ir12'
_cell_volume   741.56128639
_cell_formula_units_Z   2
loop_
 _symmetry_equiv_pos_site_id
 _symmetry_equiv_pos_as_xyz
  1  'x, y, z'
loop_
 _atom_site_type_symbol
 _atom_site_label
 _atom_site_symmetry_multiplicity
 _atom_site_fract_x
 _atom_site_fract_y
 _atom_site_fract_z
 _atom_site_occupancy
  Yb  Yb0  1  0.287345  0.087256  0.374268  1
  Yb  Yb1  1  0.287345  0.912744  0.874268  1
  Yb  Yb2  1  0.499568  0.499997  0.998891  1
  Yb  Yb3  1  0.499568  0.500003  0.498891  1
  Dy  Dy4  1  0.710767  0.086792  0.876689  1
  Dy  Dy5  1  0.710767  0.913208  0.376689  1
  Dy  Dy6  1  0.585702  0.792241  0.877660  1
  Dy  Dy7  1  0.585702  0.207759  0.377660  1
  Dy  Dy8  1  0.412020  0.792804  0.378630  1
  Dy  Dy9  1  0.412020  0.207196  0.878630  1
  Dy  Dy10  1  0.209999  0.414172  0.622451  1
  Dy  Dy11  1  0.209999  0.585828  0.122451  1
  Dy  Dy12  1  0.791185  0.412931  0.121260  1
  Dy  Dy13  1  0.791185  0.587069  0.621260  1
  Dy  Dy14  1  0.912722  0.711913  0.124640  1
  Dy  Dy15  1  0.912722  0.288087  0.624640  1
  Dy  Dy16  1  0.088675  0.711902  0.623598  1
  Dy  Dy17  1  0.088675  0.288098  0.123598  1
  Zr  Zr18  1  0.000551  0.999638  0.499488  1
  Zr  Zr19  1  0.000551  0.000362  0.999488  1
  Ir  Ir20  1  0.857990  0.143208  0.250166  1
  Ir  Ir21  1  0.857990  0.856792  0.750166  1
  Ir  Ir22  1  0.139868  0.146752  0.752604  1
  Ir  Ir23  1  0.139868  0.853248  0.252604  1
  Ir  Ir24  1  0.657901  0.340619  0.750252  1
  Ir  Ir25  1  0.657901  0.659381  0.250252  1
  Ir  Ir26  1  0.341513  0.344960  0.247387  1
  Ir  Ir27  1  0.341513  0.655040  0.747387  1
  Ir  Ir28  1  0.503867  0.000447  0.123122  1
  Ir  Ir29  1  0.503867  0.999553  0.623122  1
  Ir  Ir30  1  0.000328  0.500287  0.878893  1
  Ir  Ir31  1  0.000328  0.499713  0.378893  1
