# generated using pymatgen
data_Nd16SmY3Sn16
_symmetry_space_group_name_H-M   'P 1'
_cell_length_a   8.25585801
_cell_length_b   8.40658101
_cell_length_c   15.94886400
_cell_angle_alpha   90.00000000
_cell_angle_beta   90.00000000
_cell_angle_gamma   89.99333597
_symmetry_Int_Tables_number   1
_chemical_formula_structural   Nd16SmY3Sn16
_chemical_formula_sum   'Nd16 Sm1 Y3 Sn16'
_cell_volume   1106.90760091
_cell_formula_units_Z   1
loop_
 _symmetry_equiv_pos_site_id
 _symmetry_equiv_pos_as_xyz
  1  'x, y, z'
loop_
 _atom_site_type_symbol
 _atom_site_label
 _atom_site_symmetry_multiplicity
 _atom_site_fract_x
 _atom_site_fract_y
 _atom_site_fract_z
 _atom_site_occupancy
  Nd  Nd0  1  0.017950  0.180816  0.401297  1
  Nd  Nd1  1  0.368268  0.837276  0.120552  1
  Nd  Nd2  1  0.131945  0.337249  0.620697  1
  Nd  Nd3  1  0.481975  0.680918  0.901285  1
  Nd  Nd4  1  0.867884  0.662978  0.120668  1
  Nd  Nd5  1  0.131945  0.337249  0.879303  1
  Nd  Nd6  1  0.481975  0.680918  0.598715  1
  Nd  Nd7  1  0.631868  0.162811  0.620589  1
  Nd  Nd8  1  0.867884  0.662978  0.379332  1
  Nd  Nd9  1  0.017950  0.180816  0.098703  1
  Nd  Nd10  1  0.982039  0.819032  0.901310  1
  Nd  Nd11  1  0.631868  0.162811  0.879411  1
  Nd  Nd12  1  0.518163  0.318950  0.098649  1
  Nd  Nd13  1  0.368268  0.837276  0.379448  1
  Nd  Nd14  1  0.982039  0.819032  0.598690  1
  Nd  Nd15  1  0.518163  0.318950  0.401351  1
  Sm  Sm16  1  0.198374  0.502049  0.250000  1
  Y  Y17  1  0.699091  0.998022  0.250000  1
  Y  Y18  1  0.300909  0.001869  0.750000  1
  Y  Y19  1  0.800934  0.498037  0.750000  1
  Sn  Sn20  1  0.791622  0.464717  0.543429  1
  Sn  Sn21  1  0.708375  0.964596  0.456613  1
  Sn  Sn22  1  0.675434  0.854592  0.750000  1
  Sn  Sn23  1  0.208380  0.535499  0.456984  1
  Sn  Sn24  1  0.291625  0.035360  0.956562  1
  Sn  Sn25  1  0.824325  0.354357  0.250000  1
  Sn  Sn26  1  0.791622  0.464717  0.956571  1
  Sn  Sn27  1  0.566173  0.617065  0.250000  1
  Sn  Sn28  1  0.208380  0.535499  0.043016  1
  Sn  Sn29  1  0.434841  0.383033  0.750000  1
  Sn  Sn30  1  0.175298  0.645516  0.750000  1
  Sn  Sn31  1  0.934810  0.116987  0.750000  1
  Sn  Sn32  1  0.291625  0.035360  0.543438  1
  Sn  Sn33  1  0.708375  0.964596  0.043387  1
  Sn  Sn34  1  0.324643  0.144580  0.250000  1
  Sn  Sn35  1  0.064982  0.883489  0.250000  1
