# generated using pymatgen
data_Dy8In2CuOs
_symmetry_space_group_name_H-M   'P 1'
_cell_length_a   9.67419197
_cell_length_b   9.64437331
_cell_length_c   9.64437348
_cell_angle_alpha   60.36027148
_cell_angle_beta   59.89767426
_cell_angle_gamma   59.89767225
_symmetry_Int_Tables_number   1
_chemical_formula_structural   Dy8In2CuOs
_chemical_formula_sum   'Dy16 In4 Cu2 Os2'
_cell_volume   636.99955954
_cell_formula_units_Z   2
loop_
 _symmetry_equiv_pos_site_id
 _symmetry_equiv_pos_as_xyz
  1  'x, y, z'
loop_
 _atom_site_type_symbol
 _atom_site_label
 _atom_site_symmetry_multiplicity
 _atom_site_fract_x
 _atom_site_fract_y
 _atom_site_fract_z
 _atom_site_occupancy
  Dy  Dy0  1  0.691702  0.308298  0.308298  1
  Dy  Dy1  1  0.684438  0.695280  0.308004  1
  Dy  Dy2  1  0.312278  0.695280  0.308004  1
  Dy  Dy3  1  0.946643  0.932997  0.558789  1
  Dy  Dy4  1  0.150107  0.144561  0.555224  1
  Dy  Dy5  1  0.561570  0.932997  0.558789  1
  Dy  Dy6  1  0.155186  0.149919  0.149919  1
  Dy  Dy7  1  0.312278  0.308004  0.695280  1
  Dy  Dy8  1  0.938548  0.561452  0.561452  1
  Dy  Dy9  1  0.561570  0.558789  0.932997  1
  Dy  Dy10  1  0.559103  0.940897  0.940897  1
  Dy  Dy11  1  0.946643  0.558789  0.932997  1
  Dy  Dy12  1  0.150107  0.555224  0.144561  1
  Dy  Dy13  1  0.309211  0.690789  0.690789  1
  Dy  Dy14  1  0.684438  0.308004  0.695280  1
  Dy  Dy15  1  0.544973  0.149919  0.149919  1
  In  In16  1  0.917018  0.918885  0.247078  1
  In  In17  1  0.249130  0.917341  0.917341  1
  In  In18  1  0.917018  0.247078  0.918885  1
  In  In19  1  0.916189  0.917341  0.917341  1
  Cu  Cu20  1  0.353567  0.360263  0.360263  1
  Cu  Cu21  1  0.925907  0.360263  0.360263  1
  Os  Os22  1  0.356187  0.361273  0.926353  1
  Os  Os23  1  0.356187  0.926353  0.361273  1
