# generated using pymatgen
data_Er9LuGaBi5
_symmetry_space_group_name_H-M   'P 1'
_cell_length_a   8.11742100
_cell_length_b   9.37822527
_cell_length_c   11.90094115
_cell_angle_alpha   90.02266457
_cell_angle_beta   90.00000000
_cell_angle_gamma   90.00000000
_symmetry_Int_Tables_number   1
_chemical_formula_structural   Er9LuGaBi5
_chemical_formula_sum   'Er18 Lu2 Ga2 Bi10'
_cell_volume   905.98290818
_cell_formula_units_Z   2
loop_
 _symmetry_equiv_pos_site_id
 _symmetry_equiv_pos_as_xyz
  1  'x, y, z'
loop_
 _atom_site_type_symbol
 _atom_site_label
 _atom_site_symmetry_multiplicity
 _atom_site_fract_x
 _atom_site_fract_y
 _atom_site_fract_z
 _atom_site_occupancy
  Er  Er0  1  0.354201  0.749865  0.206667  1
  Er  Er1  1  0.854201  0.750135  0.293333  1
  Er  Er2  1  0.650490  0.249960  0.783824  1
  Er  Er3  1  0.150490  0.250040  0.716176  1
  Er  Er4  1  0.309627  0.050469  0.941290  1
  Er  Er5  1  0.809627  0.449531  0.558710  1
  Er  Er6  1  0.309093  0.450111  0.941124  1
  Er  Er7  1  0.809093  0.049889  0.558876  1
  Er  Er8  1  0.684010  0.929584  0.055385  1
  Er  Er9  1  0.184010  0.570416  0.444615  1
  Er  Er10  1  0.479005  0.249885  0.489502  1
  Er  Er11  1  0.979005  0.250115  0.010498  1
  Er  Er12  1  0.535555  0.749908  0.510356  1
  Er  Er13  1  0.035555  0.750092  0.989644  1
  Er  Er14  1  0.312385  0.249859  0.218609  1
  Er  Er15  1  0.812385  0.250141  0.281391  1
  Er  Er16  1  0.678770  0.749701  0.785483  1
  Er  Er17  1  0.178770  0.750299  0.714517  1
  Lu  Lu18  1  0.683899  0.573392  0.055534  1
  Lu  Lu19  1  0.183899  0.926608  0.444466  1
  Ga  Ga20  1  0.408479  0.749492  0.959432  1
  Ga  Ga21  1  0.908479  0.750508  0.540568  1
  Bi  Bi22  1  0.594884  0.252457  0.043095  1
  Bi  Bi23  1  0.094884  0.247543  0.456905  1
  Bi  Bi24  1  0.562898  0.996249  0.324441  1
  Bi  Bi25  1  0.062898  0.503751  0.175559  1
  Bi  Bi26  1  0.436927  0.497561  0.676128  1
  Bi  Bi27  1  0.936927  0.002439  0.823872  1
  Bi  Bi28  1  0.436764  0.002407  0.676074  1
  Bi  Bi29  1  0.936764  0.497593  0.823926  1
  Bi  Bi30  1  0.563012  0.503609  0.324426  1
  Bi  Bi31  1  0.063012  0.996391  0.175574  1
