# generated using pymatgen
data_Y2Ta2Bi2O11
_symmetry_space_group_name_H-M   'P 1'
_cell_length_a   6.59365867
_cell_length_b   7.68226655
_cell_length_c   9.70713700
_cell_angle_alpha   101.40533062
_cell_angle_beta   90.19108307
_cell_angle_gamma   90.08886793
_symmetry_Int_Tables_number   1
_chemical_formula_structural   Y2Ta2Bi2O11
_chemical_formula_sum   'Y4 Ta4 Bi4 O22'
_cell_volume   481.99391519
_cell_formula_units_Z   2
loop_
 _symmetry_equiv_pos_site_id
 _symmetry_equiv_pos_as_xyz
  1  'x, y, z'
loop_
 _atom_site_type_symbol
 _atom_site_label
 _atom_site_symmetry_multiplicity
 _atom_site_fract_x
 _atom_site_fract_y
 _atom_site_fract_z
 _atom_site_occupancy
  Y  Y0  1  0.746033  0.369228  0.482529  1
  Y  Y1  1  0.253967  0.630772  0.517471  1
  Y  Y2  1  0.760308  0.872001  0.492374  1
  Y  Y3  1  0.239692  0.127999  0.507626  1
  Ta  Ta4  1  0.911918  0.700877  0.804687  1
  Ta  Ta5  1  0.088082  0.299123  0.195313  1
  Ta  Ta6  1  0.913935  0.199124  0.805300  1
  Ta  Ta7  1  0.086065  0.800876  0.194700  1
  Bi  Bi8  1  0.432981  0.955322  0.815095  1
  Bi  Bi9  1  0.567019  0.044678  0.184905  1
  Bi  Bi10  1  0.387906  0.455339  0.827006  1
  Bi  Bi11  1  0.612094  0.544661  0.172994  1
  O  O12  1  0.216118  0.724468  0.756425  1
  O  O13  1  0.783882  0.275532  0.243575  1
  O  O14  1  0.629671  0.665803  0.845232  1
  O  O15  1  0.370329  0.334197  0.154768  1
  O  O16  1  0.629963  0.253771  0.842601  1
  O  O17  1  0.370037  0.746229  0.157399  1
  O  O18  1  0.891093  0.156101  0.586703  1
  O  O19  1  0.108907  0.843899  0.413297  1
  O  O20  1  0.215148  0.150521  0.751039  1
  O  O21  1  0.784852  0.849479  0.248961  1
  O  O22  1  0.892685  0.637110  0.591270  1
  O  O23  1  0.107315  0.362890  0.408730  1
  O  O24  1  0.026336  0.550100  0.196483  1
  O  O25  1  0.973664  0.449900  0.803517  1
  O  O26  1  0.998842  0.788343  0.001133  1
  O  O27  1  0.001158  0.211657  0.998867  1
  O  O28  1  0.570750  0.596792  0.394236  1
  O  O29  1  0.429250  0.403208  0.605764  1
  O  O30  1  0.166986  0.057067  0.226219  1
  O  O31  1  0.833014  0.942933  0.773781  1
  O  O32  1  0.543535  0.105421  0.404057  1
  O  O33  1  0.456465  0.894579  0.595943  1
