# generated using pymatgen
data_Na6FeMoS4(O4F)4
_symmetry_space_group_name_H-M   'P 1'
_cell_length_a   6.73968800
_cell_length_b   8.94933400
_cell_length_c   14.24180400
_cell_angle_alpha   90.00000000
_cell_angle_beta   90.00000000
_cell_angle_gamma   90.00000000
_symmetry_Int_Tables_number   1
_chemical_formula_structural   Na6FeMoS4(O4F)4
_chemical_formula_sum   'Na12 Fe2 Mo2 S8 O32 F8'
_cell_volume   859.00464766
_cell_formula_units_Z   2
loop_
 _symmetry_equiv_pos_site_id
 _symmetry_equiv_pos_as_xyz
  1  'x, y, z'
loop_
 _atom_site_type_symbol
 _atom_site_label
 _atom_site_symmetry_multiplicity
 _atom_site_fract_x
 _atom_site_fract_y
 _atom_site_fract_z
 _atom_site_occupancy
  Na  Na0  1  0.518835  0.667676  0.910075  1
  Na  Na1  1  0.018835  0.832324  0.589925  1
  Na  Na2  1  0.481165  0.167676  0.589925  1
  Na  Na3  1  0.981165  0.332324  0.910075  1
  Na  Na4  1  0.479600  0.334001  0.097389  1
  Na  Na5  1  0.979600  0.165999  0.402611  1
  Na  Na6  1  0.520400  0.834001  0.402611  1
  Na  Na7  1  0.020400  0.665999  0.097389  1
  Na  Na8  1  0.750000  0.000000  0.052220  1
  Na  Na9  1  0.250000  0.500000  0.447780  1
  Na  Na10  1  0.250000  0.000000  0.955448  1
  Na  Na11  1  0.750000  0.500000  0.544552  1
  Fe  Fe12  1  0.250000  0.000000  0.194892  1
  Fe  Fe13  1  0.750000  0.500000  0.305108  1
  Mo  Mo14  1  0.750000  0.000000  0.804522  1
  Mo  Mo15  1  0.250000  0.500000  0.695478  1
  S  S16  1  0.000747  0.688411  0.861755  1
  S  S17  1  0.500747  0.811589  0.638245  1
  S  S18  1  0.999253  0.188411  0.638245  1
  S  S19  1  0.499253  0.311589  0.861755  1
  S  S20  1  0.996897  0.307218  0.143833  1
  S  S21  1  0.496897  0.192782  0.356167  1
  S  S22  1  0.003103  0.807218  0.356167  1
  S  S23  1  0.503103  0.692782  0.143833  1
  O  O24  1  0.455104  0.454285  0.808535  1
  O  O25  1  0.955104  0.045715  0.691465  1
  O  O26  1  0.544896  0.954285  0.691465  1
  O  O27  1  0.044896  0.545715  0.808535  1
  O  O28  1  0.550741  0.556018  0.202303  1
  O  O29  1  0.050741  0.943982  0.297697  1
  O  O30  1  0.449259  0.056018  0.297697  1
  O  O31  1  0.949259  0.443982  0.202303  1
  O  O32  1  0.184720  0.762945  0.889964  1
  O  O33  1  0.684720  0.737055  0.610036  1
  O  O34  1  0.815280  0.262945  0.610036  1
  O  O35  1  0.315280  0.237055  0.889964  1
  O  O36  1  0.813878  0.234598  0.112628  1
  O  O37  1  0.313878  0.265402  0.387372  1
  O  O38  1  0.186122  0.734598  0.387372  1
  O  O39  1  0.686122  0.765402  0.112628  1
  O  O40  1  0.875906  0.646434  0.942432  1
  O  O41  1  0.375906  0.853566  0.557568  1
  O  O42  1  0.124094  0.146434  0.557568  1
  O  O43  1  0.624094  0.353566  0.942432  1
  O  O44  1  0.120739  0.358792  0.064718  1
  O  O45  1  0.620739  0.141208  0.435282  1
  O  O46  1  0.879261  0.858792  0.435282  1
  O  O47  1  0.379261  0.641208  0.064718  1
  O  O48  1  0.384062  0.716595  0.706014  1
  O  O49  1  0.884062  0.783405  0.793986  1
  O  O50  1  0.615938  0.216595  0.793986  1
  O  O51  1  0.115938  0.283405  0.706014  1
  O  O52  1  0.616477  0.295551  0.294053  1
  O  O53  1  0.116477  0.204449  0.205947  1
  O  O54  1  0.383523  0.795551  0.205947  1
  O  O55  1  0.883523  0.704449  0.294053  1
  F  F56  1  0.567969  0.926523  0.913745  1
  F  F57  1  0.067969  0.573477  0.586255  1
  F  F58  1  0.432031  0.426523  0.586255  1
  F  F59  1  0.932031  0.073477  0.913745  1
  F  F60  1  0.422961  0.073874  0.096572  1
  F  F61  1  0.922961  0.426126  0.403428  1
  F  F62  1  0.577039  0.573874  0.403428  1
  F  F63  1  0.077039  0.926126  0.096572  1
