# generated using pymatgen
data_Er2Hf2CN3
_symmetry_space_group_name_H-M   'P 1'
_cell_length_a   11.08456781
_cell_length_b   11.08456787
_cell_length_c   11.08456720
_cell_angle_alpha   17.23839974
_cell_angle_beta   17.23839984
_cell_angle_gamma   17.23839411
_symmetry_Int_Tables_number   1
_chemical_formula_structural   Er2Hf2CN3
_chemical_formula_sum   'Er2 Hf2 C1 N3'
_cell_volume   104.36495961
_cell_formula_units_Z   1
loop_
 _symmetry_equiv_pos_site_id
 _symmetry_equiv_pos_as_xyz
  1  'x, y, z'
loop_
 _atom_site_type_symbol
 _atom_site_label
 _atom_site_symmetry_multiplicity
 _atom_site_fract_x
 _atom_site_fract_y
 _atom_site_fract_z
 _atom_site_occupancy
  Er  Er0  1  0.876228  0.876228  0.876228  1
  Er  Er1  1  0.123772  0.123772  0.123772  1
  Hf  Hf2  1  0.373062  0.373062  0.373062  1
  Hf  Hf3  1  0.626938  0.626938  0.626938  1
  C  C4  1  0.000000  0.000000  0.000000  1
  N  N5  1  0.253802  0.253802  0.253802  1
  N  N6  1  0.500000  0.500000  0.500000  1
  N  N7  1  0.746198  0.746198  0.746198  1
