# generated using pymatgen
data_Y4AlMoOs6
_symmetry_space_group_name_H-M   'P 1'
_cell_length_a   5.32254427
_cell_length_b   5.32254410
_cell_length_c   8.88395734
_cell_angle_alpha   90.45721614
_cell_angle_beta   89.54278625
_cell_angle_gamma   118.21146932
_symmetry_Int_Tables_number   1
_chemical_formula_structural   Y4AlMoOs6
_chemical_formula_sum   'Y4 Al1 Mo1 Os6'
_cell_volume   221.77116747
_cell_formula_units_Z   1
loop_
 _symmetry_equiv_pos_site_id
 _symmetry_equiv_pos_as_xyz
  1  'x, y, z'
loop_
 _atom_site_type_symbol
 _atom_site_label
 _atom_site_symmetry_multiplicity
 _atom_site_fract_x
 _atom_site_fract_y
 _atom_site_fract_z
 _atom_site_occupancy
  Y  Y0  1  0.333885  0.666115  0.432911  1
  Y  Y1  1  0.667273  0.332727  0.572035  1
  Y  Y2  1  0.663926  0.336074  0.934159  1
  Y  Y3  1  0.329587  0.670413  0.060956  1
  Al  Al4  1  0.002186  0.997814  0.505811  1
  Mo  Mo5  1  0.834900  0.165100  0.247230  1
  Os  Os6  1  0.997534  0.002466  0.992841  1
  Os  Os7  1  0.826825  0.656469  0.252481  1
  Os  Os8  1  0.343531  0.173175  0.252481  1
  Os  Os9  1  0.172812  0.827188  0.749851  1
  Os  Os10  1  0.170366  0.342825  0.749623  1
  Os  Os11  1  0.657175  0.829634  0.749623  1
