# generated using pymatgen
data_Th2Co5Ni2
_symmetry_space_group_name_H-M   'P 1'
_cell_length_a   4.94259926
_cell_length_b   4.94259972
_cell_length_c   12.86078456
_cell_angle_alpha   78.92126925
_cell_angle_beta   78.92127064
_cell_angle_gamma   59.99999540
_symmetry_Int_Tables_number   1
_chemical_formula_structural   Th2Co5Ni2
_chemical_formula_sum   'Th4 Co10 Ni4'
_cell_volume   265.30535772
_cell_formula_units_Z   2
loop_
 _symmetry_equiv_pos_site_id
 _symmetry_equiv_pos_as_xyz
  1  'x, y, z'
loop_
 _atom_site_type_symbol
 _atom_site_label
 _atom_site_symmetry_multiplicity
 _atom_site_fract_x
 _atom_site_fract_y
 _atom_site_fract_z
 _atom_site_occupancy
  Th  Th0  1  0.949703  0.949703  0.150892  1
  Th  Th1  1  0.050297  0.050297  0.849108  1
  Th  Th2  1  0.854351  0.854351  0.436947  1
  Th  Th3  1  0.145649  0.145649  0.563053  1
  Co  Co4  1  0.500000  0.500000  0.500000  1
  Co  Co5  1  0.000000  0.500000  0.000000  1
  Co  Co6  1  0.500000  0.000000  0.000000  1
  Co  Co7  1  0.500000  0.500000  0.000000  1
  Co  Co8  1  0.391688  0.391688  0.325598  1
  Co  Co9  1  0.891025  0.391688  0.325598  1
  Co  Co10  1  0.391688  0.891025  0.325598  1
  Co  Co11  1  0.608312  0.608312  0.674402  1
  Co  Co12  1  0.108975  0.608312  0.674402  1
  Co  Co13  1  0.608312  0.108975  0.674402  1
  Ni  Ni14  1  0.721509  0.721509  0.835474  1
  Ni  Ni15  1  0.278491  0.278491  0.164526  1
  Ni  Ni16  1  0.611917  0.611917  0.164248  1
  Ni  Ni17  1  0.388083  0.388083  0.835752  1
