# generated using pymatgen
data_Pm2Os3W
_symmetry_space_group_name_H-M   'P 1'
_cell_length_a   5.66925438
_cell_length_b   5.30092040
_cell_length_c   5.66925500
_cell_angle_alpha   57.67356817
_cell_angle_beta   60.00001388
_cell_angle_gamma   57.67356309
_symmetry_Int_Tables_number   1
_chemical_formula_structural   Pm2Os3W
_chemical_formula_sum   'Pm2 Os3 W1'
_cell_volume   116.06091227
_cell_formula_units_Z   1
loop_
 _symmetry_equiv_pos_site_id
 _symmetry_equiv_pos_as_xyz
  1  'x, y, z'
loop_
 _atom_site_type_symbol
 _atom_site_label
 _atom_site_symmetry_multiplicity
 _atom_site_fract_x
 _atom_site_fract_y
 _atom_site_fract_z
 _atom_site_occupancy
  Pm  Pm0  1  0.749011  0.752967  0.749011  1
  Pm  Pm1  1  0.500989  0.497033  0.500989  1
  Os  Os2  1  0.125000  0.125000  0.125000  1
  Os  Os3  1  0.625000  0.125000  0.125000  1
  Os  Os4  1  0.125000  0.125000  0.625000  1
  W  W5  1  0.125000  0.625000  0.125000  1
