# generated using pymatgen
data_Dy9Er(InSb)3
_symmetry_space_group_name_H-M   'P 1'
_cell_length_a   8.97603900
_cell_length_b   8.96037083
_cell_length_c   6.56380900
_cell_angle_alpha   90.00173287
_cell_angle_beta   90.00082343
_cell_angle_gamma   120.14233609
_symmetry_Int_Tables_number   1
_chemical_formula_structural   Dy9Er(InSb)3
_chemical_formula_sum   'Dy9 Er1 In3 Sb3'
_cell_volume   456.53344152
_cell_formula_units_Z   1
loop_
 _symmetry_equiv_pos_site_id
 _symmetry_equiv_pos_as_xyz
  1  'x, y, z'
loop_
 _atom_site_type_symbol
 _atom_site_label
 _atom_site_symmetry_multiplicity
 _atom_site_fract_x
 _atom_site_fract_y
 _atom_site_fract_z
 _atom_site_occupancy
  Dy  Dy0  1  0.330154  0.665907  0.000760  1
  Dy  Dy1  1  0.664785  0.333779  0.499868  1
  Dy  Dy2  1  0.664660  0.333719  0.000220  1
  Dy  Dy3  1  0.761680  0.000027  0.749881  1
  Dy  Dy4  1  0.763809  0.760852  0.250174  1
  Dy  Dy5  1  0.003448  0.239169  0.250101  1
  Dy  Dy6  1  0.002017  0.762976  0.749746  1
  Dy  Dy7  1  0.239481  0.236508  0.749821  1
  Dy  Dy8  1  0.238349  0.000570  0.250281  1
  Er  Er9  1  0.330055  0.665944  0.499069  1
  In  In10  1  0.397135  0.999109  0.749418  1
  In  In11  1  0.396259  0.398706  0.250589  1
  In  In12  1  0.998852  0.602634  0.250704  1
  Sb  Sb13  1  0.997819  0.392244  0.749426  1
  Sb  Sb14  1  0.604861  0.608148  0.749275  1
  Sb  Sb15  1  0.606630  0.999708  0.250668  1
