# generated using pymatgen
data_Dy4Mn3Fe14(NiP4)3
_symmetry_space_group_name_H-M   'P 1'
_cell_length_a   3.66880500
_cell_length_b   10.28625507
_cell_length_c   11.95003426
_cell_angle_alpha   89.98126790
_cell_angle_beta   90.00000000
_cell_angle_gamma   90.00000000
_symmetry_Int_Tables_number   1
_chemical_formula_structural   Dy4Mn3Fe14(NiP4)3
_chemical_formula_sum   'Dy4 Mn3 Fe14 Ni3 P12'
_cell_volume   450.97352413
_cell_formula_units_Z   1
loop_
 _symmetry_equiv_pos_site_id
 _symmetry_equiv_pos_as_xyz
  1  'x, y, z'
loop_
 _atom_site_type_symbol
 _atom_site_label
 _atom_site_symmetry_multiplicity
 _atom_site_fract_x
 _atom_site_fract_y
 _atom_site_fract_z
 _atom_site_occupancy
  Dy  Dy0  1  0.250000  0.580047  0.705604  1
  Dy  Dy1  1  0.250000  0.919667  0.206813  1
  Dy  Dy2  1  0.750000  0.420792  0.294244  1
  Dy  Dy3  1  0.750000  0.078222  0.793380  1
  Mn  Mn4  1  0.250000  0.700057  0.991007  1
  Mn  Mn5  1  0.250000  0.799070  0.491797  1
  Mn  Mn6  1  0.750000  0.296248  0.009615  1
  Fe  Fe7  1  0.750000  0.207570  0.511331  1
  Fe  Fe8  1  0.750000  0.594407  0.511997  1
  Fe  Fe9  1  0.750000  0.903920  0.011686  1
  Fe  Fe10  1  0.250000  0.277701  0.670859  1
  Fe  Fe11  1  0.750000  0.778081  0.828342  1
  Fe  Fe12  1  0.750000  0.722463  0.329158  1
  Fe  Fe13  1  0.250000  0.878872  0.699398  1
  Fe  Fe14  1  0.250000  0.623308  0.199991  1
  Fe  Fe15  1  0.750000  0.123876  0.301480  1
  Fe  Fe16  1  0.750000  0.376636  0.800922  1
  Fe  Fe17  1  0.250000  0.460461  0.934566  1
  Fe  Fe18  1  0.250000  0.037945  0.435006  1
  Fe  Fe19  1  0.750000  0.536689  0.064908  1
  Fe  Fe20  1  0.750000  0.964050  0.565274  1
  Ni  Ni21  1  0.250000  0.405876  0.485745  1
  Ni  Ni22  1  0.250000  0.093153  0.986735  1
  Ni  Ni23  1  0.250000  0.223273  0.172519  1
  P  P24  1  0.250000  0.429152  0.114536  1
  P  P25  1  0.250000  0.076568  0.612944  1
  P  P26  1  0.750000  0.574891  0.885351  1
  P  P27  1  0.750000  0.925511  0.385839  1
  P  P28  1  0.250000  0.269067  0.858222  1
  P  P29  1  0.250000  0.229964  0.364829  1
  P  P30  1  0.750000  0.730965  0.138595  1
  P  P31  1  0.750000  0.769334  0.637863  1
  P  P32  1  0.250000  0.605606  0.389066  1
  P  P33  1  0.250000  0.893820  0.889015  1
  P  P34  1  0.750000  0.396521  0.610454  1
  P  P35  1  0.750000  0.096218  0.110909  1
