# generated using pymatgen
data_DyLu15Tl2(In2Co)2
_symmetry_space_group_name_H-M   'P 1'
_cell_length_a   10.15857501
_cell_length_b   10.15857669
_cell_length_c   6.92914900
_cell_angle_alpha   90.00203066
_cell_angle_beta   89.99796510
_cell_angle_gamma   119.99581473
_symmetry_Int_Tables_number   1
_chemical_formula_structural   DyLu15Tl2(In2Co)2
_chemical_formula_sum   'Dy1 Lu15 Tl2 In4 Co2'
_cell_volume   619.29061864
_cell_formula_units_Z   1
loop_
 _symmetry_equiv_pos_site_id
 _symmetry_equiv_pos_as_xyz
  1  'x, y, z'
loop_
 _atom_site_type_symbol
 _atom_site_label
 _atom_site_symmetry_multiplicity
 _atom_site_fract_x
 _atom_site_fract_y
 _atom_site_fract_z
 _atom_site_occupancy
  Dy  Dy0  1  0.998918  0.001082  0.001213  1
  Lu  Lu1  1  0.535510  0.072111  0.513531  1
  Lu  Lu2  1  0.927889  0.464490  0.513531  1
  Lu  Lu3  1  0.536338  0.463662  0.512742  1
  Lu  Lu4  1  0.464454  0.926562  0.015531  1
  Lu  Lu5  1  0.073438  0.535546  0.015531  1
  Lu  Lu6  1  0.462729  0.537271  0.016666  1
  Lu  Lu7  1  0.180282  0.359810  0.716671  1
  Lu  Lu8  1  0.640190  0.819718  0.716671  1
  Lu  Lu9  1  0.179381  0.820619  0.718389  1
  Lu  Lu10  1  0.820410  0.639936  0.215501  1
  Lu  Lu11  1  0.360064  0.179590  0.215501  1
  Lu  Lu12  1  0.820173  0.179827  0.218220  1
  Lu  Lu13  1  0.667105  0.332895  0.902914  1
  Lu  Lu14  1  0.332890  0.667110  0.405643  1
  Lu  Lu15  1  0.999587  0.000413  0.498194  1
  Tl  Tl16  1  0.836722  0.674195  0.761304  1
  Tl  Tl17  1  0.325805  0.163278  0.761304  1
  In  In18  1  0.837406  0.162594  0.756917  1
  In  In19  1  0.163767  0.325434  0.264143  1
  In  In20  1  0.674566  0.836233  0.264143  1
  In  In21  1  0.162457  0.837543  0.264691  1
  Co  Co22  1  0.666704  0.333296  0.286098  1
  Co  Co23  1  0.333218  0.666782  0.789151  1
