# generated using pymatgen
data_Tb4DyMo3(P3Ir4)4
_symmetry_space_group_name_H-M   'P 1'
_cell_length_a   12.68529500
_cell_length_b   12.68474470
_cell_length_c   3.99412400
_cell_angle_alpha   90.00000000
_cell_angle_beta   90.00000000
_cell_angle_gamma   120.00143771
_symmetry_Int_Tables_number   1
_chemical_formula_structural   Tb4DyMo3(P3Ir4)4
_chemical_formula_sum   'Tb4 Dy1 Mo3 P12 Ir16'
_cell_volume   556.58075498
_cell_formula_units_Z   1
loop_
 _symmetry_equiv_pos_site_id
 _symmetry_equiv_pos_as_xyz
  1  'x, y, z'
loop_
 _atom_site_type_symbol
 _atom_site_label
 _atom_site_symmetry_multiplicity
 _atom_site_fract_x
 _atom_site_fract_y
 _atom_site_fract_z
 _atom_site_occupancy
  Tb  Tb0  1  0.333329  0.666661  0.500000  1
  Tb  Tb1  1  0.666669  0.333339  0.500000  1
  Tb  Tb2  1  0.000010  0.812937  0.000000  1
  Tb  Tb3  1  0.187073  0.187063  0.000000  1
  Dy  Dy4  1  0.812896  0.000000  0.000000  1
  Mo  Mo5  1  0.999985  0.453464  0.500000  1
  Mo  Mo6  1  0.546521  0.546536  0.500000  1
  Mo  Mo7  1  0.453524  0.000000  0.500000  1
  P  P8  1  0.999997  0.638464  0.500000  1
  P  P9  1  0.361533  0.361536  0.500000  1
  P  P10  1  0.638690  0.000000  0.500000  1
  P  P11  1  0.516405  0.684330  0.000000  1
  P  P12  1  0.315658  0.832068  0.000000  1
  P  P13  1  0.167912  0.483558  0.000000  1
  P  P14  1  0.483590  0.167932  0.000000  1
  P  P15  1  0.684354  0.516442  0.000000  1
  P  P16  1  0.832076  0.315670  0.000000  1
  P  P17  1  0.999864  0.176895  0.500000  1
  P  P18  1  0.822969  0.823105  0.500000  1
  P  P19  1  0.176970  0.000000  0.500000  1
  Ir  Ir20  1  0.509307  0.866783  0.000000  1
  Ir  Ir21  1  0.133200  0.642474  0.000000  1
  Ir  Ir22  1  0.357507  0.490706  0.000000  1
  Ir  Ir23  1  0.490727  0.357526  0.000000  1
  Ir  Ir24  1  0.866802  0.509294  0.000000  1
  Ir  Ir25  1  0.642525  0.133217  0.000000  1
  Ir  Ir26  1  0.999926  0.286518  0.000000  1
  Ir  Ir27  1  0.713407  0.713482  0.000000  1
  Ir  Ir28  1  0.286602  0.000000  0.000000  1
  Ir  Ir29  1  0.625941  0.804577  0.500000  1
  Ir  Ir30  1  0.195668  0.821366  0.500000  1
  Ir  Ir31  1  0.178616  0.374313  0.500000  1
  Ir  Ir32  1  0.374302  0.178634  0.500000  1
  Ir  Ir33  1  0.804303  0.625687  0.500000  1
  Ir  Ir34  1  0.821364  0.195423  0.500000  1
  Ir  Ir35  1  0.999780  0.000000  0.500000  1
