# generated using pymatgen
data_Lu20Cd5Ni2Hg
_symmetry_space_group_name_H-M   'P 1'
_cell_length_a   9.43494410
_cell_length_b   9.43494433
_cell_length_c   9.44642000
_cell_angle_alpha   90.00000000
_cell_angle_beta   90.00000000
_cell_angle_gamma   119.86968782
_symmetry_Int_Tables_number   1
_chemical_formula_structural   Lu20Cd5Ni2Hg
_chemical_formula_sum   'Lu20 Cd5 Ni2 Hg1'
_cell_volume   729.19777903
_cell_formula_units_Z   1
loop_
 _symmetry_equiv_pos_site_id
 _symmetry_equiv_pos_as_xyz
  1  'x, y, z'
loop_
 _atom_site_type_symbol
 _atom_site_label
 _atom_site_symmetry_multiplicity
 _atom_site_fract_x
 _atom_site_fract_y
 _atom_site_fract_z
 _atom_site_occupancy
  Lu  Lu0  1  0.998174  0.001826  0.495906  1
  Lu  Lu1  1  0.998174  0.001826  0.004094  1
  Lu  Lu2  1  0.543474  0.456526  0.250000  1
  Lu  Lu3  1  0.545546  0.084800  0.250000  1
  Lu  Lu4  1  0.915200  0.454454  0.250000  1
  Lu  Lu5  1  0.457462  0.542538  0.750000  1
  Lu  Lu6  1  0.456807  0.913855  0.750000  1
  Lu  Lu7  1  0.086145  0.543193  0.750000  1
  Lu  Lu8  1  0.210714  0.789286  0.437905  1
  Lu  Lu9  1  0.211910  0.422335  0.438040  1
  Lu  Lu10  1  0.577665  0.788090  0.438040  1
  Lu  Lu11  1  0.788890  0.211110  0.563178  1
  Lu  Lu12  1  0.789334  0.578294  0.561874  1
  Lu  Lu13  1  0.421706  0.210666  0.561874  1
  Lu  Lu14  1  0.788890  0.211110  0.936822  1
  Lu  Lu15  1  0.789334  0.578294  0.938126  1
  Lu  Lu16  1  0.421706  0.210666  0.938126  1
  Lu  Lu17  1  0.210714  0.789286  0.062095  1
  Lu  Lu18  1  0.211910  0.422335  0.061960  1
  Lu  Lu19  1  0.577665  0.788090  0.061960  1
  Cd  Cd20  1  0.884186  0.765217  0.250000  1
  Cd  Cd21  1  0.234783  0.115814  0.250000  1
  Cd  Cd22  1  0.114192  0.885808  0.750000  1
  Cd  Cd23  1  0.114672  0.229947  0.750000  1
  Cd  Cd24  1  0.770053  0.885328  0.750000  1
  Ni  Ni25  1  0.333250  0.666750  0.250000  1
  Ni  Ni26  1  0.666026  0.333974  0.750000  1
  Hg  Hg27  1  0.881419  0.118581  0.250000  1
