# generated using pymatgen
data_Nd2Ho3(Ni2Sn5)2
_symmetry_space_group_name_H-M   'P 1'
_cell_length_a   13.85196000
_cell_length_b   13.85196000
_cell_length_c   4.49426700
_cell_angle_alpha   90.00000000
_cell_angle_beta   90.00000000
_cell_angle_gamma   90.00000000
_symmetry_Int_Tables_number   1
_chemical_formula_structural   Nd2Ho3(Ni2Sn5)2
_chemical_formula_sum   'Nd4 Ho6 Ni8 Sn20'
_cell_volume   862.34555162
_cell_formula_units_Z   2
loop_
 _symmetry_equiv_pos_site_id
 _symmetry_equiv_pos_as_xyz
  1  'x, y, z'
loop_
 _atom_site_type_symbol
 _atom_site_label
 _atom_site_symmetry_multiplicity
 _atom_site_fract_x
 _atom_site_fract_y
 _atom_site_fract_z
 _atom_site_occupancy
  Nd  Nd0  1  0.891994  0.608006  0.500000  1
  Nd  Nd1  1  0.108006  0.391994  0.500000  1
  Nd  Nd2  1  0.391994  0.891994  0.500000  1
  Nd  Nd3  1  0.608006  0.108006  0.500000  1
  Ho  Ho4  1  0.000000  0.000000  0.000000  1
  Ho  Ho5  1  0.500000  0.500000  0.000000  1
  Ho  Ho6  1  0.180980  0.680980  0.500000  1
  Ho  Ho7  1  0.819020  0.319020  0.500000  1
  Ho  Ho8  1  0.680980  0.819020  0.500000  1
  Ho  Ho9  1  0.319020  0.180980  0.500000  1
  Ni  Ni10  1  0.256548  0.534576  0.000000  1
  Ni  Ni11  1  0.743452  0.465424  0.000000  1
  Ni  Ni12  1  0.756548  0.965424  0.000000  1
  Ni  Ni13  1  0.243452  0.034576  0.000000  1
  Ni  Ni14  1  0.465424  0.256548  0.000000  1
  Ni  Ni15  1  0.534576  0.743452  0.000000  1
  Ni  Ni16  1  0.034576  0.756548  0.000000  1
  Ni  Ni17  1  0.965424  0.243452  0.000000  1
  Sn  Sn18  1  0.350326  0.699987  0.000000  1
  Sn  Sn19  1  0.649674  0.300013  0.000000  1
  Sn  Sn20  1  0.850326  0.800013  0.000000  1
  Sn  Sn21  1  0.149674  0.199987  0.000000  1
  Sn  Sn22  1  0.300013  0.350326  0.000000  1
  Sn  Sn23  1  0.699987  0.649674  0.000000  1
  Sn  Sn24  1  0.199987  0.850326  0.000000  1
  Sn  Sn25  1  0.800013  0.149674  0.000000  1
  Sn  Sn26  1  0.335418  0.508559  0.500000  1
  Sn  Sn27  1  0.664582  0.491441  0.500000  1
  Sn  Sn28  1  0.835418  0.991441  0.500000  1
  Sn  Sn29  1  0.164582  0.008559  0.500000  1
  Sn  Sn30  1  0.491441  0.335418  0.500000  1
  Sn  Sn31  1  0.508559  0.664582  0.500000  1
  Sn  Sn32  1  0.008559  0.835418  0.500000  1
  Sn  Sn33  1  0.991441  0.164582  0.500000  1
  Sn  Sn34  1  0.072799  0.572799  0.000000  1
  Sn  Sn35  1  0.927201  0.427201  0.000000  1
  Sn  Sn36  1  0.572799  0.927201  0.000000  1
  Sn  Sn37  1  0.427201  0.072799  0.000000  1
