# generated using pymatgen
data_DyY3Er4(B6Ru)4
_symmetry_space_group_name_H-M   'P 1'
_cell_length_a   3.64860300
_cell_length_b   9.12059804
_cell_length_c   11.50256301
_cell_angle_alpha   89.99262601
_cell_angle_beta   90.00000000
_cell_angle_gamma   90.00000000
_symmetry_Int_Tables_number   1
_chemical_formula_structural   DyY3Er4(B6Ru)4
_chemical_formula_sum   'Dy1 Y3 Er4 B24 Ru4'
_cell_volume   382.77586293
_cell_formula_units_Z   1
loop_
 _symmetry_equiv_pos_site_id
 _symmetry_equiv_pos_as_xyz
  1  'x, y, z'
loop_
 _atom_site_type_symbol
 _atom_site_label
 _atom_site_symmetry_multiplicity
 _atom_site_fract_x
 _atom_site_fract_y
 _atom_site_fract_z
 _atom_site_occupancy
  Dy  Dy0  1  0.000000  0.177914  0.914229  1
  Y  Y1  1  0.000000  0.321857  0.414244  1
  Y  Y2  1  0.000000  0.678145  0.585870  1
  Y  Y3  1  0.000000  0.821902  0.085715  1
  Er  Er4  1  0.000000  0.943589  0.372109  1
  Er  Er5  1  0.000000  0.056448  0.627829  1
  Er  Er6  1  0.000000  0.443524  0.127628  1
  Er  Er7  1  0.000000  0.556476  0.872310  1
  B  B8  1  0.500000  0.554244  0.432843  1
  B  B9  1  0.500000  0.445563  0.567384  1
  B  B10  1  0.500000  0.054474  0.066877  1
  B  B11  1  0.500000  0.946020  0.932797  1
  B  B12  1  0.500000  0.748667  0.419272  1
  B  B13  1  0.500000  0.251269  0.580937  1
  B  B14  1  0.500000  0.248601  0.080338  1
  B  B15  1  0.500000  0.751541  0.919324  1
  B  B16  1  0.500000  0.791022  0.265902  1
  B  B17  1  0.500000  0.208827  0.734343  1
  B  B18  1  0.500000  0.290946  0.233741  1
  B  B19  1  0.500000  0.709111  0.766123  1
  B  B20  1  0.500000  0.631015  0.184742  1
  B  B21  1  0.500000  0.368696  0.815453  1
  B  B22  1  0.500000  0.131049  0.315015  1
  B  B23  1  0.500000  0.869153  0.684952  1
  B  B24  1  0.500000  0.983292  0.212876  1
  B  B25  1  0.500000  0.017048  0.787109  1
  B  B26  1  0.500000  0.483142  0.286802  1
  B  B27  1  0.500000  0.516627  0.713295  1
  B  B28  1  0.500000  0.606276  0.029198  1
  B  B29  1  0.500000  0.393513  0.970692  1
  B  B30  1  0.500000  0.105965  0.470833  1
  B  B31  1  0.500000  0.894120  0.529178  1
  Ru  Ru32  1  0.000000  0.637908  0.320630  1
  Ru  Ru33  1  0.000000  0.361894  0.679578  1
  Ru  Ru34  1  0.000000  0.137924  0.179100  1
  Ru  Ru35  1  0.000000  0.862236  0.820735  1
