# generated using pymatgen
data_Tm4ScIr3
_symmetry_space_group_name_H-M   'P 1'
_cell_length_a   10.65903900
_cell_length_b   10.65903900
_cell_length_c   6.21648800
_cell_angle_alpha   90.00000000
_cell_angle_beta   90.00000000
_cell_angle_gamma   90.00000000
_symmetry_Int_Tables_number   1
_chemical_formula_structural   Tm4ScIr3
_chemical_formula_sum   'Tm16 Sc4 Ir12'
_cell_volume   706.28698288
_cell_formula_units_Z   4
loop_
 _symmetry_equiv_pos_site_id
 _symmetry_equiv_pos_as_xyz
  1  'x, y, z'
loop_
 _atom_site_type_symbol
 _atom_site_label
 _atom_site_symmetry_multiplicity
 _atom_site_fract_x
 _atom_site_fract_y
 _atom_site_fract_z
 _atom_site_occupancy
  Tm  Tm0  1  0.288517  0.086197  0.376587  1
  Tm  Tm1  1  0.288517  0.913803  0.876587  1
  Tm  Tm2  1  0.711483  0.086197  0.876587  1
  Tm  Tm3  1  0.711483  0.913803  0.376587  1
  Tm  Tm4  1  0.586197  0.788517  0.876587  1
  Tm  Tm5  1  0.586197  0.211483  0.376587  1
  Tm  Tm6  1  0.413803  0.788517  0.376587  1
  Tm  Tm7  1  0.413803  0.211483  0.876587  1
  Tm  Tm8  1  0.211483  0.413803  0.623413  1
  Tm  Tm9  1  0.211483  0.586197  0.123413  1
  Tm  Tm10  1  0.788517  0.413803  0.123413  1
  Tm  Tm11  1  0.788517  0.586197  0.623413  1
  Tm  Tm12  1  0.913803  0.711483  0.123413  1
  Tm  Tm13  1  0.913803  0.288517  0.623413  1
  Tm  Tm14  1  0.086197  0.711483  0.623413  1
  Tm  Tm15  1  0.086197  0.288517  0.123413  1
  Sc  Sc16  1  0.000000  0.000000  0.500000  1
  Sc  Sc17  1  0.000000  0.000000  0.000000  1
  Sc  Sc18  1  0.500000  0.500000  0.000000  1
  Sc  Sc19  1  0.500000  0.500000  0.500000  1
  Ir  Ir20  1  0.851307  0.148693  0.250000  1
  Ir  Ir21  1  0.851307  0.851307  0.750000  1
  Ir  Ir22  1  0.148693  0.148693  0.750000  1
  Ir  Ir23  1  0.148693  0.851307  0.250000  1
  Ir  Ir24  1  0.648693  0.351307  0.750000  1
  Ir  Ir25  1  0.648693  0.648693  0.250000  1
  Ir  Ir26  1  0.351307  0.351307  0.250000  1
  Ir  Ir27  1  0.351307  0.648693  0.750000  1
  Ir  Ir28  1  0.500000  0.000000  0.123013  1
  Ir  Ir29  1  0.500000  0.000000  0.623013  1
  Ir  Ir30  1  0.000000  0.500000  0.876987  1
  Ir  Ir31  1  0.000000  0.500000  0.376987  1
