# generated using pymatgen
data_Eu2Si2PPd3
_symmetry_space_group_name_H-M   'P 1'
_cell_length_a   4.22196971
_cell_length_b   4.23030800
_cell_length_c   8.92504702
_cell_angle_alpha   90.00000000
_cell_angle_beta   103.68144934
_cell_angle_gamma   90.00000000
_symmetry_Int_Tables_number   1
_chemical_formula_structural   Eu2Si2PPd3
_chemical_formula_sum   'Eu2 Si2 P1 Pd3'
_cell_volume   154.88046006
_cell_formula_units_Z   1
loop_
 _symmetry_equiv_pos_site_id
 _symmetry_equiv_pos_as_xyz
  1  'x, y, z'
loop_
 _atom_site_type_symbol
 _atom_site_label
 _atom_site_symmetry_multiplicity
 _atom_site_fract_x
 _atom_site_fract_y
 _atom_site_fract_z
 _atom_site_occupancy
  Eu  Eu0  1  0.599642  0.250000  0.199282  1
  Eu  Eu1  1  0.400407  0.750000  0.800815  1
  Si  Si2  1  0.825834  0.250000  0.651667  1
  Si  Si3  1  0.174689  0.750000  0.349377  1
  P  P4  1  0.961529  0.250000  0.923058  1
  Pd  Pd5  1  0.034520  0.750000  0.069040  1
  Pd  Pd6  1  0.251537  0.250000  0.503072  1
  Pd  Pd7  1  0.751843  0.750000  0.503688  1
