# generated using pymatgen
data_TlS8Cl3
_symmetry_space_group_name_H-M   'P 1'
_cell_length_a   8.58510189
_cell_length_b   11.24836115
_cell_length_c   12.07847731
_cell_angle_alpha   99.63865605
_cell_angle_beta   116.95895718
_cell_angle_gamma   101.68518061
_symmetry_Int_Tables_number   1
_chemical_formula_structural   TlS8Cl3
_chemical_formula_sum   'Tl2 S16 Cl6'
_cell_volume   972.15673034
_cell_formula_units_Z   2
loop_
 _symmetry_equiv_pos_site_id
 _symmetry_equiv_pos_as_xyz
  1  'x, y, z'
loop_
 _atom_site_type_symbol
 _atom_site_label
 _atom_site_symmetry_multiplicity
 _atom_site_fract_x
 _atom_site_fract_y
 _atom_site_fract_z
 _atom_site_occupancy
  Tl  Tl0  1  0.785285  0.979347  0.836079  1
  Tl  Tl1  1  0.214715  0.020653  0.163921  1
  S  S2  1  0.853220  0.510823  0.822152  1
  S  S3  1  0.146780  0.489177  0.177848  1
  S  S4  1  0.681810  0.369822  0.647585  1
  S  S5  1  0.318190  0.630178  0.352415  1
  S  S6  1  0.771220  0.212505  0.650861  1
  S  S7  1  0.228780  0.787495  0.349139  1
  S  S8  1  0.937982  0.218574  0.570155  1
  S  S9  1  0.062018  0.781426  0.429845  1
  S  S10  1  0.954514  0.362551  0.194974  1
  S  S11  1  0.045486  0.637449  0.805026  1
  S  S12  1  0.711600  0.405985  0.119171  1
  S  S13  1  0.288400  0.594015  0.880829  1
  S  S14  1  0.699643  0.513310  0.269460  1
  S  S15  1  0.300357  0.486690  0.730540  1
  S  S16  1  0.789118  0.703149  0.285354  1
  S  S17  1  0.210882  0.296851  0.714646  1
  Cl  Cl18  1  0.565913  0.071698  0.850593  1
  Cl  Cl19  1  0.434087  0.928302  0.149407  1
  Cl  Cl20  1  0.877675  0.865992  0.022073  1
  Cl  Cl21  1  0.122325  0.134008  0.977927  1
  Cl  Cl22  1  0.770001  0.842384  0.654879  1
  Cl  Cl23  1  0.229999  0.157616  0.345121  1
