# generated using pymatgen
data_Nd3Th5Zn8(Ir3Rh)2
_symmetry_space_group_name_H-M   'P 1'
_cell_length_a   3.96576500
_cell_length_b   7.49315375
_cell_length_c   16.61009090
_cell_angle_alpha   90.33847043
_cell_angle_beta   90.00000000
_cell_angle_gamma   90.00000000
_symmetry_Int_Tables_number   1
_chemical_formula_structural   Nd3Th5Zn8(Ir3Rh)2
_chemical_formula_sum   'Nd3 Th5 Zn8 Ir6 Rh2'
_cell_volume   493.57829172
_cell_formula_units_Z   1
loop_
 _symmetry_equiv_pos_site_id
 _symmetry_equiv_pos_as_xyz
  1  'x, y, z'
loop_
 _atom_site_type_symbol
 _atom_site_label
 _atom_site_symmetry_multiplicity
 _atom_site_fract_x
 _atom_site_fract_y
 _atom_site_fract_z
 _atom_site_occupancy
  Nd  Nd0  1  0.750000  0.445244  0.214387  1
  Nd  Nd1  1  0.250000  0.052482  0.713741  1
  Nd  Nd2  1  0.250000  0.553521  0.785872  1
  Th  Th3  1  0.250000  0.173622  0.938272  1
  Th  Th4  1  0.250000  0.671347  0.561268  1
  Th  Th5  1  0.750000  0.327106  0.439247  1
  Th  Th6  1  0.750000  0.946516  0.284849  1
  Th  Th7  1  0.750000  0.829383  0.060714  1
  Zn  Zn8  1  0.750000  0.006570  0.561100  1
  Zn  Zn9  1  0.250000  0.614538  0.345598  1
  Zn  Zn10  1  0.750000  0.382659  0.654248  1
  Zn  Zn11  1  0.250000  0.496132  0.061627  1
  Zn  Zn12  1  0.750000  0.507691  0.938868  1
  Zn  Zn13  1  0.250000  0.992765  0.441519  1
  Zn  Zn14  1  0.250000  0.122721  0.151937  1
  Zn  Zn15  1  0.750000  0.882474  0.845375  1
  Ir  Ir16  1  0.750000  0.743958  0.437286  1
  Ir  Ir17  1  0.250000  0.232249  0.317419  1
  Ir  Ir18  1  0.750000  0.249126  0.820333  1
  Ir  Ir19  1  0.750000  0.749108  0.680693  1
  Ir  Ir20  1  0.250000  0.257963  0.560811  1
  Ir  Ir21  1  0.250000  0.758611  0.184724  1
  Rh  Rh22  1  0.750000  0.244531  0.058899  1
  Rh  Rh23  1  0.250000  0.759682  0.941211  1
