# generated using pymatgen
data_Yb2GaCuRu
_symmetry_space_group_name_H-M   'P 1'
_cell_length_a   4.14270242
_cell_length_b   5.50087653
_cell_length_c   5.53485990
_cell_angle_alpha   119.79709976
_cell_angle_beta   111.97719135
_cell_angle_gamma   89.99999312
_symmetry_Int_Tables_number   1
_chemical_formula_structural   Yb2GaCuRu
_chemical_formula_sum   'Yb2 Ga1 Cu1 Ru1'
_cell_volume   98.75405809
_cell_formula_units_Z   1
loop_
 _symmetry_equiv_pos_site_id
 _symmetry_equiv_pos_as_xyz
  1  'x, y, z'
loop_
 _atom_site_type_symbol
 _atom_site_label
 _atom_site_symmetry_multiplicity
 _atom_site_fract_x
 _atom_site_fract_y
 _atom_site_fract_z
 _atom_site_occupancy
  Yb  Yb0  1  0.799184  0.294780  0.598369  1
  Yb  Yb1  1  0.200816  0.696412  0.401631  1
  Ga  Ga2  1  0.000000  0.013058  0.000000  1
  Cu  Cu3  1  0.500000  0.732813  0.000000  1
  Ru  Ru4  1  0.500000  0.262937  0.000000  1
