# generated using pymatgen
data_Ba4NiSbO7F
_symmetry_space_group_name_H-M   'P 1'
_cell_length_a   7.46090906
_cell_length_b   7.46090909
_cell_length_c   5.81858100
_cell_angle_alpha   90.00000000
_cell_angle_beta   90.00000000
_cell_angle_gamma   134.20321523
_symmetry_Int_Tables_number   1
_chemical_formula_structural   Ba4NiSbO7F
_chemical_formula_sum   'Ba4 Ni1 Sb1 O7 F1'
_cell_volume   232.18913033
_cell_formula_units_Z   1
loop_
 _symmetry_equiv_pos_site_id
 _symmetry_equiv_pos_as_xyz
  1  'x, y, z'
loop_
 _atom_site_type_symbol
 _atom_site_label
 _atom_site_symmetry_multiplicity
 _atom_site_fract_x
 _atom_site_fract_y
 _atom_site_fract_z
 _atom_site_occupancy
  Ba  Ba0  1  0.363452  0.636548  0.000000  1
  Ba  Ba1  1  0.855773  0.144227  0.500000  1
  Ba  Ba2  1  0.139617  0.860383  0.500000  1
  Ba  Ba3  1  0.642912  0.357088  0.000000  1
  Ni  Ni4  1  0.979899  0.020101  0.000000  1
  Sb  Sb5  1  0.500908  0.499092  0.500000  1
  O  O6  1  0.255216  0.248975  0.744379  1
  O  O7  1  0.751025  0.744784  0.255621  1
  O  O8  1  0.751025  0.744784  0.744379  1
  O  O9  1  0.255216  0.248975  0.255621  1
  O  O10  1  0.650509  0.349491  0.500000  1
  O  O11  1  0.351494  0.648506  0.500000  1
  O  O12  1  0.833411  0.166589  0.000000  1
  F  F13  1  0.169545  0.830455  0.000000  1
