# generated using pymatgen
data_Ho7Np(B6Rh)4
_symmetry_space_group_name_H-M   'P 1'
_cell_length_a   3.64466900
_cell_length_b   9.17950221
_cell_length_c   11.50804425
_cell_angle_alpha   90.02433124
_cell_angle_beta   90.00000000
_cell_angle_gamma   90.00000000
_symmetry_Int_Tables_number   1
_chemical_formula_structural   Ho7Np(B6Rh)4
_chemical_formula_sum   'Ho7 Np1 B24 Rh4'
_cell_volume   385.01593800
_cell_formula_units_Z   1
loop_
 _symmetry_equiv_pos_site_id
 _symmetry_equiv_pos_as_xyz
  1  'x, y, z'
loop_
 _atom_site_type_symbol
 _atom_site_label
 _atom_site_symmetry_multiplicity
 _atom_site_fract_x
 _atom_site_fract_y
 _atom_site_fract_z
 _atom_site_occupancy
  Ho  Ho0  1  0.500000  0.676185  0.586541  1
  Ho  Ho1  1  0.500000  0.176838  0.913880  1
  Ho  Ho2  1  0.500000  0.823006  0.086395  1
  Ho  Ho3  1  0.500000  0.444465  0.125993  1
  Ho  Ho4  1  0.500000  0.555581  0.874044  1
  Ho  Ho5  1  0.500000  0.054490  0.626641  1
  Ho  Ho6  1  0.500000  0.944798  0.373785  1
  Np  Np7  1  0.500000  0.325235  0.413355  1
  B  B8  1  0.000000  0.111856  0.469856  1
  B  B9  1  0.000000  0.887474  0.530566  1
  B  B10  1  0.000000  0.387284  0.969085  1
  B  B11  1  0.000000  0.612696  0.030481  1
  B  B12  1  0.000000  0.134482  0.316361  1
  B  B13  1  0.000000  0.865820  0.684299  1
  B  B14  1  0.000000  0.366374  0.816054  1
  B  B15  1  0.000000  0.633620  0.183668  1
  B  B16  1  0.000000  0.053442  0.065485  1
  B  B17  1  0.000000  0.946376  0.934446  1
  B  B18  1  0.000000  0.446940  0.566137  1
  B  B19  1  0.000000  0.553219  0.434048  1
  B  B20  1  0.000000  0.483184  0.286705  1
  B  B21  1  0.000000  0.517289  0.713220  1
  B  B22  1  0.000000  0.016648  0.786998  1
  B  B23  1  0.000000  0.983007  0.213351  1
  B  B24  1  0.000000  0.249123  0.079143  1
  B  B25  1  0.000000  0.750923  0.920603  1
  B  B26  1  0.000000  0.251012  0.579285  1
  B  B27  1  0.000000  0.749076  0.420926  1
  B  B28  1  0.000000  0.294414  0.234768  1
  B  B29  1  0.000000  0.705543  0.764895  1
  B  B30  1  0.000000  0.205547  0.735468  1
  B  B31  1  0.000000  0.794523  0.264445  1
  Rh  Rh32  1  0.500000  0.137496  0.177738  1
  Rh  Rh33  1  0.500000  0.861206  0.821431  1
  Rh  Rh34  1  0.500000  0.358869  0.679976  1
  Rh  Rh35  1  0.500000  0.641955  0.319928  1
