# generated using pymatgen
data_HfZr5(AlPd)6
_symmetry_space_group_name_H-M   'P 1'
_cell_length_a   7.19929494
_cell_length_b   7.22336334
_cell_length_c   7.18007800
_cell_angle_alpha   90.00000000
_cell_angle_beta   90.00000000
_cell_angle_gamma   120.28339025
_symmetry_Int_Tables_number   1
_chemical_formula_structural   HfZr5(AlPd)6
_chemical_formula_sum   'Hf1 Zr5 Al6 Pd6'
_cell_volume   322.43482379
_cell_formula_units_Z   1
loop_
 _symmetry_equiv_pos_site_id
 _symmetry_equiv_pos_as_xyz
  1  'x, y, z'
loop_
 _atom_site_type_symbol
 _atom_site_label
 _atom_site_symmetry_multiplicity
 _atom_site_fract_x
 _atom_site_fract_y
 _atom_site_fract_z
 _atom_site_occupancy
  Hf  Hf0  1  0.983610  0.395553  0.250000  1
  Zr  Zr1  1  0.604288  0.587790  0.250000  1
  Zr  Zr2  1  0.018893  0.414202  0.750000  1
  Zr  Zr3  1  0.411938  0.016993  0.250000  1
  Zr  Zr4  1  0.396926  0.982914  0.750000  1
  Zr  Zr5  1  0.586502  0.602985  0.750000  1
  Al  Al6  1  0.258220  0.258151  0.500232  1
  Al  Al7  1  0.740982  0.998797  0.500259  1
  Al  Al8  1  0.000728  0.743671  0.498637  1
  Al  Al9  1  0.740982  0.998797  0.999741  1
  Al  Al10  1  0.258220  0.258151  0.999768  1
  Al  Al11  1  0.000728  0.743671  0.001363  1
  Pd  Pd12  1  0.329456  0.663517  0.471786  1
  Pd  Pd13  1  0.000372  0.000660  0.750000  1
  Pd  Pd14  1  0.000312  0.004400  0.250000  1
  Pd  Pd15  1  0.329456  0.663517  0.028214  1
  Pd  Pd16  1  0.669194  0.333116  0.520472  1
  Pd  Pd17  1  0.669194  0.333116  0.979528  1
