# generated using pymatgen
data_Tb2Ho14In4IrPd3
_symmetry_space_group_name_H-M   'P 1'
_cell_length_a   9.70826296
_cell_length_b   9.70826115
_cell_length_c   9.70143373
_cell_angle_alpha   59.73955063
_cell_angle_beta   59.73955988
_cell_angle_gamma   59.69846911
_symmetry_Int_Tables_number   1
_chemical_formula_structural   Tb2Ho14In4IrPd3
_chemical_formula_sum   'Tb2 Ho14 In4 Ir1 Pd3'
_cell_volume   642.52695849
_cell_formula_units_Z   1
loop_
 _symmetry_equiv_pos_site_id
 _symmetry_equiv_pos_as_xyz
  1  'x, y, z'
loop_
 _atom_site_type_symbol
 _atom_site_label
 _atom_site_symmetry_multiplicity
 _atom_site_fract_x
 _atom_site_fract_y
 _atom_site_fract_z
 _atom_site_occupancy
  Tb  Tb0  1  0.435565  0.435565  0.064996  1
  Tb  Tb1  1  0.646450  0.646450  0.061616  1
  Ho  Ho2  1  0.184931  0.810543  0.193596  1
  Ho  Ho3  1  0.063271  0.436493  0.062053  1
  Ho  Ho4  1  0.189435  0.810722  0.809865  1
  Ho  Ho5  1  0.063909  0.439639  0.434573  1
  Ho  Ho6  1  0.810543  0.184931  0.193596  1
  Ho  Ho7  1  0.651631  0.651631  0.644708  1
  Ho  Ho8  1  0.810722  0.189435  0.809865  1
  Ho  Ho9  1  0.190479  0.190479  0.808885  1
  Ho  Ho10  1  0.054998  0.650446  0.643970  1
  Ho  Ho11  1  0.436493  0.063271  0.062053  1
  Ho  Ho12  1  0.061920  0.061920  0.434704  1
  Ho  Ho13  1  0.650446  0.054998  0.643970  1
  Ho  Ho14  1  0.811165  0.811165  0.192866  1
  Ho  Ho15  1  0.439639  0.063909  0.434573  1
  In  In16  1  0.415995  0.415995  0.417190  1
  In  In17  1  0.416838  0.416838  0.749174  1
  In  In18  1  0.416358  0.749976  0.417284  1
  In  In19  1  0.749976  0.416358  0.417284  1
  Ir  Ir20  1  0.856993  0.856993  0.429910  1
  Pd  Pd21  1  0.430760  0.856208  0.857936  1
  Pd  Pd22  1  0.855274  0.855274  0.857396  1
  Pd  Pd23  1  0.856208  0.430760  0.857936  1
