# generated using pymatgen
data_Na16HfGeAs8
_symmetry_space_group_name_H-M   'P 1'
_cell_length_a   9.87882799
_cell_length_b   9.87882858
_cell_length_c   9.87882900
_cell_angle_alpha   60.00000195
_cell_angle_beta   59.99999998
_cell_angle_gamma   60.00000196
_symmetry_Int_Tables_number   1
_chemical_formula_structural   Na16HfGeAs8
_chemical_formula_sum   'Na16 Hf1 Ge1 As8'
_cell_volume   681.71265519
_cell_formula_units_Z   1
loop_
 _symmetry_equiv_pos_site_id
 _symmetry_equiv_pos_as_xyz
  1  'x, y, z'
loop_
 _atom_site_type_symbol
 _atom_site_label
 _atom_site_symmetry_multiplicity
 _atom_site_fract_x
 _atom_site_fract_y
 _atom_site_fract_z
 _atom_site_occupancy
  Na  Na0  1  0.629272  0.629272  0.112184  1
  Na  Na1  1  0.629272  0.112184  0.629272  1
  Na  Na2  1  0.112184  0.629272  0.629272  1
  Na  Na3  1  0.629272  0.629272  0.629272  1
  Na  Na4  1  0.031034  0.468966  0.468966  1
  Na  Na5  1  0.771935  0.228065  0.228065  1
  Na  Na6  1  0.468966  0.031034  0.468966  1
  Na  Na7  1  0.468966  0.468966  0.031034  1
  Na  Na8  1  0.031034  0.031034  0.468966  1
  Na  Na9  1  0.031034  0.468966  0.031034  1
  Na  Na10  1  0.468966  0.031034  0.031034  1
  Na  Na11  1  0.771935  0.228065  0.771935  1
  Na  Na12  1  0.228065  0.771935  0.228065  1
  Na  Na13  1  0.228065  0.228065  0.771935  1
  Na  Na14  1  0.771935  0.771935  0.228065  1
  Na  Na15  1  0.228065  0.771935  0.771935  1
  Hf  Hf16  1  0.500000  0.500000  0.500000  1
  Ge  Ge17  1  0.750000  0.750000  0.750000  1
  As  As18  1  0.855125  0.855125  0.434626  1
  As  As19  1  0.855125  0.434626  0.855125  1
  As  As20  1  0.392078  0.392078  0.823765  1
  As  As21  1  0.392078  0.823765  0.392078  1
  As  As22  1  0.823765  0.392078  0.392078  1
  As  As23  1  0.855125  0.855125  0.855125  1
  As  As24  1  0.434626  0.855125  0.855125  1
  As  As25  1  0.392078  0.392078  0.392078  1
