# generated using pymatgen
data_Dy6AlIn5Au6
_symmetry_space_group_name_H-M   'P 1'
_cell_length_a   7.75992688
_cell_length_b   7.71094204
_cell_length_c   7.93645021
_cell_angle_alpha   89.99999996
_cell_angle_beta   89.97332196
_cell_angle_gamma   119.79140859
_symmetry_Int_Tables_number   1
_chemical_formula_structural   Dy6AlIn5Au6
_chemical_formula_sum   'Dy6 Al1 In5 Au6'
_cell_volume   412.12688533
_cell_formula_units_Z   1
loop_
 _symmetry_equiv_pos_site_id
 _symmetry_equiv_pos_as_xyz
  1  'x, y, z'
loop_
 _atom_site_type_symbol
 _atom_site_label
 _atom_site_symmetry_multiplicity
 _atom_site_fract_x
 _atom_site_fract_y
 _atom_site_fract_z
 _atom_site_occupancy
  Dy  Dy0  1  0.593596  0.995984  0.750048  1
  Dy  Dy1  1  0.004535  0.595728  0.747807  1
  Dy  Dy2  1  0.402071  0.406488  0.749299  1
  Dy  Dy3  1  0.995465  0.591193  0.252193  1
  Dy  Dy4  1  0.597929  0.004417  0.250701  1
  Dy  Dy5  1  0.406404  0.402389  0.249952  1
  Al  Al6  1  0.000000  0.255437  0.500000  1
  In  In7  1  0.746072  0.744680  0.999710  1
  In  In8  1  0.253928  0.998607  0.000290  1
  In  In9  1  0.000000  0.262051  0.000000  1
  In  In10  1  0.735690  0.737475  0.499957  1
  In  In11  1  0.264310  0.001786  0.500043  1
  Au  Au12  1  0.000126  0.012866  0.740594  1
  Au  Au13  1  0.999874  0.012740  0.259406  1
  Au  Au14  1  0.664895  0.332142  0.992448  1
  Au  Au15  1  0.680137  0.329453  0.506902  1
  Au  Au16  1  0.319863  0.649317  0.493098  1
  Au  Au17  1  0.335105  0.667248  0.007552  1
