# generated using pymatgen
data_Nd10Ga3TcSn2
_symmetry_space_group_name_H-M   'P 1'
_cell_length_a   9.01338566
_cell_length_b   9.01338657
_cell_length_c   8.96062998
_cell_angle_alpha   125.44260505
_cell_angle_beta   125.44260469
_cell_angle_gamma   81.19999893
_symmetry_Int_Tables_number   1
_chemical_formula_structural   Nd10Ga3TcSn2
_chemical_formula_sum   'Nd10 Ga3 Tc1 Sn2'
_cell_volume   464.39001542
_cell_formula_units_Z   1
loop_
 _symmetry_equiv_pos_site_id
 _symmetry_equiv_pos_as_xyz
  1  'x, y, z'
loop_
 _atom_site_type_symbol
 _atom_site_label
 _atom_site_symmetry_multiplicity
 _atom_site_fract_x
 _atom_site_fract_y
 _atom_site_fract_z
 _atom_site_occupancy
  Nd  Nd0  1  0.498712  0.488817  0.987528  1
  Nd  Nd1  1  0.988817  0.998712  0.987528  1
  Nd  Nd2  1  0.545976  0.045976  0.869817  1
  Nd  Nd3  1  0.193056  0.693056  0.166614  1
  Nd  Nd4  1  0.007076  0.192877  0.487444  1
  Nd  Nd5  1  0.692877  0.507076  0.487444  1
  Nd  Nd6  1  0.473556  0.973556  0.166614  1
  Nd  Nd7  1  0.823843  0.323843  0.869817  1
  Nd  Nd8  1  0.980367  0.794566  0.487444  1
  Nd  Nd9  1  0.294566  0.480367  0.487444  1
  Ga  Ga10  1  0.124960  0.624960  0.749922  1
  Ga  Ga11  1  0.369691  0.128756  0.498447  1
  Ga  Ga12  1  0.628756  0.869691  0.498447  1
  Tc  Tc13  1  0.881949  0.381949  0.263896  1
  Sn  Sn14  1  0.247899  0.247899  0.995797  1
  Sn  Sn15  1  0.747899  0.747899  0.995797  1
