# generated using pymatgen
data_SmLuCo3P7Ru9
_symmetry_space_group_name_H-M   'P 1'
_cell_length_a   9.32859900
_cell_length_b   9.32859950
_cell_length_c   3.82573000
_cell_angle_alpha   90.00000000
_cell_angle_beta   90.00000000
_cell_angle_gamma   120.00000179
_symmetry_Int_Tables_number   1
_chemical_formula_structural   SmLuCo3P7Ru9
_chemical_formula_sum   'Sm1 Lu1 Co3 P7 Ru9'
_cell_volume   288.32202082
_cell_formula_units_Z   1
loop_
 _symmetry_equiv_pos_site_id
 _symmetry_equiv_pos_as_xyz
  1  'x, y, z'
loop_
 _atom_site_type_symbol
 _atom_site_label
 _atom_site_symmetry_multiplicity
 _atom_site_fract_x
 _atom_site_fract_y
 _atom_site_fract_z
 _atom_site_occupancy
  Sm  Sm0  1  0.333333  0.666667  0.000000  1
  Lu  Lu1  1  0.000000  0.000000  0.500000  1
  Co  Co2  1  0.935758  0.444487  0.000000  1
  Co  Co3  1  0.508728  0.064242  0.000000  1
  Co  Co4  1  0.555513  0.491272  0.000000  1
  P  P5  1  0.968578  0.222629  0.000000  1
  P  P6  1  0.254051  0.031422  0.000000  1
  P  P7  1  0.777371  0.745949  0.000000  1
  P  P8  1  0.065234  0.617961  0.500000  1
  P  P9  1  0.552726  0.934766  0.500000  1
  P  P10  1  0.382039  0.447274  0.500000  1
  P  P11  1  0.666667  0.333333  0.000000  1
  Ru  Ru12  1  0.730929  0.970784  0.000000  1
  Ru  Ru13  1  0.239855  0.269071  0.000000  1
  Ru  Ru14  1  0.029216  0.760145  0.000000  1
  Ru  Ru15  1  0.100230  0.382964  0.500000  1
  Ru  Ru16  1  0.282733  0.899770  0.500000  1
  Ru  Ru17  1  0.617036  0.717267  0.500000  1
  Ru  Ru18  1  0.752258  0.213469  0.500000  1
  Ru  Ru19  1  0.461212  0.247742  0.500000  1
  Ru  Ru20  1  0.786531  0.538788  0.500000  1
