# generated using pymatgen
data_DyLu4(In2Cu)2
_symmetry_space_group_name_H-M   'P 1'
_cell_length_a   3.59016800
_cell_length_b   7.93798400
_cell_length_c   17.77160200
_cell_angle_alpha   90.00000000
_cell_angle_beta   90.00000000
_cell_angle_gamma   90.00000000
_symmetry_Int_Tables_number   1
_chemical_formula_structural   DyLu4(In2Cu)2
_chemical_formula_sum   'Dy2 Lu8 In8 Cu4'
_cell_volume   506.46748534
_cell_formula_units_Z   2
loop_
 _symmetry_equiv_pos_site_id
 _symmetry_equiv_pos_as_xyz
  1  'x, y, z'
loop_
 _atom_site_type_symbol
 _atom_site_label
 _atom_site_symmetry_multiplicity
 _atom_site_fract_x
 _atom_site_fract_y
 _atom_site_fract_z
 _atom_site_occupancy
  Dy  Dy0  1  0.000000  0.500000  0.500000  1
  Dy  Dy1  1  0.000000  0.000000  0.000000  1
  Lu  Lu2  1  0.000000  0.740476  0.280085  1
  Lu  Lu3  1  0.000000  0.259524  0.719915  1
  Lu  Lu4  1  0.000000  0.759524  0.780085  1
  Lu  Lu5  1  0.000000  0.240476  0.219915  1
  Lu  Lu6  1  0.000000  0.618202  0.084147  1
  Lu  Lu7  1  0.000000  0.381798  0.915853  1
  Lu  Lu8  1  0.000000  0.881798  0.584147  1
  Lu  Lu9  1  0.000000  0.118202  0.415853  1
  In  In10  1  0.500000  0.704948  0.932019  1
  In  In11  1  0.500000  0.295052  0.067981  1
  In  In12  1  0.500000  0.795052  0.432019  1
  In  In13  1  0.500000  0.204948  0.567981  1
  In  In14  1  0.500000  0.580218  0.651375  1
  In  In15  1  0.500000  0.419782  0.348625  1
  In  In16  1  0.500000  0.919782  0.151375  1
  In  In17  1  0.500000  0.080218  0.848625  1
  Cu  Cu18  1  0.500000  0.524897  0.196960  1
  Cu  Cu19  1  0.500000  0.475103  0.803040  1
  Cu  Cu20  1  0.500000  0.975103  0.696960  1
  Cu  Cu21  1  0.500000  0.024897  0.303040  1
