# generated using pymatgen
data_Sc2(NiP)3
_symmetry_space_group_name_H-M   'P 1'
_cell_length_a   3.64958000
_cell_length_b   9.98407409
_cell_length_c   12.24902611
_cell_angle_alpha   90.01521253
_cell_angle_beta   90.00000000
_cell_angle_gamma   90.00000000
_symmetry_Int_Tables_number   1
_chemical_formula_structural   Sc2(NiP)3
_chemical_formula_sum   'Sc8 Ni12 P12'
_cell_volume   446.32604250
_cell_formula_units_Z   4
loop_
 _symmetry_equiv_pos_site_id
 _symmetry_equiv_pos_as_xyz
  1  'x, y, z'
loop_
 _atom_site_type_symbol
 _atom_site_label
 _atom_site_symmetry_multiplicity
 _atom_site_fract_x
 _atom_site_fract_y
 _atom_site_fract_z
 _atom_site_occupancy
  Sc  Sc0  1  0.250000  0.072179  0.213451  1
  Sc  Sc1  1  0.750000  0.927906  0.786523  1
  Sc  Sc2  1  0.750000  0.571986  0.286608  1
  Sc  Sc3  1  0.250000  0.427971  0.713406  1
  Sc  Sc4  1  0.250000  0.158768  0.496742  1
  Sc  Sc5  1  0.750000  0.841268  0.503261  1
  Sc  Sc6  1  0.750000  0.658709  0.003287  1
  Sc  Sc7  1  0.250000  0.341288  0.996744  1
  Ni  Ni8  1  0.250000  0.725761  0.665062  1
  Ni  Ni9  1  0.750000  0.274189  0.334955  1
  Ni  Ni10  1  0.750000  0.225792  0.834975  1
  Ni  Ni11  1  0.250000  0.774151  0.164932  1
  Ni  Ni12  1  0.250000  0.365121  0.217973  1
  Ni  Ni13  1  0.750000  0.634919  0.782049  1
  Ni  Ni14  1  0.750000  0.865064  0.282031  1
  Ni  Ni15  1  0.250000  0.134921  0.717974  1
  Ni  Ni16  1  0.250000  0.594341  0.481498  1
  Ni  Ni17  1  0.750000  0.405684  0.518515  1
  Ni  Ni18  1  0.750000  0.094338  0.018426  1
  Ni  Ni19  1  0.250000  0.905664  0.981624  1
  P  P20  1  0.250000  0.944842  0.625802  1
  P  P21  1  0.750000  0.055112  0.374174  1
  P  P22  1  0.750000  0.444882  0.874213  1
  P  P23  1  0.250000  0.555107  0.125773  1
  P  P24  1  0.250000  0.396947  0.397442  1
  P  P25  1  0.750000  0.603069  0.602600  1
  P  P26  1  0.750000  0.896981  0.102567  1
  P  P27  1  0.250000  0.102986  0.897417  1
  P  P28  1  0.250000  0.764042  0.354553  1
  P  P29  1  0.750000  0.236000  0.645425  1
  P  P30  1  0.750000  0.264032  0.145393  1
  P  P31  1  0.250000  0.735977  0.854604  1
