# generated using pymatgen
data_ErRe2BC
_symmetry_space_group_name_H-M   'P 1'
_cell_length_a   5.78431255
_cell_length_b   5.78431304
_cell_length_c   7.22831400
_cell_angle_alpha   90.00000000
_cell_angle_beta   90.00000000
_cell_angle_gamma   145.66158398
_symmetry_Int_Tables_number   1
_chemical_formula_structural   ErRe2BC
_chemical_formula_sum   'Er2 Re4 B2 C2'
_cell_volume   136.42096123
_cell_formula_units_Z   2
loop_
 _symmetry_equiv_pos_site_id
 _symmetry_equiv_pos_as_xyz
  1  'x, y, z'
loop_
 _atom_site_type_symbol
 _atom_site_label
 _atom_site_symmetry_multiplicity
 _atom_site_fract_x
 _atom_site_fract_y
 _atom_site_fract_z
 _atom_site_occupancy
  Er  Er0  1  0.544797  0.455203  0.250000  1
  Er  Er1  1  0.455203  0.544797  0.750000  1
  Re  Re2  1  0.827733  0.172267  0.066271  1
  Re  Re3  1  0.172267  0.827733  0.933729  1
  Re  Re4  1  0.172267  0.827733  0.566271  1
  Re  Re5  1  0.827733  0.172267  0.433729  1
  B  B6  1  0.260024  0.739976  0.250000  1
  B  B7  1  0.739976  0.260024  0.750000  1
  C  C8  1  0.000000  0.000000  0.000000  1
  C  C9  1  0.000000  0.000000  0.500000  1
