# generated using pymatgen
data_Dy2Er6In3Ru
_symmetry_space_group_name_H-M   'P 1'
_cell_length_a   10.33059600
_cell_length_b   10.32973058
_cell_length_c   7.02959611
_cell_angle_alpha   90.02059773
_cell_angle_beta   90.00000000
_cell_angle_gamma   120.00277143
_symmetry_Int_Tables_number   1
_chemical_formula_structural   Dy2Er6In3Ru
_chemical_formula_sum   'Dy4 Er12 In6 Ru2'
_cell_volume   649.62571877
_cell_formula_units_Z   2
loop_
 _symmetry_equiv_pos_site_id
 _symmetry_equiv_pos_as_xyz
  1  'x, y, z'
loop_
 _atom_site_type_symbol
 _atom_site_label
 _atom_site_symmetry_multiplicity
 _atom_site_fract_x
 _atom_site_fract_y
 _atom_site_fract_z
 _atom_site_occupancy
  Dy  Dy0  1  0.532830  0.065659  0.793914  1
  Dy  Dy1  1  0.934755  0.467366  0.794382  1
  Dy  Dy2  1  0.532612  0.467366  0.794382  1
  Dy  Dy3  1  0.466879  0.933757  0.294098  1
  Er  Er4  1  0.066718  0.533237  0.294573  1
  Er  Er5  1  0.466519  0.533237  0.294573  1
  Er  Er6  1  0.822768  0.645537  0.497480  1
  Er  Er7  1  0.353966  0.177300  0.497671  1
  Er  Er8  1  0.823334  0.177300  0.497671  1
  Er  Er9  1  0.177201  0.354402  0.998842  1
  Er  Er10  1  0.645971  0.822744  0.998561  1
  Er  Er11  1  0.176773  0.822744  0.998561  1
  Er  Er12  1  0.666938  0.333875  0.173104  1
  Er  Er13  1  0.333046  0.666093  0.672867  1
  Er  Er14  1  0.000092  0.000183  0.778165  1
  Er  Er15  1  0.000014  0.000027  0.278326  1
  In  In16  1  0.837337  0.674677  0.040493  1
  In  In17  1  0.325391  0.162763  0.040519  1
  In  In18  1  0.837371  0.162763  0.040519  1
  In  In19  1  0.162906  0.325811  0.540097  1
  In  In20  1  0.674370  0.836916  0.540322  1
  In  In21  1  0.162546  0.836916  0.540322  1
  Ru  Ru22  1  0.666613  0.333225  0.567824  1
  Ru  Ru23  1  0.333050  0.666100  0.068640  1
