# generated using pymatgen
data_Na2Cu18Si7Ge
_symmetry_space_group_name_H-M   'P 1'
_cell_length_a   8.18958685
_cell_length_b   8.18958669
_cell_length_c   8.21383885
_cell_angle_alpha   120.71220039
_cell_angle_beta   120.71218757
_cell_angle_gamma   88.84401355
_symmetry_Int_Tables_number   1
_chemical_formula_structural   Na2Cu18Si7Ge
_chemical_formula_sum   'Na2 Cu18 Si7 Ge1'
_cell_volume   385.01164131
_cell_formula_units_Z   1
loop_
 _symmetry_equiv_pos_site_id
 _symmetry_equiv_pos_as_xyz
  1  'x, y, z'
loop_
 _atom_site_type_symbol
 _atom_site_label
 _atom_site_symmetry_multiplicity
 _atom_site_fract_x
 _atom_site_fract_y
 _atom_site_fract_z
 _atom_site_occupancy
  Na  Na0  1  0.750995  0.749894  0.999930  1
  Na  Na1  1  0.249894  0.250995  0.999930  1
  Cu  Cu2  1  0.688920  0.443067  0.501294  1
  Cu  Cu3  1  0.441997  0.941997  0.741935  1
  Cu  Cu4  1  0.188767  0.688767  0.246963  1
  Cu  Cu5  1  0.565772  0.065772  0.264029  1
  Cu  Cu6  1  0.943067  0.188920  0.501294  1
  Cu  Cu7  1  0.200695  0.932594  0.138263  1
  Cu  Cu8  1  0.798096  0.068226  0.864407  1
  Cu  Cu9  1  0.432594  0.700695  0.138263  1
  Cu  Cu10  1  0.568226  0.298096  0.864407  1
  Cu  Cu11  1  0.703210  0.565461  0.270106  1
  Cu  Cu12  1  0.295378  0.430477  0.729134  1
  Cu  Cu13  1  0.930477  0.795378  0.729134  1
  Cu  Cu14  1  0.309449  0.553406  0.492885  1
  Cu  Cu15  1  0.810976  0.310976  0.753163  1
  Cu  Cu16  1  0.998070  0.498070  0.498523  1
  Cu  Cu17  1  0.500290  0.000290  0.499660  1
  Cu  Cu18  1  0.065461  0.203210  0.270106  1
  Cu  Cu19  1  0.053406  0.809449  0.492885  1
  Si  Si20  1  0.057869  0.557869  0.849265  1
  Si  Si21  1  0.558554  0.708388  0.498200  1
  Si  Si22  1  0.791511  0.940892  0.501923  1
  Si  Si23  1  0.440892  0.291511  0.501923  1
  Si  Si24  1  0.940945  0.440945  0.150613  1
  Si  Si25  1  0.706200  0.206200  0.148106  1
  Si  Si26  1  0.208388  0.058554  0.498200  1
  Ge  Ge27  1  0.299900  0.799900  0.855459  1
