# generated using pymatgen
data_LuZr(ScRu2)2
_symmetry_space_group_name_H-M   'P 1'
_cell_length_a   6.54067700
_cell_length_b   4.59539500
_cell_length_c   9.23703900
_cell_angle_alpha   90.00000000
_cell_angle_beta   90.00000000
_cell_angle_gamma   90.00000000
_symmetry_Int_Tables_number   1
_chemical_formula_structural   LuZr(ScRu2)2
_chemical_formula_sum   'Lu2 Zr2 Sc4 Ru8'
_cell_volume   277.63762933
_cell_formula_units_Z   2
loop_
 _symmetry_equiv_pos_site_id
 _symmetry_equiv_pos_as_xyz
  1  'x, y, z'
loop_
 _atom_site_type_symbol
 _atom_site_label
 _atom_site_symmetry_multiplicity
 _atom_site_fract_x
 _atom_site_fract_y
 _atom_site_fract_z
 _atom_site_occupancy
  Lu  Lu0  1  0.749871  0.250000  0.125327  1
  Lu  Lu1  1  0.249872  0.750000  0.374672  1
  Zr  Zr2  1  0.750136  0.250000  0.623974  1
  Zr  Zr3  1  0.250135  0.750000  0.876025  1
  Sc  Sc4  1  0.249860  0.250000  0.125219  1
  Sc  Sc5  1  0.749861  0.750000  0.374781  1
  Sc  Sc6  1  0.250146  0.250000  0.624809  1
  Sc  Sc7  1  0.750145  0.750000  0.875192  1
  Ru  Ru8  1  0.497575  0.750000  0.121241  1
  Ru  Ru9  1  0.002225  0.750000  0.121256  1
  Ru  Ru10  1  0.502224  0.250000  0.378745  1
  Ru  Ru11  1  0.997575  0.250000  0.378759  1
  Ru  Ru12  1  0.997037  0.750000  0.628545  1
  Ru  Ru13  1  0.503151  0.750000  0.628524  1
  Ru  Ru14  1  0.003151  0.250000  0.871477  1
  Ru  Ru15  1  0.497036  0.250000  0.871455  1
