# generated using pymatgen
data_Dy3Cu6Ni7B2
_symmetry_space_group_name_H-M   'P 1'
_cell_length_a   5.02424581
_cell_length_b   5.01666856
_cell_length_c   10.93480500
_cell_angle_alpha   90.00000000
_cell_angle_beta   90.00000000
_cell_angle_gamma   119.95011563
_symmetry_Int_Tables_number   1
_chemical_formula_structural   Dy3Cu6Ni7B2
_chemical_formula_sum   'Dy3 Cu6 Ni7 B2'
_cell_volume   238.80644790
_cell_formula_units_Z   1
loop_
 _symmetry_equiv_pos_site_id
 _symmetry_equiv_pos_as_xyz
  1  'x, y, z'
loop_
 _atom_site_type_symbol
 _atom_site_label
 _atom_site_symmetry_multiplicity
 _atom_site_fract_x
 _atom_site_fract_y
 _atom_site_fract_z
 _atom_site_occupancy
  Dy  Dy0  1  0.000000  0.000000  0.000000  1
  Dy  Dy1  1  0.000000  0.000000  0.678464  1
  Dy  Dy2  1  0.000000  0.000000  0.321536  1
  Cu  Cu3  1  0.500000  0.500000  0.500000  1
  Cu  Cu4  1  0.500000  0.000000  0.500000  1
  Cu  Cu5  1  0.669599  0.334799  0.684613  1
  Cu  Cu6  1  0.330401  0.665201  0.684613  1
  Cu  Cu7  1  0.330401  0.665201  0.315387  1
  Cu  Cu8  1  0.669599  0.334799  0.315387  1
  Ni  Ni9  1  0.000000  0.500000  0.500000  1
  Ni  Ni10  1  0.500000  0.500000  0.870319  1
  Ni  Ni11  1  0.500000  0.000000  0.870319  1
  Ni  Ni12  1  0.000000  0.500000  0.870503  1
  Ni  Ni13  1  0.500000  0.500000  0.129681  1
  Ni  Ni14  1  0.500000  0.000000  0.129681  1
  Ni  Ni15  1  0.000000  0.500000  0.129497  1
  B  B16  1  0.666456  0.333228  0.000000  1
  B  B17  1  0.333544  0.666772  0.000000  1
