# generated using pymatgen
data_TbTm5Al15Si9Ru8
_symmetry_space_group_name_H-M   'P 1'
_cell_length_a   8.64781333
_cell_length_b   8.64781228
_cell_length_c   9.34078300
_cell_angle_alpha   90.00000000
_cell_angle_beta   90.00000000
_cell_angle_gamma   119.93747073
_symmetry_Int_Tables_number   1
_chemical_formula_structural   TbTm5Al15Si9Ru8
_chemical_formula_sum   'Tb1 Tm5 Al15 Si9 Ru8'
_cell_volume   605.34055875
_cell_formula_units_Z   1
loop_
 _symmetry_equiv_pos_site_id
 _symmetry_equiv_pos_as_xyz
  1  'x, y, z'
loop_
 _atom_site_type_symbol
 _atom_site_label
 _atom_site_symmetry_multiplicity
 _atom_site_fract_x
 _atom_site_fract_y
 _atom_site_fract_z
 _atom_site_occupancy
  Tb  Tb0  1  0.808794  0.191206  0.750000  1
  Tm  Tm1  1  0.192804  0.807196  0.250000  1
  Tm  Tm2  1  0.388343  0.194923  0.750000  1
  Tm  Tm3  1  0.611658  0.802953  0.250000  1
  Tm  Tm4  1  0.805077  0.611657  0.750000  1
  Tm  Tm5  1  0.197047  0.388342  0.250000  1
  Al  Al6  1  0.835816  0.164184  0.419859  1
  Al  Al7  1  0.165506  0.834494  0.580878  1
  Al  Al8  1  0.328086  0.163538  0.421399  1
  Al  Al9  1  0.165506  0.834494  0.919122  1
  Al  Al10  1  0.666811  0.832861  0.579305  1
  Al  Al11  1  0.835816  0.164184  0.080141  1
  Al  Al12  1  0.836462  0.671914  0.421399  1
  Al  Al13  1  0.666811  0.832861  0.920695  1
  Al  Al14  1  0.167139  0.333189  0.579305  1
  Al  Al15  1  0.328086  0.163538  0.078601  1
  Al  Al16  1  0.167139  0.333189  0.920695  1
  Al  Al17  1  0.836462  0.671914  0.078601  1
  Al  Al18  1  0.874529  0.439827  0.250000  1
  Al  Al19  1  0.560173  0.125471  0.250000  1
  Al  Al20  1  0.999591  0.000409  0.250000  1
  Si  Si21  1  0.667213  0.332787  0.960276  1
  Si  Si22  1  0.332296  0.667704  0.043524  1
  Si  Si23  1  0.332296  0.667704  0.456476  1
  Si  Si24  1  0.667213  0.332787  0.539724  1
  Si  Si25  1  0.438966  0.561034  0.750000  1
  Si  Si26  1  0.562815  0.437185  0.250000  1
  Si  Si27  1  0.124677  0.563858  0.750000  1
  Si  Si28  1  0.436142  0.875323  0.750000  1
  Si  Si29  1  0.003339  0.996661  0.750000  1
  Ru  Ru30  1  0.498905  0.501095  0.998575  1
  Ru  Ru31  1  0.002664  0.502487  0.993660  1
  Ru  Ru32  1  0.498905  0.501095  0.501425  1
  Ru  Ru33  1  0.497513  0.997336  0.993660  1
  Ru  Ru34  1  0.002664  0.502487  0.506340  1
  Ru  Ru35  1  0.497513  0.997336  0.506340  1
  Ru  Ru36  1  0.999612  0.000388  0.992510  1
  Ru  Ru37  1  0.999612  0.000388  0.507490  1
