# generated using pymatgen
data_Tb4Cr3ReB16
_symmetry_space_group_name_H-M   'P 1'
_cell_length_a   5.96114103
_cell_length_b   11.52111470
_cell_length_c   3.50929800
_cell_angle_alpha   90.00000000
_cell_angle_beta   90.00000000
_cell_angle_gamma   89.90626952
_symmetry_Int_Tables_number   1
_chemical_formula_structural   Tb4Cr3ReB16
_chemical_formula_sum   'Tb4 Cr3 Re1 B16'
_cell_volume   241.01471806
_cell_formula_units_Z   1
loop_
 _symmetry_equiv_pos_site_id
 _symmetry_equiv_pos_as_xyz
  1  'x, y, z'
loop_
 _atom_site_type_symbol
 _atom_site_label
 _atom_site_symmetry_multiplicity
 _atom_site_fract_x
 _atom_site_fract_y
 _atom_site_fract_z
 _atom_site_occupancy
  Tb  Tb0  1  0.623725  0.351566  0.000000  1
  Tb  Tb1  1  0.375879  0.650189  0.000000  1
  Tb  Tb2  1  0.125724  0.152112  0.000000  1
  Tb  Tb3  1  0.875718  0.847502  0.000000  1
  Cr  Cr4  1  0.372454  0.917074  0.000000  1
  Cr  Cr5  1  0.123724  0.419070  0.000000  1
  Cr  Cr6  1  0.876506  0.580573  0.000000  1
  Re  Re7  1  0.627009  0.083262  0.000000  1
  B  B8  1  0.783470  0.186099  0.500000  1
  B  B9  1  0.218398  0.815073  0.500000  1
  B  B10  1  0.281271  0.317012  0.500000  1
  B  B11  1  0.718679  0.683332  0.500000  1
  B  B12  1  0.864229  0.031495  0.500000  1
  B  B13  1  0.137336  0.966587  0.500000  1
  B  B14  1  0.362298  0.467973  0.500000  1
  B  B15  1  0.638124  0.532672  0.500000  1
  B  B16  1  0.887203  0.453791  0.500000  1
  B  B17  1  0.113395  0.546694  0.500000  1
  B  B18  1  0.384420  0.045786  0.500000  1
  B  B19  1  0.612182  0.951621  0.500000  1
  B  B20  1  0.976104  0.309647  0.500000  1
  B  B21  1  0.024438  0.690672  0.500000  1
  B  B22  1  0.473394  0.192520  0.500000  1
  B  B23  1  0.524322  0.807673  0.500000  1
