# generated using pymatgen
data_PrNd(Zn9Ag2)2
_symmetry_space_group_name_H-M   'P 1'
_cell_length_a   8.40671222
_cell_length_b   8.40671125
_cell_length_c   8.40871327
_cell_angle_alpha   99.84062175
_cell_angle_beta   99.50121581
_cell_angle_gamma   131.60150199
_symmetry_Int_Tables_number   1
_chemical_formula_structural   PrNd(Zn9Ag2)2
_chemical_formula_sum   'Pr1 Nd1 Zn18 Ag4'
_cell_volume   405.34820674
_cell_formula_units_Z   1
loop_
 _symmetry_equiv_pos_site_id
 _symmetry_equiv_pos_as_xyz
  1  'x, y, z'
loop_
 _atom_site_type_symbol
 _atom_site_label
 _atom_site_symmetry_multiplicity
 _atom_site_fract_x
 _atom_site_fract_y
 _atom_site_fract_z
 _atom_site_occupancy
  Pr  Pr0  1  0.248626  0.748627  0.500000  1
  Nd  Nd1  1  0.001057  0.001057  0.999999  1
  Zn  Zn2  1  0.625703  0.378812  0.748550  1
  Zn  Zn3  1  0.125259  0.374029  0.746107  1
  Zn  Zn4  1  0.627921  0.379151  0.253892  1
  Zn  Zn5  1  0.630262  0.877153  0.251451  1
  Zn  Zn6  1  0.180465  0.098277  0.669714  1
  Zn  Zn7  1  0.759139  0.931379  0.584648  1
  Zn  Zn8  1  0.346732  0.174491  0.415352  1
  Zn  Zn9  1  0.428562  0.510750  0.330286  1
  Zn  Zn10  1  0.904497  0.819488  0.328004  1
  Zn  Zn11  1  0.491484  0.576494  0.671996  1
  Zn  Zn12  1  0.069136  0.241927  0.413554  1
  Zn  Zn13  1  0.828372  0.655582  0.586446  1
  Zn  Zn14  1  0.063196  0.645101  0.827124  1
  Zn  Zn15  1  0.490500  0.815773  0.916473  1
  Zn  Zn16  1  0.899300  0.574027  0.083527  1
  Zn  Zn17  1  0.817977  0.236073  0.172877  1
  Zn  Zn18  1  0.348086  0.934594  0.176543  1
  Zn  Zn19  1  0.758050  0.171542  0.823456  1
  Ag  Ag20  1  0.420864  0.092721  0.913350  1
  Ag  Ag21  1  0.179371  0.507514  0.086650  1
  Ag  Ag22  1  0.505999  0.505999  0.000000  1
  Ag  Ag23  1  0.749441  0.249442  0.500000  1
