# generated using pymatgen
data_LiYAg5NO11
_symmetry_space_group_name_H-M   'P 1'
_cell_length_a   7.23018603
_cell_length_b   7.01391973
_cell_length_c   7.01392014
_cell_angle_alpha   60.07755145
_cell_angle_beta   59.87317985
_cell_angle_gamma   59.87317910
_symmetry_Int_Tables_number   1
_chemical_formula_structural   LiYAg5NO11
_chemical_formula_sum   'Li1 Y1 Ag5 N1 O11'
_cell_volume   251.17350778
_cell_formula_units_Z   1
loop_
 _symmetry_equiv_pos_site_id
 _symmetry_equiv_pos_as_xyz
  1  'x, y, z'
loop_
 _atom_site_type_symbol
 _atom_site_label
 _atom_site_symmetry_multiplicity
 _atom_site_fract_x
 _atom_site_fract_y
 _atom_site_fract_z
 _atom_site_occupancy
  Li  Li0  1  0.508160  0.996613  0.996613  1
  Y  Y1  1  0.000004  0.998776  0.998776  1
  Ag  Ag2  1  0.499541  0.499480  0.000440  1
  Ag  Ag3  1  0.499541  0.000440  0.499480  1
  Ag  Ag4  1  0.003210  0.997915  0.496812  1
  Ag  Ag5  1  0.991774  0.498989  0.498989  1
  Ag  Ag6  1  0.003210  0.496812  0.997915  1
  N  N7  1  0.497954  0.504462  0.504462  1
  O  O8  1  0.591717  0.139661  0.139661  1
  O  O9  1  0.146681  0.575920  0.134770  1
  O  O10  1  0.134610  0.136180  0.136180  1
  O  O11  1  0.146681  0.134770  0.575920  1
  O  O12  1  0.601122  0.638585  0.324506  1
  O  O13  1  0.601122  0.324506  0.638585  1
  O  O14  1  0.288604  0.552654  0.552654  1
  O  O15  1  0.851941  0.864880  0.421026  1
  O  O16  1  0.851941  0.421026  0.864880  1
  O  O17  1  0.874092  0.857872  0.857872  1
  O  O18  1  0.408097  0.860459  0.860459  1
