# generated using pymatgen
data_Nd8Cd2PdRu
_symmetry_space_group_name_H-M   'P 1'
_cell_length_a   9.96826192
_cell_length_b   9.96826213
_cell_length_c   10.02751200
_cell_angle_alpha   59.80318343
_cell_angle_beta   59.80318272
_cell_angle_gamma   59.82083000
_symmetry_Int_Tables_number   1
_chemical_formula_structural   Nd8Cd2PdRu
_chemical_formula_sum   'Nd16 Cd4 Pd2 Ru2'
_cell_volume   701.50484328
_cell_formula_units_Z   2
loop_
 _symmetry_equiv_pos_site_id
 _symmetry_equiv_pos_as_xyz
  1  'x, y, z'
loop_
 _atom_site_type_symbol
 _atom_site_label
 _atom_site_symmetry_multiplicity
 _atom_site_fract_x
 _atom_site_fract_y
 _atom_site_fract_z
 _atom_site_occupancy
  Nd  Nd0  1  0.347828  0.347828  0.356447  1
  Nd  Nd1  1  0.347828  0.347828  0.947897  1
  Nd  Nd2  1  0.344197  0.953997  0.350903  1
  Nd  Nd3  1  0.953997  0.344197  0.350903  1
  Nd  Nd4  1  0.816053  0.189646  0.190960  1
  Nd  Nd5  1  0.189646  0.816053  0.803341  1
  Nd  Nd6  1  0.189646  0.816053  0.190960  1
  Nd  Nd7  1  0.816053  0.189646  0.803341  1
  Nd  Nd8  1  0.189244  0.189244  0.810756  1
  Nd  Nd9  1  0.806891  0.806891  0.193109  1
  Nd  Nd10  1  0.936931  0.559179  0.565513  1
  Nd  Nd11  1  0.559179  0.936931  0.938376  1
  Nd  Nd12  1  0.559179  0.936931  0.565513  1
  Nd  Nd13  1  0.936931  0.559179  0.938376  1
  Nd  Nd14  1  0.562927  0.562927  0.937073  1
  Nd  Nd15  1  0.938310  0.938310  0.561690  1
  Cd  Cd16  1  0.580111  0.580111  0.580271  1
  Cd  Cd17  1  0.580111  0.580111  0.259508  1
  Cd  Cd18  1  0.581170  0.257705  0.580563  1
  Cd  Cd19  1  0.257705  0.581170  0.580563  1
  Pd  Pd20  1  0.146478  0.572173  0.140674  1
  Pd  Pd21  1  0.572173  0.146478  0.140674  1
  Ru  Ru22  1  0.143706  0.143706  0.137389  1
  Ru  Ru23  1  0.143706  0.143706  0.575199  1
