# generated using pymatgen
data_YHo(Sc3Bi2)6
_symmetry_space_group_name_H-M   'P 1'
_cell_length_a   7.83130707
_cell_length_b   9.03286800
_cell_length_c   11.46471310
_cell_angle_alpha   90.00000000
_cell_angle_beta   89.98509336
_cell_angle_gamma   90.00000000
_symmetry_Int_Tables_number   1
_chemical_formula_structural   YHo(Sc3Bi2)6
_chemical_formula_sum   'Y1 Ho1 Sc18 Bi12'
_cell_volume   811.00418104
_cell_formula_units_Z   1
loop_
 _symmetry_equiv_pos_site_id
 _symmetry_equiv_pos_as_xyz
  1  'x, y, z'
loop_
 _atom_site_type_symbol
 _atom_site_label
 _atom_site_symmetry_multiplicity
 _atom_site_fract_x
 _atom_site_fract_y
 _atom_site_fract_z
 _atom_site_occupancy
  Y  Y0  1  0.684583  0.750000  0.780704  1
  Ho  Ho1  1  0.184691  0.750000  0.719100  1
  Sc  Sc2  1  0.351568  0.750000  0.221284  1
  Sc  Sc3  1  0.851625  0.750000  0.278733  1
  Sc  Sc4  1  0.649637  0.250000  0.782126  1
  Sc  Sc5  1  0.149674  0.250000  0.717856  1
  Sc  Sc6  1  0.694442  0.566593  0.061985  1
  Sc  Sc7  1  0.194482  0.933359  0.438127  1
  Sc  Sc8  1  0.306558  0.067931  0.940320  1
  Sc  Sc9  1  0.806513  0.432046  0.559650  1
  Sc  Sc10  1  0.306558  0.432069  0.940320  1
  Sc  Sc11  1  0.806513  0.067954  0.559650  1
  Sc  Sc12  1  0.694442  0.933407  0.061985  1
  Sc  Sc13  1  0.194482  0.566641  0.438127  1
  Sc  Sc14  1  0.479506  0.250000  0.486723  1
  Sc  Sc15  1  0.979543  0.250000  0.013301  1
  Sc  Sc16  1  0.518585  0.750000  0.508576  1
  Sc  Sc17  1  0.018937  0.750000  0.991355  1
  Sc  Sc18  1  0.313827  0.250000  0.218237  1
  Sc  Sc19  1  0.813836  0.250000  0.281754  1
  Bi  Bi20  1  0.401736  0.750000  0.966727  1
  Bi  Bi21  1  0.902258  0.750000  0.533418  1
  Bi  Bi22  1  0.594108  0.250000  0.040387  1
  Bi  Bi23  1  0.094084  0.250000  0.459604  1
  Bi  Bi24  1  0.566461  0.996289  0.325654  1
  Bi  Bi25  1  0.066443  0.503712  0.174355  1
  Bi  Bi26  1  0.435182  0.489531  0.671229  1
  Bi  Bi27  1  0.935822  0.010567  0.828738  1
  Bi  Bi28  1  0.435182  0.010469  0.671229  1
  Bi  Bi29  1  0.935822  0.489433  0.828738  1
  Bi  Bi30  1  0.566461  0.503711  0.325654  1
  Bi  Bi31  1  0.066443  0.996288  0.174355  1
