# generated using pymatgen
data_CeThNpAs3
_symmetry_space_group_name_H-M   'P 1'
_cell_length_a   4.22989600
_cell_length_b   4.22989566
_cell_length_c   10.22343500
_cell_angle_alpha   90.00000000
_cell_angle_beta   90.00000000
_cell_angle_gamma   120.00000265
_symmetry_Int_Tables_number   1
_chemical_formula_structural   CeThNpAs3
_chemical_formula_sum   'Ce1 Th1 Np1 As3'
_cell_volume   158.41153582
_cell_formula_units_Z   1
loop_
 _symmetry_equiv_pos_site_id
 _symmetry_equiv_pos_as_xyz
  1  'x, y, z'
loop_
 _atom_site_type_symbol
 _atom_site_label
 _atom_site_symmetry_multiplicity
 _atom_site_fract_x
 _atom_site_fract_y
 _atom_site_fract_z
 _atom_site_occupancy
  Ce  Ce0  1  0.000000  0.000000  0.994052  1
  Th  Th1  1  0.666667  0.333333  0.337104  1
  Np  Np2  1  0.333333  0.666667  0.668516  1
  As  As3  1  0.333333  0.666667  0.164635  1
  As  As4  1  0.666667  0.333333  0.828070  1
  As  As5  1  0.000000  0.000000  0.507623  1
