# generated using pymatgen
data_Er5Hf2P12Ir17
_symmetry_space_group_name_H-M   'P 1'
_cell_length_a   12.64185900
_cell_length_b   12.87854836
_cell_length_c   3.96731700
_cell_angle_alpha   90.00000000
_cell_angle_beta   90.00000000
_cell_angle_gamma   119.39388386
_symmetry_Int_Tables_number   1
_chemical_formula_structural   Er5Hf2P12Ir17
_chemical_formula_sum   'Er5 Hf2 P12 Ir17'
_cell_volume   562.76312036
_cell_formula_units_Z   1
loop_
 _symmetry_equiv_pos_site_id
 _symmetry_equiv_pos_as_xyz
  1  'x, y, z'
loop_
 _atom_site_type_symbol
 _atom_site_label
 _atom_site_symmetry_multiplicity
 _atom_site_fract_x
 _atom_site_fract_y
 _atom_site_fract_z
 _atom_site_occupancy
  Er  Er0  1  0.330304  0.661496  0.500000  1
  Er  Er1  1  0.668809  0.338504  0.500000  1
  Er  Er2  1  0.999914  0.815517  0.000000  1
  Er  Er3  1  0.184397  0.184483  0.000000  1
  Er  Er4  1  0.813040  0.000000  0.000000  1
  Hf  Hf5  1  0.997524  0.447095  0.500000  1
  Hf  Hf6  1  0.550428  0.552905  0.500000  1
  P  P7  1  0.005440  0.651619  0.500000  1
  P  P8  1  0.353820  0.348381  0.500000  1
  P  P9  1  0.645806  0.000000  0.500000  1
  P  P10  1  0.514609  0.685949  0.000000  1
  P  P11  1  0.309938  0.824809  0.000000  1
  P  P12  1  0.164758  0.481375  0.000000  1
  P  P13  1  0.485129  0.175191  0.000000  1
  P  P14  1  0.683383  0.518625  0.000000  1
  P  P15  1  0.828660  0.314051  0.000000  1
  P  P16  1  0.999435  0.173520  0.500000  1
  P  P17  1  0.825914  0.826480  0.500000  1
  P  P18  1  0.181247  0.000000  0.500000  1
  Ir  Ir19  1  0.504699  0.864148  0.000000  1
  Ir  Ir20  1  0.127665  0.642645  0.000000  1
  Ir  Ir21  1  0.355892  0.496264  0.000000  1
  Ir  Ir22  1  0.485021  0.357355  0.000000  1
  Ir  Ir23  1  0.859630  0.503736  0.000000  1
  Ir  Ir24  1  0.640553  0.135852  0.000000  1
  Ir  Ir25  1  0.465220  0.000000  0.500000  1
  Ir  Ir26  1  0.996985  0.279227  0.000000  1
  Ir  Ir27  1  0.717759  0.720773  0.000000  1
  Ir  Ir28  1  0.289590  0.000000  0.000000  1
  Ir  Ir29  1  0.624315  0.807894  0.500000  1
  Ir  Ir30  1  0.203382  0.825248  0.500000  1
  Ir  Ir31  1  0.177481  0.366515  0.500000  1
  Ir  Ir32  1  0.378134  0.174752  0.500000  1
  Ir  Ir33  1  0.810966  0.633485  0.500000  1
  Ir  Ir34  1  0.816421  0.192106  0.500000  1
  Ir  Ir35  1  0.003733  0.000000  0.500000  1
