# generated using pymatgen
data_Ta4Co6SiOs
_symmetry_space_group_name_H-M   'P 1'
_cell_length_a   4.84314600
_cell_length_b   4.84314559
_cell_length_c   7.78145000
_cell_angle_alpha   90.00000000
_cell_angle_beta   90.00000000
_cell_angle_gamma   120.00000278
_symmetry_Int_Tables_number   1
_chemical_formula_structural   Ta4Co6SiOs
_chemical_formula_sum   'Ta4 Co6 Si1 Os1'
_cell_volume   158.06882935
_cell_formula_units_Z   1
loop_
 _symmetry_equiv_pos_site_id
 _symmetry_equiv_pos_as_xyz
  1  'x, y, z'
loop_
 _atom_site_type_symbol
 _atom_site_label
 _atom_site_symmetry_multiplicity
 _atom_site_fract_x
 _atom_site_fract_y
 _atom_site_fract_z
 _atom_site_occupancy
  Ta  Ta0  1  0.333333  0.666667  0.455362  1
  Ta  Ta1  1  0.666667  0.333333  0.544638  1
  Ta  Ta2  1  0.666667  0.333333  0.920710  1
  Ta  Ta3  1  0.333333  0.666667  0.079290  1
  Co  Co4  1  0.829589  0.170411  0.238187  1
  Co  Co5  1  0.829589  0.659180  0.238187  1
  Co  Co6  1  0.340820  0.170411  0.238187  1
  Co  Co7  1  0.170411  0.829589  0.761813  1
  Co  Co8  1  0.170411  0.340820  0.761813  1
  Co  Co9  1  0.659180  0.829589  0.761813  1
  Si  Si10  1  0.000000  0.000000  0.000000  1
  Os  Os11  1  0.000000  0.000000  0.500000  1
