# generated using pymatgen
data_Yb2Ce4Al17Si7Os8
_symmetry_space_group_name_H-M   'P 1'
_cell_length_a   8.67158200
_cell_length_b   8.66101947
_cell_length_c   9.50751600
_cell_angle_alpha   90.00000000
_cell_angle_beta   90.00000000
_cell_angle_gamma   120.26907652
_symmetry_Int_Tables_number   1
_chemical_formula_structural   Yb2Ce4Al17Si7Os8
_chemical_formula_sum   'Yb2 Ce4 Al17 Si7 Os8'
_cell_volume   616.71016467
_cell_formula_units_Z   1
loop_
 _symmetry_equiv_pos_site_id
 _symmetry_equiv_pos_as_xyz
  1  'x, y, z'
loop_
 _atom_site_type_symbol
 _atom_site_label
 _atom_site_symmetry_multiplicity
 _atom_site_fract_x
 _atom_site_fract_y
 _atom_site_fract_z
 _atom_site_occupancy
  Yb  Yb0  1  0.192609  0.387470  0.250000  1
  Yb  Yb1  1  0.611097  0.807060  0.250000  1
  Ce  Ce2  1  0.807935  0.617027  0.750000  1
  Ce  Ce3  1  0.384935  0.191029  0.750000  1
  Ce  Ce4  1  0.193652  0.806809  0.250000  1
  Ce  Ce5  1  0.805308  0.190330  0.750000  1
  Al  Al6  1  0.164079  0.330061  0.574621  1
  Al  Al7  1  0.833885  0.672384  0.418486  1
  Al  Al8  1  0.670976  0.835378  0.573830  1
  Al  Al9  1  0.833885  0.672384  0.081514  1
  Al  Al10  1  0.328193  0.166184  0.419978  1
  Al  Al11  1  0.164079  0.330061  0.925379  1
  Al  Al12  1  0.163519  0.834619  0.575896  1
  Al  Al13  1  0.328193  0.166184  0.080022  1
  Al  Al14  1  0.836740  0.162981  0.420799  1
  Al  Al15  1  0.670976  0.835378  0.926170  1
  Al  Al16  1  0.836740  0.162981  0.079201  1
  Al  Al17  1  0.163519  0.834619  0.924104  1
  Al  Al18  1  0.128960  0.567086  0.750000  1
  Al  Al19  1  0.561940  0.437202  0.250000  1
  Al  Al20  1  0.437008  0.569098  0.750000  1
  Al  Al21  1  0.997777  0.000833  0.250000  1
  Al  Al22  1  0.999695  0.001883  0.750000  1
  Si  Si23  1  0.335501  0.662354  0.040434  1
  Si  Si24  1  0.667284  0.334854  0.964035  1
  Si  Si25  1  0.667284  0.334854  0.535965  1
  Si  Si26  1  0.335501  0.662354  0.459566  1
  Si  Si27  1  0.568442  0.126354  0.250000  1
  Si  Si28  1  0.435510  0.870553  0.750000  1
  Si  Si29  1  0.872821  0.430560  0.250000  1
  Os  Os30  1  0.500662  0.001681  0.999546  1
  Os  Os31  1  0.997534  0.499415  0.004747  1
  Os  Os32  1  0.500662  0.001681  0.500454  1
  Os  Os33  1  0.502370  0.498272  0.996318  1
  Os  Os34  1  0.997534  0.499415  0.495253  1
  Os  Os35  1  0.502370  0.498272  0.503682  1
  Os  Os36  1  0.000413  0.000172  0.000168  1
  Os  Os37  1  0.000413  0.000172  0.499832  1
