# generated using pymatgen
data_SmLuRe4(SiC)2
_symmetry_space_group_name_H-M   'P 1'
_cell_length_a   5.83429742
_cell_length_b   5.83429783
_cell_length_c   7.24817300
_cell_angle_alpha   90.00000000
_cell_angle_beta   90.00000000
_cell_angle_gamma   140.29509476
_symmetry_Int_Tables_number   1
_chemical_formula_structural   SmLuRe4(SiC)2
_chemical_formula_sum   'Sm1 Lu1 Re4 Si2 C2'
_cell_volume   157.61353810
_cell_formula_units_Z   1
loop_
 _symmetry_equiv_pos_site_id
 _symmetry_equiv_pos_as_xyz
  1  'x, y, z'
loop_
 _atom_site_type_symbol
 _atom_site_label
 _atom_site_symmetry_multiplicity
 _atom_site_fract_x
 _atom_site_fract_y
 _atom_site_fract_z
 _atom_site_occupancy
  Sm  Sm0  1  0.543418  0.456582  0.250000  1
  Lu  Lu1  1  0.456817  0.543183  0.750000  1
  Re  Re2  1  0.827449  0.172551  0.059559  1
  Re  Re3  1  0.172939  0.827061  0.936126  1
  Re  Re4  1  0.172939  0.827061  0.563874  1
  Re  Re5  1  0.827449  0.172551  0.440441  1
  Si  Si6  1  0.266150  0.733850  0.250000  1
  Si  Si7  1  0.734283  0.265717  0.750000  1
  C  C8  1  0.999278  0.000722  0.992557  1
  C  C9  1  0.999278  0.000722  0.507443  1
