# generated using pymatgen
data_Tb7Ho6Lu3(InRh)4
_symmetry_space_group_name_H-M   'P 1'
_cell_length_a   9.62924302
_cell_length_b   9.62416626
_cell_length_c   9.61724293
_cell_angle_alpha   60.05871127
_cell_angle_beta   59.99270120
_cell_angle_gamma   59.93497658
_symmetry_Int_Tables_number   1
_chemical_formula_structural   Tb7Ho6Lu3(InRh)4
_chemical_formula_sum   'Tb7 Ho6 Lu3 In4 Rh4'
_cell_volume   630.15177104
_cell_formula_units_Z   1
loop_
 _symmetry_equiv_pos_site_id
 _symmetry_equiv_pos_as_xyz
  1  'x, y, z'
loop_
 _atom_site_type_symbol
 _atom_site_label
 _atom_site_symmetry_multiplicity
 _atom_site_fract_x
 _atom_site_fract_y
 _atom_site_fract_z
 _atom_site_occupancy
  Tb  Tb0  1  0.050027  0.649839  0.649948  1
  Tb  Tb1  1  0.439043  0.062696  0.060969  1
  Tb  Tb2  1  0.438112  0.061888  0.438112  1
  Tb  Tb3  1  0.062316  0.437684  0.062316  1
  Tb  Tb4  1  0.649948  0.650187  0.050027  1
  Tb  Tb5  1  0.187654  0.812346  0.187654  1
  Tb  Tb6  1  0.060969  0.437293  0.439043  1
  Ho  Ho7  1  0.649708  0.049560  0.650337  1
  Ho  Ho8  1  0.060846  0.062455  0.439121  1
  Ho  Ho9  1  0.439121  0.437579  0.060846  1
  Ho  Ho10  1  0.650337  0.650395  0.649708  1
  Ho  Ho11  1  0.812170  0.187391  0.187420  1
  Ho  Ho12  1  0.187420  0.813018  0.812170  1
  Lu  Lu13  1  0.811451  0.812339  0.188207  1
  Lu  Lu14  1  0.812294  0.187706  0.812294  1
  Lu  Lu15  1  0.188207  0.188004  0.811451  1
  In  In16  1  0.417524  0.416467  0.417134  1
  In  In17  1  0.417825  0.416901  0.748714  1
  In  In18  1  0.417134  0.748874  0.417524  1
  In  In19  1  0.748714  0.416559  0.417825  1
  Rh  Rh20  1  0.859350  0.423923  0.856781  1
  Rh  Rh21  1  0.856781  0.859947  0.859350  1
  Rh  Rh22  1  0.856435  0.857245  0.426615  1
  Rh  Rh23  1  0.426615  0.859707  0.856435  1
