# generated using pymatgen
data_La4Ga10Pt5Au
_symmetry_space_group_name_H-M   'P 1'
_cell_length_a   8.66156777
_cell_length_b   8.66156812
_cell_length_c   8.66156600
_cell_angle_alpha   138.43257971
_cell_angle_beta   106.37106408
_cell_angle_gamma   88.27901194
_symmetry_Int_Tables_number   1
_chemical_formula_structural   La4Ga10Pt5Au
_chemical_formula_sum   'La4 Ga10 Pt5 Au1'
_cell_volume   396.62891358
_cell_formula_units_Z   1
loop_
 _symmetry_equiv_pos_site_id
 _symmetry_equiv_pos_as_xyz
  1  'x, y, z'
loop_
 _atom_site_type_symbol
 _atom_site_label
 _atom_site_symmetry_multiplicity
 _atom_site_fract_x
 _atom_site_fract_y
 _atom_site_fract_z
 _atom_site_occupancy
  La  La0  1  0.863340  0.631589  0.231558  1
  La  La1  1  0.136665  0.368216  0.768246  1
  La  La2  1  0.400021  0.131782  0.268434  1
  La  La3  1  0.599979  0.868409  0.731761  1
  Ga  Ga4  1  0.499999  0.750005  0.250003  1
  Ga  Ga5  1  0.500007  0.249997  0.750002  1
  Ga  Ga6  1  0.227867  0.977868  0.749998  1
  Ga  Ga7  1  0.772129  0.522134  0.750000  1
  Ga  Ga8  1  0.775434  0.025434  0.250001  1
  Ga  Ga9  1  0.224563  0.474561  0.249998  1
  Ga  Ga10  1  0.044270  0.897650  0.159280  1
  Ga  Ga11  1  0.955731  0.115011  0.853381  1
  Ga  Ga12  1  0.738370  0.384992  0.340718  1
  Ga  Ga13  1  0.261632  0.602353  0.646622  1
  Pt  Pt14  1  0.999999  0.250003  0.250002  1
  Pt  Pt15  1  0.251084  0.860076  0.386990  1
  Pt  Pt16  1  0.748920  0.135927  0.609014  1
  Pt  Pt17  1  0.473087  0.364093  0.113003  1
  Pt  Pt18  1  0.526909  0.639904  0.890996  1
  Au  Au19  1  0.999994  0.749996  0.749992  1
