# generated using pymatgen
data_TbLu2(AlNi)3
_symmetry_space_group_name_H-M   'P 1'
_cell_length_a   6.94306287
_cell_length_b   6.97390931
_cell_length_c   3.79582200
_cell_angle_alpha   90.00000000
_cell_angle_beta   90.00000000
_cell_angle_gamma   120.14706528
_symmetry_Int_Tables_number   1
_chemical_formula_structural   TbLu2(AlNi)3
_chemical_formula_sum   'Tb1 Lu2 Al3 Ni3'
_cell_volume   158.93456635
_cell_formula_units_Z   1
loop_
 _symmetry_equiv_pos_site_id
 _symmetry_equiv_pos_as_xyz
  1  'x, y, z'
loop_
 _atom_site_type_symbol
 _atom_site_label
 _atom_site_symmetry_multiplicity
 _atom_site_fract_x
 _atom_site_fract_y
 _atom_site_fract_z
 _atom_site_occupancy
  Tb  Tb0  1  0.000000  0.416264  0.500000  1
  Lu  Lu1  1  0.586371  0.586551  0.500000  1
  Lu  Lu2  1  0.413629  0.000180  0.500000  1
  Al  Al3  1  0.000000  0.762726  0.000000  1
  Al  Al4  1  0.241779  0.238597  0.000000  1
  Al  Al5  1  0.758221  0.996818  0.000000  1
  Ni  Ni6  1  0.340045  0.671181  0.000000  1
  Ni  Ni7  1  0.659955  0.331135  0.000000  1
  Ni  Ni8  1  0.000000  0.996548  0.500000  1
