# generated using pymatgen
data_YbTmOs4
_symmetry_space_group_name_H-M   'P 1'
_cell_length_a   5.29593100
_cell_length_b   5.29593007
_cell_length_c   8.75392600
_cell_angle_alpha   90.00000000
_cell_angle_beta   90.00000000
_cell_angle_gamma   119.99999955
_symmetry_Int_Tables_number   1
_chemical_formula_structural   YbTmOs4
_chemical_formula_sum   'Yb2 Tm2 Os8'
_cell_volume   212.62683019
_cell_formula_units_Z   2
loop_
 _symmetry_equiv_pos_site_id
 _symmetry_equiv_pos_as_xyz
  1  'x, y, z'
loop_
 _atom_site_type_symbol
 _atom_site_label
 _atom_site_symmetry_multiplicity
 _atom_site_fract_x
 _atom_site_fract_y
 _atom_site_fract_z
 _atom_site_occupancy
  Yb  Yb0  1  0.666667  0.333333  0.939644  1
  Yb  Yb1  1  0.333333  0.666667  0.060356  1
  Tm  Tm2  1  0.333333  0.666667  0.429600  1
  Tm  Tm3  1  0.666667  0.333333  0.570400  1
  Os  Os4  1  0.000000  0.000000  0.500000  1
  Os  Os5  1  0.000000  0.000000  0.000000  1
  Os  Os6  1  0.827478  0.172522  0.251600  1
  Os  Os7  1  0.827478  0.654956  0.251600  1
  Os  Os8  1  0.345044  0.172522  0.251600  1
  Os  Os9  1  0.172522  0.827478  0.748400  1
  Os  Os10  1  0.172522  0.345044  0.748400  1
  Os  Os11  1  0.654956  0.827478  0.748400  1
