# generated using pymatgen
data_LiAc6Mg6Cd16P
_symmetry_space_group_name_H-M   'P 1'
_cell_length_a   10.31991650
_cell_length_b   10.31991667
_cell_length_c   10.31991800
_cell_angle_alpha   60.00000215
_cell_angle_beta   60.00000161
_cell_angle_gamma   60.00000346
_symmetry_Int_Tables_number   1
_chemical_formula_structural   LiAc6Mg6Cd16P
_chemical_formula_sum   'Li1 Ac6 Mg6 Cd16 P1'
_cell_volume   777.16573834
_cell_formula_units_Z   1
loop_
 _symmetry_equiv_pos_site_id
 _symmetry_equiv_pos_as_xyz
  1  'x, y, z'
loop_
 _atom_site_type_symbol
 _atom_site_label
 _atom_site_symmetry_multiplicity
 _atom_site_fract_x
 _atom_site_fract_y
 _atom_site_fract_z
 _atom_site_occupancy
  Li  Li0  1  0.500000  0.500000  0.500000  1
  Ac  Ac1  1  0.790775  0.790775  0.209225  1
  Ac  Ac2  1  0.209225  0.790775  0.209225  1
  Ac  Ac3  1  0.790775  0.209225  0.209225  1
  Ac  Ac4  1  0.209225  0.209225  0.790775  1
  Ac  Ac5  1  0.790775  0.209225  0.790775  1
  Ac  Ac6  1  0.209225  0.790775  0.790775  1
  Mg  Mg7  1  0.000000  0.000000  0.500000  1
  Mg  Mg8  1  0.500000  0.000000  0.500000  1
  Mg  Mg9  1  0.000000  0.500000  0.500000  1
  Mg  Mg10  1  0.500000  0.500000  0.000000  1
  Mg  Mg11  1  0.000000  0.500000  0.000000  1
  Mg  Mg12  1  0.500000  0.000000  0.000000  1
  Cd  Cd13  1  0.827412  0.827412  0.517765  1
  Cd  Cd14  1  0.827412  0.517765  0.827412  1
  Cd  Cd15  1  0.517765  0.827412  0.827412  1
  Cd  Cd16  1  0.827412  0.827412  0.827412  1
  Cd  Cd17  1  0.172588  0.172588  0.482235  1
  Cd  Cd18  1  0.172588  0.482235  0.172588  1
  Cd  Cd19  1  0.482235  0.172588  0.172588  1
  Cd  Cd20  1  0.172588  0.172588  0.172588  1
  Cd  Cd21  1  0.618324  0.618324  0.145029  1
  Cd  Cd22  1  0.618324  0.145029  0.618324  1
  Cd  Cd23  1  0.145029  0.618324  0.618324  1
  Cd  Cd24  1  0.618324  0.618324  0.618324  1
  Cd  Cd25  1  0.381676  0.381676  0.854971  1
  Cd  Cd26  1  0.381676  0.854971  0.381676  1
  Cd  Cd27  1  0.854971  0.381676  0.381676  1
  Cd  Cd28  1  0.381676  0.381676  0.381676  1
  P  P29  1  0.000000  0.000000  0.000000  1
