# generated using pymatgen
data_Ho3HfZn2Ir3
_symmetry_space_group_name_H-M   'P 1'
_cell_length_a   7.18551081
_cell_length_b   7.18551097
_cell_length_c   4.08487100
_cell_angle_alpha   90.00000000
_cell_angle_beta   90.00000000
_cell_angle_gamma   120.97098314
_symmetry_Int_Tables_number   1
_chemical_formula_structural   Ho3HfZn2Ir3
_chemical_formula_sum   'Ho3 Hf1 Zn2 Ir3'
_cell_volume   180.83867872
_cell_formula_units_Z   1
loop_
 _symmetry_equiv_pos_site_id
 _symmetry_equiv_pos_as_xyz
  1  'x, y, z'
loop_
 _atom_site_type_symbol
 _atom_site_label
 _atom_site_symmetry_multiplicity
 _atom_site_fract_x
 _atom_site_fract_y
 _atom_site_fract_z
 _atom_site_occupancy
  Ho  Ho0  1  0.386585  0.386585  0.500000  1
  Ho  Ho1  1  0.583791  0.013509  0.500000  1
  Ho  Ho2  1  0.013509  0.583791  0.500000  1
  Hf  Hf3  1  0.760221  0.760221  0.000000  1
  Zn  Zn4  1  0.249634  0.996627  0.000000  1
  Zn  Zn5  1  0.996627  0.249634  0.000000  1
  Ir  Ir6  1  0.672691  0.348884  0.000000  1
  Ir  Ir7  1  0.348884  0.672691  0.000000  1
  Ir  Ir8  1  0.988058  0.988058  0.500000  1
