# generated using pymatgen
data_TiNb3TcP4Rh3
_symmetry_space_group_name_H-M   'P 1'
_cell_length_a   3.72952100
_cell_length_b   6.37283631
_cell_length_c   7.26293339
_cell_angle_alpha   90.49065987
_cell_angle_beta   90.00000000
_cell_angle_gamma   90.00000000
_symmetry_Int_Tables_number   1
_chemical_formula_structural   TiNb3TcP4Rh3
_chemical_formula_sum   'Ti1 Nb3 Tc1 P4 Rh3'
_cell_volume   172.61636093
_cell_formula_units_Z   1
loop_
 _symmetry_equiv_pos_site_id
 _symmetry_equiv_pos_as_xyz
  1  'x, y, z'
loop_
 _atom_site_type_symbol
 _atom_site_label
 _atom_site_symmetry_multiplicity
 _atom_site_fract_x
 _atom_site_fract_y
 _atom_site_fract_z
 _atom_site_occupancy
  Ti  Ti0  1  0.250000  0.027439  0.823813  1
  Nb  Nb1  1  0.250000  0.528060  0.666961  1
  Nb  Nb2  1  0.750000  0.976007  0.171642  1
  Nb  Nb3  1  0.750000  0.470005  0.332475  1
  Tc  Tc4  1  0.250000  0.143481  0.441134  1
  P  P5  1  0.250000  0.768674  0.372968  1
  P  P6  1  0.250000  0.260763  0.127240  1
  P  P7  1  0.750000  0.234811  0.625607  1
  P  P8  1  0.750000  0.741872  0.875414  1
  Rh  Rh9  1  0.250000  0.643608  0.060076  1
  Rh  Rh10  1  0.750000  0.855173  0.567565  1
  Rh  Rh11  1  0.750000  0.350107  0.935107  1
