# generated using pymatgen
data_VInBr8
_symmetry_space_group_name_H-M   'P 1'
_cell_length_a   8.88391700
_cell_length_b   11.64599018
_cell_length_c   8.78265185
_cell_angle_alpha   76.62639329
_cell_angle_beta   90.00000000
_cell_angle_gamma   90.00000000
_symmetry_Int_Tables_number   1
_chemical_formula_structural   VInBr8
_chemical_formula_sum   'V2 In2 Br16'
_cell_volume   884.02996107
_cell_formula_units_Z   2
loop_
 _symmetry_equiv_pos_site_id
 _symmetry_equiv_pos_as_xyz
  1  'x, y, z'
loop_
 _atom_site_type_symbol
 _atom_site_label
 _atom_site_symmetry_multiplicity
 _atom_site_fract_x
 _atom_site_fract_y
 _atom_site_fract_z
 _atom_site_occupancy
  V  V0  1  0.947633  0.752516  0.402706  1
  V  V1  1  0.447633  0.247484  0.097294  1
  In  In2  1  0.047271  0.230978  0.617646  1
  In  In3  1  0.547271  0.769022  0.882354  1
  Br  Br4  1  0.295640  0.342816  0.550139  1
  Br  Br5  1  0.795640  0.657184  0.949861  1
  Br  Br6  1  0.719267  0.671474  0.457912  1
  Br  Br7  1  0.219267  0.328526  0.042088  1
  Br  Br8  1  0.939667  0.188286  0.367220  1
  Br  Br9  1  0.439667  0.811714  0.132780  1
  Br  Br10  1  0.030267  0.814590  0.609706  1
  Br  Br11  1  0.530267  0.185410  0.890294  1
  Br  Br12  1  0.871640  0.359637  0.735826  1
  Br  Br13  1  0.371640  0.640363  0.764174  1
  Br  Br14  1  0.111710  0.619155  0.352917  1
  Br  Br15  1  0.611710  0.380845  0.147083  1
  Br  Br16  1  0.103347  0.038754  0.816193  1
  Br  Br17  1  0.603347  0.961246  0.683807  1
  Br  Br18  1  0.933557  0.908303  0.197238  1
  Br  Br19  1  0.433557  0.091697  0.302762  1
