# generated using pymatgen
data_Rb6HoErF12
_symmetry_space_group_name_H-M   'P 1'
_cell_length_a   6.88637410
_cell_length_b   6.64513799
_cell_length_c   11.55110067
_cell_angle_alpha   55.22479306
_cell_angle_beta   90.01121720
_cell_angle_gamma   89.99201138
_symmetry_Int_Tables_number   1
_chemical_formula_structural   Rb6HoErF12
_chemical_formula_sum   'Rb6 Ho1 Er1 F12'
_cell_volume   434.18077377
_cell_formula_units_Z   1
loop_
 _symmetry_equiv_pos_site_id
 _symmetry_equiv_pos_as_xyz
  1  'x, y, z'
loop_
 _atom_site_type_symbol
 _atom_site_label
 _atom_site_symmetry_multiplicity
 _atom_site_fract_x
 _atom_site_fract_y
 _atom_site_fract_z
 _atom_site_occupancy
  Rb  Rb0  1  0.500000  0.500000  0.000000  1
  Rb  Rb1  1  0.000000  0.500000  0.500000  1
  Rb  Rb2  1  0.049796  0.732590  0.754134  1
  Rb  Rb3  1  0.950204  0.267410  0.245866  1
  Rb  Rb4  1  0.550261  0.265509  0.748028  1
  Rb  Rb5  1  0.449739  0.734491  0.251972  1
  Ho  Ho6  1  0.000000  0.000000  0.000000  1
  Er  Er7  1  0.500000  0.000000  0.500000  1
  F  F8  1  0.761987  0.775135  0.564294  1
  F  F9  1  0.238013  0.224865  0.435706  1
  F  F10  1  0.263023  0.226231  0.936139  1
  F  F11  1  0.736977  0.773769  0.063861  1
  F  F12  1  0.449588  0.888836  0.715219  1
  F  F13  1  0.550412  0.111164  0.284781  1
  F  F14  1  0.949787  0.111838  0.783797  1
  F  F15  1  0.050213  0.888162  0.216203  1
  F  F16  1  0.331640  0.684777  0.547037  1
  F  F17  1  0.668360  0.315223  0.452963  1
  F  F18  1  0.829384  0.315639  0.953420  1
  F  F19  1  0.170616  0.684361  0.046580  1
