# generated using pymatgen
data_Y3Lu9OsRu3
_symmetry_space_group_name_H-M   'P 1'
_cell_length_a   6.20840005
_cell_length_b   7.32169259
_cell_length_c   8.90725500
_cell_angle_alpha   90.00000000
_cell_angle_beta   90.00000000
_cell_angle_gamma   89.70367437
_symmetry_Int_Tables_number   1
_chemical_formula_structural   Y3Lu9OsRu3
_chemical_formula_sum   'Y3 Lu9 Os1 Ru3'
_cell_volume   404.88273801
_cell_formula_units_Z   1
loop_
 _symmetry_equiv_pos_site_id
 _symmetry_equiv_pos_as_xyz
  1  'x, y, z'
loop_
 _atom_site_type_symbol
 _atom_site_label
 _atom_site_symmetry_multiplicity
 _atom_site_fract_x
 _atom_site_fract_y
 _atom_site_fract_z
 _atom_site_occupancy
  Y  Y0  1  0.871906  0.539733  0.250000  1
  Y  Y1  1  0.629105  0.040540  0.250000  1
  Y  Y2  1  0.129603  0.461367  0.750000  1
  Lu  Lu3  1  0.335578  0.676727  0.063363  1
  Lu  Lu4  1  0.164988  0.173205  0.438191  1
  Lu  Lu5  1  0.664845  0.323282  0.564948  1
  Lu  Lu6  1  0.832749  0.825530  0.935473  1
  Lu  Lu7  1  0.664845  0.323282  0.935052  1
  Lu  Lu8  1  0.832749  0.825530  0.564527  1
  Lu  Lu9  1  0.335578  0.676727  0.436637  1
  Lu  Lu10  1  0.164988  0.173205  0.061809  1
  Lu  Lu11  1  0.370472  0.958604  0.750000  1
  Os  Os12  1  0.959684  0.114444  0.750000  1
  Ru  Ru13  1  0.045763  0.884612  0.250000  1
  Ru  Ru14  1  0.454343  0.385107  0.250000  1
  Ru  Ru15  1  0.542804  0.618103  0.750000  1
