# generated using pymatgen
data_Lu2Sc(ReSi2)2
_symmetry_space_group_name_H-M   'P 1'
_cell_length_a   10.37489712
_cell_length_b   10.36743199
_cell_length_c   14.00144579
_cell_angle_alpha   55.44145536
_cell_angle_beta   55.47792286
_cell_angle_gamma   30.48702894
_symmetry_Int_Tables_number   1
_chemical_formula_structural   Lu2Sc(ReSi2)2
_chemical_formula_sum   'Lu8 Sc4 Re8 Si16'
_cell_volume   618.20904481
_cell_formula_units_Z   4
loop_
 _symmetry_equiv_pos_site_id
 _symmetry_equiv_pos_as_xyz
  1  'x, y, z'
loop_
 _atom_site_type_symbol
 _atom_site_label
 _atom_site_symmetry_multiplicity
 _atom_site_fract_x
 _atom_site_fract_y
 _atom_site_fract_z
 _atom_site_occupancy
  Lu  Lu0  1  0.754053  0.482125  0.047116  1
  Lu  Lu1  1  0.535639  0.304437  0.156977  1
  Lu  Lu2  1  0.519379  0.249102  0.452708  1
  Lu  Lu3  1  0.464481  0.692267  0.844957  1
  Lu  Lu4  1  0.293806  0.037323  0.139489  1
  Lu  Lu5  1  0.963036  0.705708  0.361329  1
  Lu  Lu6  1  0.709064  0.961655  0.862036  1
  Lu  Lu7  1  0.037820  0.291241  0.637362  1
  Sc  Sc8  1  0.248145  0.515072  0.952956  1
  Sc  Sc9  1  0.483418  0.748748  0.547349  1
  Sc  Sc10  1  0.302637  0.534165  0.657249  1
  Sc  Sc11  1  0.700629  0.465879  0.340838  1
  Re  Re12  1  0.641372  0.827753  0.282699  1
  Re  Re13  1  0.827197  0.645062  0.782248  1
  Re  Re14  1  0.356425  0.173997  0.717214  1
  Re  Re15  1  0.171051  0.357154  0.217882  1
  Re  Re16  1  0.138630  0.911506  0.077478  1
  Re  Re17  1  0.087647  0.863190  0.424404  1
  Re  Re18  1  0.863205  0.086319  0.921399  1
  Re  Re19  1  0.914529  0.135009  0.576661  1
  Si  Si20  1  0.899768  0.102061  0.250748  1
  Si  Si21  1  0.110089  0.887910  0.749202  1
  Si  Si22  1  0.353040  0.649031  0.251211  1
  Si  Si23  1  0.643327  0.354726  0.748607  1
  Si  Si24  1  0.001513  0.228574  0.874942  1
  Si  Si25  1  0.771888  0.998292  0.625408  1
  Si  Si26  1  0.000093  0.769854  0.121281  1
  Si  Si27  1  0.229941  0.999852  0.378375  1
  Si  Si28  1  0.599718  0.054055  0.073675  1
  Si  Si29  1  0.944066  0.400508  0.425962  1
  Si  Si30  1  0.391756  0.956828  0.925430  1
  Si  Si31  1  0.045126  0.607846  0.574907  1
  Si  Si32  1  0.386162  0.152180  0.388440  1
  Si  Si33  1  0.844184  0.614013  0.114882  1
  Si  Si34  1  0.609142  0.845415  0.613700  1
  Si  Si35  1  0.158025  0.391142  0.882879  1
