# generated using pymatgen
data_Sm3(OsO5)2
_symmetry_space_group_name_H-M   'P 1'
_cell_length_a   5.48865116
_cell_length_b   5.48865197
_cell_length_c   6.95574592
_cell_angle_alpha   72.70509713
_cell_angle_beta   72.70509242
_cell_angle_gamma   90.36912853
_symmetry_Int_Tables_number   1
_chemical_formula_structural   Sm3(OsO5)2
_chemical_formula_sum   'Sm3 Os2 O10'
_cell_volume   189.98793036
_cell_formula_units_Z   1
loop_
 _symmetry_equiv_pos_site_id
 _symmetry_equiv_pos_as_xyz
  1  'x, y, z'
loop_
 _atom_site_type_symbol
 _atom_site_label
 _atom_site_symmetry_multiplicity
 _atom_site_fract_x
 _atom_site_fract_y
 _atom_site_fract_z
 _atom_site_occupancy
  Sm  Sm0  1  0.500000  0.500000  0.000000  1
  Sm  Sm1  1  0.753728  0.246272  0.500000  1
  Sm  Sm2  1  0.246272  0.753728  0.500000  1
  Os  Os3  1  0.129784  0.129784  0.822683  1
  Os  Os4  1  0.870216  0.870216  0.177317  1
  O  O5  1  0.833937  0.833937  0.473867  1
  O  O6  1  0.166063  0.166063  0.526133  1
  O  O7  1  0.591676  0.591676  0.285854  1
  O  O8  1  0.408324  0.408324  0.714146  1
  O  O9  1  0.384280  0.894001  0.783507  1
  O  O10  1  0.847599  0.847599  0.901758  1
  O  O11  1  0.152401  0.152401  0.098242  1
  O  O12  1  0.894001  0.384280  0.783507  1
  O  O13  1  0.615720  0.105999  0.216493  1
  O  O14  1  0.105999  0.615720  0.216493  1
