# generated using pymatgen
data_Sc12Re(Si4Au)3
_symmetry_space_group_name_H-M   'P 1'
_cell_length_a   4.04677900
_cell_length_b   10.45431895
_cell_length_c   11.78418326
_cell_angle_alpha   90.05499854
_cell_angle_beta   90.00000000
_cell_angle_gamma   90.00000000
_symmetry_Int_Tables_number   1
_chemical_formula_structural   Sc12Re(Si4Au)3
_chemical_formula_sum   'Sc12 Re1 Si12 Au3'
_cell_volume   498.54517902
_cell_formula_units_Z   1
loop_
 _symmetry_equiv_pos_site_id
 _symmetry_equiv_pos_as_xyz
  1  'x, y, z'
loop_
 _atom_site_type_symbol
 _atom_site_label
 _atom_site_symmetry_multiplicity
 _atom_site_fract_x
 _atom_site_fract_y
 _atom_site_fract_z
 _atom_site_occupancy
  Sc  Sc0  1  0.250000  0.873694  0.015789  1
  Sc  Sc1  1  0.250000  0.626674  0.522327  1
  Sc  Sc2  1  0.750000  0.122622  0.975691  1
  Sc  Sc3  1  0.750000  0.371944  0.478979  1
  Sc  Sc4  1  0.250000  0.920914  0.604911  1
  Sc  Sc5  1  0.250000  0.578523  0.098389  1
  Sc  Sc6  1  0.750000  0.077454  0.401103  1
  Sc  Sc7  1  0.750000  0.420809  0.900554  1
  Sc  Sc8  1  0.250000  0.660389  0.799540  1
  Sc  Sc9  1  0.250000  0.841333  0.301479  1
  Sc  Sc10  1  0.750000  0.340154  0.198317  1
  Sc  Sc11  1  0.750000  0.155363  0.702099  1
  Re  Re12  1  0.750000  0.890897  0.824743  1
  Si  Si13  1  0.250000  0.014933  0.823636  1
  Si  Si14  1  0.250000  0.474851  0.327853  1
  Si  Si15  1  0.750000  0.975574  0.175575  1
  Si  Si16  1  0.750000  0.525517  0.670058  1
  Si  Si17  1  0.250000  0.245159  0.849253  1
  Si  Si18  1  0.250000  0.251623  0.348786  1
  Si  Si19  1  0.750000  0.752738  0.150258  1
  Si  Si20  1  0.750000  0.752660  0.658921  1
  Si  Si21  1  0.250000  0.179543  0.542388  1
  Si  Si22  1  0.250000  0.321151  0.039797  1
  Si  Si23  1  0.750000  0.818200  0.461379  1
  Si  Si24  1  0.750000  0.692869  0.952794  1
  Au  Au25  1  0.250000  0.385122  0.678432  1
  Au  Au26  1  0.250000  0.114087  0.176081  1
  Au  Au27  1  0.750000  0.615204  0.320869  1
