# generated using pymatgen
data_NaHoTm5Co6Sn23
_symmetry_space_group_name_H-M   'P 1'
_cell_length_a   9.64624026
_cell_length_b   9.64623898
_cell_length_c   9.97464201
_cell_angle_alpha   89.99666124
_cell_angle_beta   90.00333901
_cell_angle_gamma   119.97383902
_symmetry_Int_Tables_number   1
_chemical_formula_structural   NaHoTm5Co6Sn23
_chemical_formula_sum   'Na1 Ho1 Tm5 Co6 Sn23'
_cell_volume   804.00447542
_cell_formula_units_Z   1
loop_
 _symmetry_equiv_pos_site_id
 _symmetry_equiv_pos_as_xyz
  1  'x, y, z'
loop_
 _atom_site_type_symbol
 _atom_site_label
 _atom_site_symmetry_multiplicity
 _atom_site_fract_x
 _atom_site_fract_y
 _atom_site_fract_z
 _atom_site_occupancy
  Na  Na0  1  0.000019  0.999981  0.999902  1
  Ho  Ho1  1  0.480237  0.519763  0.305295  1
  Tm  Tm2  1  0.519016  0.480984  0.695159  1
  Tm  Tm3  1  0.519060  0.038150  0.695177  1
  Tm  Tm4  1  0.961850  0.480940  0.695177  1
  Tm  Tm5  1  0.038197  0.518906  0.304940  1
  Tm  Tm6  1  0.481094  0.961803  0.304940  1
  Co  Co7  1  0.171307  0.828693  0.797967  1
  Co  Co8  1  0.171257  0.342559  0.798261  1
  Co  Co9  1  0.657441  0.828743  0.798261  1
  Co  Co10  1  0.342384  0.170546  0.201727  1
  Co  Co11  1  0.829454  0.657616  0.201727  1
  Co  Co12  1  0.828623  0.171377  0.201779  1
  Sn  Sn13  1  0.666731  0.333269  0.184239  1
  Sn  Sn14  1  0.666665  0.333335  0.880058  1
  Sn  Sn15  1  0.332484  0.667516  0.118904  1
  Sn  Sn16  1  0.344547  0.344401  0.999887  1
  Sn  Sn17  1  0.000211  0.655601  0.999854  1
  Sn  Sn18  1  0.655565  0.000015  0.000010  1
  Sn  Sn19  1  0.655599  0.655453  0.999887  1
  Sn  Sn20  1  0.333396  0.666604  0.815754  1
  Sn  Sn21  1  0.436212  0.217571  0.456106  1
  Sn  Sn22  1  0.218096  0.781904  0.544084  1
  Sn  Sn23  1  0.217584  0.436045  0.544587  1
  Sn  Sn24  1  0.563955  0.782416  0.544587  1
  Sn  Sn25  1  0.117519  0.882481  0.270600  1
  Sn  Sn26  1  0.782429  0.563788  0.456106  1
  Sn  Sn27  1  0.781955  0.218045  0.455977  1
  Sn  Sn28  1  0.344399  0.999789  0.999854  1
  Sn  Sn29  1  0.116783  0.234049  0.270549  1
  Sn  Sn30  1  0.765951  0.883217  0.270549  1
  Sn  Sn31  1  0.234657  0.117339  0.729270  1
  Sn  Sn32  1  0.882661  0.765343  0.729270  1
  Sn  Sn33  1  0.882598  0.117402  0.729436  1
  Sn  Sn34  1  0.000079  0.999921  0.500111  1
  Sn  Sn35  1  0.999985  0.344435  0.000010  1
