# generated using pymatgen
data_Tb4Al18Pd2PtRh3
_symmetry_space_group_name_H-M   'P 1'
_cell_length_a   7.60965564
_cell_length_b   7.60964950
_cell_length_c   9.45377703
_cell_angle_alpha   89.96806332
_cell_angle_beta   89.96793518
_cell_angle_gamma   119.65101308
_symmetry_Int_Tables_number   1
_chemical_formula_structural   Tb4Al18Pd2PtRh3
_chemical_formula_sum   'Tb4 Al18 Pd2 Pt1 Rh3'
_cell_volume   475.75341010
_cell_formula_units_Z   1
loop_
 _symmetry_equiv_pos_site_id
 _symmetry_equiv_pos_as_xyz
  1  'x, y, z'
loop_
 _atom_site_type_symbol
 _atom_site_label
 _atom_site_symmetry_multiplicity
 _atom_site_fract_x
 _atom_site_fract_y
 _atom_site_fract_z
 _atom_site_occupancy
  Tb  Tb0  1  0.994877  0.669918  0.249960  1
  Tb  Tb1  1  0.005123  0.330082  0.750040  1
  Tb  Tb2  1  0.669918  0.994877  0.249960  1
  Tb  Tb3  1  0.330082  0.005123  0.750040  1
  Al  Al4  1  0.128891  0.128891  0.248122  1
  Al  Al5  1  0.871109  0.871109  0.751878  1
  Al  Al6  1  0.000816  0.330910  0.076893  1
  Al  Al7  1  0.999184  0.669090  0.923107  1
  Al  Al8  1  0.000620  0.661633  0.574969  1
  Al  Al9  1  0.338367  0.999380  0.425031  1
  Al  Al10  1  0.999380  0.338367  0.425031  1
  Al  Al11  1  0.661633  0.000620  0.574969  1
  Al  Al12  1  0.669090  0.999184  0.923106  1
  Al  Al13  1  0.330910  0.000816  0.076894  1
  Al  Al14  1  0.335140  0.335141  0.549456  1
  Al  Al15  1  0.664860  0.664859  0.450544  1
  Al  Al16  1  0.668851  0.668851  0.055506  1
  Al  Al17  1  0.331149  0.331149  0.944494  1
  Al  Al18  1  0.340523  0.548072  0.253638  1
  Al  Al19  1  0.659477  0.451928  0.746362  1
  Al  Al20  1  0.548072  0.340523  0.253638  1
  Al  Al21  1  0.451928  0.659477  0.746362  1
  Pd  Pd22  1  0.672358  0.327643  0.000000  1
  Pd  Pd23  1  0.327642  0.672357  0.000000  1
  Pt  Pt24  1  0.000000  0.000000  0.500000  1
  Rh  Rh25  1  0.328138  0.671864  0.500000  1
  Rh  Rh26  1  0.671862  0.328136  0.500000  1
  Rh  Rh27  1  0.000000  0.000000  0.000000  1
