# generated using pymatgen
data_Rb3Hg2S3O12F
_symmetry_space_group_name_H-M   'P 1'
_cell_length_a   10.13848300
_cell_length_b   7.99377870
_cell_length_c   10.05025340
_cell_angle_alpha   68.90168715
_cell_angle_beta   90.00000000
_cell_angle_gamma   90.00000000
_symmetry_Int_Tables_number   1
_chemical_formula_structural   Rb3Hg2S3O12F
_chemical_formula_sum   'Rb6 Hg4 S6 O24 F2'
_cell_volume   759.91857306
_cell_formula_units_Z   2
loop_
 _symmetry_equiv_pos_site_id
 _symmetry_equiv_pos_as_xyz
  1  'x, y, z'
loop_
 _atom_site_type_symbol
 _atom_site_label
 _atom_site_symmetry_multiplicity
 _atom_site_fract_x
 _atom_site_fract_y
 _atom_site_fract_z
 _atom_site_occupancy
  Rb  Rb0  1  0.748719  0.893995  0.272015  1
  Rb  Rb1  1  0.444583  0.323601  0.305049  1
  Rb  Rb2  1  0.248719  0.106005  0.727985  1
  Rb  Rb3  1  0.944583  0.676399  0.694951  1
  Rb  Rb4  1  0.118690  0.676757  0.156309  1
  Rb  Rb5  1  0.618690  0.323243  0.843691  1
  Hg  Hg6  1  0.570218  0.757806  0.958431  1
  Hg  Hg7  1  0.856101  0.270017  0.504365  1
  Hg  Hg8  1  0.356101  0.729983  0.495635  1
  Hg  Hg9  1  0.070218  0.242194  0.041569  1
  S  S10  1  0.902601  0.028561  0.891863  1
  S  S11  1  0.605998  0.905784  0.607288  1
  S  S12  1  0.788019  0.449613  0.142019  1
  S  S13  1  0.288019  0.550387  0.857981  1
  S  S14  1  0.105998  0.094216  0.392712  1
  S  S15  1  0.402601  0.971439  0.108137  1
  O  O16  1  0.759782  0.984203  0.906616  1
  O  O17  1  0.482900  0.101315  0.145312  1
  O  O18  1  0.341582  0.412516  0.807437  1
  O  O19  1  0.362337  0.562835  0.981677  1
  O  O20  1  0.947796  0.019718  0.042338  1
  O  O21  1  0.447796  0.980282  0.957662  1
  O  O22  1  0.741422  0.962465  0.553438  1
  O  O23  1  0.278976  0.728250  0.739760  1
  O  O24  1  0.613044  0.733009  0.733524  1
  O  O25  1  0.531020  0.045043  0.636755  1
  O  O26  1  0.982900  0.898685  0.854688  1
  O  O27  1  0.922837  0.215621  0.789707  1
  O  O28  1  0.862337  0.437165  0.018323  1
  O  O29  1  0.143866  0.505617  0.907497  1
  O  O30  1  0.241422  0.037535  0.446562  1
  O  O31  1  0.540141  0.863381  0.483965  1
  O  O32  1  0.040141  0.136619  0.516035  1
  O  O33  1  0.113044  0.266991  0.266476  1
  O  O34  1  0.643866  0.494383  0.092503  1
  O  O35  1  0.259782  0.015797  0.093384  1
  O  O36  1  0.422837  0.784379  0.210293  1
  O  O37  1  0.031020  0.954957  0.363245  1
  O  O38  1  0.778976  0.271750  0.260240  1
  O  O39  1  0.841582  0.587484  0.192563  1
  F  F40  1  0.220070  0.551087  0.468178  1
  F  F41  1  0.720070  0.448913  0.531822  1
