# generated using pymatgen
data_Yb2Fe2CoN3
_symmetry_space_group_name_H-M   'P 1'
_cell_length_a   6.17872170
_cell_length_b   6.17872072
_cell_length_c   6.04740500
_cell_angle_alpha   88.67796786
_cell_angle_beta   88.67796807
_cell_angle_gamma   117.88896207
_symmetry_Int_Tables_number   1
_chemical_formula_structural   Yb2Fe2CoN3
_chemical_formula_sum   'Yb4 Fe4 Co2 N6'
_cell_volume   203.85101009
_cell_formula_units_Z   2
loop_
 _symmetry_equiv_pos_site_id
 _symmetry_equiv_pos_as_xyz
  1  'x, y, z'
loop_
 _atom_site_type_symbol
 _atom_site_label
 _atom_site_symmetry_multiplicity
 _atom_site_fract_x
 _atom_site_fract_y
 _atom_site_fract_z
 _atom_site_occupancy
  Yb  Yb0  1  0.832310  0.678064  0.896690  1
  Yb  Yb1  1  0.321936  0.167690  0.603310  1
  Yb  Yb2  1  0.167690  0.321936  0.103310  1
  Yb  Yb3  1  0.678064  0.832310  0.396690  1
  Fe  Fe4  1  0.560407  0.165605  0.110442  1
  Fe  Fe5  1  0.439593  0.834395  0.889558  1
  Fe  Fe6  1  0.834395  0.439593  0.389558  1
  Fe  Fe7  1  0.165605  0.560407  0.610442  1
  Co  Co8  1  0.813465  0.186535  0.750000  1
  Co  Co9  1  0.186535  0.813465  0.250000  1
  N  N10  1  0.424840  0.575160  0.750000  1
  N  N11  1  0.575160  0.424840  0.250000  1
  N  N12  1  0.013310  0.744522  0.514022  1
  N  N13  1  0.744522  0.013310  0.014022  1
  N  N14  1  0.986690  0.255478  0.485978  1
  N  N15  1  0.255478  0.986690  0.985978  1
