# generated using pymatgen
data_Ba6LaDy(BO3)6
_symmetry_space_group_name_H-M   'P 1'
_cell_length_a   8.28666249
_cell_length_b   8.28666256
_cell_length_c   8.28666300
_cell_angle_alpha   105.59553944
_cell_angle_beta   105.59554566
_cell_angle_gamma   105.59554221
_symmetry_Int_Tables_number   1
_chemical_formula_structural   Ba6LaDy(BO3)6
_chemical_formula_sum   'Ba6 La1 Dy1 B6 O18'
_cell_volume   490.92400316
_cell_formula_units_Z   1
loop_
 _symmetry_equiv_pos_site_id
 _symmetry_equiv_pos_as_xyz
  1  'x, y, z'
loop_
 _atom_site_type_symbol
 _atom_site_label
 _atom_site_symmetry_multiplicity
 _atom_site_fract_x
 _atom_site_fract_y
 _atom_site_fract_z
 _atom_site_occupancy
  Ba  Ba0  1  0.351423  0.733498  0.841491  1
  Ba  Ba1  1  0.841491  0.351423  0.733498  1
  Ba  Ba2  1  0.733498  0.841491  0.351423  1
  Ba  Ba3  1  0.648577  0.266502  0.158509  1
  Ba  Ba4  1  0.158509  0.648577  0.266502  1
  Ba  Ba5  1  0.266502  0.158509  0.648577  1
  La  La6  1  0.000000  0.000000  0.000000  1
  Dy  Dy7  1  0.500000  0.500000  0.500000  1
  B  B8  1  0.704902  0.619061  0.955864  1
  B  B9  1  0.955864  0.704902  0.619061  1
  B  B10  1  0.619061  0.955864  0.704902  1
  B  B11  1  0.044136  0.295098  0.380939  1
  B  B12  1  0.380939  0.044136  0.295098  1
  B  B13  1  0.295098  0.380939  0.044136  1
  O  O14  1  0.061655  0.804369  0.550630  1
  O  O15  1  0.550630  0.061655  0.804369  1
  O  O16  1  0.426169  0.493803  0.214634  1
  O  O17  1  0.493803  0.214634  0.426169  1
  O  O18  1  0.214634  0.426169  0.493803  1
  O  O19  1  0.785366  0.573831  0.506197  1
  O  O20  1  0.573831  0.506197  0.785366  1
  O  O21  1  0.506197  0.785366  0.573831  1
  O  O22  1  0.270358  0.197712  0.983954  1
  O  O23  1  0.197712  0.983954  0.270358  1
  O  O24  1  0.983954  0.270358  0.197712  1
  O  O25  1  0.729642  0.802288  0.016046  1
  O  O26  1  0.802288  0.016046  0.729642  1
  O  O27  1  0.016046  0.729642  0.802288  1
  O  O28  1  0.195631  0.449370  0.938345  1
  O  O29  1  0.449370  0.938345  0.195631  1
  O  O30  1  0.938345  0.195631  0.449370  1
  O  O31  1  0.804369  0.550630  0.061655  1
