# generated using pymatgen
data_Sr4GaSi6Ni
_symmetry_space_group_name_H-M   'P 1'
_cell_length_a   8.56053258
_cell_length_b   8.23518450
_cell_length_c   6.27054281
_cell_angle_alpha   70.86430145
_cell_angle_beta   65.34544099
_cell_angle_gamma   43.79025508
_symmetry_Int_Tables_number   1
_chemical_formula_structural   Sr4GaSi6Ni
_chemical_formula_sum   'Sr4 Ga1 Si6 Ni1'
_cell_volume   277.77566974
_cell_formula_units_Z   1
loop_
 _symmetry_equiv_pos_site_id
 _symmetry_equiv_pos_as_xyz
  1  'x, y, z'
loop_
 _atom_site_type_symbol
 _atom_site_label
 _atom_site_symmetry_multiplicity
 _atom_site_fract_x
 _atom_site_fract_y
 _atom_site_fract_z
 _atom_site_occupancy
  Sr  Sr0  1  0.245412  0.750357  0.249644  1
  Sr  Sr1  1  0.252192  0.252193  0.247808  1
  Sr  Sr2  1  0.752191  0.752193  0.747808  1
  Sr  Sr3  1  0.750356  0.245414  0.754587  1
  Ga  Ga4  1  0.666181  0.666183  0.333818  1
  Si  Si5  1  0.840070  0.840071  0.159930  1
  Si  Si6  1  0.839789  0.319829  0.160211  1
  Si  Si7  1  0.648489  0.176358  0.351510  1
  Si  Si8  1  0.319828  0.839790  0.680172  1
  Si  Si9  1  0.176357  0.648490  0.823642  1
  Si  Si10  1  0.175646  0.175647  0.824353  1
  Ni  Ni11  1  0.333480  0.333482  0.666519  1
