# generated using pymatgen
data_KSr(AuO2)4
_symmetry_space_group_name_H-M   'P 1'
_cell_length_a   6.87890216
_cell_length_b   6.87890196
_cell_length_c   6.87890244
_cell_angle_alpha   124.18327278
_cell_angle_beta   124.18327166
_cell_angle_gamma   82.89524808
_symmetry_Int_Tables_number   1
_chemical_formula_structural   KSr(AuO2)4
_chemical_formula_sum   'K1 Sr1 Au4 O8'
_cell_volume   213.80867229
_cell_formula_units_Z   1
loop_
 _symmetry_equiv_pos_site_id
 _symmetry_equiv_pos_as_xyz
  1  'x, y, z'
loop_
 _atom_site_type_symbol
 _atom_site_label
 _atom_site_symmetry_multiplicity
 _atom_site_fract_x
 _atom_site_fract_y
 _atom_site_fract_z
 _atom_site_occupancy
  K  K0  1  0.750000  0.250000  0.500000  1
  Sr  Sr1  1  0.000000  0.000000  0.000000  1
  Au  Au2  1  0.368400  0.625926  0.244435  1
  Au  Au3  1  0.876036  0.631600  0.257527  1
  Au  Au4  1  0.381491  0.123964  0.755565  1
  Au  Au5  1  0.374074  0.618509  0.742473  1
  O  O6  1  0.571346  0.936733  0.910868  1
  O  O7  1  0.707831  0.277950  0.897782  1
  O  O8  1  0.380168  0.810049  0.102218  1
  O  O9  1  0.025866  0.660479  0.089132  1
  O  O10  1  0.189951  0.292169  0.570117  1
  O  O11  1  0.063267  0.974134  0.634613  1
  O  O12  1  0.722050  0.619832  0.429883  1
  O  O13  1  0.339521  0.428654  0.365387  1
