# generated using pymatgen
data_Yb2SnPd5
_symmetry_space_group_name_H-M   'P 1'
_cell_length_a   4.30947300
_cell_length_b   5.79209600
_cell_length_c   11.37151300
_cell_angle_alpha   90.00000000
_cell_angle_beta   90.00000000
_cell_angle_gamma   90.00000000
_symmetry_Int_Tables_number   1
_chemical_formula_structural   Yb2SnPd5
_chemical_formula_sum   'Yb4 Sn2 Pd10'
_cell_volume   283.84298648
_cell_formula_units_Z   2
loop_
 _symmetry_equiv_pos_site_id
 _symmetry_equiv_pos_as_xyz
  1  'x, y, z'
loop_
 _atom_site_type_symbol
 _atom_site_label
 _atom_site_symmetry_multiplicity
 _atom_site_fract_x
 _atom_site_fract_y
 _atom_site_fract_z
 _atom_site_occupancy
  Yb  Yb0  1  0.500000  0.184395  0.140505  1
  Yb  Yb1  1  0.500000  0.815605  0.859495  1
  Yb  Yb2  1  0.500000  0.315605  0.640505  1
  Yb  Yb3  1  0.500000  0.684395  0.359495  1
  Sn  Sn4  1  0.000000  0.000000  0.500000  1
  Sn  Sn5  1  0.000000  0.500000  0.000000  1
  Pd  Pd6  1  0.500000  0.196195  0.388447  1
  Pd  Pd7  1  0.500000  0.803805  0.611553  1
  Pd  Pd8  1  0.500000  0.303805  0.888447  1
  Pd  Pd9  1  0.500000  0.696195  0.111553  1
  Pd  Pd10  1  0.000000  0.438977  0.246954  1
  Pd  Pd11  1  0.000000  0.561023  0.753046  1
  Pd  Pd12  1  0.000000  0.061023  0.746954  1
  Pd  Pd13  1  0.000000  0.938977  0.253046  1
  Pd  Pd14  1  0.000000  0.000000  0.000000  1
  Pd  Pd15  1  0.000000  0.500000  0.500000  1
