# generated using pymatgen
data_Sc4InGa2Tc
_symmetry_space_group_name_H-M   'P 1'
_cell_length_a   6.82009201
_cell_length_b   6.71741400
_cell_length_c   6.81983201
_cell_angle_alpha   90.00000000
_cell_angle_beta   89.99465684
_cell_angle_gamma   90.00000000
_symmetry_Int_Tables_number   1
_chemical_formula_structural   Sc4InGa2Tc
_chemical_formula_sum   'Sc8 In2 Ga4 Tc2'
_cell_volume   312.43956438
_cell_formula_units_Z   2
loop_
 _symmetry_equiv_pos_site_id
 _symmetry_equiv_pos_as_xyz
  1  'x, y, z'
loop_
 _atom_site_type_symbol
 _atom_site_label
 _atom_site_symmetry_multiplicity
 _atom_site_fract_x
 _atom_site_fract_y
 _atom_site_fract_z
 _atom_site_occupancy
  Sc  Sc0  1  0.769842  0.501036  0.269840  1
  Sc  Sc1  1  0.769842  0.998964  0.269840  1
  Sc  Sc2  1  0.230221  0.001014  0.269786  1
  Sc  Sc3  1  0.230221  0.498986  0.269786  1
  Sc  Sc4  1  0.769779  0.501014  0.730214  1
  Sc  Sc5  1  0.769779  0.998986  0.730214  1
  Sc  Sc6  1  0.230158  0.001036  0.730160  1
  Sc  Sc7  1  0.230158  0.498964  0.730160  1
  In  In8  1  0.499817  0.250000  0.999986  1
  In  In9  1  0.500184  0.750000  0.000014  1
  Ga  Ga10  1  0.998609  0.250000  0.000021  1
  Ga  Ga11  1  0.001391  0.750000  0.999979  1
  Ga  Ga12  1  0.502207  0.250000  0.499981  1
  Ga  Ga13  1  0.497793  0.750000  0.500019  1
  Tc  Tc14  1  0.001619  0.750000  0.500009  1
  Tc  Tc15  1  0.998381  0.250000  0.499991  1
