# generated using pymatgen
data_NaMn7GaO16
_symmetry_space_group_name_H-M   'P 1'
_cell_length_a   5.86112265
_cell_length_b   7.13544031
_cell_length_c   7.25021600
_cell_angle_alpha   88.56716716
_cell_angle_beta   78.36138066
_cell_angle_gamma   78.06300496
_symmetry_Int_Tables_number   1
_chemical_formula_structural   NaMn7GaO16
_chemical_formula_sum   'Na1 Mn7 Ga1 O16'
_cell_volume   290.51572350
_cell_formula_units_Z   1
loop_
 _symmetry_equiv_pos_site_id
 _symmetry_equiv_pos_as_xyz
  1  'x, y, z'
loop_
 _atom_site_type_symbol
 _atom_site_label
 _atom_site_symmetry_multiplicity
 _atom_site_fract_x
 _atom_site_fract_y
 _atom_site_fract_z
 _atom_site_occupancy
  Na  Na0  1  0.998795  0.996479  0.000539  1
  Mn  Mn1  1  0.081680  0.509314  0.179942  1
  Mn  Mn2  1  0.171661  0.817363  0.517676  1
  Mn  Mn3  1  0.668980  0.819056  0.520746  1
  Mn  Mn4  1  0.337146  0.184792  0.479246  1
  Mn  Mn5  1  0.838758  0.183835  0.483606  1
  Mn  Mn6  1  0.428867  0.486825  0.819303  1
  Mn  Mn7  1  0.926068  0.490562  0.819538  1
  Ga  Ga8  1  0.579440  0.513157  0.187909  1
  O  O9  1  0.842009  0.643188  0.049032  1
  O  O10  1  0.320989  0.641021  0.048568  1
  O  O11  1  0.981904  0.703914  0.381621  1
  O  O12  1  0.482979  0.704929  0.389005  1
  O  O13  1  0.857006  0.956232  0.643502  1
  O  O14  1  0.352155  0.958480  0.642403  1
  O  O15  1  0.336037  0.368249  0.287900  1
  O  O16  1  0.846952  0.363274  0.284987  1
  O  O17  1  0.168723  0.630952  0.714343  1
  O  O18  1  0.666287  0.632127  0.717141  1
  O  O19  1  0.151881  0.042544  0.359060  1
  O  O20  1  0.656227  0.043214  0.360008  1
  O  O21  1  0.026975  0.296395  0.618018  1
  O  O22  1  0.525092  0.301167  0.612062  1
  O  O23  1  0.176999  0.355494  0.945514  1
  O  O24  1  0.683491  0.357432  0.938323  1
