# generated using pymatgen
data_La3Tb2Nd3(CdNi)2
_symmetry_space_group_name_H-M   'P 1'
_cell_length_a   9.82361909
_cell_length_b   9.86159894
_cell_length_c   9.86160086
_cell_angle_alpha   59.74536803
_cell_angle_beta   60.12732387
_cell_angle_gamma   60.12732656
_symmetry_Int_Tables_number   1
_chemical_formula_structural   La3Tb2Nd3(CdNi)2
_chemical_formula_sum   'La6 Tb4 Nd6 Cd4 Ni4'
_cell_volume   675.52044840
_cell_formula_units_Z   2
loop_
 _symmetry_equiv_pos_site_id
 _symmetry_equiv_pos_as_xyz
  1  'x, y, z'
loop_
 _atom_site_type_symbol
 _atom_site_label
 _atom_site_symmetry_multiplicity
 _atom_site_fract_x
 _atom_site_fract_y
 _atom_site_fract_z
 _atom_site_occupancy
  La  La0  1  0.594121  0.600874  0.600874  1
  La  La1  1  0.600874  0.594121  0.204133  1
  La  La2  1  0.600874  0.204133  0.594121  1
  La  La3  1  0.204133  0.600874  0.600874  1
  La  La4  1  0.064456  0.435544  0.435544  1
  La  La5  1  0.435544  0.064456  0.064456  1
  Tb  Tb6  1  0.439051  0.060949  0.439051  1
  Tb  Tb7  1  0.060949  0.439051  0.060949  1
  Tb  Tb8  1  0.439051  0.439051  0.060949  1
  Tb  Tb9  1  0.060949  0.060949  0.439051  1
  Nd  Nd10  1  0.185037  0.814963  0.814963  1
  Nd  Nd11  1  0.814963  0.185037  0.185037  1
  Nd  Nd12  1  0.813003  0.186997  0.813003  1
  Nd  Nd13  1  0.186997  0.813003  0.186997  1
  Nd  Nd14  1  0.813003  0.813003  0.186997  1
  Nd  Nd15  1  0.186997  0.186997  0.813003  1
  Cd  Cd16  1  0.832419  0.829329  0.829329  1
  Cd  Cd17  1  0.829329  0.832419  0.508924  1
  Cd  Cd18  1  0.829329  0.508924  0.832419  1
  Cd  Cd19  1  0.508924  0.829329  0.829329  1
  Ni  Ni20  1  0.391773  0.389868  0.389868  1
  Ni  Ni21  1  0.389868  0.391773  0.828491  1
  Ni  Ni22  1  0.389868  0.828491  0.391773  1
  Ni  Ni23  1  0.828491  0.389868  0.389868  1
