# generated using pymatgen
data_TmZrScFe9
_symmetry_space_group_name_H-M   'P 1'
_cell_length_a   4.97379912
_cell_length_b   4.97380067
_cell_length_c   8.47328232
_cell_angle_alpha   72.93244513
_cell_angle_beta   72.93244117
_cell_angle_gamma   59.99999330
_symmetry_Int_Tables_number   1
_chemical_formula_structural   TmZrScFe9
_chemical_formula_sum   'Tm1 Zr1 Sc1 Fe9'
_cell_volume   170.79138511
_cell_formula_units_Z   1
loop_
 _symmetry_equiv_pos_site_id
 _symmetry_equiv_pos_as_xyz
  1  'x, y, z'
loop_
 _atom_site_type_symbol
 _atom_site_label
 _atom_site_symmetry_multiplicity
 _atom_site_fract_x
 _atom_site_fract_y
 _atom_site_fract_z
 _atom_site_occupancy
  Tm  Tm0  1  0.000413  0.000413  0.998762  1
  Zr  Zr1  1  0.856845  0.856845  0.429467  1
  Sc  Sc2  1  0.142124  0.142124  0.573627  1
  Fe  Fe3  1  0.082505  0.584809  0.747875  1
  Fe  Fe4  1  0.584809  0.584809  0.747875  1
  Fe  Fe5  1  0.584809  0.082505  0.747875  1
  Fe  Fe6  1  0.918141  0.415211  0.251438  1
  Fe  Fe7  1  0.415211  0.415211  0.251438  1
  Fe  Fe8  1  0.415211  0.918141  0.251438  1
  Fe  Fe9  1  0.332572  0.332572  0.002284  1
  Fe  Fe10  1  0.667303  0.667303  0.998090  1
  Fe  Fe11  1  0.500056  0.500056  0.499831  1
