# generated using pymatgen
data_NdY2Al7Pd2
_symmetry_space_group_name_H-M   'P 1'
_cell_length_a   9.22887381
_cell_length_b   9.22887464
_cell_length_c   9.22887382
_cell_angle_alpha   35.14509273
_cell_angle_beta   35.14508325
_cell_angle_gamma   35.14508768
_symmetry_Int_Tables_number   1
_chemical_formula_structural   NdY2Al7Pd2
_chemical_formula_sum   'Nd1 Y2 Al7 Pd2'
_cell_volume   232.62844212
_cell_formula_units_Z   1
loop_
 _symmetry_equiv_pos_site_id
 _symmetry_equiv_pos_as_xyz
  1  'x, y, z'
loop_
 _atom_site_type_symbol
 _atom_site_label
 _atom_site_symmetry_multiplicity
 _atom_site_fract_x
 _atom_site_fract_y
 _atom_site_fract_z
 _atom_site_occupancy
  Nd  Nd0  1  0.000000  0.000000  0.000000  1
  Y  Y1  1  0.856712  0.856712  0.856712  1
  Y  Y2  1  0.143288  0.143288  0.143288  1
  Al  Al3  1  0.416619  0.416619  0.927241  1
  Al  Al4  1  0.927241  0.416619  0.416619  1
  Al  Al5  1  0.416619  0.927241  0.416619  1
  Al  Al6  1  0.500000  0.500000  0.500000  1
  Al  Al7  1  0.583381  0.072759  0.583381  1
  Al  Al8  1  0.072759  0.583381  0.583381  1
  Al  Al9  1  0.583381  0.583381  0.072759  1
  Pd  Pd10  1  0.664229  0.664229  0.664229  1
  Pd  Pd11  1  0.335771  0.335771  0.335771  1
