# generated using pymatgen
data_CaLa6GeI12
_symmetry_space_group_name_H-M   'P 1'
_cell_length_a   10.18073203
_cell_length_b   10.18073127
_cell_length_c   10.18073220
_cell_angle_alpha   107.33083184
_cell_angle_beta   107.33082031
_cell_angle_gamma   107.33082269
_symmetry_Int_Tables_number   1
_chemical_formula_structural   CaLa6GeI12
_chemical_formula_sum   'Ca1 La6 Ge1 I12'
_cell_volume   870.73278506
_cell_formula_units_Z   1
loop_
 _symmetry_equiv_pos_site_id
 _symmetry_equiv_pos_as_xyz
  1  'x, y, z'
loop_
 _atom_site_type_symbol
 _atom_site_label
 _atom_site_symmetry_multiplicity
 _atom_site_fract_x
 _atom_site_fract_y
 _atom_site_fract_z
 _atom_site_occupancy
  Ca  Ca0  1  0.500000  0.500000  0.500000  1
  La  La1  1  0.316840  0.100297  0.030646  1
  La  La2  1  0.030646  0.316840  0.100297  1
  La  La3  1  0.100297  0.030645  0.316840  1
  La  La4  1  0.899703  0.969355  0.683161  1
  La  La5  1  0.969354  0.683161  0.899704  1
  La  La6  1  0.683161  0.899703  0.969355  1
  Ge  Ge7  1  0.000000  0.000000  0.000000  1
  I  I8  1  0.685708  0.232965  0.075275  1
  I  I9  1  0.388576  0.460148  0.160685  1
  I  I10  1  0.075275  0.685707  0.232966  1
  I  I11  1  0.767035  0.924726  0.314292  1
  I  I12  1  0.460148  0.160685  0.388576  1
  I  I13  1  0.160685  0.388576  0.460148  1
  I  I14  1  0.839315  0.611425  0.539852  1
  I  I15  1  0.539852  0.839316  0.611424  1
  I  I16  1  0.232966  0.075275  0.685708  1
  I  I17  1  0.924725  0.314293  0.767035  1
  I  I18  1  0.611425  0.539852  0.839315  1
  I  I19  1  0.314293  0.767035  0.924725  1
