# generated using pymatgen
data_Tb9Y7(CoAg)4
_symmetry_space_group_name_H-M   'P 1'
_cell_length_a   9.44783524
_cell_length_b   9.44783541
_cell_length_c   9.42022800
_cell_angle_alpha   60.09662193
_cell_angle_beta   60.09662132
_cell_angle_gamma   60.32166011
_symmetry_Int_Tables_number   1
_chemical_formula_structural   Tb9Y7(CoAg)4
_chemical_formula_sum   'Tb9 Y7 Co4 Ag4'
_cell_volume   596.88613589
_cell_formula_units_Z   1
loop_
 _symmetry_equiv_pos_site_id
 _symmetry_equiv_pos_as_xyz
  1  'x, y, z'
loop_
 _atom_site_type_symbol
 _atom_site_label
 _atom_site_symmetry_multiplicity
 _atom_site_fract_x
 _atom_site_fract_y
 _atom_site_fract_z
 _atom_site_occupancy
  Tb  Tb0  1  0.348080  0.348080  0.346772  1
  Tb  Tb1  1  0.348080  0.348080  0.957068  1
  Tb  Tb2  1  0.348920  0.956332  0.347374  1
  Tb  Tb3  1  0.956332  0.348920  0.347374  1
  Tb  Tb4  1  0.810988  0.187737  0.188693  1
  Tb  Tb5  1  0.187737  0.810988  0.812582  1
  Tb  Tb6  1  0.187737  0.810988  0.188693  1
  Tb  Tb7  1  0.810988  0.187737  0.812582  1
  Tb  Tb8  1  0.187699  0.187699  0.812301  1
  Y  Y9  1  0.811238  0.811238  0.188762  1
  Y  Y10  1  0.937180  0.562638  0.562723  1
  Y  Y11  1  0.562638  0.937180  0.937460  1
  Y  Y12  1  0.562638  0.937180  0.562723  1
  Y  Y13  1  0.937180  0.562638  0.937460  1
  Y  Y14  1  0.562555  0.562555  0.937445  1
  Y  Y15  1  0.937201  0.937201  0.562799  1
  Co  Co16  1  0.141558  0.141558  0.140482  1
  Co  Co17  1  0.141558  0.141558  0.576402  1
  Co  Co18  1  0.143593  0.575165  0.140621  1
  Co  Co19  1  0.575165  0.143593  0.140621  1
  Ag  Ag20  1  0.581192  0.581192  0.580933  1
  Ag  Ag21  1  0.581192  0.581192  0.256685  1
  Ag  Ag22  1  0.580938  0.257614  0.580724  1
  Ag  Ag23  1  0.257614  0.580938  0.580724  1
