# generated using pymatgen
data_Pr10Ir3PdRu2
_symmetry_space_group_name_H-M   'P 1'
_cell_length_a   11.34136341
_cell_length_b   11.33588000
_cell_length_c   6.67760160
_cell_angle_alpha   90.00000000
_cell_angle_beta   90.10110720
_cell_angle_gamma   90.00000000
_symmetry_Int_Tables_number   1
_chemical_formula_structural   Pr10Ir3PdRu2
_chemical_formula_sum   'Pr20 Ir6 Pd2 Ru4'
_cell_volume   858.50007034
_cell_formula_units_Z   2
loop_
 _symmetry_equiv_pos_site_id
 _symmetry_equiv_pos_as_xyz
  1  'x, y, z'
loop_
 _atom_site_type_symbol
 _atom_site_label
 _atom_site_symmetry_multiplicity
 _atom_site_fract_x
 _atom_site_fract_y
 _atom_site_fract_z
 _atom_site_occupancy
  Pr  Pr0  1  0.293322  0.088280  0.381145  1
  Pr  Pr1  1  0.293322  0.911720  0.881145  1
  Pr  Pr2  1  0.701380  0.091087  0.874996  1
  Pr  Pr3  1  0.701380  0.908913  0.374996  1
  Pr  Pr4  1  0.582979  0.792085  0.883066  1
  Pr  Pr5  1  0.582979  0.207915  0.383066  1
  Pr  Pr6  1  0.410007  0.792898  0.382872  1
  Pr  Pr7  1  0.410007  0.207102  0.882872  1
  Pr  Pr8  1  0.207470  0.410970  0.616800  1
  Pr  Pr9  1  0.207470  0.589030  0.116800  1
  Pr  Pr10  1  0.792524  0.416526  0.116633  1
  Pr  Pr11  1  0.792524  0.583474  0.616633  1
  Pr  Pr12  1  0.914230  0.704059  0.126386  1
  Pr  Pr13  1  0.914230  0.295941  0.626386  1
  Pr  Pr14  1  0.093259  0.704373  0.617732  1
  Pr  Pr15  1  0.093259  0.295627  0.117732  1
  Pr  Pr16  1  0.004193  0.999552  0.500226  1
  Pr  Pr17  1  0.004193  0.000448  0.000226  1
  Pr  Pr18  1  0.499465  0.499821  0.000182  1
  Pr  Pr19  1  0.499465  0.500179  0.500182  1
  Ir  Ir20  1  0.152108  0.152222  0.750329  1
  Ir  Ir21  1  0.152108  0.847778  0.250329  1
  Ir  Ir22  1  0.653981  0.346249  0.749976  1
  Ir  Ir23  1  0.653981  0.653751  0.249976  1
  Ir  Ir24  1  0.347174  0.346888  0.249810  1
  Ir  Ir25  1  0.347174  0.653112  0.749810  1
  Pd  Pd26  1  0.846337  0.153670  0.249714  1
  Pd  Pd27  1  0.846337  0.846330  0.749714  1
  Ru  Ru28  1  0.502842  0.999954  0.117391  1
  Ru  Ru29  1  0.502842  0.000046  0.617391  1
  Ru  Ru30  1  0.998729  0.500493  0.882741  1
  Ru  Ru31  1  0.998729  0.499507  0.382741  1
