# generated using pymatgen
data_Tm4Co7P12Ir9Ru4
_symmetry_space_group_name_H-M   'P 1'
_cell_length_a   3.85806000
_cell_length_b   10.62167350
_cell_length_c   12.21401200
_cell_angle_alpha   89.85397257
_cell_angle_beta   90.00000000
_cell_angle_gamma   90.00000000
_symmetry_Int_Tables_number   1
_chemical_formula_structural   Tm4Co7P12Ir9Ru4
_chemical_formula_sum   'Tm4 Co7 P12 Ir9 Ru4'
_cell_volume   500.51702747
_cell_formula_units_Z   1
loop_
 _symmetry_equiv_pos_site_id
 _symmetry_equiv_pos_as_xyz
  1  'x, y, z'
loop_
 _atom_site_type_symbol
 _atom_site_label
 _atom_site_symmetry_multiplicity
 _atom_site_fract_x
 _atom_site_fract_y
 _atom_site_fract_z
 _atom_site_occupancy
  Tm  Tm0  1  0.250000  0.582317  0.710214  1
  Tm  Tm1  1  0.250000  0.913853  0.209740  1
  Tm  Tm2  1  0.750000  0.415250  0.290166  1
  Tm  Tm3  1  0.750000  0.088033  0.791798  1
  Co  Co4  1  0.250000  0.614103  0.198934  1
  Co  Co5  1  0.750000  0.113926  0.300784  1
  Co  Co6  1  0.750000  0.384421  0.801906  1
  Co  Co7  1  0.250000  0.461760  0.934087  1
  Co  Co8  1  0.250000  0.037262  0.428820  1
  Co  Co9  1  0.750000  0.536968  0.067390  1
  Co  Co10  1  0.750000  0.961099  0.564543  1
  P  P11  1  0.250000  0.431764  0.111485  1
  P  P12  1  0.250000  0.077682  0.603152  1
  P  P13  1  0.750000  0.565538  0.890134  1
  P  P14  1  0.750000  0.930589  0.387932  1
  P  P15  1  0.250000  0.273614  0.871734  1
  P  P16  1  0.250000  0.227761  0.371490  1
  P  P17  1  0.750000  0.726082  0.128901  1
  P  P18  1  0.750000  0.769127  0.626049  1
  P  P19  1  0.250000  0.598667  0.379205  1
  P  P20  1  0.250000  0.902066  0.889723  1
  P  P21  1  0.750000  0.400288  0.619492  1
  P  P22  1  0.750000  0.100384  0.120056  1
  Ir  Ir23  1  0.250000  0.409036  0.477807  1
  Ir  Ir24  1  0.250000  0.093875  0.981229  1
  Ir  Ir25  1  0.750000  0.589740  0.520268  1
  Ir  Ir26  1  0.750000  0.908826  0.021313  1
  Ir  Ir27  1  0.250000  0.228561  0.181340  1
  Ir  Ir28  1  0.250000  0.274240  0.680212  1
  Ir  Ir29  1  0.750000  0.765345  0.820925  1
  Ir  Ir30  1  0.750000  0.727722  0.319214  1
  Ir  Ir31  1  0.250000  0.890494  0.700824  1
  Ru  Ru32  1  0.250000  0.717643  0.991150  1
  Ru  Ru33  1  0.250000  0.779169  0.487947  1
  Ru  Ru34  1  0.750000  0.282671  0.011614  1
  Ru  Ru35  1  0.750000  0.220122  0.508422  1
