# generated using pymatgen
data_AcIn3Pd
_symmetry_space_group_name_H-M   'P 1'
_cell_length_a   4.73354321
_cell_length_b   4.73430361
_cell_length_c   6.77382423
_cell_angle_alpha   69.51609686
_cell_angle_beta   69.54941253
_cell_angle_gamma   90.00000008
_symmetry_Int_Tables_number   1
_chemical_formula_structural   AcIn3Pd
_chemical_formula_sum   'Ac1 In3 Pd1'
_cell_volume   131.94162934
_cell_formula_units_Z   1
loop_
 _symmetry_equiv_pos_site_id
 _symmetry_equiv_pos_as_xyz
  1  'x, y, z'
loop_
 _atom_site_type_symbol
 _atom_site_label
 _atom_site_symmetry_multiplicity
 _atom_site_fract_x
 _atom_site_fract_y
 _atom_site_fract_z
 _atom_site_occupancy
  Ac  Ac0  1  0.997428  0.997569  0.005143  1
  In  In1  1  0.400236  0.400394  0.199526  1
  In  In2  1  0.738994  0.238983  0.522011  1
  In  In3  1  0.238836  0.738676  0.522327  1
  Pd  Pd4  1  0.624505  0.624379  0.750990  1
