# generated using pymatgen
data_Gd3P6(Pd4Rh)4
_symmetry_space_group_name_H-M   'P 1'
_cell_length_a   8.68997876
_cell_length_b   8.71228830
_cell_length_c   8.71229000
_cell_angle_alpha   59.81311582
_cell_angle_beta   59.73536844
_cell_angle_gamma   59.73536268
_symmetry_Int_Tables_number   1
_chemical_formula_structural   Gd3P6(Pd4Rh)4
_chemical_formula_sum   'Gd3 P6 Pd16 Rh4'
_cell_volume   463.88175333
_cell_formula_units_Z   1
loop_
 _symmetry_equiv_pos_site_id
 _symmetry_equiv_pos_as_xyz
  1  'x, y, z'
loop_
 _atom_site_type_symbol
 _atom_site_label
 _atom_site_symmetry_multiplicity
 _atom_site_fract_x
 _atom_site_fract_y
 _atom_site_fract_z
 _atom_site_occupancy
  Gd  Gd0  1  0.260893  0.247590  0.247590  1
  Gd  Gd1  1  0.742854  0.746960  0.746960  1
  Gd  Gd2  1  0.999517  0.000244  0.000244  1
  P  P3  1  0.729068  0.266251  0.266251  1
  P  P4  1  0.278170  0.726257  0.726257  1
  P  P5  1  0.270923  0.729279  0.269610  1
  P  P6  1  0.726325  0.273447  0.733986  1
  P  P7  1  0.270923  0.269610  0.729279  1
  P  P8  1  0.726325  0.733986  0.273447  1
  Pd  Pd9  1  0.619876  0.614992  0.152081  1
  Pd  Pd10  1  0.619876  0.152081  0.614992  1
  Pd  Pd11  1  0.852189  0.381102  0.381102  1
  Pd  Pd12  1  0.147447  0.618093  0.618093  1
  Pd  Pd13  1  0.341664  0.002299  0.002299  1
  Pd  Pd14  1  0.654652  0.000640  0.000640  1
  Pd  Pd15  1  0.998889  0.345909  0.657124  1
  Pd  Pd16  1  0.998889  0.657124  0.345909  1
  Pd  Pd17  1  0.999864  0.345112  0.001141  1
  Pd  Pd18  1  0.653893  0.999418  0.347389  1
  Pd  Pd19  1  0.999324  0.657280  0.000673  1
  Pd  Pd20  1  0.342386  0.000769  0.656741  1
  Pd  Pd21  1  0.999864  0.001141  0.345112  1
  Pd  Pd22  1  0.999324  0.000673  0.657280  1
  Pd  Pd23  1  0.653893  0.347389  0.999418  1
  Pd  Pd24  1  0.342386  0.656741  0.000769  1
  Rh  Rh25  1  0.386900  0.387922  0.387922  1
  Rh  Rh26  1  0.616628  0.610819  0.610819  1
  Rh  Rh27  1  0.383528  0.384991  0.841881  1
  Rh  Rh28  1  0.383528  0.841881  0.384991  1
