# generated using pymatgen
data_TbAl6(ZnCu2)2
_symmetry_space_group_name_H-M   'P 1'
_cell_length_a   6.70166533
_cell_length_b   6.70166502
_cell_length_c   6.70166454
_cell_angle_alpha   134.56298615
_cell_angle_beta   99.07834925
_cell_angle_gamma   98.07805695
_symmetry_Int_Tables_number   1
_chemical_formula_structural   TbAl6(ZnCu2)2
_chemical_formula_sum   'Tb1 Al6 Zn2 Cu4'
_cell_volume   197.79885737
_cell_formula_units_Z   1
loop_
 _symmetry_equiv_pos_site_id
 _symmetry_equiv_pos_as_xyz
  1  'x, y, z'
loop_
 _atom_site_type_symbol
 _atom_site_label
 _atom_site_symmetry_multiplicity
 _atom_site_fract_x
 _atom_site_fract_y
 _atom_site_fract_z
 _atom_site_occupancy
  Tb  Tb0  1  0.000000  0.000000  0.000000  1
  Al  Al1  1  0.347659  0.347659  0.000000  1
  Al  Al2  1  0.652341  0.652341  0.000000  1
  Al  Al3  1  0.651971  0.000000  0.651971  1
  Al  Al4  1  0.348029  0.000000  0.348029  1
  Al  Al5  1  0.785015  0.285015  0.500000  1
  Al  Al6  1  0.214985  0.714985  0.500000  1
  Zn  Zn7  1  0.222579  0.500000  0.722579  1
  Zn  Zn8  1  0.777421  0.500000  0.277421  1
  Cu  Cu9  1  0.500000  0.000000  0.000000  1
  Cu  Cu10  1  0.500000  0.500000  0.500000  1
  Cu  Cu11  1  0.000000  0.000000  0.500000  1
  Cu  Cu12  1  0.000000  0.500000  0.000000  1
