# generated using pymatgen
data_Sr9Zr(Pa2N7)2
_symmetry_space_group_name_H-M   'P 1'
_cell_length_a   6.24303620
_cell_length_b   9.51059406
_cell_length_c   9.40915700
_cell_angle_alpha   119.80458490
_cell_angle_beta   95.04336097
_cell_angle_gamma   103.96733482
_symmetry_Int_Tables_number   1
_chemical_formula_structural   Sr9Zr(Pa2N7)2
_chemical_formula_sum   'Sr9 Zr1 Pa4 N14'
_cell_volume   455.87755079
_cell_formula_units_Z   1
loop_
 _symmetry_equiv_pos_site_id
 _symmetry_equiv_pos_as_xyz
  1  'x, y, z'
loop_
 _atom_site_type_symbol
 _atom_site_label
 _atom_site_symmetry_multiplicity
 _atom_site_fract_x
 _atom_site_fract_y
 _atom_site_fract_z
 _atom_site_occupancy
  Sr  Sr0  1  0.229740  0.948078  0.567848  1
  Sr  Sr1  1  0.739113  0.304284  0.860134  1
  Sr  Sr2  1  0.222979  0.658484  0.140445  1
  Sr  Sr3  1  0.233517  0.801996  0.852167  1
  Sr  Sr4  1  0.727837  0.159700  0.142681  1
  Sr  Sr5  1  0.235539  0.379701  0.721472  1
  Sr  Sr6  1  0.735138  0.883132  0.719825  1
  Sr  Sr7  1  0.228004  0.085885  0.285197  1
  Sr  Sr8  1  0.734708  0.021657  0.433579  1
  Zr  Zr9  1  0.709570  0.605358  0.292768  1
  Pa  Pa10  1  0.725925  0.447610  0.567155  1
  Pa  Pa11  1  0.229578  0.518921  0.425531  1
  Pa  Pa12  1  0.243250  0.233074  0.001093  1
  Pa  Pa13  1  0.734403  0.734930  0.005543  1
  N  N14  1  0.494457  0.603170  0.684276  1
  N  N15  1  0.474799  0.372571  0.296593  1
  N  N16  1  0.957395  0.650122  0.523449  1
  N  N17  1  0.989006  0.316961  0.448405  1
  N  N18  1  0.511234  0.223555  0.561927  1
  N  N19  1  0.487459  0.734016  0.418506  1
  N  N20  1  0.026075  0.141387  0.754946  1
  N  N21  1  0.929014  0.803926  0.266601  1
  N  N22  1  0.443663  0.076234  0.872952  1
  N  N23  1  0.967815  0.962628  0.003991  1
  N  N24  1  0.512240  0.490409  0.036335  1
  N  N25  1  0.042828  0.394565  0.151474  1
  N  N26  1  0.920026  0.568626  0.845686  1
  N  N27  1  0.514688  0.879022  0.119420  1
