# generated using pymatgen
data_K3Ba(PPd3)8
_symmetry_space_group_name_H-M   'P 1'
_cell_length_a   8.61366062
_cell_length_b   8.61366062
_cell_length_c   8.61366062
_cell_angle_alpha   90.14920747
_cell_angle_beta   90.14920747
_cell_angle_gamma   90.14920747
_symmetry_Int_Tables_number   1
_chemical_formula_structural   K3Ba(PPd3)8
_chemical_formula_sum   'K3 Ba1 P8 Pd24'
_cell_volume   639.08532368
_cell_formula_units_Z   1
loop_
 _symmetry_equiv_pos_site_id
 _symmetry_equiv_pos_as_xyz
  1  'x, y, z'
loop_
 _atom_site_type_symbol
 _atom_site_label
 _atom_site_symmetry_multiplicity
 _atom_site_fract_x
 _atom_site_fract_y
 _atom_site_fract_z
 _atom_site_occupancy
  K  K0  1  0.500000  0.500000  0.000000  1
  K  K1  1  0.500000  0.000000  0.500000  1
  K  K2  1  0.000000  0.500000  0.500000  1
  Ba  Ba3  1  0.000000  0.000000  0.000000  1
  P  P4  1  0.805319  0.308957  0.193960  1
  P  P5  1  0.193960  0.805319  0.308957  1
  P  P6  1  0.692768  0.692768  0.692768  1
  P  P7  1  0.308957  0.193960  0.805319  1
  P  P8  1  0.194681  0.691043  0.806040  1
  P  P9  1  0.806040  0.194681  0.691043  1
  P  P10  1  0.307232  0.307232  0.307232  1
  P  P11  1  0.691043  0.806040  0.194681  1
  Pd  Pd12  1  0.420189  0.849468  0.162579  1
  Pd  Pd13  1  0.577877  0.349481  0.337743  1
  Pd  Pd14  1  0.077753  0.153124  0.660090  1
  Pd  Pd15  1  0.922152  0.650281  0.835639  1
  Pd  Pd16  1  0.162579  0.420189  0.849468  1
  Pd  Pd17  1  0.337743  0.577877  0.349481  1
  Pd  Pd18  1  0.660090  0.077753  0.153124  1
  Pd  Pd19  1  0.835639  0.922152  0.650281  1
  Pd  Pd20  1  0.849468  0.162579  0.420189  1
  Pd  Pd21  1  0.349481  0.337743  0.577877  1
  Pd  Pd22  1  0.153124  0.660090  0.077753  1
  Pd  Pd23  1  0.650281  0.835639  0.922152  1
  Pd  Pd24  1  0.579811  0.150532  0.837421  1
  Pd  Pd25  1  0.422123  0.650519  0.662257  1
  Pd  Pd26  1  0.922247  0.846876  0.339910  1
  Pd  Pd27  1  0.077848  0.349719  0.164361  1
  Pd  Pd28  1  0.837421  0.579811  0.150532  1
  Pd  Pd29  1  0.662257  0.422123  0.650519  1
  Pd  Pd30  1  0.339910  0.922247  0.846876  1
  Pd  Pd31  1  0.164361  0.077848  0.349719  1
  Pd  Pd32  1  0.150532  0.837421  0.579811  1
  Pd  Pd33  1  0.650519  0.662257  0.422123  1
  Pd  Pd34  1  0.846876  0.339910  0.922247  1
  Pd  Pd35  1  0.349719  0.164361  0.077848  1
