# generated using pymatgen
data_Rb4Li2LuInSb4
_symmetry_space_group_name_H-M   'P 1'
_cell_length_a   11.10480631
_cell_length_b   11.10480527
_cell_length_c   7.09832600
_cell_angle_alpha   90.00000000
_cell_angle_beta   90.00000000
_cell_angle_gamma   101.49206437
_symmetry_Int_Tables_number   1
_chemical_formula_structural   Rb4Li2LuInSb4
_chemical_formula_sum   'Rb8 Li4 Lu2 In2 Sb8'
_cell_volume   857.79362963
_cell_formula_units_Z   2
loop_
 _symmetry_equiv_pos_site_id
 _symmetry_equiv_pos_as_xyz
  1  'x, y, z'
loop_
 _atom_site_type_symbol
 _atom_site_label
 _atom_site_symmetry_multiplicity
 _atom_site_fract_x
 _atom_site_fract_y
 _atom_site_fract_z
 _atom_site_occupancy
  Rb  Rb0  1  0.572270  0.927730  0.750000  1
  Rb  Rb1  1  0.927730  0.572270  0.250000  1
  Rb  Rb2  1  0.423056  0.076944  0.250000  1
  Rb  Rb3  1  0.076944  0.423056  0.750000  1
  Rb  Rb4  1  0.670524  0.324167  0.774851  1
  Rb  Rb5  1  0.829476  0.175833  0.274851  1
  Rb  Rb6  1  0.324167  0.670524  0.225149  1
  Rb  Rb7  1  0.175833  0.829476  0.725149  1
  Li  Li8  1  0.619460  0.619460  0.000000  1
  Li  Li9  1  0.880540  0.880540  0.500000  1
  Li  Li10  1  0.378310  0.378310  0.000000  1
  Li  Li11  1  0.121690  0.121690  0.500000  1
  Lu  Lu12  1  0.873836  0.873836  0.000000  1
  Lu  Lu13  1  0.626164  0.626164  0.500000  1
  In  In14  1  0.130357  0.130357  0.000000  1
  In  In15  1  0.369643  0.369643  0.500000  1
  Sb  Sb16  1  0.346579  0.153421  0.750000  1
  Sb  Sb17  1  0.153421  0.346579  0.250000  1
  Sb  Sb18  1  0.655252  0.844748  0.250000  1
  Sb  Sb19  1  0.844748  0.655252  0.750000  1
  Sb  Sb20  1  0.906749  0.098250  0.764052  1
  Sb  Sb21  1  0.593251  0.401750  0.264052  1
  Sb  Sb22  1  0.098250  0.906749  0.235948  1
  Sb  Sb23  1  0.401750  0.593251  0.735948  1
