# generated using pymatgen
data_Er8ZnSi11Pt4
_symmetry_space_group_name_H-M   'P 1'
_cell_length_a   8.19438918
_cell_length_b   8.19438922
_cell_length_c   7.90903318
_cell_angle_alpha   89.97891956
_cell_angle_beta   90.02107737
_cell_angle_gamma   120.09874297
_symmetry_Int_Tables_number   1
_chemical_formula_structural   Er8ZnSi11Pt4
_chemical_formula_sum   'Er8 Zn1 Si11 Pt4'
_cell_volume   459.46684848
_cell_formula_units_Z   1
loop_
 _symmetry_equiv_pos_site_id
 _symmetry_equiv_pos_as_xyz
  1  'x, y, z'
loop_
 _atom_site_type_symbol
 _atom_site_label
 _atom_site_symmetry_multiplicity
 _atom_site_fract_x
 _atom_site_fract_y
 _atom_site_fract_z
 _atom_site_occupancy
  Er  Er0  1  0.002875  0.997125  0.248064  1
  Er  Er1  1  0.003253  0.996747  0.751131  1
  Er  Er2  1  0.495843  0.504157  0.252183  1
  Er  Er3  1  0.498355  0.995796  0.253563  1
  Er  Er4  1  0.004204  0.501645  0.253563  1
  Er  Er5  1  0.502052  0.497948  0.748076  1
  Er  Er6  1  0.992309  0.496460  0.746524  1
  Er  Er7  1  0.503540  0.007691  0.746524  1
  Zn  Zn8  1  0.837846  0.162154  0.500109  1
  Si  Si9  1  0.833544  0.670505  0.500307  1
  Si  Si10  1  0.329495  0.166456  0.500307  1
  Si  Si11  1  0.835793  0.164207  0.999710  1
  Si  Si12  1  0.834313  0.669258  0.999398  1
  Si  Si13  1  0.330742  0.165687  0.999398  1
  Si  Si14  1  0.165267  0.834733  0.000582  1
  Si  Si15  1  0.669858  0.834073  0.000146  1
  Si  Si16  1  0.165927  0.330142  0.000146  1
  Si  Si17  1  0.165135  0.834865  0.499489  1
  Si  Si18  1  0.670399  0.835465  0.499913  1
  Si  Si19  1  0.164535  0.329601  0.499913  1
  Pt  Pt20  1  0.661892  0.338108  0.490227  1
  Pt  Pt21  1  0.667292  0.332708  0.009505  1
  Pt  Pt22  1  0.332825  0.667175  0.992593  1
  Pt  Pt23  1  0.332705  0.667295  0.508630  1
