# generated using pymatgen
data_YbPr6TcI12
_symmetry_space_group_name_H-M   'P 1'
_cell_length_a   10.13320091
_cell_length_b   10.13320055
_cell_length_c   10.13320168
_cell_angle_alpha   107.05014017
_cell_angle_beta   107.05014002
_cell_angle_gamma   107.05014027
_symmetry_Int_Tables_number   1
_chemical_formula_structural   YbPr6TcI12
_chemical_formula_sum   'Yb1 Pr6 Tc1 I12'
_cell_volume   865.34620318
_cell_formula_units_Z   1
loop_
 _symmetry_equiv_pos_site_id
 _symmetry_equiv_pos_as_xyz
  1  'x, y, z'
loop_
 _atom_site_type_symbol
 _atom_site_label
 _atom_site_symmetry_multiplicity
 _atom_site_fract_x
 _atom_site_fract_y
 _atom_site_fract_z
 _atom_site_occupancy
  Yb  Yb0  1  0.500000  0.500000  0.500000  1
  Pr  Pr1  1  0.974417  0.900421  0.697170  1
  Pr  Pr2  1  0.025583  0.099579  0.302830  1
  Pr  Pr3  1  0.099579  0.302830  0.025583  1
  Pr  Pr4  1  0.302830  0.025583  0.099579  1
  Pr  Pr5  1  0.900421  0.697170  0.974417  1
  Pr  Pr6  1  0.697170  0.974417  0.900421  1
  Tc  Tc7  1  0.000000  0.000000  0.000000  1
  I  I8  1  0.539631  0.617658  0.838009  1
  I  I9  1  0.460369  0.382342  0.161991  1
  I  I10  1  0.317671  0.927402  0.774998  1
  I  I11  1  0.382342  0.161991  0.460369  1
  I  I12  1  0.927402  0.774998  0.317671  1
  I  I13  1  0.682329  0.072598  0.225002  1
  I  I14  1  0.072598  0.225002  0.682329  1
  I  I15  1  0.774998  0.317671  0.927402  1
  I  I16  1  0.225002  0.682329  0.072598  1
  I  I17  1  0.838009  0.539631  0.617658  1
  I  I18  1  0.161991  0.460369  0.382342  1
  I  I19  1  0.617658  0.838009  0.539631  1
