# generated using pymatgen
data_TaNb3Al4(GaCu)2
_symmetry_space_group_name_H-M   'P 1'
_cell_length_a   4.97763404
_cell_length_b   5.13807263
_cell_length_c   8.33530309
_cell_angle_alpha   89.99969153
_cell_angle_beta   90.01474704
_cell_angle_gamma   121.06979164
_symmetry_Int_Tables_number   1
_chemical_formula_structural   TaNb3Al4(GaCu)2
_chemical_formula_sum   'Ta1 Nb3 Al4 Ga2 Cu2'
_cell_volume   182.59625851
_cell_formula_units_Z   1
loop_
 _symmetry_equiv_pos_site_id
 _symmetry_equiv_pos_as_xyz
  1  'x, y, z'
loop_
 _atom_site_type_symbol
 _atom_site_label
 _atom_site_symmetry_multiplicity
 _atom_site_fract_x
 _atom_site_fract_y
 _atom_site_fract_z
 _atom_site_occupancy
  Ta  Ta0  1  0.680615  0.340313  0.564899  1
  Nb  Nb1  1  0.318559  0.659281  0.437409  1
  Nb  Nb2  1  0.318316  0.659134  0.063001  1
  Nb  Nb3  1  0.680934  0.340487  0.935020  1
  Al  Al4  1  0.999837  0.999919  0.499369  1
  Al  Al5  1  0.999719  0.999862  0.000716  1
  Al  Al6  1  0.191862  0.354480  0.749858  1
  Al  Al7  1  0.191863  0.837392  0.749864  1
  Ga  Ga8  1  0.808597  0.644941  0.250013  1
  Ga  Ga9  1  0.808604  0.163657  0.250012  1
  Cu  Cu10  1  0.680008  0.840010  0.749711  1
  Cu  Cu11  1  0.321084  0.160529  0.250127  1
