# generated using pymatgen
data_HoSc(SiTc2)4
_symmetry_space_group_name_H-M   'P 1'
_cell_length_a   7.29890733
_cell_length_b   7.29890733
_cell_length_c   4.13209800
_cell_angle_alpha   90.00000000
_cell_angle_beta   90.00000000
_cell_angle_gamma   88.30514223
_symmetry_Int_Tables_number   1
_chemical_formula_structural   HoSc(SiTc2)4
_chemical_formula_sum   'Ho1 Sc1 Si4 Tc8'
_cell_volume   220.03728358
_cell_formula_units_Z   1
loop_
 _symmetry_equiv_pos_site_id
 _symmetry_equiv_pos_as_xyz
  1  'x, y, z'
loop_
 _atom_site_type_symbol
 _atom_site_label
 _atom_site_symmetry_multiplicity
 _atom_site_fract_x
 _atom_site_fract_y
 _atom_site_fract_z
 _atom_site_occupancy
  Ho  Ho0  1  0.500000  0.500000  0.000000  1
  Sc  Sc1  1  0.000000  0.000000  0.500000  1
  Si  Si2  1  0.712095  0.712095  0.500000  1
  Si  Si3  1  0.287905  0.287905  0.500000  1
  Si  Si4  1  0.200315  0.799685  0.000000  1
  Si  Si5  1  0.799685  0.200315  0.000000  1
  Tc  Tc6  1  0.601781  0.151031  0.500000  1
  Tc  Tc7  1  0.398219  0.848969  0.500000  1
  Tc  Tc8  1  0.090556  0.340508  0.000000  1
  Tc  Tc9  1  0.909444  0.659492  0.000000  1
  Tc  Tc10  1  0.151031  0.601781  0.500000  1
  Tc  Tc11  1  0.848969  0.398219  0.500000  1
  Tc  Tc12  1  0.340508  0.090556  0.000000  1
  Tc  Tc13  1  0.659492  0.909444  0.000000  1
