# generated using pymatgen
data_Be8V2ReTc
_symmetry_space_group_name_H-M   'P 1'
_cell_length_a   4.34078400
_cell_length_b   4.34078345
_cell_length_c   7.11308200
_cell_angle_alpha   90.00000000
_cell_angle_beta   90.00000000
_cell_angle_gamma   120.00001946
_symmetry_Int_Tables_number   1
_chemical_formula_structural   Be8V2ReTc
_chemical_formula_sum   'Be8 V2 Re1 Tc1'
_cell_volume   116.07124899
_cell_formula_units_Z   1
loop_
 _symmetry_equiv_pos_site_id
 _symmetry_equiv_pos_as_xyz
  1  'x, y, z'
loop_
 _atom_site_type_symbol
 _atom_site_label
 _atom_site_symmetry_multiplicity
 _atom_site_fract_x
 _atom_site_fract_y
 _atom_site_fract_z
 _atom_site_occupancy
  Be  Be0  1  0.000000  0.000000  0.999129  1
  Be  Be1  1  0.000000  0.000000  0.499663  1
  Be  Be2  1  0.830351  0.660703  0.250273  1
  Be  Be3  1  0.169779  0.830221  0.750109  1
  Be  Be4  1  0.660442  0.830221  0.750109  1
  Be  Be5  1  0.339297  0.169649  0.250273  1
  Be  Be6  1  0.830351  0.169649  0.250273  1
  Be  Be7  1  0.169779  0.339558  0.750109  1
  V  V8  1  0.333333  0.666667  0.062285  1
  V  V9  1  0.666667  0.333333  0.562703  1
  Re  Re10  1  0.333333  0.666667  0.437757  1
  Tc  Tc11  1  0.666667  0.333333  0.937320  1
