# generated using pymatgen
data_Yb9HoIr4
_symmetry_space_group_name_H-M   'P 1'
_cell_length_a   6.44589360
_cell_length_b   7.42460592
_cell_length_c   8.42832058
_cell_angle_alpha   96.92961628
_cell_angle_beta   112.48210943
_cell_angle_gamma   90.00000154
_symmetry_Int_Tables_number   1
_chemical_formula_structural   Yb9HoIr4
_chemical_formula_sum   'Yb9 Ho1 Ir4'
_cell_volume   369.51740791
_cell_formula_units_Z   1
loop_
 _symmetry_equiv_pos_site_id
 _symmetry_equiv_pos_as_xyz
  1  'x, y, z'
loop_
 _atom_site_type_symbol
 _atom_site_label
 _atom_site_symmetry_multiplicity
 _atom_site_fract_x
 _atom_site_fract_y
 _atom_site_fract_z
 _atom_site_occupancy
  Yb  Yb0  1  0.965234  0.920127  0.170395  1
  Yb  Yb1  1  0.794841  0.579873  0.829605  1
  Yb  Yb2  1  0.031290  0.079090  0.828356  1
  Yb  Yb3  1  0.202934  0.420910  0.171644  1
  Yb  Yb4  1  0.642533  0.821461  0.436745  1
  Yb  Yb5  1  0.205788  0.678539  0.563255  1
  Yb  Yb6  1  0.355256  0.179006  0.559856  1
  Yb  Yb7  1  0.795401  0.320994  0.440144  1
  Yb  Yb8  1  0.429835  0.750000  0.000000  1
  Ho  Ho9  1  0.565924  0.250000  0.000000  1
  Ir  Ir10  1  0.821055  0.569533  0.214704  1
  Ir  Ir11  1  0.606352  0.930467  0.785296  1
  Ir  Ir12  1  0.184401  0.418997  0.785244  1
  Ir  Ir13  1  0.399156  0.081003  0.214756  1
