# generated using pymatgen
data_Eu4Ta3WO14
_symmetry_space_group_name_H-M   'P 1'
_cell_length_a   7.52780497
_cell_length_b   7.56840231
_cell_length_c   7.56840200
_cell_angle_alpha   60.00000137
_cell_angle_beta   59.82144190
_cell_angle_gamma   59.82143480
_symmetry_Int_Tables_number   1
_chemical_formula_structural   Eu4Ta3WO14
_chemical_formula_sum   'Eu4 Ta3 W1 O14'
_cell_volume   304.07753517
_cell_formula_units_Z   1
loop_
 _symmetry_equiv_pos_site_id
 _symmetry_equiv_pos_as_xyz
  1  'x, y, z'
loop_
 _atom_site_type_symbol
 _atom_site_label
 _atom_site_symmetry_multiplicity
 _atom_site_fract_x
 _atom_site_fract_y
 _atom_site_fract_z
 _atom_site_occupancy
  Eu  Eu0  1  0.625000  0.125000  0.125000  1
  Eu  Eu1  1  0.125000  0.625000  0.125000  1
  Eu  Eu2  1  0.125000  0.125000  0.625000  1
  Eu  Eu3  1  0.125000  0.125000  0.125000  1
  Ta  Ta4  1  0.625000  0.125000  0.625000  1
  Ta  Ta5  1  0.625000  0.625000  0.125000  1
  Ta  Ta6  1  0.625000  0.625000  0.625000  1
  W  W7  1  0.125000  0.625000  0.625000  1
  O  O8  1  0.254586  0.248472  0.248472  1
  O  O9  1  0.995414  0.001528  0.001528  1
  O  O10  1  0.680353  0.698284  0.310682  1
  O  O11  1  0.305985  0.280002  0.707007  1
  O  O12  1  0.680353  0.310682  0.698284  1
  O  O13  1  0.305985  0.707007  0.280002  1
  O  O14  1  0.305985  0.707007  0.707007  1
  O  O15  1  0.680353  0.310682  0.310682  1
  O  O16  1  0.569647  0.551716  0.939318  1
  O  O17  1  0.944015  0.969998  0.542993  1
  O  O18  1  0.569647  0.939318  0.551716  1
  O  O19  1  0.944015  0.542993  0.969998  1
  O  O20  1  0.944015  0.542993  0.542993  1
  O  O21  1  0.569647  0.939318  0.939318  1
