# generated using pymatgen
data_Er8Ti7Si16MoW4
_symmetry_space_group_name_H-M   'P 1'
_cell_length_a   6.93220463
_cell_length_b   6.92683037
_cell_length_c   12.77592002
_cell_angle_alpha   89.87557568
_cell_angle_beta   89.98262755
_cell_angle_gamma   89.94096630
_symmetry_Int_Tables_number   1
_chemical_formula_structural   Er8Ti7Si16MoW4
_chemical_formula_sum   'Er8 Ti7 Si16 Mo1 W4'
_cell_volume   613.47495421
_cell_formula_units_Z   1
loop_
 _symmetry_equiv_pos_site_id
 _symmetry_equiv_pos_as_xyz
  1  'x, y, z'
loop_
 _atom_site_type_symbol
 _atom_site_label
 _atom_site_symmetry_multiplicity
 _atom_site_fract_x
 _atom_site_fract_y
 _atom_site_fract_z
 _atom_site_occupancy
  Er  Er0  1  0.341391  0.000015  0.468115  1
  Er  Er1  1  0.499666  0.840481  0.719383  1
  Er  Er2  1  0.499621  0.159827  0.217628  1
  Er  Er3  1  0.840652  0.500011  0.281971  1
  Er  Er4  1  0.159381  0.498576  0.781751  1
  Er  Er5  1  0.658479  0.999642  0.968245  1
  Er  Er6  1  0.000089  0.340493  0.532544  1
  Er  Er7  1  0.999672  0.659109  0.030247  1
  Ti  Ti8  1  0.491195  0.654821  0.124615  1
  Ti  Ti9  1  0.506664  0.346887  0.626847  1
  Ti  Ti10  1  0.653657  0.489356  0.873707  1
  Ti  Ti11  1  0.347027  0.508667  0.374666  1
  Ti  Ti12  1  0.846153  0.992773  0.374733  1
  Ti  Ti13  1  0.006055  0.153790  0.125897  1
  Ti  Ti14  1  0.992120  0.846832  0.625335  1
  Si  Si15  1  0.201940  0.130061  0.683606  1
  Si  Si16  1  0.370497  0.702512  0.931953  1
  Si  Si17  1  0.630885  0.299273  0.433978  1
  Si  Si18  1  0.701195  0.369367  0.066853  1
  Si  Si19  1  0.299929  0.631626  0.567001  1
  Si  Si20  1  0.798361  0.868957  0.182882  1
  Si  Si21  1  0.131088  0.202566  0.317233  1
  Si  Si22  1  0.870201  0.798351  0.818227  1
  Si  Si23  1  0.292831  0.955996  0.064370  1
  Si  Si24  1  0.545519  0.793291  0.314906  1
  Si  Si25  1  0.452087  0.207132  0.815688  1
  Si  Si26  1  0.792524  0.546938  0.684091  1
  Si  Si27  1  0.206950  0.454838  0.184830  1
  Si  Si28  1  0.708200  0.045611  0.565060  1
  Si  Si29  1  0.956434  0.289348  0.934848  1
  Si  Si30  1  0.045487  0.707798  0.434764  1
  Mo  Mo31  1  0.153970  0.004136  0.874925  1
  W  W32  1  0.327160  0.328418  0.000254  1
  W  W33  1  0.171673  0.828193  0.249160  1
  W  W34  1  0.827796  0.171357  0.750004  1
  W  W35  1  0.673451  0.672952  0.499682  1
