# generated using pymatgen
data_Hf6Ta2Fe3CoN2
_symmetry_space_group_name_H-M   'P 1'
_cell_length_a   8.43002824
_cell_length_b   8.43002722
_cell_length_c   8.43854300
_cell_angle_alpha   59.96658208
_cell_angle_beta   59.96658607
_cell_angle_gamma   59.92310847
_symmetry_Int_Tables_number   1
_chemical_formula_structural   Hf6Ta2Fe3CoN2
_chemical_formula_sum   'Hf12 Ta4 Fe6 Co2 N4'
_cell_volume   423.58267154
_cell_formula_units_Z   2
loop_
 _symmetry_equiv_pos_site_id
 _symmetry_equiv_pos_as_xyz
  1  'x, y, z'
loop_
 _atom_site_type_symbol
 _atom_site_label
 _atom_site_symmetry_multiplicity
 _atom_site_fract_x
 _atom_site_fract_y
 _atom_site_fract_z
 _atom_site_occupancy
  Hf  Hf0  1  0.813130  0.813130  0.186870  1
  Hf  Hf1  1  0.188033  0.188033  0.811967  1
  Hf  Hf2  1  0.811969  0.187944  0.813024  1
  Hf  Hf3  1  0.187944  0.811969  0.187062  1
  Hf  Hf4  1  0.187944  0.811969  0.813024  1
  Hf  Hf5  1  0.811969  0.187944  0.187062  1
  Hf  Hf6  1  0.438268  0.438268  0.061732  1
  Hf  Hf7  1  0.061349  0.061349  0.438651  1
  Hf  Hf8  1  0.438172  0.063829  0.438404  1
  Hf  Hf9  1  0.063829  0.438172  0.059595  1
  Hf  Hf10  1  0.063829  0.438172  0.438404  1
  Hf  Hf11  1  0.438172  0.063829  0.059595  1
  Ta  Ta12  1  0.123286  0.625080  0.625817  1
  Ta  Ta13  1  0.625080  0.123286  0.625817  1
  Ta  Ta14  1  0.625746  0.625746  0.122409  1
  Ta  Ta15  1  0.625746  0.625746  0.626099  1
  Fe  Fe16  1  0.418178  0.418178  0.744376  1
  Fe  Fe17  1  0.418178  0.418178  0.419269  1
  Fe  Fe18  1  0.503744  0.831910  0.832172  1
  Fe  Fe19  1  0.831910  0.503744  0.832172  1
  Fe  Fe20  1  0.832182  0.832182  0.503504  1
  Fe  Fe21  1  0.832182  0.832182  0.832132  1
  Co  Co22  1  0.742283  0.418611  0.419554  1
  Co  Co23  1  0.418611  0.742283  0.419554  1
  N  N24  1  0.624863  0.124285  0.125426  1
  N  N25  1  0.124285  0.624863  0.125426  1
  N  N26  1  0.124559  0.124559  0.625135  1
  N  N27  1  0.124559  0.124559  0.125747  1
