# generated using pymatgen
data_HoTh3MgNi4Hg
_symmetry_space_group_name_H-M   'P 1'
_cell_length_a   7.58844720
_cell_length_b   7.57179738
_cell_length_c   3.68251200
_cell_angle_alpha   90.00000000
_cell_angle_beta   90.00000000
_cell_angle_gamma   90.75811631
_symmetry_Int_Tables_number   1
_chemical_formula_structural   HoTh3MgNi4Hg
_chemical_formula_sum   'Ho1 Th3 Mg1 Ni4 Hg1'
_cell_volume   211.57193236
_cell_formula_units_Z   1
loop_
 _symmetry_equiv_pos_site_id
 _symmetry_equiv_pos_as_xyz
  1  'x, y, z'
loop_
 _atom_site_type_symbol
 _atom_site_label
 _atom_site_symmetry_multiplicity
 _atom_site_fract_x
 _atom_site_fract_y
 _atom_site_fract_z
 _atom_site_occupancy
  Ho  Ho0  1  0.829488  0.675315  0.500000  1
  Th  Th1  1  0.675066  0.171265  0.500000  1
  Th  Th2  1  0.327271  0.824794  0.500000  1
  Th  Th3  1  0.170431  0.330121  0.500000  1
  Mg  Mg4  1  0.508382  0.502754  0.000000  1
  Ni  Ni5  1  0.130166  0.617587  0.000000  1
  Ni  Ni6  1  0.873515  0.378066  0.000000  1
  Ni  Ni7  1  0.612723  0.879755  0.000000  1
  Ni  Ni8  1  0.377087  0.130306  0.000000  1
  Hg  Hg9  1  0.995871  0.990035  0.000000  1
