# generated using pymatgen
data_SbAs(Cl2F3)2
_symmetry_space_group_name_H-M   'P 1'
_cell_length_a   9.11846500
_cell_length_b   9.11846500
_cell_length_c   6.66539700
_cell_angle_alpha   90.00000000
_cell_angle_beta   90.00000000
_cell_angle_gamma   90.00000000
_symmetry_Int_Tables_number   1
_chemical_formula_structural   SbAs(Cl2F3)2
_chemical_formula_sum   'Sb2 As2 Cl8 F12'
_cell_volume   554.20379149
_cell_formula_units_Z   2
loop_
 _symmetry_equiv_pos_site_id
 _symmetry_equiv_pos_as_xyz
  1  'x, y, z'
loop_
 _atom_site_type_symbol
 _atom_site_label
 _atom_site_symmetry_multiplicity
 _atom_site_fract_x
 _atom_site_fract_y
 _atom_site_fract_z
 _atom_site_occupancy
  Sb  Sb0  1  0.500000  0.000000  0.674216  1
  Sb  Sb1  1  0.000000  0.500000  0.325784  1
  As  As2  1  0.500000  0.500000  0.000000  1
  As  As3  1  0.000000  0.000000  0.000000  1
  Cl  Cl4  1  0.464785  0.684335  0.181646  1
  Cl  Cl5  1  0.184335  0.035215  0.181646  1
  Cl  Cl6  1  0.684335  0.535215  0.818354  1
  Cl  Cl7  1  0.035215  0.815665  0.818354  1
  Cl  Cl8  1  0.964785  0.184335  0.818354  1
  Cl  Cl9  1  0.315665  0.464785  0.818354  1
  Cl  Cl10  1  0.535215  0.315665  0.181646  1
  Cl  Cl11  1  0.815665  0.964785  0.181646  1
  F  F12  1  0.500000  0.000000  0.384823  1
  F  F13  1  0.000000  0.500000  0.615177  1
  F  F14  1  0.430954  0.800467  0.672978  1
  F  F15  1  0.300467  0.069046  0.672978  1
  F  F16  1  0.699533  0.930954  0.672978  1
  F  F17  1  0.569046  0.199533  0.672978  1
  F  F18  1  0.069046  0.699533  0.327022  1
  F  F19  1  0.199533  0.430954  0.327022  1
  F  F20  1  0.800467  0.569046  0.327022  1
  F  F21  1  0.000000  0.500000  0.038910  1
  F  F22  1  0.500000  0.000000  0.961090  1
  F  F23  1  0.930954  0.300467  0.327022  1
