# generated using pymatgen
data_DyTa8MoS16
_symmetry_space_group_name_H-M   'P 1'
_cell_length_a   6.67357800
_cell_length_b   6.67357706
_cell_length_c   13.11220800
_cell_angle_alpha   90.00000000
_cell_angle_beta   90.00000000
_cell_angle_gamma   120.00000465
_symmetry_Int_Tables_number   1
_chemical_formula_structural   DyTa8MoS16
_chemical_formula_sum   'Dy1 Ta8 Mo1 S16'
_cell_volume   505.73599138
_cell_formula_units_Z   1
loop_
 _symmetry_equiv_pos_site_id
 _symmetry_equiv_pos_as_xyz
  1  'x, y, z'
loop_
 _atom_site_type_symbol
 _atom_site_label
 _atom_site_symmetry_multiplicity
 _atom_site_fract_x
 _atom_site_fract_y
 _atom_site_fract_z
 _atom_site_occupancy
  Dy  Dy0  1  0.000000  0.000000  0.500000  1
  Ta  Ta1  1  0.505111  0.494889  0.764201  1
  Ta  Ta2  1  0.010221  0.505111  0.235799  1
  Ta  Ta3  1  0.494889  0.989779  0.235799  1
  Ta  Ta4  1  0.505111  0.010221  0.764201  1
  Ta  Ta5  1  0.989779  0.494889  0.764201  1
  Ta  Ta6  1  0.494889  0.505111  0.235799  1
  Ta  Ta7  1  0.000000  0.000000  0.762851  1
  Ta  Ta8  1  0.000000  0.000000  0.237149  1
  Mo  Mo9  1  0.000000  0.000000  0.000000  1
  S  S10  1  0.830468  0.169532  0.356523  1
  S  S11  1  0.830468  0.660935  0.356523  1
  S  S12  1  0.339065  0.169532  0.356523  1
  S  S13  1  0.665943  0.832971  0.882814  1
  S  S14  1  0.169532  0.339065  0.643477  1
  S  S15  1  0.167029  0.832971  0.882814  1
  S  S16  1  0.167029  0.334057  0.882814  1
  S  S17  1  0.832971  0.167029  0.117186  1
  S  S18  1  0.334057  0.167029  0.117186  1
  S  S19  1  0.660935  0.830468  0.643477  1
  S  S20  1  0.333333  0.666667  0.114156  1
  S  S21  1  0.666667  0.333333  0.640918  1
  S  S22  1  0.666667  0.333333  0.885844  1
  S  S23  1  0.333333  0.666667  0.359082  1
  S  S24  1  0.832971  0.665943  0.117186  1
  S  S25  1  0.169532  0.830468  0.643477  1
