# generated using pymatgen
data_Y4Si4IrOsRh2
_symmetry_space_group_name_H-M   'P 1'
_cell_length_a   4.28353200
_cell_length_b   6.92621789
_cell_length_c   7.35020949
_cell_angle_alpha   89.90649523
_cell_angle_beta   90.00000000
_cell_angle_gamma   90.00000000
_symmetry_Int_Tables_number   1
_chemical_formula_structural   Y4Si4IrOsRh2
_chemical_formula_sum   'Y4 Si4 Ir1 Os1 Rh2'
_cell_volume   218.07069334
_cell_formula_units_Z   1
loop_
 _symmetry_equiv_pos_site_id
 _symmetry_equiv_pos_as_xyz
  1  'x, y, z'
loop_
 _atom_site_type_symbol
 _atom_site_label
 _atom_site_symmetry_multiplicity
 _atom_site_fract_x
 _atom_site_fract_y
 _atom_site_fract_z
 _atom_site_occupancy
  Y  Y0  1  0.250000  0.998489  0.313415  1
  Y  Y1  1  0.250000  0.493285  0.187966  1
  Y  Y2  1  0.750000  0.000710  0.685908  1
  Y  Y3  1  0.750000  0.503114  0.811988  1
  Si  Si4  1  0.250000  0.298802  0.616478  1
  Si  Si5  1  0.250000  0.801746  0.891854  1
  Si  Si6  1  0.750000  0.700307  0.393561  1
  Si  Si7  1  0.750000  0.199993  0.098254  1
  Ir  Ir8  1  0.250000  0.657458  0.566665  1
  Os  Os9  1  0.250000  0.154851  0.933013  1
  Rh  Rh10  1  0.750000  0.845003  0.067937  1
  Rh  Rh11  1  0.750000  0.346242  0.432964  1
