# generated using pymatgen
data_Er4Si10(OsPt)3
_symmetry_space_group_name_H-M   'P 1'
_cell_length_a   8.13806059
_cell_length_b   8.13789873
_cell_length_c   8.13789854
_cell_angle_alpha   137.55096743
_cell_angle_beta   104.72327382
_cell_angle_gamma   90.45642028
_symmetry_Int_Tables_number   1
_chemical_formula_structural   Er4Si10(OsPt)3
_chemical_formula_sum   'Er4 Si10 Os3 Pt3'
_cell_volume   335.66107857
_cell_formula_units_Z   1
loop_
 _symmetry_equiv_pos_site_id
 _symmetry_equiv_pos_as_xyz
  1  'x, y, z'
loop_
 _atom_site_type_symbol
 _atom_site_label
 _atom_site_symmetry_multiplicity
 _atom_site_fract_x
 _atom_site_fract_y
 _atom_site_fract_z
 _atom_site_occupancy
  Er  Er0  1  0.865021  0.629434  0.235587  1
  Er  Er1  1  0.139066  0.370621  0.768445  1
  Er  Er2  1  0.397174  0.131142  0.266032  1
  Er  Er3  1  0.602390  0.870580  0.731810  1
  Si  Si4  1  0.495087  0.753307  0.253608  1
  Si  Si5  1  0.495087  0.241479  0.741780  1
  Si  Si6  1  0.220408  0.973237  0.744932  1
  Si  Si7  1  0.776648  0.523751  0.746421  1
  Si  Si8  1  0.776648  0.030226  0.252897  1
  Si  Si9  1  0.220408  0.475476  0.247171  1
  Si  Si10  1  0.054438  0.898318  0.156120  1
  Si  Si11  1  0.954500  0.104238  0.850263  1
  Si  Si12  1  0.744955  0.395010  0.349945  1
  Si  Si13  1  0.254967  0.603910  0.651057  1
  Os  Os14  1  0.999359  0.750191  0.750796  1
  Os  Os15  1  0.999359  0.248563  0.249168  1
  Os  Os16  1  0.244753  0.859699  0.385055  1
  Pt  Pt17  1  0.755225  0.139525  0.615699  1
  Pt  Pt18  1  0.476114  0.359791  0.116324  1
  Pt  Pt19  1  0.528394  0.641503  0.886892  1
