# generated using pymatgen
data_Ba2YbCrN4
_symmetry_space_group_name_H-M   'P 1'
_cell_length_a   10.60651008
_cell_length_b   10.29000541
_cell_length_c   7.85977897
_cell_angle_alpha   70.05832174
_cell_angle_beta   65.78096893
_cell_angle_gamma   44.16695380
_symmetry_Int_Tables_number   1
_chemical_formula_structural   Ba2YbCrN4
_chemical_formula_sum   'Ba8 Yb4 Cr4 N16'
_cell_volume   543.60349921
_cell_formula_units_Z   4
loop_
 _symmetry_equiv_pos_site_id
 _symmetry_equiv_pos_as_xyz
  1  'x, y, z'
loop_
 _atom_site_type_symbol
 _atom_site_label
 _atom_site_symmetry_multiplicity
 _atom_site_fract_x
 _atom_site_fract_y
 _atom_site_fract_z
 _atom_site_occupancy
  Ba  Ba0  1  0.577148  0.922881  0.923082  1
  Ba  Ba1  1  0.922893  0.577133  0.576896  1
  Ba  Ba2  1  0.327107  0.672867  0.673104  1
  Ba  Ba3  1  0.110465  0.110480  0.889523  1
  Ba  Ba4  1  0.139535  0.139520  0.360477  1
  Ba  Ba5  1  0.360449  0.360475  0.139547  1
  Ba  Ba6  1  0.672852  0.327119  0.326918  1
  Ba  Ba7  1  0.889551  0.889525  0.110453  1
  Yb  Yb8  1  0.337474  0.337466  0.662541  1
  Yb  Yb9  1  0.912526  0.912534  0.587459  1
  Yb  Yb10  1  0.662513  0.662522  0.337484  1
  Yb  Yb11  1  0.587487  0.587478  0.912516  1
  Cr  Cr12  1  0.492595  0.007408  0.492619  1
  Cr  Cr13  1  0.007436  0.492567  0.007415  1
  Cr  Cr14  1  0.757405  0.242592  0.757381  1
  Cr  Cr15  1  0.242564  0.757433  0.242585  1
  N  N16  1  0.012405  0.649190  0.827703  1
  N  N17  1  0.703704  0.281930  0.987065  1
  N  N18  1  0.649178  0.012397  0.510702  1
  N  N19  1  0.510620  0.827755  0.649248  1
  N  N20  1  0.237595  0.600810  0.422297  1
  N  N21  1  0.739380  0.422245  0.600752  1
  N  N22  1  0.987016  0.027329  0.703689  1
  N  N23  1  0.546296  0.968070  0.262935  1
  N  N24  1  0.422231  0.739370  0.237643  1
  N  N25  1  0.968077  0.546286  0.222692  1
  N  N26  1  0.281923  0.703714  0.027308  1
  N  N27  1  0.827769  0.510630  0.012357  1
  N  N28  1  0.222665  0.262999  0.968026  1
  N  N29  1  0.600822  0.237603  0.739298  1
  N  N30  1  0.262984  0.222671  0.546311  1
  N  N31  1  0.027335  0.987001  0.281974  1
