# generated using pymatgen
data_Sc4FeSi4Ir2Rh
_symmetry_space_group_name_H-M   'P 1'
_cell_length_a   4.07819000
_cell_length_b   6.51263130
_cell_length_c   7.15508004
_cell_angle_alpha   89.68267708
_cell_angle_beta   90.00000000
_cell_angle_gamma   90.00000000
_symmetry_Int_Tables_number   1
_chemical_formula_structural   Sc4FeSi4Ir2Rh
_chemical_formula_sum   'Sc4 Fe1 Si4 Ir2 Rh1'
_cell_volume   190.03420732
_cell_formula_units_Z   1
loop_
 _symmetry_equiv_pos_site_id
 _symmetry_equiv_pos_as_xyz
  1  'x, y, z'
loop_
 _atom_site_type_symbol
 _atom_site_label
 _atom_site_symmetry_multiplicity
 _atom_site_fract_x
 _atom_site_fract_y
 _atom_site_fract_z
 _atom_site_occupancy
  Sc  Sc0  1  0.750000  0.499464  0.808121  1
  Sc  Sc1  1  0.250000  0.999796  0.317839  1
  Sc  Sc2  1  0.750000  0.998036  0.686925  1
  Sc  Sc3  1  0.250000  0.514000  0.191125  1
  Fe  Fe4  1  0.250000  0.653656  0.558395  1
  Si  Si5  1  0.250000  0.785481  0.869921  1
  Si  Si6  1  0.250000  0.299173  0.616417  1
  Si  Si7  1  0.750000  0.208760  0.117365  1
  Si  Si8  1  0.750000  0.711283  0.397293  1
  Ir  Ir9  1  0.750000  0.836074  0.059252  1
  Ir  Ir10  1  0.750000  0.339915  0.439350  1
  Rh  Rh11  1  0.250000  0.154361  0.937997  1
