# generated using pymatgen
data_La3Yb(MgIr)4
_symmetry_space_group_name_H-M   'P 1'
_cell_length_a   4.22816100
_cell_length_b   7.31065431
_cell_length_c   8.71408200
_cell_angle_alpha   89.90379712
_cell_angle_beta   90.00000000
_cell_angle_gamma   90.00000000
_symmetry_Int_Tables_number   1
_chemical_formula_structural   La3Yb(MgIr)4
_chemical_formula_sum   'La3 Yb1 Mg4 Ir4'
_cell_volume   269.35732744
_cell_formula_units_Z   1
loop_
 _symmetry_equiv_pos_site_id
 _symmetry_equiv_pos_as_xyz
  1  'x, y, z'
loop_
 _atom_site_type_symbol
 _atom_site_label
 _atom_site_symmetry_multiplicity
 _atom_site_fract_x
 _atom_site_fract_y
 _atom_site_fract_z
 _atom_site_occupancy
  La  La0  1  0.750000  0.463318  0.829554  1
  La  La1  1  0.750000  0.962423  0.676849  1
  La  La2  1  0.250000  0.037566  0.318808  1
  Yb  Yb3  1  0.250000  0.537350  0.177231  1
  Mg  Mg4  1  0.250000  0.633690  0.554478  1
  Mg  Mg5  1  0.750000  0.372549  0.437930  1
  Mg  Mg6  1  0.750000  0.861062  0.059641  1
  Mg  Mg7  1  0.250000  0.132246  0.944629  1
  Ir  Ir8  1  0.250000  0.756579  0.869478  1
  Ir  Ir9  1  0.750000  0.237516  0.127814  1
  Ir  Ir10  1  0.750000  0.747325  0.374412  1
  Ir  Ir11  1  0.250000  0.258378  0.629177  1
