# generated using pymatgen
data_Dy7Sc(OsI4)2
_symmetry_space_group_name_H-M   'P 1'
_cell_length_a   11.64385485
_cell_length_b   11.57707679
_cell_length_c   6.16231072
_cell_angle_alpha   90.07598766
_cell_angle_beta   89.79508648
_cell_angle_gamma   90.16202789
_symmetry_Int_Tables_number   1
_chemical_formula_structural   Dy7Sc(OsI4)2
_chemical_formula_sum   'Dy7 Sc1 Os2 I8'
_cell_volume   830.68123471
_cell_formula_units_Z   1
loop_
 _symmetry_equiv_pos_site_id
 _symmetry_equiv_pos_as_xyz
  1  'x, y, z'
loop_
 _atom_site_type_symbol
 _atom_site_label
 _atom_site_symmetry_multiplicity
 _atom_site_fract_x
 _atom_site_fract_y
 _atom_site_fract_z
 _atom_site_occupancy
  Dy  Dy0  1  0.078096  0.806867  0.500344  1
  Dy  Dy1  1  0.079626  0.193269  0.000955  1
  Dy  Dy2  1  0.192008  0.080984  0.500011  1
  Dy  Dy3  1  0.919975  0.806965  0.000257  1
  Dy  Dy4  1  0.917624  0.192747  0.501085  1
  Dy  Dy5  1  0.192867  0.920384  0.998399  1
  Dy  Dy6  1  0.805294  0.922332  0.501373  1
  Sc  Sc7  1  0.823399  0.073004  0.004022  1
  Os  Os8  1  0.000227  0.999826  0.249863  1
  Os  Os9  1  0.999799  0.000099  0.751529  1
  I  I10  1  0.654001  0.143805  0.488318  1
  I  I11  1  0.852873  0.653407  0.504651  1
  I  I12  1  0.346093  0.145831  0.994980  1
  I  I13  1  0.141911  0.348582  0.495395  1
  I  I14  1  0.657248  0.867422  0.003970  1
  I  I15  1  0.345242  0.856337  0.506502  1
  I  I16  1  0.142829  0.652306  0.992858  1
  I  I17  1  0.850889  0.335835  0.005487  1
