# generated using pymatgen
data_Rb9Bi(PS4)4
_symmetry_space_group_name_H-M   'P 1'
_cell_length_a   9.09294000
_cell_length_b   9.79623500
_cell_length_c   18.60766700
_cell_angle_alpha   90.00000000
_cell_angle_beta   90.00000000
_cell_angle_gamma   90.00000000
_symmetry_Int_Tables_number   1
_chemical_formula_structural   Rb9Bi(PS4)4
_chemical_formula_sum   'Rb18 Bi2 P8 S32'
_cell_volume   1657.50728382
_cell_formula_units_Z   2
loop_
 _symmetry_equiv_pos_site_id
 _symmetry_equiv_pos_as_xyz
  1  'x, y, z'
loop_
 _atom_site_type_symbol
 _atom_site_label
 _atom_site_symmetry_multiplicity
 _atom_site_fract_x
 _atom_site_fract_y
 _atom_site_fract_z
 _atom_site_occupancy
  Rb  Rb0  1  0.147795  0.998960  0.576813  1
  Rb  Rb1  1  0.127926  0.482393  0.412292  1
  Rb  Rb2  1  0.479102  0.241645  0.729645  1
  Rb  Rb3  1  0.501509  0.750231  0.248442  1
  Rb  Rb4  1  0.500000  0.230831  0.500000  1
  Rb  Rb5  1  0.627926  0.517607  0.087708  1
  Rb  Rb6  1  0.352205  0.001040  0.076813  1
  Rb  Rb7  1  0.852205  0.998960  0.423187  1
  Rb  Rb8  1  0.001509  0.249769  0.251558  1
  Rb  Rb9  1  0.998491  0.249769  0.748442  1
  Rb  Rb10  1  0.498491  0.750231  0.751558  1
  Rb  Rb11  1  0.372074  0.517607  0.912292  1
  Rb  Rb12  1  0.000000  0.769169  0.000000  1
  Rb  Rb13  1  0.647795  0.001040  0.923187  1
  Rb  Rb14  1  0.020898  0.758355  0.229645  1
  Rb  Rb15  1  0.979102  0.758355  0.770355  1
  Rb  Rb16  1  0.520898  0.241645  0.270355  1
  Rb  Rb17  1  0.872074  0.482393  0.587708  1
  Bi  Bi18  1  0.500000  0.722589  0.500000  1
  Bi  Bi19  1  0.000000  0.277411  0.000000  1
  P  P20  1  0.790678  0.490353  0.878087  1
  P  P21  1  0.729509  0.977706  0.635370  1
  P  P22  1  0.709322  0.509647  0.378087  1
  P  P23  1  0.290678  0.509647  0.621913  1
  P  P24  1  0.229509  0.022294  0.864630  1
  P  P25  1  0.270491  0.977706  0.364630  1
  P  P26  1  0.770491  0.022294  0.135370  1
  P  P27  1  0.209322  0.490353  0.121913  1
  S  S28  1  0.765344  0.996977  0.244236  1
  S  S29  1  0.306898  0.848794  0.912358  1
  S  S30  1  0.784894  0.668522  0.441778  1
  S  S31  1  0.651248  0.185670  0.102371  1
  S  S32  1  0.848752  0.814330  0.602371  1
  S  S33  1  0.518309  0.518245  0.609007  1
  S  S34  1  0.715106  0.331478  0.941778  1
  S  S35  1  0.981691  0.481755  0.109007  1
  S  S36  1  0.704209  0.666535  0.917225  1
  S  S37  1  0.693102  0.848794  0.087642  1
  S  S38  1  0.765346  0.525653  0.272993  1
  S  S39  1  0.151248  0.814330  0.397629  1
  S  S40  1  0.018309  0.481755  0.890993  1
  S  S41  1  0.265346  0.474347  0.227007  1
  S  S42  1  0.481691  0.518245  0.390993  1
  S  S43  1  0.010903  0.056074  0.896723  1
  S  S44  1  0.265344  0.003023  0.255764  1
  S  S45  1  0.734656  0.003023  0.744236  1
  S  S46  1  0.989097  0.056074  0.103277  1
  S  S47  1  0.795791  0.333465  0.417225  1
  S  S48  1  0.234654  0.525653  0.727007  1
  S  S49  1  0.215106  0.668522  0.558222  1
  S  S50  1  0.348752  0.185670  0.897629  1
  S  S51  1  0.284894  0.331478  0.058222  1
  S  S52  1  0.193102  0.151206  0.412358  1
  S  S53  1  0.295791  0.666535  0.082775  1
  S  S54  1  0.204209  0.333465  0.582775  1
  S  S55  1  0.234656  0.996977  0.755764  1
  S  S56  1  0.734654  0.474347  0.772993  1
  S  S57  1  0.510903  0.943926  0.603277  1
  S  S58  1  0.806898  0.151206  0.587642  1
  S  S59  1  0.489097  0.943926  0.396723  1
