# generated using pymatgen
data_Ca2Y(Co4B3)2
_symmetry_space_group_name_H-M   'P 1'
_cell_length_a   9.35967266
_cell_length_b   8.55800018
_cell_length_c   5.23856517
_cell_angle_alpha   81.61282097
_cell_angle_beta   64.76532134
_cell_angle_gamma   33.62186264
_symmetry_Int_Tables_number   1
_chemical_formula_structural   Ca2Y(Co4B3)2
_chemical_formula_sum   'Ca2 Y1 Co8 B6'
_cell_volume   190.96958582
_cell_formula_units_Z   1
loop_
 _symmetry_equiv_pos_site_id
 _symmetry_equiv_pos_as_xyz
  1  'x, y, z'
loop_
 _atom_site_type_symbol
 _atom_site_label
 _atom_site_symmetry_multiplicity
 _atom_site_fract_x
 _atom_site_fract_y
 _atom_site_fract_z
 _atom_site_occupancy
  Ca  Ca0  1  0.315394  0.315394  0.684606  1
  Ca  Ca1  1  0.684606  0.684606  0.315394  1
  Y  Y2  1  0.500000  0.500000  0.500000  1
  Co  Co3  1  0.586412  0.586412  0.913588  1
  Co  Co4  1  0.915608  0.915608  0.084392  1
  Co  Co5  1  0.413588  0.413588  0.086412  1
  Co  Co6  1  0.086412  0.086412  0.413588  1
  Co  Co7  1  0.913588  0.913588  0.586412  1
  Co  Co8  1  0.250000  0.250000  0.250000  1
  Co  Co9  1  0.084392  0.084392  0.915608  1
  Co  Co10  1  0.750000  0.750000  0.750000  1
  B  B11  1  0.669578  0.989475  0.010525  1
  B  B12  1  0.989475  0.669578  0.330422  1
  B  B13  1  0.330422  0.010525  0.989475  1
  B  B14  1  0.010525  0.330422  0.669578  1
  B  B15  1  0.166029  0.833971  0.166029  1
  B  B16  1  0.833971  0.166029  0.833971  1
