# generated using pymatgen
data_Ti4AlGa5
_symmetry_space_group_name_H-M   'P 1'
_cell_length_a   6.29133300
_cell_length_b   6.29133300
_cell_length_c   4.02187800
_cell_angle_alpha   90.00000000
_cell_angle_beta   90.00000000
_cell_angle_gamma   90.00000000
_symmetry_Int_Tables_number   1
_chemical_formula_structural   Ti4AlGa5
_chemical_formula_sum   'Ti4 Al1 Ga5'
_cell_volume   159.18943396
_cell_formula_units_Z   1
loop_
 _symmetry_equiv_pos_site_id
 _symmetry_equiv_pos_as_xyz
  1  'x, y, z'
loop_
 _atom_site_type_symbol
 _atom_site_label
 _atom_site_symmetry_multiplicity
 _atom_site_fract_x
 _atom_site_fract_y
 _atom_site_fract_z
 _atom_site_occupancy
  Ti  Ti0  1  0.873363  0.696517  0.500000  1
  Ti  Ti1  1  0.696517  0.126637  0.500000  1
  Ti  Ti2  1  0.303483  0.873363  0.500000  1
  Ti  Ti3  1  0.126637  0.303483  0.500000  1
  Al  Al4  1  0.000000  0.000000  0.000000  1
  Ga  Ga5  1  0.817974  0.393865  0.000000  1
  Ga  Ga6  1  0.606135  0.817974  0.000000  1
  Ga  Ga7  1  0.182026  0.606135  0.000000  1
  Ga  Ga8  1  0.393865  0.182026  0.000000  1
  Ga  Ga9  1  0.500000  0.500000  0.500000  1
