# generated using pymatgen
data_Gd2HoSc(ReB6)2
_symmetry_space_group_name_H-M   'P 1'
_cell_length_a   3.64679900
_cell_length_b   9.10912131
_cell_length_c   11.50763539
_cell_angle_alpha   89.97013796
_cell_angle_beta   90.00000000
_cell_angle_gamma   90.00000000
_symmetry_Int_Tables_number   1
_chemical_formula_structural   Gd2HoSc(ReB6)2
_chemical_formula_sum   'Gd4 Ho2 Sc2 Re4 B24'
_cell_volume   382.27363569
_cell_formula_units_Z   2
loop_
 _symmetry_equiv_pos_site_id
 _symmetry_equiv_pos_as_xyz
  1  'x, y, z'
loop_
 _atom_site_type_symbol
 _atom_site_label
 _atom_site_symmetry_multiplicity
 _atom_site_fract_x
 _atom_site_fract_y
 _atom_site_fract_z
 _atom_site_occupancy
  Gd  Gd0  1  0.000000  0.320910  0.414656  1
  Gd  Gd1  1  0.000000  0.679090  0.585344  1
  Gd  Gd2  1  0.000000  0.823507  0.086733  1
  Gd  Gd3  1  0.000000  0.176493  0.913267  1
  Ho  Ho4  1  0.000000  0.443179  0.130900  1
  Ho  Ho5  1  0.000000  0.556821  0.869100  1
  Sc  Sc6  1  0.000000  0.943396  0.370455  1
  Sc  Sc7  1  0.000000  0.056604  0.629545  1
  Re  Re8  1  0.000000  0.643655  0.321482  1
  Re  Re9  1  0.000000  0.356345  0.678518  1
  Re  Re10  1  0.000000  0.136540  0.183508  1
  Re  Re11  1  0.000000  0.863460  0.816492  1
  B  B12  1  0.500000  0.555165  0.432852  1
  B  B13  1  0.500000  0.444835  0.567148  1
  B  B14  1  0.500000  0.052920  0.068556  1
  B  B15  1  0.500000  0.947080  0.931444  1
  B  B16  1  0.500000  0.754897  0.418745  1
  B  B17  1  0.500000  0.245103  0.581255  1
  B  B18  1  0.500000  0.248437  0.082931  1
  B  B19  1  0.500000  0.751563  0.917069  1
  B  B20  1  0.500000  0.795711  0.266679  1
  B  B21  1  0.500000  0.204289  0.733321  1
  B  B22  1  0.500000  0.290627  0.236150  1
  B  B23  1  0.500000  0.709373  0.763850  1
  B  B24  1  0.500000  0.632239  0.186333  1
  B  B25  1  0.500000  0.367761  0.813667  1
  B  B26  1  0.500000  0.126851  0.317512  1
  B  B27  1  0.500000  0.873149  0.682488  1
  B  B28  1  0.500000  0.980402  0.214775  1
  B  B29  1  0.500000  0.019598  0.785225  1
  B  B30  1  0.500000  0.483667  0.288713  1
  B  B31  1  0.500000  0.516333  0.711287  1
  B  B32  1  0.500000  0.600062  0.027414  1
  B  B33  1  0.500000  0.399938  0.972586  1
  B  B34  1  0.500000  0.093752  0.473930  1
  B  B35  1  0.500000  0.906248  0.526070  1
