# generated using pymatgen
data_PrTh2Sn3Ir2Rh
_symmetry_space_group_name_H-M   'P 1'
_cell_length_a   7.63671126
_cell_length_b   7.63671173
_cell_length_c   4.10958200
_cell_angle_alpha   90.00000000
_cell_angle_beta   90.00000000
_cell_angle_gamma   120.39941458
_symmetry_Int_Tables_number   1
_chemical_formula_structural   PrTh2Sn3Ir2Rh
_chemical_formula_sum   'Pr1 Th2 Sn3 Ir2 Rh1'
_cell_volume   206.71833963
_cell_formula_units_Z   1
loop_
 _symmetry_equiv_pos_site_id
 _symmetry_equiv_pos_as_xyz
  1  'x, y, z'
loop_
 _atom_site_type_symbol
 _atom_site_label
 _atom_site_symmetry_multiplicity
 _atom_site_fract_x
 _atom_site_fract_y
 _atom_site_fract_z
 _atom_site_occupancy
  Pr  Pr0  1  0.411201  0.411201  0.500000  1
  Th  Th1  1  0.586216  0.000575  0.500000  1
  Th  Th2  1  0.000575  0.586216  0.500000  1
  Sn  Sn3  1  0.742594  0.742594  0.000000  1
  Sn  Sn4  1  0.249914  0.006916  0.000000  1
  Sn  Sn5  1  0.006916  0.249914  0.000000  1
  Ir  Ir6  1  0.682304  0.330746  0.000000  1
  Ir  Ir7  1  0.330746  0.682304  0.000000  1
  Rh  Rh8  1  0.989536  0.989536  0.500000  1
