# generated using pymatgen
data_Tm4Co16Cu(TcP4)3
_symmetry_space_group_name_H-M   'P 1'
_cell_length_a   3.69078500
_cell_length_b   10.31665373
_cell_length_c   11.78662407
_cell_angle_alpha   89.97305122
_cell_angle_beta   90.00000000
_cell_angle_gamma   90.00000000
_symmetry_Int_Tables_number   1
_chemical_formula_structural   Tm4Co16Cu(TcP4)3
_chemical_formula_sum   'Tm4 Co16 Cu1 Tc3 P12'
_cell_volume   448.79394084
_cell_formula_units_Z   1
loop_
 _symmetry_equiv_pos_site_id
 _symmetry_equiv_pos_as_xyz
  1  'x, y, z'
loop_
 _atom_site_type_symbol
 _atom_site_label
 _atom_site_symmetry_multiplicity
 _atom_site_fract_x
 _atom_site_fract_y
 _atom_site_fract_z
 _atom_site_occupancy
  Tm  Tm0  1  0.250000  0.581364  0.702249  1
  Tm  Tm1  1  0.250000  0.914934  0.205807  1
  Tm  Tm2  1  0.750000  0.416715  0.294867  1
  Tm  Tm3  1  0.750000  0.083076  0.795928  1
  Co  Co4  1  0.250000  0.407086  0.486587  1
  Co  Co5  1  0.250000  0.091667  0.987298  1
  Co  Co6  1  0.750000  0.593160  0.510982  1
  Co  Co7  1  0.750000  0.907170  0.012061  1
  Co  Co8  1  0.250000  0.219265  0.174580  1
  Co  Co9  1  0.250000  0.276757  0.679210  1
  Co  Co10  1  0.750000  0.778054  0.822526  1
  Co  Co11  1  0.750000  0.721944  0.323095  1
  Co  Co12  1  0.250000  0.884771  0.701892  1
  Co  Co13  1  0.250000  0.613788  0.202861  1
  Co  Co14  1  0.750000  0.117581  0.300050  1
  Co  Co15  1  0.750000  0.387787  0.797879  1
  Co  Co16  1  0.250000  0.464722  0.932610  1
  Co  Co17  1  0.250000  0.037384  0.431676  1
  Co  Co18  1  0.750000  0.535873  0.068834  1
  Co  Co19  1  0.750000  0.966618  0.569742  1
  Cu  Cu20  1  0.750000  0.213869  0.510200  1
  Tc  Tc21  1  0.250000  0.711528  0.989594  1
  Tc  Tc22  1  0.250000  0.789289  0.490648  1
  Tc  Tc23  1  0.750000  0.287708  0.009524  1
  P  P24  1  0.250000  0.419530  0.114241  1
  P  P25  1  0.250000  0.079257  0.614802  1
  P  P26  1  0.750000  0.579358  0.885925  1
  P  P27  1  0.750000  0.921660  0.387190  1
  P  P28  1  0.250000  0.268712  0.865207  1
  P  P29  1  0.250000  0.232016  0.363713  1
  P  P30  1  0.750000  0.731582  0.135043  1
  P  P31  1  0.750000  0.768702  0.632913  1
  P  P32  1  0.250000  0.595459  0.391705  1
  P  P33  1  0.250000  0.904068  0.889656  1
  P  P34  1  0.750000  0.401816  0.608425  1
  P  P35  1  0.750000  0.095727  0.110478  1
