# generated using pymatgen
data_Y3ZnIn4Ru
_symmetry_space_group_name_H-M   'P 1'
_cell_length_a   7.97167800
_cell_length_b   7.97167830
_cell_length_c   3.84177700
_cell_angle_alpha   90.00000000
_cell_angle_beta   90.00000000
_cell_angle_gamma   119.99999877
_symmetry_Int_Tables_number   1
_chemical_formula_structural   Y3ZnIn4Ru
_chemical_formula_sum   'Y3 Zn1 In4 Ru1'
_cell_volume   211.42790243
_cell_formula_units_Z   1
loop_
 _symmetry_equiv_pos_site_id
 _symmetry_equiv_pos_as_xyz
  1  'x, y, z'
loop_
 _atom_site_type_symbol
 _atom_site_label
 _atom_site_symmetry_multiplicity
 _atom_site_fract_x
 _atom_site_fract_y
 _atom_site_fract_z
 _atom_site_occupancy
  Y  Y0  1  0.044097  0.294026  0.500000  1
  Y  Y1  1  0.705974  0.750070  0.500000  1
  Y  Y2  1  0.249930  0.955903  0.500000  1
  Zn  Zn3  1  0.666667  0.333333  0.500000  1
  In  In4  1  0.669562  0.069335  0.000000  1
  In  In5  1  0.930665  0.600227  0.000000  1
  In  In6  1  0.399773  0.330438  0.000000  1
  In  In7  1  0.333333  0.666667  0.000000  1
  Ru  Ru8  1  0.000000  0.000000  0.000000  1
