# generated using pymatgen
data_Ca6SmY(Si3Pd)4
_symmetry_space_group_name_H-M   'P 1'
_cell_length_a   8.26681500
_cell_length_b   8.26681406
_cell_length_c   8.33401600
_cell_angle_alpha   90.00000000
_cell_angle_beta   90.00000000
_cell_angle_gamma   119.99999977
_symmetry_Int_Tables_number   1
_chemical_formula_structural   Ca6SmY(Si3Pd)4
_chemical_formula_sum   'Ca6 Sm1 Y1 Si12 Pd4'
_cell_volume   493.24347729
_cell_formula_units_Z   1
loop_
 _symmetry_equiv_pos_site_id
 _symmetry_equiv_pos_as_xyz
  1  'x, y, z'
loop_
 _atom_site_type_symbol
 _atom_site_label
 _atom_site_symmetry_multiplicity
 _atom_site_fract_x
 _atom_site_fract_y
 _atom_site_fract_z
 _atom_site_occupancy
  Ca  Ca0  1  0.501095  0.002190  0.250000  1
  Ca  Ca1  1  0.498908  0.997816  0.750000  1
  Ca  Ca2  1  0.997810  0.498905  0.250000  1
  Ca  Ca3  1  0.002184  0.501092  0.750000  1
  Ca  Ca4  1  0.501095  0.498905  0.250000  1
  Ca  Ca5  1  0.498908  0.501092  0.750000  1
  Sm  Sm6  1  0.000000  0.000000  0.250000  1
  Y  Y7  1  0.000000  0.000000  0.750000  1
  Si  Si8  1  0.164879  0.329758  0.000696  1
  Si  Si9  1  0.835145  0.670291  0.998166  1
  Si  Si10  1  0.670242  0.835121  0.000696  1
  Si  Si11  1  0.835145  0.670291  0.501834  1
  Si  Si12  1  0.329709  0.164855  0.998166  1
  Si  Si13  1  0.164879  0.329758  0.499304  1
  Si  Si14  1  0.164879  0.835121  0.000696  1
  Si  Si15  1  0.329709  0.164855  0.501834  1
  Si  Si16  1  0.835145  0.164855  0.998166  1
  Si  Si17  1  0.670242  0.835121  0.499304  1
  Si  Si18  1  0.835145  0.164855  0.501834  1
  Si  Si19  1  0.164879  0.835121  0.499304  1
  Pd  Pd20  1  0.333333  0.666667  0.001172  1
  Pd  Pd21  1  0.666667  0.333333  0.998094  1
  Pd  Pd22  1  0.666667  0.333333  0.501906  1
  Pd  Pd23  1  0.333333  0.666667  0.498828  1
