# generated using pymatgen
data_Hf8Pt3RhN2
_symmetry_space_group_name_H-M   'P 1'
_cell_length_a   8.76201483
_cell_length_b   8.76201396
_cell_length_c   8.75660300
_cell_angle_alpha   60.02042997
_cell_angle_beta   60.02043325
_cell_angle_gamma   60.04134040
_symmetry_Int_Tables_number   1
_chemical_formula_structural   Hf8Pt3RhN2
_chemical_formula_sum   'Hf16 Pt6 Rh2 N4'
_cell_volume   475.66174544
_cell_formula_units_Z   2
loop_
 _symmetry_equiv_pos_site_id
 _symmetry_equiv_pos_as_xyz
  1  'x, y, z'
loop_
 _atom_site_type_symbol
 _atom_site_label
 _atom_site_symmetry_multiplicity
 _atom_site_fract_x
 _atom_site_fract_y
 _atom_site_fract_z
 _atom_site_occupancy
  Hf  Hf0  1  0.119913  0.628931  0.625578  1
  Hf  Hf1  1  0.628931  0.119913  0.625578  1
  Hf  Hf2  1  0.626857  0.626857  0.122571  1
  Hf  Hf3  1  0.626857  0.626857  0.623715  1
  Hf  Hf4  1  0.818169  0.818169  0.181831  1
  Hf  Hf5  1  0.182036  0.182036  0.817964  1
  Hf  Hf6  1  0.817964  0.179036  0.818303  1
  Hf  Hf7  1  0.179036  0.817964  0.184697  1
  Hf  Hf8  1  0.179036  0.817964  0.818303  1
  Hf  Hf9  1  0.817964  0.179036  0.184697  1
  Hf  Hf10  1  0.432682  0.432682  0.067318  1
  Hf  Hf11  1  0.067756  0.067756  0.432244  1
  Hf  Hf12  1  0.432811  0.067915  0.432137  1
  Hf  Hf13  1  0.067915  0.432811  0.067136  1
  Hf  Hf14  1  0.067915  0.432811  0.432137  1
  Hf  Hf15  1  0.432811  0.067915  0.067136  1
  Pt  Pt16  1  0.780626  0.406512  0.406431  1
  Pt  Pt17  1  0.406512  0.780626  0.406431  1
  Pt  Pt18  1  0.406785  0.406785  0.779601  1
  Pt  Pt19  1  0.406785  0.406785  0.406828  1
  Pt  Pt20  1  0.470250  0.843660  0.843045  1
  Pt  Pt21  1  0.843660  0.470250  0.843045  1
  Rh  Rh22  1  0.843268  0.843268  0.471089  1
  Rh  Rh23  1  0.843268  0.843268  0.842375  1
  N  N24  1  0.624617  0.125264  0.125059  1
  N  N25  1  0.125264  0.624617  0.125059  1
  N  N26  1  0.125155  0.125155  0.624833  1
  N  N27  1  0.125155  0.125155  0.124856  1
