# generated using pymatgen
data_ErTm3Al8
_symmetry_space_group_name_H-M   'P 1'
_cell_length_a   9.60379211
_cell_length_b   9.60379183
_cell_length_c   9.60379188
_cell_angle_alpha   33.33698482
_cell_angle_beta   33.33698708
_cell_angle_gamma   33.33698293
_symmetry_Int_Tables_number   1
_chemical_formula_structural   ErTm3Al8
_chemical_formula_sum   'Er1 Tm3 Al8'
_cell_volume   238.20343708
_cell_formula_units_Z   1
loop_
 _symmetry_equiv_pos_site_id
 _symmetry_equiv_pos_as_xyz
  1  'x, y, z'
loop_
 _atom_site_type_symbol
 _atom_site_label
 _atom_site_symmetry_multiplicity
 _atom_site_fract_x
 _atom_site_fract_y
 _atom_site_fract_z
 _atom_site_occupancy
  Er  Er0  1  0.874696  0.874696  0.874696  1
  Tm  Tm1  1  0.374832  0.374832  0.374832  1
  Tm  Tm2  1  0.000265  0.000265  0.000265  1
  Tm  Tm3  1  0.499957  0.499957  0.499957  1
  Al  Al4  1  0.437629  0.937453  0.437629  1
  Al  Al5  1  0.937437  0.437640  0.937437  1
  Al  Al6  1  0.437629  0.437629  0.937453  1
  Al  Al7  1  0.937437  0.937437  0.437640  1
  Al  Al8  1  0.187460  0.187460  0.187460  1
  Al  Al9  1  0.687566  0.687566  0.687566  1
  Al  Al10  1  0.937453  0.437629  0.437629  1
  Al  Al11  1  0.437640  0.937437  0.937437  1
