# generated using pymatgen
data_Ca8Yb2Si6F
_symmetry_space_group_name_H-M   'P 1'
_cell_length_a   9.10603349
_cell_length_b   9.10603342
_cell_length_c   9.10972783
_cell_angle_alpha   130.46822162
_cell_angle_beta   130.46822286
_cell_angle_gamma   72.62772604
_symmetry_Int_Tables_number   1
_chemical_formula_structural   Ca8Yb2Si6F
_chemical_formula_sum   'Ca8 Yb2 Si6 F1'
_cell_volume   427.25540898
_cell_formula_units_Z   1
loop_
 _symmetry_equiv_pos_site_id
 _symmetry_equiv_pos_as_xyz
  1  'x, y, z'
loop_
 _atom_site_type_symbol
 _atom_site_label
 _atom_site_symmetry_multiplicity
 _atom_site_fract_x
 _atom_site_fract_y
 _atom_site_fract_z
 _atom_site_occupancy
  Ca  Ca0  1  0.929751  0.929751  0.642991  1
  Ca  Ca1  1  0.286760  0.286760  0.357009  1
  Ca  Ca2  1  0.713868  0.069999  0.000000  1
  Ca  Ca3  1  0.069999  0.713868  0.000000  1
  Ca  Ca4  1  0.567762  0.567762  0.338836  1
  Ca  Ca5  1  0.228925  0.228925  0.661164  1
  Ca  Ca6  1  0.249552  0.749552  0.500000  1
  Ca  Ca7  1  0.749552  0.249552  0.500000  1
  Yb  Yb8  1  0.765440  0.434141  0.000000  1
  Yb  Yb9  1  0.434141  0.765441  0.000000  1
  Si  Si10  1  0.000294  0.500294  0.500000  1
  Si  Si11  1  0.500294  0.000294  0.500000  1
  Si  Si12  1  0.135348  0.359748  0.000000  1
  Si  Si13  1  0.359748  0.135348  0.000000  1
  Si  Si14  1  0.864198  0.864198  0.224153  1
  Si  Si15  1  0.640045  0.640045  0.775847  1
  F  F16  1  0.504324  0.504324  0.000000  1
