# generated using pymatgen
data_Y4Al18CuPd3Ru2
_symmetry_space_group_name_H-M   'P 1'
_cell_length_a   7.59010805
_cell_length_b   7.59010761
_cell_length_c   9.45818108
_cell_angle_alpha   89.96169941
_cell_angle_beta   89.96169522
_cell_angle_gamma   119.41622855
_symmetry_Int_Tables_number   1
_chemical_formula_structural   Y4Al18CuPd3Ru2
_chemical_formula_sum   'Y4 Al18 Cu1 Pd3 Ru2'
_cell_volume   474.63367823
_cell_formula_units_Z   1
loop_
 _symmetry_equiv_pos_site_id
 _symmetry_equiv_pos_as_xyz
  1  'x, y, z'
loop_
 _atom_site_type_symbol
 _atom_site_label
 _atom_site_symmetry_multiplicity
 _atom_site_fract_x
 _atom_site_fract_y
 _atom_site_fract_z
 _atom_site_occupancy
  Y  Y0  1  0.994743  0.668628  0.249465  1
  Y  Y1  1  0.004135  0.330888  0.750616  1
  Y  Y2  1  0.669112  0.995865  0.249384  1
  Y  Y3  1  0.331372  0.005257  0.750535  1
  Al  Al4  1  0.124004  0.123874  0.249941  1
  Al  Al5  1  0.876126  0.875996  0.750059  1
  Al  Al6  1  0.999639  0.329854  0.075464  1
  Al  Al7  1  0.999262  0.670026  0.924537  1
  Al  Al8  1  0.999521  0.670036  0.575101  1
  Al  Al9  1  0.329964  0.000479  0.424899  1
  Al  Al10  1  0.000206  0.329537  0.424665  1
  Al  Al11  1  0.670463  0.999794  0.575335  1
  Al  Al12  1  0.670146  0.000361  0.924536  1
  Al  Al13  1  0.329974  0.000738  0.075463  1
  Al  Al14  1  0.328233  0.328014  0.553117  1
  Al  Al15  1  0.671986  0.671767  0.446883  1
  Al  Al16  1  0.671288  0.670525  0.053732  1
  Al  Al17  1  0.329475  0.328712  0.946268  1
  Al  Al18  1  0.341704  0.546656  0.250119  1
  Al  Al19  1  0.658369  0.452564  0.750688  1
  Al  Al20  1  0.547436  0.341631  0.249312  1
  Al  Al21  1  0.453344  0.658296  0.749881  1
  Cu  Cu22  1  0.672011  0.327989  0.000000  1
  Pd  Pd23  1  0.327830  0.672170  0.000000  1
  Pd  Pd24  1  0.327832  0.672168  0.500000  1
  Pd  Pd25  1  0.672184  0.327816  0.500000  1
  Ru  Ru26  1  0.999552  0.000448  0.000000  1
  Ru  Ru27  1  0.000089  0.999911  0.500000  1
