# generated using pymatgen
data_Ca5Pr(Si3Ru)8
_symmetry_space_group_name_H-M   'P 1'
_cell_length_a   10.21134405
_cell_length_b   10.21134352
_cell_length_c   8.20104980
_cell_angle_alpha   90.02063280
_cell_angle_beta   90.02063306
_cell_angle_gamma   132.63428100
_symmetry_Int_Tables_number   1
_chemical_formula_structural   Ca5Pr(Si3Ru)8
_chemical_formula_sum   'Ca5 Pr1 Si24 Ru8'
_cell_volume   629.11651367
_cell_formula_units_Z   1
loop_
 _symmetry_equiv_pos_site_id
 _symmetry_equiv_pos_as_xyz
  1  'x, y, z'
loop_
 _atom_site_type_symbol
 _atom_site_label
 _atom_site_symmetry_multiplicity
 _atom_site_fract_x
 _atom_site_fract_y
 _atom_site_fract_z
 _atom_site_occupancy
  Ca  Ca0  1  0.500000  0.500000  0.500000  1
  Ca  Ca1  1  0.501898  0.001812  0.749722  1
  Ca  Ca2  1  0.998188  0.498102  0.250278  1
  Ca  Ca3  1  0.498102  0.998188  0.250278  1
  Ca  Ca4  1  0.001812  0.501898  0.749722  1
  Pr  Pr5  1  0.000000  0.000000  0.000000  1
  Si  Si6  1  0.793738  0.206262  0.500000  1
  Si  Si7  1  0.293639  0.706361  0.000000  1
  Si  Si8  1  0.206262  0.793738  0.500000  1
  Si  Si9  1  0.706361  0.293639  0.000000  1
  Si  Si10  1  0.336677  0.336677  0.830922  1
  Si  Si11  1  0.663323  0.663323  0.169078  1
  Si  Si12  1  0.168098  0.168098  0.335750  1
  Si  Si13  1  0.831902  0.831902  0.664250  1
  Si  Si14  1  0.124691  0.889912  0.726677  1
  Si  Si15  1  0.110088  0.875309  0.273323  1
  Si  Si16  1  0.608473  0.375667  0.229981  1
  Si  Si17  1  0.624333  0.391527  0.770019  1
  Si  Si18  1  0.875309  0.110088  0.273323  1
  Si  Si19  1  0.889912  0.124691  0.726677  1
  Si  Si20  1  0.391527  0.624333  0.770019  1
  Si  Si21  1  0.375667  0.608473  0.229981  1
  Si  Si22  1  0.346414  0.113491  0.507279  1
  Si  Si23  1  0.886509  0.653586  0.492721  1
  Si  Si24  1  0.391458  0.156105  0.006555  1
  Si  Si25  1  0.843895  0.608542  0.993445  1
  Si  Si26  1  0.653586  0.886509  0.492721  1
  Si  Si27  1  0.113491  0.346414  0.507279  1
  Si  Si28  1  0.608542  0.843895  0.993445  1
  Si  Si29  1  0.156105  0.391458  0.006555  1
  Ru  Ru30  1  0.668695  0.331305  0.500000  1
  Ru  Ru31  1  0.168897  0.831103  0.000000  1
  Ru  Ru32  1  0.331305  0.668695  0.500000  1
  Ru  Ru33  1  0.831103  0.168897  0.000000  1
  Ru  Ru34  1  0.126141  0.126141  0.625399  1
  Ru  Ru35  1  0.873859  0.873859  0.374601  1
  Ru  Ru36  1  0.373563  0.373563  0.124637  1
  Ru  Ru37  1  0.626437  0.626437  0.875363  1
