# generated using pymatgen
data_Tb2B4Os3Rh
_symmetry_space_group_name_H-M   'P 1'
_cell_length_a   6.74862252
_cell_length_b   5.98069242
_cell_length_c   5.56875808
_cell_angle_alpha   71.40912070
_cell_angle_beta   57.13656033
_cell_angle_gamma   51.55916624
_symmetry_Int_Tables_number   1
_chemical_formula_structural   Tb2B4Os3Rh
_chemical_formula_sum   'Tb2 B4 Os3 Rh1'
_cell_volume   147.81373017
_cell_formula_units_Z   1
loop_
 _symmetry_equiv_pos_site_id
 _symmetry_equiv_pos_as_xyz
  1  'x, y, z'
loop_
 _atom_site_type_symbol
 _atom_site_label
 _atom_site_symmetry_multiplicity
 _atom_site_fract_x
 _atom_site_fract_y
 _atom_site_fract_z
 _atom_site_occupancy
  Tb  Tb0  1  0.000575  0.000575  0.999425  1
  Tb  Tb1  1  0.246646  0.246646  0.253354  1
  B  B2  1  0.683239  0.314388  0.683501  1
  B  B3  1  0.314388  0.683239  0.318873  1
  B  B4  1  0.940571  0.567419  0.943224  1
  B  B5  1  0.567419  0.940571  0.548786  1
  Os  Os6  1  0.636183  0.636183  0.363817  1
  Os  Os7  1  0.362455  0.362455  0.637545  1
  Os  Os8  1  0.885133  0.885133  0.614867  1
  Rh  Rh9  1  0.613392  0.613392  0.886608  1
