# generated using pymatgen
data_YTm6Lu9(In3Co)2
_symmetry_space_group_name_H-M   'P 1'
_cell_length_a   10.18168700
_cell_length_b   10.18168810
_cell_length_c   6.94112800
_cell_angle_alpha   90.00000000
_cell_angle_beta   90.00000000
_cell_angle_gamma   120.00000617
_symmetry_Int_Tables_number   1
_chemical_formula_structural   YTm6Lu9(In3Co)2
_chemical_formula_sum   'Y1 Tm6 Lu9 In6 Co2'
_cell_volume   623.16089007
_cell_formula_units_Z   1
loop_
 _symmetry_equiv_pos_site_id
 _symmetry_equiv_pos_as_xyz
  1  'x, y, z'
loop_
 _atom_site_type_symbol
 _atom_site_label
 _atom_site_symmetry_multiplicity
 _atom_site_fract_x
 _atom_site_fract_y
 _atom_site_fract_z
 _atom_site_occupancy
  Y  Y0  1  0.000000  0.000000  0.994765  1
  Tm  Tm1  1  0.465402  0.534598  0.481797  1
  Tm  Tm2  1  0.069195  0.534598  0.481797  1
  Tm  Tm3  1  0.465402  0.930805  0.481797  1
  Tm  Tm4  1  0.534742  0.465258  0.981965  1
  Tm  Tm5  1  0.930516  0.465258  0.981965  1
  Tm  Tm6  1  0.534742  0.069484  0.981965  1
  Lu  Lu7  1  0.820573  0.179427  0.277714  1
  Lu  Lu8  1  0.358854  0.179427  0.277714  1
  Lu  Lu9  1  0.820573  0.641146  0.277714  1
  Lu  Lu10  1  0.179642  0.820358  0.775616  1
  Lu  Lu11  1  0.640715  0.820358  0.775616  1
  Lu  Lu12  1  0.179642  0.359285  0.775616  1
  Lu  Lu13  1  0.333333  0.666667  0.090934  1
  Lu  Lu14  1  0.666667  0.333333  0.590685  1
  Lu  Lu15  1  0.000000  0.000000  0.495325  1
  In  In16  1  0.163040  0.836960  0.235683  1
  In  In17  1  0.673919  0.836960  0.235683  1
  In  In18  1  0.163040  0.326081  0.235683  1
  In  In19  1  0.837182  0.162818  0.733526  1
  In  In20  1  0.325636  0.162818  0.733526  1
  In  In21  1  0.837182  0.674364  0.733526  1
  Co  Co22  1  0.333333  0.666667  0.707318  1
  Co  Co23  1  0.666667  0.333333  0.206616  1
