# generated using pymatgen
data_Ce12MgSi5Ru6
_symmetry_space_group_name_H-M   'P 1'
_cell_length_a   7.67107200
_cell_length_b   7.67107180
_cell_length_c   9.85087500
_cell_angle_alpha   90.00000000
_cell_angle_beta   90.00000000
_cell_angle_gamma   120.00000084
_symmetry_Int_Tables_number   1
_chemical_formula_structural   Ce12MgSi5Ru6
_chemical_formula_sum   'Ce12 Mg1 Si5 Ru6'
_cell_volume   502.01598173
_cell_formula_units_Z   1
loop_
 _symmetry_equiv_pos_site_id
 _symmetry_equiv_pos_as_xyz
  1  'x, y, z'
loop_
 _atom_site_type_symbol
 _atom_site_label
 _atom_site_symmetry_multiplicity
 _atom_site_fract_x
 _atom_site_fract_y
 _atom_site_fract_z
 _atom_site_occupancy
  Ce  Ce0  1  0.000000  0.593289  0.502454  1
  Ce  Ce1  1  0.593289  0.000000  0.502454  1
  Ce  Ce2  1  0.406711  0.406711  0.502454  1
  Ce  Ce3  1  0.000000  0.416663  0.006136  1
  Ce  Ce4  1  0.416663  0.000000  0.006136  1
  Ce  Ce5  1  0.583337  0.583337  0.006136  1
  Ce  Ce6  1  0.000000  0.731840  0.178321  1
  Ce  Ce7  1  0.731840  0.000000  0.178321  1
  Ce  Ce8  1  0.268160  0.268160  0.178321  1
  Ce  Ce9  1  0.000000  0.263407  0.669886  1
  Ce  Ce10  1  0.263407  0.000000  0.669886  1
  Ce  Ce11  1  0.736593  0.736593  0.669886  1
  Mg  Mg12  1  0.000000  0.000000  0.920875  1
  Si  Si13  1  0.666667  0.333333  0.276529  1
  Si  Si14  1  0.333333  0.666667  0.276529  1
  Si  Si15  1  0.333333  0.666667  0.771140  1
  Si  Si16  1  0.666667  0.333333  0.771140  1
  Si  Si17  1  0.000000  0.000000  0.418148  1
  Ru  Ru18  1  0.000000  0.340221  0.339946  1
  Ru  Ru19  1  0.340221  0.000000  0.339946  1
  Ru  Ru20  1  0.659779  0.659779  0.339946  1
  Ru  Ru21  1  0.000000  0.646354  0.834886  1
  Ru  Ru22  1  0.646354  0.000000  0.834886  1
  Ru  Ru23  1  0.353646  0.353646  0.834886  1
