# generated using pymatgen
data_YbY15(ErIr3)4
_symmetry_space_group_name_H-M   'P 1'
_cell_length_a   10.90826131
_cell_length_b   10.92817716
_cell_length_c   6.39282481
_cell_angle_alpha   89.89871905
_cell_angle_beta   90.13328029
_cell_angle_gamma   89.85386272
_symmetry_Int_Tables_number   1
_chemical_formula_structural   YbY15(ErIr3)4
_chemical_formula_sum   'Yb1 Y15 Er4 Ir12'
_cell_volume   762.06636204
_cell_formula_units_Z   1
loop_
 _symmetry_equiv_pos_site_id
 _symmetry_equiv_pos_as_xyz
  1  'x, y, z'
loop_
 _atom_site_type_symbol
 _atom_site_label
 _atom_site_symmetry_multiplicity
 _atom_site_fract_x
 _atom_site_fract_y
 _atom_site_fract_z
 _atom_site_occupancy
  Yb  Yb0  1  0.289664  0.087970  0.375892  1
  Y  Y1  1  0.290919  0.912264  0.878504  1
  Y  Y2  1  0.708561  0.086149  0.878513  1
  Y  Y3  1  0.709374  0.912595  0.378639  1
  Y  Y4  1  0.587842  0.791826  0.878213  1
  Y  Y5  1  0.585777  0.208980  0.378230  1
  Y  Y6  1  0.411530  0.792502  0.378292  1
  Y  Y7  1  0.412531  0.208705  0.878940  1
  Y  Y8  1  0.209268  0.412624  0.622873  1
  Y  Y9  1  0.209982  0.587566  0.122098  1
  Y  Y10  1  0.790779  0.411850  0.121548  1
  Y  Y11  1  0.790911  0.587496  0.621522  1
  Y  Y12  1  0.912735  0.709334  0.122228  1
  Y  Y13  1  0.911831  0.290304  0.622792  1
  Y  Y14  1  0.087626  0.709081  0.621557  1
  Y  Y15  1  0.088782  0.290088  0.121214  1
  Er  Er16  1  0.001943  0.000262  0.499491  1
  Er  Er17  1  0.999284  0.000265  0.999233  1
  Er  Er18  1  0.500128  0.500398  0.999254  1
  Er  Er19  1  0.499790  0.500620  0.498886  1
  Ir  Ir20  1  0.849142  0.151689  0.250570  1
  Ir  Ir21  1  0.849763  0.848517  0.749090  1
  Ir  Ir22  1  0.150240  0.152248  0.755871  1
  Ir  Ir23  1  0.149132  0.844275  0.246680  1
  Ir  Ir24  1  0.650747  0.348095  0.749931  1
  Ir  Ir25  1  0.651111  0.651803  0.250332  1
  Ir  Ir26  1  0.349278  0.352340  0.248137  1
  Ir  Ir27  1  0.348256  0.652222  0.749182  1
  Ir  Ir28  1  0.501038  0.999676  0.123628  1
  Ir  Ir29  1  0.501705  0.999317  0.624050  1
  Ir  Ir30  1  0.000201  0.499706  0.877518  1
  Ir  Ir31  1  0.000129  0.499235  0.377090  1
