# generated using pymatgen
data_Sc2Re(BRu)4
_symmetry_space_group_name_H-M   'P 1'
_cell_length_a   3.02841000
_cell_length_b   8.52981604
_cell_length_c   10.06910077
_cell_angle_alpha   90.38964134
_cell_angle_beta   90.00000000
_cell_angle_gamma   90.00000000
_symmetry_Int_Tables_number   1
_chemical_formula_structural   Sc2Re(BRu)4
_chemical_formula_sum   'Sc4 Re2 B8 Ru8'
_cell_volume   260.09678316
_cell_formula_units_Z   2
loop_
 _symmetry_equiv_pos_site_id
 _symmetry_equiv_pos_as_xyz
  1  'x, y, z'
loop_
 _atom_site_type_symbol
 _atom_site_label
 _atom_site_symmetry_multiplicity
 _atom_site_fract_x
 _atom_site_fract_y
 _atom_site_fract_z
 _atom_site_occupancy
  Sc  Sc0  1  0.500000  0.841809  0.178575  1
  Sc  Sc1  1  0.500000  0.158191  0.821425  1
  Sc  Sc2  1  0.500000  0.657446  0.683764  1
  Sc  Sc3  1  0.500000  0.342554  0.316236  1
  Re  Re4  1  0.000000  0.660662  0.953009  1
  Re  Re5  1  0.000000  0.339338  0.046991  1
  B  B6  1  0.500000  0.965041  0.589813  1
  B  B7  1  0.500000  0.034959  0.410187  1
  B  B8  1  0.500000  0.848311  0.901269  1
  B  B9  1  0.500000  0.151689  0.098731  1
  B  B10  1  0.500000  0.647321  0.398327  1
  B  B11  1  0.500000  0.352679  0.601673  1
  B  B12  1  0.500000  0.464093  0.912027  1
  B  B13  1  0.500000  0.535907  0.087973  1
  Ru  Ru14  1  0.000000  0.841393  0.453587  1
  Ru  Ru15  1  0.000000  0.158607  0.546413  1
  Ru  Ru16  1  0.000000  0.000000  0.000000  1
  Ru  Ru17  1  0.000000  0.402988  0.759419  1
  Ru  Ru18  1  0.000000  0.597012  0.240581  1
  Ru  Ru19  1  0.000000  0.500000  0.500000  1
  Ru  Ru20  1  0.000000  0.905539  0.738147  1
  Ru  Ru21  1  0.000000  0.094461  0.261853  1
