# generated using pymatgen
data_Tb5Pr(Si3Os)8
_symmetry_space_group_name_H-M   'P 1'
_cell_length_a   10.15938553
_cell_length_b   10.15938506
_cell_length_c   8.20237942
_cell_angle_alpha   89.88793076
_cell_angle_beta   90.11206438
_cell_angle_gamma   132.41304869
_symmetry_Int_Tables_number   1
_chemical_formula_structural   Tb5Pr(Si3Os)8
_chemical_formula_sum   'Tb5 Pr1 Si24 Os8'
_cell_volume   625.03973163
_cell_formula_units_Z   1
loop_
 _symmetry_equiv_pos_site_id
 _symmetry_equiv_pos_as_xyz
  1  'x, y, z'
loop_
 _atom_site_type_symbol
 _atom_site_label
 _atom_site_symmetry_multiplicity
 _atom_site_fract_x
 _atom_site_fract_y
 _atom_site_fract_z
 _atom_site_occupancy
  Tb  Tb0  1  0.501180  0.001180  0.750000  1
  Tb  Tb1  1  0.999005  0.499005  0.250000  1
  Tb  Tb2  1  0.499675  0.999675  0.250000  1
  Tb  Tb3  1  0.000067  0.000011  0.000022  1
  Tb  Tb4  1  0.500011  0.500067  0.499978  1
  Pr  Pr5  1  0.001680  0.501680  0.750000  1
  Si  Si6  1  0.793552  0.203737  0.498630  1
  Si  Si7  1  0.703737  0.293552  0.001370  1
  Si  Si8  1  0.206862  0.796622  0.498325  1
  Si  Si9  1  0.296622  0.706862  0.001675  1
  Si  Si10  1  0.667762  0.667760  0.166966  1
  Si  Si11  1  0.167760  0.167762  0.333034  1
  Si  Si12  1  0.832422  0.832266  0.667427  1
  Si  Si13  1  0.332266  0.332422  0.832573  1
  Si  Si14  1  0.845320  0.611464  0.998418  1
  Si  Si15  1  0.111464  0.345320  0.501582  1
  Si  Si16  1  0.656116  0.889105  0.495884  1
  Si  Si17  1  0.389105  0.156116  0.004116  1
  Si  Si18  1  0.153510  0.388357  0.006989  1
  Si  Si19  1  0.888357  0.653510  0.493011  1
  Si  Si20  1  0.123363  0.888553  0.728772  1
  Si  Si21  1  0.388553  0.623363  0.771228  1
  Si  Si22  1  0.378327  0.612168  0.227301  1
  Si  Si23  1  0.112168  0.878327  0.272699  1
  Si  Si24  1  0.880223  0.113726  0.272559  1
  Si  Si25  1  0.613726  0.380223  0.227441  1
  Si  Si26  1  0.618949  0.384602  0.772141  1
  Si  Si27  1  0.884602  0.118949  0.727859  1
  Si  Si28  1  0.611155  0.844086  0.995179  1
  Si  Si29  1  0.344086  0.111155  0.504821  1
  Os  Os30  1  0.626214  0.625870  0.872719  1
  Os  Os31  1  0.125870  0.126214  0.627281  1
  Os  Os32  1  0.373147  0.373765  0.126504  1
  Os  Os33  1  0.873765  0.873147  0.373496  1
  Os  Os34  1  0.171021  0.834564  0.002968  1
  Os  Os35  1  0.334564  0.671021  0.497032  1
  Os  Os36  1  0.828688  0.165103  0.001993  1
  Os  Os37  1  0.665103  0.328688  0.498007  1
