# generated using pymatgen
data_Ta9Si6W
_symmetry_space_group_name_H-M   'P 1'
_cell_length_a   7.55280678
_cell_length_b   7.55280660
_cell_length_c   7.55280677
_cell_angle_alpha   128.78550112
_cell_angle_beta   128.78549783
_cell_angle_gamma   75.35595734
_symmetry_Int_Tables_number   1
_chemical_formula_structural   Ta9Si6W
_chemical_formula_sum   'Ta9 Si6 W1'
_cell_volume   254.79007701
_cell_formula_units_Z   1
loop_
 _symmetry_equiv_pos_site_id
 _symmetry_equiv_pos_as_xyz
  1  'x, y, z'
loop_
 _atom_site_type_symbol
 _atom_site_label
 _atom_site_symmetry_multiplicity
 _atom_site_fract_x
 _atom_site_fract_y
 _atom_site_fract_z
 _atom_site_occupancy
  Ta  Ta0  1  0.014612  0.183951  0.500308  1
  Ta  Ta1  1  0.683642  0.514303  0.499692  1
  Ta  Ta2  1  0.514303  0.014612  0.830661  1
  Ta  Ta3  1  0.183951  0.683642  0.169339  1
  Ta  Ta4  1  0.985388  0.816049  0.499692  1
  Ta  Ta5  1  0.316358  0.485697  0.500308  1
  Ta  Ta6  1  0.485697  0.985388  0.169339  1
  Ta  Ta7  1  0.816049  0.316358  0.830661  1
  Ta  Ta8  1  0.500000  0.500000  0.000000  1
  Si  Si9  1  0.749811  0.749811  0.000000  1
  Si  Si10  1  0.250189  0.250189  0.000000  1
  Si  Si11  1  0.366777  0.128340  0.495117  1
  Si  Si12  1  0.633223  0.871660  0.504883  1
  Si  Si13  1  0.871660  0.366777  0.238437  1
  Si  Si14  1  0.128340  0.633223  0.761563  1
  W  W15  1  0.000000  0.000000  0.000000  1
