# generated using pymatgen
data_DyEr4Ag5
_symmetry_space_group_name_H-M   'P 1'
_cell_length_a   3.62661400
_cell_length_b   3.62661400
_cell_length_c   18.03607700
_cell_angle_alpha   90.00000000
_cell_angle_beta   90.00000000
_cell_angle_gamma   90.00000000
_symmetry_Int_Tables_number   1
_chemical_formula_structural   DyEr4Ag5
_chemical_formula_sum   'Dy1 Er4 Ag5'
_cell_volume   237.21642047
_cell_formula_units_Z   1
loop_
 _symmetry_equiv_pos_site_id
 _symmetry_equiv_pos_as_xyz
  1  'x, y, z'
loop_
 _atom_site_type_symbol
 _atom_site_label
 _atom_site_symmetry_multiplicity
 _atom_site_fract_x
 _atom_site_fract_y
 _atom_site_fract_z
 _atom_site_occupancy
  Dy  Dy0  1  0.000000  0.000000  0.000000  1
  Er  Er1  1  0.000000  0.000000  0.200194  1
  Er  Er2  1  0.000000  0.000000  0.399884  1
  Er  Er3  1  0.000000  0.000000  0.600116  1
  Er  Er4  1  0.000000  0.000000  0.799806  1
  Ag  Ag5  1  0.500000  0.500000  0.101703  1
  Ag  Ag6  1  0.500000  0.500000  0.299933  1
  Ag  Ag7  1  0.500000  0.500000  0.500000  1
  Ag  Ag8  1  0.500000  0.500000  0.700067  1
  Ag  Ag9  1  0.500000  0.500000  0.898297  1
