# generated using pymatgen
data_Pu3AgCl12
_symmetry_space_group_name_H-M   'P 1'
_cell_length_a   13.30833075
_cell_length_b   12.70435919
_cell_length_c   6.83323000
_cell_angle_alpha   79.72085360
_cell_angle_beta   69.93357715
_cell_angle_gamma   32.05624080
_symmetry_Int_Tables_number   1
_chemical_formula_structural   Pu3AgCl12
_chemical_formula_sum   'Pu3 Ag1 Cl12'
_cell_volume   561.14793332
_cell_formula_units_Z   1
loop_
 _symmetry_equiv_pos_site_id
 _symmetry_equiv_pos_as_xyz
  1  'x, y, z'
loop_
 _atom_site_type_symbol
 _atom_site_label
 _atom_site_symmetry_multiplicity
 _atom_site_fract_x
 _atom_site_fract_y
 _atom_site_fract_z
 _atom_site_occupancy
  Pu  Pu0  1  0.842661  0.842661  0.657339  1
  Pu  Pu1  1  0.669979  0.669979  0.830021  1
  Pu  Pu2  1  0.573177  0.573177  0.426823  1
  Ag  Ag3  1  0.412650  0.412650  0.587350  1
  Cl  Cl4  1  0.723151  0.279005  0.269860  1
  Cl  Cl5  1  0.868511  0.444387  0.098359  1
  Cl  Cl6  1  0.374376  0.804986  0.157394  1
  Cl  Cl7  1  0.444387  0.868511  0.588743  1
  Cl  Cl8  1  0.149033  0.675308  0.355011  1
  Cl  Cl9  1  0.279005  0.723151  0.727984  1
  Cl  Cl10  1  0.542028  0.964853  0.962435  1
  Cl  Cl11  1  0.964853  0.542028  0.530683  1
  Cl  Cl12  1  0.060517  0.615379  0.890567  1
  Cl  Cl13  1  0.804986  0.374376  0.663245  1
  Cl  Cl14  1  0.675308  0.149033  0.820649  1
  Cl  Cl15  1  0.615379  0.060517  0.433536  1
