# generated using pymatgen
data_Ho3Zr(SnRh5)2
_symmetry_space_group_name_H-M   'P 1'
_cell_length_a   5.69613481
_cell_length_b   5.69613432
_cell_length_c   8.51022902
_cell_angle_alpha   89.99435586
_cell_angle_beta   89.99435648
_cell_angle_gamma   97.28920126
_symmetry_Int_Tables_number   1
_chemical_formula_structural   Ho3Zr(SnRh5)2
_chemical_formula_sum   'Ho3 Zr1 Sn2 Rh10'
_cell_volume   273.89093520
_cell_formula_units_Z   1
loop_
 _symmetry_equiv_pos_site_id
 _symmetry_equiv_pos_as_xyz
  1  'x, y, z'
loop_
 _atom_site_type_symbol
 _atom_site_label
 _atom_site_symmetry_multiplicity
 _atom_site_fract_x
 _atom_site_fract_y
 _atom_site_fract_z
 _atom_site_occupancy
  Ho  Ho0  1  0.779879  0.220121  0.500000  1
  Ho  Ho1  1  0.220543  0.779457  0.000000  1
  Ho  Ho2  1  0.220655  0.779345  0.500000  1
  Zr  Zr3  1  0.784049  0.215951  0.000000  1
  Sn  Sn4  1  0.502499  0.500729  0.750531  1
  Sn  Sn5  1  0.499271  0.497501  0.249469  1
  Rh  Rh6  1  0.725270  0.726961  0.000638  1
  Rh  Rh7  1  0.725304  0.725777  0.499164  1
  Rh  Rh8  1  0.273039  0.274730  0.999362  1
  Rh  Rh9  1  0.274223  0.274696  0.500836  1
  Rh  Rh10  1  0.503349  0.004019  0.754952  1
  Rh  Rh11  1  0.503527  0.003140  0.245092  1
  Rh  Rh12  1  0.998054  0.002503  0.245224  1
  Rh  Rh13  1  0.997497  0.001946  0.754776  1
  Rh  Rh14  1  0.996860  0.496473  0.754908  1
  Rh  Rh15  1  0.995981  0.496651  0.245048  1
