# generated using pymatgen
data_Lu4Al24IrPd4Pt3Au
_symmetry_space_group_name_H-M   'P 1'
_cell_length_a   7.50535061
_cell_length_b   7.53173149
_cell_length_c   13.11642600
_cell_angle_alpha   84.72444314
_cell_angle_beta   79.16760963
_cell_angle_gamma   59.87908989
_symmetry_Int_Tables_number   1
_chemical_formula_structural   Lu4Al24IrPd4Pt3Au
_chemical_formula_sum   'Lu4 Al24 Ir1 Pd4 Pt3 Au1'
_cell_volume   629.89977660
_cell_formula_units_Z   1
loop_
 _symmetry_equiv_pos_site_id
 _symmetry_equiv_pos_as_xyz
  1  'x, y, z'
loop_
 _atom_site_type_symbol
 _atom_site_label
 _atom_site_symmetry_multiplicity
 _atom_site_fract_x
 _atom_site_fract_y
 _atom_site_fract_z
 _atom_site_occupancy
  Lu  Lu0  1  0.393040  0.168538  0.809272  1
  Lu  Lu1  1  0.607192  0.832172  0.190375  1
  Lu  Lu2  1  0.733300  0.498844  0.808065  1
  Lu  Lu3  1  0.267740  0.500479  0.190591  1
  Al  Al4  1  0.685883  0.831220  0.944695  1
  Al  Al5  1  0.314056  0.168695  0.054840  1
  Al  Al6  1  0.145750  0.832763  0.563903  1
  Al  Al7  1  0.859104  0.167339  0.439239  1
  Al  Al8  1  0.478964  0.165402  0.563775  1
  Al  Al9  1  0.519533  0.827217  0.441816  1
  Al  Al10  1  0.213392  0.165978  0.324197  1
  Al  Al11  1  0.782291  0.833842  0.673751  1
  Al  Al12  1  0.435496  0.506744  0.673777  1
  Al  Al13  1  0.565723  0.497526  0.324155  1
  Al  Al14  1  0.108191  0.160751  0.672277  1
  Al  Al15  1  0.896277  0.835278  0.325833  1
  Al  Al16  1  0.351059  0.498676  0.944591  1
  Al  Al17  1  0.648616  0.502446  0.054337  1
  Al  Al18  1  0.015438  0.171523  0.952820  1
  Al  Al19  1  0.985047  0.828020  0.045828  1
  Al  Al20  1  0.180178  0.506719  0.442931  1
  Al  Al21  1  0.812202  0.500122  0.559984  1
  Al  Al22  1  0.737531  0.163116  0.179696  1
  Al  Al23  1  0.265915  0.836464  0.817379  1
  Al  Al24  1  0.060606  0.628182  0.817418  1
  Al  Al25  1  0.938717  0.372842  0.182518  1
  Al  Al26  1  0.854726  0.042781  0.816736  1
  Al  Al27  1  0.146212  0.955707  0.182971  1
  Ir  Ir28  1  0.999919  0.499889  0.000331  1
  Pd  Pd29  1  0.119968  0.490334  0.640224  1
  Pd  Pd30  1  0.880378  0.509036  0.360585  1
  Pd  Pd31  1  0.656422  0.171915  0.999410  1
  Pd  Pd32  1  0.342880  0.828676  0.000344  1
  Pt  Pt33  1  0.462935  0.833037  0.638981  1
  Pt  Pt34  1  0.777784  0.175502  0.637472  1
  Pt  Pt35  1  0.221675  0.824728  0.363351  1
  Au  Au36  1  0.535860  0.167500  0.361530  1
