# generated using pymatgen
data_Dy3YReTc3B16
_symmetry_space_group_name_H-M   'P 1'
_cell_length_a   3.60532100
_cell_length_b   5.97245809
_cell_length_c   11.56640610
_cell_angle_alpha   89.97302796
_cell_angle_beta   90.00000000
_cell_angle_gamma   90.00000000
_symmetry_Int_Tables_number   1
_chemical_formula_structural   Dy3YReTc3B16
_chemical_formula_sum   'Dy3 Y1 Re1 Tc3 B16'
_cell_volume   249.05509915
_cell_formula_units_Z   1
loop_
 _symmetry_equiv_pos_site_id
 _symmetry_equiv_pos_as_xyz
  1  'x, y, z'
loop_
 _atom_site_type_symbol
 _atom_site_label
 _atom_site_symmetry_multiplicity
 _atom_site_fract_x
 _atom_site_fract_y
 _atom_site_fract_z
 _atom_site_occupancy
  Dy  Dy0  1  0.000000  0.372659  0.650314  1
  Dy  Dy1  1  0.000000  0.126915  0.149459  1
  Dy  Dy2  1  0.000000  0.873124  0.850683  1
  Y  Y3  1  0.000000  0.627055  0.349754  1
  Re  Re4  1  0.000000  0.866541  0.587835  1
  Tc  Tc5  1  0.000000  0.633845  0.087631  1
  Tc  Tc6  1  0.000000  0.366549  0.912258  1
  Tc  Tc7  1  0.000000  0.133066  0.412668  1
  B  B8  1  0.500000  0.787525  0.184673  1
  B  B9  1  0.500000  0.212913  0.815235  1
  B  B10  1  0.500000  0.287172  0.315016  1
  B  B11  1  0.500000  0.712541  0.685125  1
  B  B12  1  0.500000  0.863893  0.031437  1
  B  B13  1  0.500000  0.136161  0.968629  1
  B  B14  1  0.500000  0.363692  0.468576  1
  B  B15  1  0.500000  0.636150  0.531237  1
  B  B16  1  0.500000  0.886840  0.452559  1
  B  B17  1  0.500000  0.113724  0.547044  1
  B  B18  1  0.500000  0.386500  0.047207  1
  B  B19  1  0.500000  0.613315  0.952900  1
  B  B20  1  0.500000  0.977190  0.307480  1
  B  B21  1  0.500000  0.023296  0.692285  1
  B  B22  1  0.500000  0.476443  0.192163  1
  B  B23  1  0.500000  0.522892  0.807833  1
