# generated using pymatgen
data_Ba2In3BiPt4
_symmetry_space_group_name_H-M   'P 1'
_cell_length_a   4.94611750
_cell_length_b   4.78691300
_cell_length_c   10.86207519
_cell_angle_alpha   90.00000000
_cell_angle_beta   93.32615526
_cell_angle_gamma   90.00000000
_symmetry_Int_Tables_number   1
_chemical_formula_structural   Ba2In3BiPt4
_chemical_formula_sum   'Ba2 In3 Bi1 Pt4'
_cell_volume   256.74414880
_cell_formula_units_Z   1
loop_
 _symmetry_equiv_pos_site_id
 _symmetry_equiv_pos_as_xyz
  1  'x, y, z'
loop_
 _atom_site_type_symbol
 _atom_site_label
 _atom_site_symmetry_multiplicity
 _atom_site_fract_x
 _atom_site_fract_y
 _atom_site_fract_z
 _atom_site_occupancy
  Ba  Ba0  1  0.268700  0.750000  0.259009  1
  Ba  Ba1  1  0.730872  0.249999  0.741439  1
  In  In2  1  0.252112  0.249999  0.001636  1
  In  In3  1  0.808879  0.249999  0.387026  1
  In  In4  1  0.189660  0.750000  0.612706  1
  Bi  Bi5  1  0.747203  0.750000  0.998382  1
  Pt  Pt6  1  0.769156  0.249999  0.133674  1
  Pt  Pt7  1  0.675110  0.750000  0.501857  1
  Pt  Pt8  1  0.324856  0.249999  0.497796  1
  Pt  Pt9  1  0.233452  0.750000  0.866475  1
