# generated using pymatgen
data_DyHo3Mn16(FeP3)4
_symmetry_space_group_name_H-M   'P 1'
_cell_length_a   3.58888700
_cell_length_b   10.59171107
_cell_length_c   12.20866509
_cell_angle_alpha   89.98645056
_cell_angle_beta   90.00000000
_cell_angle_gamma   90.00000000
_symmetry_Int_Tables_number   1
_chemical_formula_structural   DyHo3Mn16(FeP3)4
_chemical_formula_sum   'Dy1 Ho3 Mn16 Fe4 P12'
_cell_volume   464.08130920
_cell_formula_units_Z   1
loop_
 _symmetry_equiv_pos_site_id
 _symmetry_equiv_pos_as_xyz
  1  'x, y, z'
loop_
 _atom_site_type_symbol
 _atom_site_label
 _atom_site_symmetry_multiplicity
 _atom_site_fract_x
 _atom_site_fract_y
 _atom_site_fract_z
 _atom_site_occupancy
  Dy  Dy0  1  0.750000  0.083510  0.791881  1
  Ho  Ho1  1  0.250000  0.583415  0.708102  1
  Ho  Ho2  1  0.250000  0.916591  0.208271  1
  Ho  Ho3  1  0.750000  0.416509  0.291925  1
  Mn  Mn4  1  0.250000  0.710566  0.986121  1
  Mn  Mn5  1  0.250000  0.789256  0.486051  1
  Mn  Mn6  1  0.750000  0.289364  0.013901  1
  Mn  Mn7  1  0.750000  0.210648  0.513857  1
  Mn  Mn8  1  0.250000  0.408836  0.492709  1
  Mn  Mn9  1  0.250000  0.091259  0.992932  1
  Mn  Mn10  1  0.750000  0.591211  0.507260  1
  Mn  Mn11  1  0.750000  0.908714  0.007382  1
  Mn  Mn12  1  0.250000  0.218200  0.175291  1
  Mn  Mn13  1  0.250000  0.281958  0.675119  1
  Mn  Mn14  1  0.750000  0.781596  0.824808  1
  Mn  Mn15  1  0.750000  0.718216  0.324813  1
  Mn  Mn16  1  0.250000  0.877150  0.697488  1
  Mn  Mn17  1  0.250000  0.622667  0.197613  1
  Mn  Mn18  1  0.750000  0.122692  0.302431  1
  Mn  Mn19  1  0.750000  0.377595  0.802439  1
  Fe  Fe20  1  0.250000  0.463257  0.931941  1
  Fe  Fe21  1  0.250000  0.036908  0.431753  1
  Fe  Fe22  1  0.750000  0.536843  0.068063  1
  Fe  Fe23  1  0.750000  0.963058  0.567871  1
  P  P24  1  0.250000  0.421504  0.110508  1
  P  P25  1  0.250000  0.078447  0.610176  1
  P  P26  1  0.750000  0.578418  0.889467  1
  P  P27  1  0.750000  0.921547  0.389421  1
  P  P28  1  0.250000  0.264582  0.872109  1
  P  P29  1  0.250000  0.235795  0.371944  1
  P  P30  1  0.750000  0.735892  0.128115  1
  P  P31  1  0.750000  0.764020  0.628031  1
  P  P32  1  0.250000  0.593346  0.386097  1
  P  P33  1  0.250000  0.906340  0.886179  1
  P  P34  1  0.750000  0.406736  0.613910  1
  P  P35  1  0.750000  0.093351  0.114021  1
