# generated using pymatgen
data_Ho4Ga18(TcPd)3
_symmetry_space_group_name_H-M   'P 1'
_cell_length_a   7.59454109
_cell_length_b   7.59454079
_cell_length_c   9.71248568
_cell_angle_alpha   89.92974179
_cell_angle_beta   89.92972953
_cell_angle_gamma   120.21886857
_symmetry_Int_Tables_number   1
_chemical_formula_structural   Ho4Ga18(TcPd)3
_chemical_formula_sum   'Ho4 Ga18 Tc3 Pd3'
_cell_volume   484.06168838
_cell_formula_units_Z   1
loop_
 _symmetry_equiv_pos_site_id
 _symmetry_equiv_pos_as_xyz
  1  'x, y, z'
loop_
 _atom_site_type_symbol
 _atom_site_label
 _atom_site_symmetry_multiplicity
 _atom_site_fract_x
 _atom_site_fract_y
 _atom_site_fract_z
 _atom_site_occupancy
  Ho  Ho0  1  0.997413  0.668682  0.250898  1
  Ho  Ho1  1  0.004018  0.332467  0.749253  1
  Ho  Ho2  1  0.667533  0.995982  0.250747  1
  Ho  Ho3  1  0.331318  0.002587  0.749102  1
  Ga  Ga4  1  0.131425  0.129206  0.249483  1
  Ga  Ga5  1  0.870794  0.868575  0.750517  1
  Ga  Ga6  1  0.004978  0.336588  0.079867  1
  Ga  Ga7  1  0.002233  0.665873  0.920530  1
  Ga  Ga8  1  0.998127  0.662658  0.578562  1
  Ga  Ga9  1  0.337342  0.001873  0.421438  1
  Ga  Ga10  1  0.003408  0.337723  0.419933  1
  Ga  Ga11  1  0.662277  0.996592  0.580067  1
  Ga  Ga12  1  0.663412  0.995022  0.920133  1
  Ga  Ga13  1  0.334127  0.997767  0.079470  1
  Ga  Ga14  1  0.341970  0.341702  0.564727  1
  Ga  Ga15  1  0.658298  0.658030  0.435273  1
  Ga  Ga16  1  0.658303  0.663894  0.068540  1
  Ga  Ga17  1  0.336106  0.341697  0.931460  1
  Ga  Ga18  1  0.335651  0.549266  0.249946  1
  Ga  Ga19  1  0.666847  0.455926  0.747130  1
  Ga  Ga20  1  0.544074  0.333153  0.252870  1
  Ga  Ga21  1  0.450734  0.664349  0.750054  1
  Tc  Tc22  1  0.326937  0.673063  0.000000  1
  Tc  Tc23  1  0.326009  0.673991  0.500000  1
  Tc  Tc24  1  0.674828  0.325172  0.500000  1
  Pd  Pd25  1  0.671701  0.328299  0.000000  1
  Pd  Pd26  1  0.000777  0.999223  0.000000  1
  Pd  Pd27  1  0.999364  0.000636  0.500000  1
