# generated using pymatgen
data_Y3Ho(MoO6)2
_symmetry_space_group_name_H-M   'P 1'
_cell_length_a   9.96163431
_cell_length_b   9.96163430
_cell_length_c   5.40610200
_cell_angle_alpha   75.02021847
_cell_angle_beta   75.02021608
_cell_angle_gamma   68.13354726
_symmetry_Int_Tables_number   1
_chemical_formula_structural   Y3Ho(MoO6)2
_chemical_formula_sum   'Y6 Ho2 Mo4 O24'
_cell_volume   473.01624022
_cell_formula_units_Z   2
loop_
 _symmetry_equiv_pos_site_id
 _symmetry_equiv_pos_as_xyz
  1  'x, y, z'
loop_
 _atom_site_type_symbol
 _atom_site_label
 _atom_site_symmetry_multiplicity
 _atom_site_fract_x
 _atom_site_fract_y
 _atom_site_fract_z
 _atom_site_occupancy
  Y  Y0  1  0.447610  0.216291  0.378466  1
  Y  Y1  1  0.783709  0.552390  0.121534  1
  Y  Y2  1  0.552390  0.783709  0.621534  1
  Y  Y3  1  0.216291  0.447610  0.878466  1
  Y  Y4  1  0.863517  0.136483  0.250000  1
  Y  Y5  1  0.136483  0.863517  0.750000  1
  Ho  Ho6  1  0.394173  0.605827  0.250000  1
  Ho  Ho7  1  0.605827  0.394173  0.750000  1
  Mo  Mo8  1  0.296506  0.011176  0.061431  1
  Mo  Mo9  1  0.988824  0.703494  0.438569  1
  Mo  Mo10  1  0.703494  0.988824  0.938569  1
  Mo  Mo11  1  0.011176  0.296506  0.561431  1
  O  O12  1  0.608860  0.572261  0.922413  1
  O  O13  1  0.427739  0.391140  0.577587  1
  O  O14  1  0.391140  0.427739  0.077587  1
  O  O15  1  0.572261  0.608860  0.422413  1
  O  O16  1  0.337840  0.807075  0.920487  1
  O  O17  1  0.192925  0.662160  0.579513  1
  O  O18  1  0.662160  0.192925  0.079513  1
  O  O19  1  0.807075  0.337840  0.420487  1
  O  O20  1  0.325860  0.884490  0.372795  1
  O  O21  1  0.115510  0.674140  0.127205  1
  O  O22  1  0.674140  0.115510  0.627205  1
  O  O23  1  0.884490  0.325860  0.872795  1
  O  O24  1  0.183330  0.288844  0.636724  1
  O  O25  1  0.711156  0.816670  0.863276  1
  O  O26  1  0.816670  0.711156  0.363276  1
  O  O27  1  0.288844  0.183330  0.136724  1
  O  O28  1  0.047941  0.111037  0.514594  1
  O  O29  1  0.888963  0.952059  0.985406  1
  O  O30  1  0.952059  0.888963  0.485406  1
  O  O31  1  0.111037  0.047941  0.014594  1
  O  O32  1  0.024820  0.432350  0.256234  1
  O  O33  1  0.567650  0.975180  0.243766  1
  O  O34  1  0.975180  0.567650  0.743766  1
  O  O35  1  0.432350  0.024820  0.756234  1
