# generated using pymatgen
data_Tm3ScMn6(CoP3)2
_symmetry_space_group_name_H-M   'P 1'
_cell_length_a   3.66521800
_cell_length_b   10.93092800
_cell_length_c   12.64024900
_cell_angle_alpha   90.00000000
_cell_angle_beta   90.00000000
_cell_angle_gamma   90.00000000
_symmetry_Int_Tables_number   1
_chemical_formula_structural   Tm3ScMn6(CoP3)2
_chemical_formula_sum   'Tm6 Sc2 Mn12 Co4 P12'
_cell_volume   506.42189454
_cell_formula_units_Z   2
loop_
 _symmetry_equiv_pos_site_id
 _symmetry_equiv_pos_as_xyz
  1  'x, y, z'
loop_
 _atom_site_type_symbol
 _atom_site_label
 _atom_site_symmetry_multiplicity
 _atom_site_fract_x
 _atom_site_fract_y
 _atom_site_fract_z
 _atom_site_occupancy
  Tm  Tm0  1  0.000000  0.500000  0.536525  1
  Tm  Tm1  1  0.500000  0.000000  0.463475  1
  Tm  Tm2  1  0.500000  0.825900  0.204896  1
  Tm  Tm3  1  0.500000  0.174100  0.204896  1
  Tm  Tm4  1  0.000000  0.674100  0.795104  1
  Tm  Tm5  1  0.000000  0.325900  0.795104  1
  Sc  Sc6  1  0.500000  0.500000  0.163500  1
  Sc  Sc7  1  0.000000  0.000000  0.836500  1
  Mn  Mn8  1  0.500000  0.330533  0.995527  1
  Mn  Mn9  1  0.500000  0.669467  0.995527  1
  Mn  Mn10  1  0.000000  0.169467  0.004473  1
  Mn  Mn11  1  0.000000  0.830533  0.004473  1
  Mn  Mn12  1  0.500000  0.295617  0.434889  1
  Mn  Mn13  1  0.500000  0.704383  0.434889  1
  Mn  Mn14  1  0.000000  0.204383  0.565111  1
  Mn  Mn15  1  0.000000  0.795617  0.565111  1
  Mn  Mn16  1  0.500000  0.878025  0.695230  1
  Mn  Mn17  1  0.500000  0.121975  0.695230  1
  Mn  Mn18  1  0.000000  0.621975  0.304770  1
  Mn  Mn19  1  0.000000  0.378025  0.304770  1
  Co  Co20  1  0.500000  0.500000  0.708159  1
  Co  Co21  1  0.000000  0.000000  0.291841  1
  Co  Co22  1  0.000000  0.500000  0.988646  1
  Co  Co23  1  0.500000  0.000000  0.011354  1
  P  P24  1  0.500000  0.500000  0.884810  1
  P  P25  1  0.000000  0.000000  0.115190  1
  P  P26  1  0.500000  0.500000  0.368842  1
  P  P27  1  0.000000  0.000000  0.631158  1
  P  P28  1  0.500000  0.319639  0.619657  1
  P  P29  1  0.500000  0.680361  0.619657  1
  P  P30  1  0.000000  0.180361  0.380343  1
  P  P31  1  0.000000  0.819639  0.380343  1
  P  P32  1  0.500000  0.839806  0.888343  1
  P  P33  1  0.500000  0.160194  0.888343  1
  P  P34  1  0.000000  0.660194  0.111657  1
  P  P35  1  0.000000  0.339806  0.111657  1
