# generated using pymatgen
data_TbHo11(TcIr)2
_symmetry_space_group_name_H-M   'P 1'
_cell_length_a   6.30839906
_cell_length_b   7.29855707
_cell_length_c   9.13810000
_cell_angle_alpha   90.00000000
_cell_angle_beta   90.00000000
_cell_angle_gamma   89.98406002
_symmetry_Int_Tables_number   1
_chemical_formula_structural   TbHo11(TcIr)2
_chemical_formula_sum   'Tb1 Ho11 Tc2 Ir2'
_cell_volume   420.73830814
_cell_formula_units_Z   1
loop_
 _symmetry_equiv_pos_site_id
 _symmetry_equiv_pos_as_xyz
  1  'x, y, z'
loop_
 _atom_site_type_symbol
 _atom_site_label
 _atom_site_symmetry_multiplicity
 _atom_site_fract_x
 _atom_site_fract_y
 _atom_site_fract_z
 _atom_site_occupancy
  Tb  Tb0  1  0.873844  0.537561  0.250000  1
  Ho  Ho1  1  0.329649  0.676906  0.064976  1
  Ho  Ho2  1  0.171321  0.176754  0.434780  1
  Ho  Ho3  1  0.668610  0.323435  0.561401  1
  Ho  Ho4  1  0.831076  0.824227  0.938654  1
  Ho  Ho5  1  0.668610  0.323435  0.938599  1
  Ho  Ho6  1  0.831076  0.824227  0.561346  1
  Ho  Ho7  1  0.329649  0.676906  0.435024  1
  Ho  Ho8  1  0.171321  0.176754  0.065220  1
  Ho  Ho9  1  0.625985  0.037416  0.250000  1
  Ho  Ho10  1  0.132830  0.460016  0.750000  1
  Ho  Ho11  1  0.367231  0.960086  0.750000  1
  Tc  Tc12  1  0.035280  0.886711  0.250000  1
  Tc  Tc13  1  0.463784  0.386147  0.250000  1
  Ir  Ir14  1  0.955684  0.114676  0.750000  1
  Ir  Ir15  1  0.544050  0.614743  0.750000  1
