# generated using pymatgen
data_Nd6Ir11Rh7
_symmetry_space_group_name_H-M   'P 1'
_cell_length_a   5.36008700
_cell_length_b   5.36838453
_cell_length_c   17.69060133
_cell_angle_alpha   90.09019767
_cell_angle_beta   90.00000000
_cell_angle_gamma   119.94889035
_symmetry_Int_Tables_number   1
_chemical_formula_structural   Nd6Ir11Rh7
_chemical_formula_sum   'Nd6 Ir11 Rh7'
_cell_volume   441.07394379
_cell_formula_units_Z   1
loop_
 _symmetry_equiv_pos_site_id
 _symmetry_equiv_pos_as_xyz
  1  'x, y, z'
loop_
 _atom_site_type_symbol
 _atom_site_label
 _atom_site_symmetry_multiplicity
 _atom_site_fract_x
 _atom_site_fract_y
 _atom_site_fract_z
 _atom_site_occupancy
  Nd  Nd0  1  0.333167  0.666336  0.541521  1
  Nd  Nd1  1  0.666645  0.333289  0.041367  1
  Nd  Nd2  1  0.666205  0.332408  0.458289  1
  Nd  Nd3  1  0.333460  0.666921  0.958568  1
  Nd  Nd4  1  0.333410  0.666821  0.749919  1
  Nd  Nd5  1  0.666685  0.333369  0.249571  1
  Ir  Ir6  1  0.166733  0.333464  0.128303  1
  Ir  Ir7  1  0.833009  0.666020  0.627560  1
  Ir  Ir8  1  0.665518  0.832786  0.127794  1
  Ir  Ir9  1  0.167269  0.832786  0.127794  1
  Ir  Ir10  1  0.833201  0.167388  0.627721  1
  Ir  Ir11  1  0.334187  0.167388  0.627721  1
  Ir  Ir12  1  0.833027  0.666056  0.872177  1
  Ir  Ir13  1  0.832723  0.166855  0.872201  1
  Ir  Ir14  1  0.334131  0.166855  0.872201  1
  Ir  Ir15  1  0.667178  0.835315  0.372224  1
  Ir  Ir16  1  0.168138  0.835315  0.372224  1
  Rh  Rh17  1  0.167687  0.335373  0.372948  1
  Rh  Rh18  1  0.999367  0.998734  0.250068  1
  Rh  Rh19  1  0.000060  0.000121  0.749963  1
  Rh  Rh20  1  0.333341  0.666682  0.250096  1
  Rh  Rh21  1  0.666723  0.333446  0.749955  1
  Rh  Rh22  1  0.000422  0.000843  0.999885  1
  Rh  Rh23  1  0.997713  0.995427  0.499928  1
