# generated using pymatgen
data_Gd12InNi4Pt
_symmetry_space_group_name_H-M   'P 1'
_cell_length_a   8.45106638
_cell_length_b   8.45106541
_cell_length_c   8.45106700
_cell_angle_alpha   111.02915286
_cell_angle_beta   110.75441473
_cell_angle_gamma   106.66611621
_symmetry_Int_Tables_number   1
_chemical_formula_structural   Gd12InNi4Pt
_chemical_formula_sum   'Gd12 In1 Ni4 Pt1'
_cell_volume   463.80283520
_cell_formula_units_Z   1
loop_
 _symmetry_equiv_pos_site_id
 _symmetry_equiv_pos_as_xyz
  1  'x, y, z'
loop_
 _atom_site_type_symbol
 _atom_site_label
 _atom_site_symmetry_multiplicity
 _atom_site_fract_x
 _atom_site_fract_y
 _atom_site_fract_z
 _atom_site_occupancy
  Gd  Gd0  1  0.181699  0.295395  0.477093  1
  Gd  Gd1  1  0.818301  0.704605  0.522907  1
  Gd  Gd2  1  0.181699  0.704605  0.886304  1
  Gd  Gd3  1  0.818301  0.295395  0.113696  1
  Gd  Gd4  1  0.324066  0.632479  0.308413  1
  Gd  Gd5  1  0.675934  0.367521  0.691587  1
  Gd  Gd6  1  0.324066  0.015654  0.691587  1
  Gd  Gd7  1  0.675934  0.984346  0.308413  1
  Gd  Gd8  1  0.407323  0.215367  0.191956  1
  Gd  Gd9  1  0.592677  0.784633  0.808044  1
  Gd  Gd10  1  0.023411  0.215367  0.808044  1
  Gd  Gd11  1  0.976589  0.784633  0.191956  1
  In  In12  1  0.500000  0.500000  0.000000  1
  Ni  Ni13  1  0.123053  0.623053  0.500000  1
  Ni  Ni14  1  0.876947  0.376947  0.500000  1
  Ni  Ni15  1  0.364176  0.000000  0.364176  1
  Ni  Ni16  1  0.635824  0.000000  0.635824  1
  Pt  Pt17  1  0.000000  0.000000  0.000000  1
