# generated using pymatgen
data_ErHfZrFe9
_symmetry_space_group_name_H-M   'P 1'
_cell_length_a   8.43352213
_cell_length_b   8.43352267
_cell_length_c   8.43352201
_cell_angle_alpha   34.28310218
_cell_angle_beta   34.28309795
_cell_angle_gamma   34.28310064
_symmetry_Int_Tables_number   1
_chemical_formula_structural   ErHfZrFe9
_chemical_formula_sum   'Er1 Hf1 Zr1 Fe9'
_cell_volume   169.72494935
_cell_formula_units_Z   1
loop_
 _symmetry_equiv_pos_site_id
 _symmetry_equiv_pos_as_xyz
  1  'x, y, z'
loop_
 _atom_site_type_symbol
 _atom_site_label
 _atom_site_symmetry_multiplicity
 _atom_site_fract_x
 _atom_site_fract_y
 _atom_site_fract_z
 _atom_site_occupancy
  Er  Er0  1  0.000157  0.000157  0.000157  1
  Hf  Hf1  1  0.142559  0.142559  0.142559  1
  Zr  Zr2  1  0.857388  0.857388  0.857388  1
  Fe  Fe3  1  0.414468  0.414468  0.918260  1
  Fe  Fe4  1  0.918260  0.414468  0.414468  1
  Fe  Fe5  1  0.585272  0.082288  0.585272  1
  Fe  Fe6  1  0.585272  0.585272  0.082288  1
  Fe  Fe7  1  0.414468  0.918260  0.414468  1
  Fe  Fe8  1  0.082288  0.585272  0.585272  1
  Fe  Fe9  1  0.332810  0.332810  0.332810  1
  Fe  Fe10  1  0.667124  0.667124  0.667124  1
  Fe  Fe11  1  0.499933  0.499933  0.499933  1
