# generated using pymatgen
data_Ba6Ca2TbUSe12
_symmetry_space_group_name_H-M   'P 1'
_cell_length_a   8.91871959
_cell_length_b   8.91871892
_cell_length_c   8.91872025
_cell_angle_alpha   91.94929008
_cell_angle_beta   91.94929497
_cell_angle_gamma   91.94929806
_symmetry_Int_Tables_number   1
_chemical_formula_structural   Ba6Ca2TbUSe12
_chemical_formula_sum   'Ba6 Ca2 Tb1 U1 Se12'
_cell_volume   708.16642418
_cell_formula_units_Z   1
loop_
 _symmetry_equiv_pos_site_id
 _symmetry_equiv_pos_as_xyz
  1  'x, y, z'
loop_
 _atom_site_type_symbol
 _atom_site_label
 _atom_site_symmetry_multiplicity
 _atom_site_fract_x
 _atom_site_fract_y
 _atom_site_fract_z
 _atom_site_occupancy
  Ba  Ba0  1  0.869212  0.622997  0.257377  1
  Ba  Ba1  1  0.257377  0.869212  0.622997  1
  Ba  Ba2  1  0.622997  0.257377  0.869212  1
  Ba  Ba3  1  0.742623  0.130788  0.377003  1
  Ba  Ba4  1  0.377003  0.742623  0.130788  1
  Ba  Ba5  1  0.130788  0.377003  0.742623  1
  Ca  Ca6  1  0.255221  0.255221  0.255221  1
  Ca  Ca7  1  0.744779  0.744779  0.744779  1
  Tb  Tb8  1  0.500000  0.500000  0.500000  1
  U  U9  1  0.000000  0.000000  0.000000  1
  Se  Se10  1  0.196132  0.549686  0.408274  1
  Se  Se11  1  0.408274  0.196132  0.549686  1
  Se  Se12  1  0.549686  0.408274  0.196132  1
  Se  Se13  1  0.918489  0.045343  0.703980  1
  Se  Se14  1  0.703980  0.918489  0.045343  1
  Se  Se15  1  0.045343  0.703980  0.918489  1
  Se  Se16  1  0.803868  0.450314  0.591726  1
  Se  Se17  1  0.591726  0.803868  0.450314  1
  Se  Se18  1  0.450314  0.591726  0.803868  1
  Se  Se19  1  0.081511  0.954657  0.296020  1
  Se  Se20  1  0.296020  0.081511  0.954657  1
  Se  Se21  1  0.954657  0.296020  0.081511  1
