# generated using pymatgen
data_Er12IrOs2Ru
_symmetry_space_group_name_H-M   'P 1'
_cell_length_a   6.31812037
_cell_length_b   7.30282863
_cell_length_c   8.98824200
_cell_angle_alpha   90.00000000
_cell_angle_beta   90.00000000
_cell_angle_gamma   90.27390513
_symmetry_Int_Tables_number   1
_chemical_formula_structural   Er12IrOs2Ru
_chemical_formula_sum   'Er12 Ir1 Os2 Ru1'
_cell_volume   414.71409855
_cell_formula_units_Z   1
loop_
 _symmetry_equiv_pos_site_id
 _symmetry_equiv_pos_as_xyz
  1  'x, y, z'
loop_
 _atom_site_type_symbol
 _atom_site_label
 _atom_site_symmetry_multiplicity
 _atom_site_fract_x
 _atom_site_fract_y
 _atom_site_fract_z
 _atom_site_occupancy
  Er  Er0  1  0.331872  0.673726  0.061802  1
  Er  Er1  1  0.171583  0.176974  0.437207  1
  Er  Er2  1  0.668872  0.325202  0.561834  1
  Er  Er3  1  0.827769  0.824187  0.935753  1
  Er  Er4  1  0.668872  0.325202  0.938166  1
  Er  Er5  1  0.827769  0.824187  0.564247  1
  Er  Er6  1  0.331872  0.673726  0.438198  1
  Er  Er7  1  0.171583  0.176974  0.062793  1
  Er  Er8  1  0.873104  0.537405  0.250000  1
  Er  Er9  1  0.628157  0.038605  0.250000  1
  Er  Er10  1  0.127597  0.461212  0.750000  1
  Er  Er11  1  0.369229  0.961715  0.750000  1
  Ir  Ir12  1  0.039247  0.884795  0.250000  1
  Os  Os13  1  0.462329  0.383656  0.250000  1
  Os  Os14  1  0.536144  0.616954  0.750000  1
  Ru  Ru15  1  0.964003  0.115483  0.750000  1
