# generated using pymatgen
data_Ce3Pr(PRu)8
_symmetry_space_group_name_H-M   'P 1'
_cell_length_a   4.15162700
_cell_length_b   7.52184580
_cell_length_c   10.45998129
_cell_angle_alpha   89.87766690
_cell_angle_beta   90.00000000
_cell_angle_gamma   90.00000000
_symmetry_Int_Tables_number   1
_chemical_formula_structural   Ce3Pr(PRu)8
_chemical_formula_sum   'Ce3 Pr1 P8 Ru8'
_cell_volume   326.64248533
_cell_formula_units_Z   1
loop_
 _symmetry_equiv_pos_site_id
 _symmetry_equiv_pos_as_xyz
  1  'x, y, z'
loop_
 _atom_site_type_symbol
 _atom_site_label
 _atom_site_symmetry_multiplicity
 _atom_site_fract_x
 _atom_site_fract_y
 _atom_site_fract_z
 _atom_site_occupancy
  Ce  Ce0  1  0.250000  0.268431  0.670337  1
  Ce  Ce1  1  0.750000  0.731789  0.329581  1
  Ce  Ce2  1  0.250000  0.768668  0.828484  1
  Pr  Pr3  1  0.750000  0.229737  0.169993  1
  P  P4  1  0.250000  0.094020  0.967384  1
  P  P5  1  0.750000  0.904225  0.030172  1
  P  P6  1  0.250000  0.595100  0.531623  1
  P  P7  1  0.750000  0.406029  0.470129  1
  P  P8  1  0.250000  0.530056  0.160914  1
  P  P9  1  0.750000  0.469496  0.838608  1
  P  P10  1  0.250000  0.030841  0.341057  1
  P  P11  1  0.750000  0.969698  0.660880  1
  Ru  Ru12  1  0.750000  0.109421  0.455306  1
  Ru  Ru13  1  0.250000  0.890491  0.549065  1
  Ru  Ru14  1  0.750000  0.609894  0.045132  1
  Ru  Ru15  1  0.250000  0.391847  0.949767  1
  Ru  Ru16  1  0.250000  0.865642  0.132123  1
  Ru  Ru17  1  0.750000  0.131518  0.865330  1
  Ru  Ru18  1  0.250000  0.370581  0.370838  1
  Ru  Ru19  1  0.750000  0.632516  0.633277  1
