# generated using pymatgen
data_TbHo19(Ir2Ru)4
_symmetry_space_group_name_H-M   'P 1'
_cell_length_a   10.79000086
_cell_length_b   10.79081883
_cell_length_c   6.41575802
_cell_angle_alpha   89.99849955
_cell_angle_beta   90.00829121
_cell_angle_gamma   90.04504908
_symmetry_Int_Tables_number   1
_chemical_formula_structural   TbHo19(Ir2Ru)4
_chemical_formula_sum   'Tb1 Ho19 Ir8 Ru4'
_cell_volume   747.00535837
_cell_formula_units_Z   1
loop_
 _symmetry_equiv_pos_site_id
 _symmetry_equiv_pos_as_xyz
  1  'x, y, z'
loop_
 _atom_site_type_symbol
 _atom_site_label
 _atom_site_symmetry_multiplicity
 _atom_site_fract_x
 _atom_site_fract_y
 _atom_site_fract_z
 _atom_site_occupancy
  Tb  Tb0  1  0.293279  0.086603  0.377214  1
  Ho  Ho1  1  0.293500  0.913213  0.877584  1
  Ho  Ho2  1  0.706569  0.086697  0.877324  1
  Ho  Ho3  1  0.706560  0.913515  0.377733  1
  Ho  Ho4  1  0.586493  0.793416  0.877601  1
  Ho  Ho5  1  0.586876  0.206782  0.377627  1
  Ho  Ho6  1  0.413576  0.793113  0.377496  1
  Ho  Ho7  1  0.413647  0.206624  0.877533  1
  Ho  Ho8  1  0.206587  0.413571  0.622481  1
  Ho  Ho9  1  0.206684  0.586572  0.122532  1
  Ho  Ho10  1  0.793328  0.413328  0.122470  1
  Ho  Ho11  1  0.793373  0.586534  0.622436  1
  Ho  Ho12  1  0.913350  0.706494  0.122406  1
  Ho  Ho13  1  0.913254  0.293291  0.622578  1
  Ho  Ho14  1  0.086663  0.706511  0.622494  1
  Ho  Ho15  1  0.086366  0.293546  0.122195  1
  Ho  Ho16  1  0.999788  0.999916  0.500072  1
  Ho  Ho17  1  0.999838  0.999996  0.999827  1
  Ho  Ho18  1  0.499949  0.499987  0.999921  1
  Ho  Ho19  1  0.500135  0.500110  0.499875  1
  Ir  Ir20  1  0.847716  0.152383  0.250033  1
  Ir  Ir21  1  0.847744  0.847628  0.750021  1
  Ir  Ir22  1  0.151962  0.152510  0.750758  1
  Ir  Ir23  1  0.152101  0.847311  0.249879  1
  Ir  Ir24  1  0.652421  0.347685  0.750008  1
  Ir  Ir25  1  0.652343  0.652390  0.250177  1
  Ir  Ir26  1  0.347673  0.348187  0.249717  1
  Ir  Ir27  1  0.347616  0.652312  0.750067  1
  Ru  Ru28  1  0.500131  0.999821  0.121542  1
  Ru  Ru29  1  0.500349  0.999839  0.622241  1
  Ru  Ru30  1  0.000021  0.499987  0.878056  1
  Ru  Ru31  1  0.000106  0.500127  0.378100  1
