# generated using pymatgen
data_Ca8Si13Pt3
_symmetry_space_group_name_H-M   'P 1'
_cell_length_a   8.22179700
_cell_length_b   8.22179806
_cell_length_c   8.52507500
_cell_angle_alpha   90.00000000
_cell_angle_beta   90.00000000
_cell_angle_gamma   119.99999977
_symmetry_Int_Tables_number   1
_chemical_formula_structural   Ca8Si13Pt3
_chemical_formula_sum   'Ca8 Si13 Pt3'
_cell_volume   499.07107090
_cell_formula_units_Z   1
loop_
 _symmetry_equiv_pos_site_id
 _symmetry_equiv_pos_as_xyz
  1  'x, y, z'
loop_
 _atom_site_type_symbol
 _atom_site_label
 _atom_site_symmetry_multiplicity
 _atom_site_fract_x
 _atom_site_fract_y
 _atom_site_fract_z
 _atom_site_occupancy
  Ca  Ca0  1  0.000000  0.000000  0.749101  1
  Ca  Ca1  1  0.000000  0.000000  0.250915  1
  Ca  Ca2  1  0.499210  0.500790  0.746468  1
  Ca  Ca3  1  0.499210  0.998422  0.746468  1
  Ca  Ca4  1  0.001578  0.500790  0.746468  1
  Ca  Ca5  1  0.499851  0.500149  0.253534  1
  Ca  Ca6  1  0.000297  0.500149  0.253534  1
  Ca  Ca7  1  0.499851  0.999703  0.253534  1
  Si  Si8  1  0.832515  0.167485  0.999680  1
  Si  Si9  1  0.832515  0.665031  0.999680  1
  Si  Si10  1  0.334969  0.167485  0.999680  1
  Si  Si11  1  0.833967  0.166033  0.500286  1
  Si  Si12  1  0.833967  0.667934  0.500286  1
  Si  Si13  1  0.332066  0.166033  0.500286  1
  Si  Si14  1  0.165937  0.834063  0.499723  1
  Si  Si15  1  0.668125  0.834063  0.499723  1
  Si  Si16  1  0.165937  0.331875  0.499723  1
  Si  Si17  1  0.161410  0.838590  0.000210  1
  Si  Si18  1  0.677179  0.838590  0.000210  1
  Si  Si19  1  0.161410  0.322821  0.000210  1
  Si  Si20  1  0.333333  0.666667  0.000715  1
  Pt  Pt21  1  0.666667  0.333333  0.999518  1
  Pt  Pt22  1  0.666667  0.333333  0.500474  1
  Pt  Pt23  1  0.333333  0.666667  0.499572  1
