# generated using pymatgen
data_La2MgTe2(SO7)2
_symmetry_space_group_name_H-M   'P 1'
_cell_length_a   5.46277366
_cell_length_b   8.14590458
_cell_length_c   8.40193543
_cell_angle_alpha   115.05204840
_cell_angle_beta   106.97575023
_cell_angle_gamma   86.90547171
_symmetry_Int_Tables_number   1
_chemical_formula_structural   La2MgTe2(SO7)2
_chemical_formula_sum   'La2 Mg1 Te2 S2 O14'
_cell_volume   322.90014988
_cell_formula_units_Z   1
loop_
 _symmetry_equiv_pos_site_id
 _symmetry_equiv_pos_as_xyz
  1  'x, y, z'
loop_
 _atom_site_type_symbol
 _atom_site_label
 _atom_site_symmetry_multiplicity
 _atom_site_fract_x
 _atom_site_fract_y
 _atom_site_fract_z
 _atom_site_occupancy
  La  La0  1  0.098068  0.252175  0.984788  1
  La  La1  1  0.901932  0.747825  0.015212  1
  Mg  Mg2  1  0.000000  0.000000  0.500000  1
  Te  Te3  1  0.526071  0.260799  0.653579  1
  Te  Te4  1  0.473929  0.739201  0.346421  1
  S  S5  1  0.782941  0.246026  0.255302  1
  S  S6  1  0.217059  0.753974  0.744698  1
  O  O7  1  0.929927  0.401103  0.267887  1
  O  O8  1  0.070073  0.598897  0.732113  1
  O  O9  1  0.880874  0.212925  0.421976  1
  O  O10  1  0.119126  0.787075  0.578024  1
  O  O11  1  0.506039  0.277833  0.225704  1
  O  O12  1  0.493961  0.722167  0.774296  1
  O  O13  1  0.818909  0.082666  0.089640  1
  O  O14  1  0.181091  0.917334  0.910360  1
  O  O15  1  0.743284  0.427839  0.886930  1
  O  O16  1  0.256716  0.572161  0.113070  1
  O  O17  1  0.281441  0.186035  0.735221  1
  O  O18  1  0.718559  0.813965  0.264779  1
  O  O19  1  0.753026  0.074760  0.658847  1
  O  O20  1  0.246974  0.925240  0.341153  1
