# generated using pymatgen
data_RePbF7
_symmetry_space_group_name_H-M   'P 1'
_cell_length_a   4.83468977
_cell_length_b   7.70112410
_cell_length_c   7.95370571
_cell_angle_alpha   105.21856502
_cell_angle_beta   101.51367021
_cell_angle_gamma   91.78358226
_symmetry_Int_Tables_number   1
_chemical_formula_structural   RePbF7
_chemical_formula_sum   'Re2 Pb2 F14'
_cell_volume   278.90696272
_cell_formula_units_Z   2
loop_
 _symmetry_equiv_pos_site_id
 _symmetry_equiv_pos_as_xyz
  1  'x, y, z'
loop_
 _atom_site_type_symbol
 _atom_site_label
 _atom_site_symmetry_multiplicity
 _atom_site_fract_x
 _atom_site_fract_y
 _atom_site_fract_z
 _atom_site_occupancy
  Re  Re0  1  0.360683  0.192535  0.289129  1
  Re  Re1  1  0.639317  0.807465  0.710871  1
  Pb  Pb2  1  0.829644  0.655126  0.179867  1
  Pb  Pb3  1  0.170356  0.344874  0.820133  1
  F  F4  1  0.720389  0.427285  0.915222  1
  F  F5  1  0.279611  0.572715  0.084778  1
  F  F6  1  0.064922  0.057598  0.336649  1
  F  F7  1  0.935078  0.942402  0.663351  1
  F  F8  1  0.499443  0.971379  0.184391  1
  F  F9  1  0.500557  0.028621  0.815609  1
  F  F10  1  0.575638  0.207490  0.526723  1
  F  F11  1  0.424362  0.792510  0.473277  1
  F  F12  1  0.654286  0.328688  0.238852  1
  F  F13  1  0.345714  0.671312  0.761148  1
  F  F14  1  0.209539  0.410198  0.391095  1
  F  F15  1  0.790461  0.589802  0.608905  1
  F  F16  1  0.139421  0.189793  0.048355  1
  F  F17  1  0.860579  0.810207  0.951645  1
