# generated using pymatgen
data_Tm6MgCo14(NiP4)3
_symmetry_space_group_name_H-M   'P 1'
_cell_length_a   3.72827000
_cell_length_b   10.53066800
_cell_length_c   12.21272700
_cell_angle_alpha   90.00000000
_cell_angle_beta   90.00000000
_cell_angle_gamma   90.00000000
_symmetry_Int_Tables_number   1
_chemical_formula_structural   Tm6MgCo14(NiP4)3
_chemical_formula_sum   'Tm6 Mg1 Co14 Ni3 P12'
_cell_volume   479.48599469
_cell_formula_units_Z   1
loop_
 _symmetry_equiv_pos_site_id
 _symmetry_equiv_pos_as_xyz
  1  'x, y, z'
loop_
 _atom_site_type_symbol
 _atom_site_label
 _atom_site_symmetry_multiplicity
 _atom_site_fract_x
 _atom_site_fract_y
 _atom_site_fract_z
 _atom_site_occupancy
  Tm  Tm0  1  0.000000  0.500000  0.523433  1
  Tm  Tm1  1  0.500000  0.000000  0.477869  1
  Tm  Tm2  1  0.500000  0.819076  0.207325  1
  Tm  Tm3  1  0.500000  0.180924  0.207325  1
  Tm  Tm4  1  0.000000  0.683080  0.795517  1
  Tm  Tm5  1  0.000000  0.316920  0.795517  1
  Mg  Mg6  1  0.500000  0.500000  0.154294  1
  Co  Co7  1  0.000000  0.500000  0.986690  1
  Co  Co8  1  0.500000  0.000000  0.014145  1
  Co  Co9  1  0.500000  0.329734  0.992997  1
  Co  Co10  1  0.500000  0.670266  0.992997  1
  Co  Co11  1  0.000000  0.163124  0.001520  1
  Co  Co12  1  0.000000  0.836876  0.001520  1
  Co  Co13  1  0.500000  0.296444  0.433578  1
  Co  Co14  1  0.500000  0.703556  0.433578  1
  Co  Co15  1  0.000000  0.201548  0.570201  1
  Co  Co16  1  0.000000  0.798452  0.570201  1
  Co  Co17  1  0.500000  0.878593  0.708565  1
  Co  Co18  1  0.500000  0.121407  0.708565  1
  Co  Co19  1  0.000000  0.623954  0.292721  1
  Co  Co20  1  0.000000  0.376046  0.292721  1
  Ni  Ni21  1  0.000000  0.000000  0.835688  1
  Ni  Ni22  1  0.500000  0.500000  0.703221  1
  Ni  Ni23  1  0.000000  0.000000  0.297318  1
  P  P24  1  0.500000  0.500000  0.882957  1
  P  P25  1  0.000000  0.000000  0.116851  1
  P  P26  1  0.500000  0.500000  0.355351  1
  P  P27  1  0.000000  0.000000  0.651792  1
  P  P28  1  0.500000  0.310651  0.617065  1
  P  P29  1  0.500000  0.689349  0.617065  1
  P  P30  1  0.000000  0.189626  0.385685  1
  P  P31  1  0.000000  0.810374  0.385685  1
  P  P32  1  0.500000  0.848264  0.890953  1
  P  P33  1  0.500000  0.151736  0.890953  1
  P  P34  1  0.000000  0.663302  0.104071  1
  P  P35  1  0.000000  0.336698  0.104071  1
