# generated using pymatgen
data_TbCrF7
_symmetry_space_group_name_H-M   'P 1'
_cell_length_a   5.47133300
_cell_length_b   8.81242300
_cell_length_c   11.76701824
_cell_angle_alpha   62.59040249
_cell_angle_beta   90.00000000
_cell_angle_gamma   90.00000000
_symmetry_Int_Tables_number   1
_chemical_formula_structural   TbCrF7
_chemical_formula_sum   'Tb4 Cr4 F28'
_cell_volume   503.66278206
_cell_formula_units_Z   4
loop_
 _symmetry_equiv_pos_site_id
 _symmetry_equiv_pos_as_xyz
  1  'x, y, z'
loop_
 _atom_site_type_symbol
 _atom_site_label
 _atom_site_symmetry_multiplicity
 _atom_site_fract_x
 _atom_site_fract_y
 _atom_site_fract_z
 _atom_site_occupancy
  Tb  Tb0  1  0.261398  0.810064  0.265283  1
  Tb  Tb1  1  0.738602  0.189936  0.734717  1
  Tb  Tb2  1  0.761398  0.189936  0.234717  1
  Tb  Tb3  1  0.238602  0.810064  0.765283  1
  Cr  Cr4  1  0.757161  0.725950  0.042858  1
  Cr  Cr5  1  0.242839  0.274050  0.957142  1
  Cr  Cr6  1  0.257161  0.274050  0.457142  1
  Cr  Cr7  1  0.742839  0.725950  0.542858  1
  F  F8  1  0.935543  0.707688  0.420372  1
  F  F9  1  0.064457  0.292312  0.579628  1
  F  F10  1  0.435543  0.292312  0.079628  1
  F  F11  1  0.564457  0.707688  0.920372  1
  F  F12  1  0.475665  0.729762  0.132682  1
  F  F13  1  0.524335  0.270238  0.867318  1
  F  F14  1  0.975665  0.270238  0.367318  1
  F  F15  1  0.024335  0.729762  0.632682  1
  F  F16  1  0.947850  0.742191  0.169399  1
  F  F17  1  0.052150  0.257809  0.830601  1
  F  F18  1  0.447850  0.257809  0.330601  1
  F  F19  1  0.552150  0.742191  0.669399  1
  F  F20  1  0.770399  0.490995  0.136232  1
  F  F21  1  0.229601  0.509005  0.863768  1
  F  F22  1  0.270399  0.509005  0.363768  1
  F  F23  1  0.729601  0.490995  0.636232  1
  F  F24  1  0.954668  0.280362  0.042422  1
  F  F25  1  0.045332  0.719638  0.957578  1
  F  F26  1  0.454668  0.719638  0.457578  1
  F  F27  1  0.545332  0.280362  0.542422  1
  F  F28  1  0.739727  0.959802  0.453523  1
  F  F29  1  0.260273  0.040198  0.546477  1
  F  F30  1  0.239727  0.040198  0.046477  1
  F  F31  1  0.760273  0.959802  0.953523  1
  F  F32  1  0.592761  0.969948  0.227184  1
  F  F33  1  0.407239  0.030052  0.772816  1
  F  F34  1  0.092761  0.030052  0.272816  1
  F  F35  1  0.907239  0.969948  0.727184  1
