# generated using pymatgen
data_K4Li2ScInP4
_symmetry_space_group_name_H-M   'P 1'
_cell_length_a   8.76262704
_cell_length_b   8.76262740
_cell_length_c   8.76262782
_cell_angle_alpha   137.56581420
_cell_angle_beta   137.19945440
_cell_angle_gamma   61.85033791
_symmetry_Int_Tables_number   1
_chemical_formula_structural   K4Li2ScInP4
_chemical_formula_sum   'K4 Li2 Sc1 In1 P4'
_cell_volume   304.86829141
_cell_formula_units_Z   1
loop_
 _symmetry_equiv_pos_site_id
 _symmetry_equiv_pos_as_xyz
  1  'x, y, z'
loop_
 _atom_site_type_symbol
 _atom_site_label
 _atom_site_symmetry_multiplicity
 _atom_site_fract_x
 _atom_site_fract_y
 _atom_site_fract_z
 _atom_site_occupancy
  K  K0  1  0.102480  0.828707  0.285380  1
  K  K1  1  0.897520  0.182900  0.726227  1
  K  K2  1  0.456672  0.671293  0.773773  1
  K  K3  1  0.543328  0.317100  0.214620  1
  Li  Li4  1  0.500000  0.250000  0.750000  1
  Li  Li5  1  0.500000  0.750000  0.250000  1
  Sc  Sc6  1  0.000000  0.750000  0.750000  1
  In  In7  1  0.000000  0.250000  0.250000  1
  P  P8  1  0.668639  0.900500  0.756531  1
  P  P9  1  0.143968  0.412106  0.743469  1
  P  P10  1  0.856032  0.599500  0.268138  1
  P  P11  1  0.331361  0.087894  0.231862  1
