# generated using pymatgen
data_PrTa2(Nb2Sn3)2
_symmetry_space_group_name_H-M   'P 1'
_cell_length_a   5.82639702
_cell_length_b   5.82359334
_cell_length_c   9.64129000
_cell_angle_alpha   90.00000000
_cell_angle_beta   90.00000000
_cell_angle_gamma   119.98407699
_symmetry_Int_Tables_number   1
_chemical_formula_structural   PrTa2(Nb2Sn3)2
_chemical_formula_sum   'Pr1 Ta2 Nb4 Sn6'
_cell_volume   283.35217725
_cell_formula_units_Z   1
loop_
 _symmetry_equiv_pos_site_id
 _symmetry_equiv_pos_as_xyz
  1  'x, y, z'
loop_
 _atom_site_type_symbol
 _atom_site_label
 _atom_site_symmetry_multiplicity
 _atom_site_fract_x
 _atom_site_fract_y
 _atom_site_fract_z
 _atom_site_occupancy
  Pr  Pr0  1  0.000000  0.000000  0.999853  1
  Ta  Ta1  1  0.500000  0.500000  0.750038  1
  Ta  Ta2  1  0.500000  0.000000  0.750038  1
  Nb  Nb3  1  0.000000  0.500000  0.749514  1
  Nb  Nb4  1  0.000000  0.500000  0.250720  1
  Nb  Nb5  1  0.500000  0.500000  0.250576  1
  Nb  Nb6  1  0.500000  0.000000  0.250576  1
  Sn  Sn7  1  0.665946  0.332972  0.499899  1
  Sn  Sn8  1  0.334054  0.667028  0.499899  1
  Sn  Sn9  1  0.666743  0.333371  0.000146  1
  Sn  Sn10  1  0.333257  0.666629  0.000146  1
  Sn  Sn11  1  0.000000  0.000000  0.666633  1
  Sn  Sn12  1  0.000000  0.000000  0.331962  1
