# generated using pymatgen
data_Dy5Er3Ta10(TiSi8)2
_symmetry_space_group_name_H-M   'P 1'
_cell_length_a   7.02253102
_cell_length_b   7.01295638
_cell_length_c   12.99947934
_cell_angle_alpha   89.97420265
_cell_angle_beta   89.99605346
_cell_angle_gamma   89.98258600
_symmetry_Int_Tables_number   1
_chemical_formula_structural   Dy5Er3Ta10(TiSi8)2
_chemical_formula_sum   'Dy5 Er3 Ta10 Ti2 Si16'
_cell_volume   640.20741045
_cell_formula_units_Z   1
loop_
 _symmetry_equiv_pos_site_id
 _symmetry_equiv_pos_as_xyz
  1  'x, y, z'
loop_
 _atom_site_type_symbol
 _atom_site_label
 _atom_site_symmetry_multiplicity
 _atom_site_fract_x
 _atom_site_fract_y
 _atom_site_fract_z
 _atom_site_occupancy
  Dy  Dy0  1  0.340974  0.002204  0.467832  1
  Dy  Dy1  1  0.498322  0.840225  0.718202  1
  Dy  Dy2  1  0.501631  0.159642  0.217917  1
  Dy  Dy3  1  0.840686  0.498042  0.281924  1
  Dy  Dy4  1  0.159159  0.502016  0.782228  1
  Er  Er5  1  0.658813  0.998485  0.968012  1
  Er  Er6  1  0.001651  0.339673  0.531697  1
  Er  Er7  1  0.998204  0.660284  0.031656  1
  Ta  Ta8  1  0.330229  0.330955  0.999835  1
  Ta  Ta9  1  0.171073  0.827473  0.250128  1
  Ta  Ta10  1  0.828753  0.172532  0.750513  1
  Ta  Ta11  1  0.669958  0.668894  0.499849  1
  Ta  Ta12  1  0.151768  0.007620  0.873951  1
  Ta  Ta13  1  0.493836  0.652725  0.123683  1
  Ta  Ta14  1  0.506747  0.347265  0.624088  1
  Ta  Ta15  1  0.651785  0.493107  0.876134  1
  Ta  Ta16  1  0.348167  0.506928  0.375962  1
  Ta  Ta17  1  0.847775  0.992190  0.373730  1
  Ti  Ti18  1  0.006800  0.152928  0.126147  1
  Ti  Ti19  1  0.993420  0.846645  0.626462  1
  Si  Si20  1  0.202136  0.132840  0.683119  1
  Si  Si21  1  0.365666  0.705852  0.933350  1
  Si  Si22  1  0.634747  0.294825  0.433412  1
  Si  Si23  1  0.705376  0.364534  0.066718  1
  Si  Si24  1  0.294587  0.634668  0.566815  1
  Si  Si25  1  0.797788  0.867326  0.182677  1
  Si  Si26  1  0.133986  0.203018  0.316039  1
  Si  Si27  1  0.865226  0.797467  0.816781  1
  Si  Si28  1  0.291852  0.955847  0.063467  1
  Si  Si29  1  0.545451  0.794123  0.312982  1
  Si  Si30  1  0.454791  0.205465  0.813481  1
  Si  Si31  1  0.796127  0.545778  0.685792  1
  Si  Si32  1  0.203931  0.454476  0.185617  1
  Si  Si33  1  0.708981  0.044248  0.563748  1
  Si  Si34  1  0.955185  0.294310  0.938117  1
  Si  Si35  1  0.044420  0.705394  0.437930  1
