# generated using pymatgen
data_Er7Tm9(CdIr)4
_symmetry_space_group_name_H-M   'P 1'
_cell_length_a   9.52140024
_cell_length_b   9.52075427
_cell_length_c   9.52265101
_cell_angle_alpha   59.99264043
_cell_angle_beta   59.99052365
_cell_angle_gamma   59.99835177
_symmetry_Int_Tables_number   1
_chemical_formula_structural   Er7Tm9(CdIr)4
_chemical_formula_sum   'Er7 Tm9 Cd4 Ir4'
_cell_volume   610.31545677
_cell_formula_units_Z   1
loop_
 _symmetry_equiv_pos_site_id
 _symmetry_equiv_pos_as_xyz
  1  'x, y, z'
loop_
 _atom_site_type_symbol
 _atom_site_label
 _atom_site_symmetry_multiplicity
 _atom_site_fract_x
 _atom_site_fract_y
 _atom_site_fract_z
 _atom_site_occupancy
  Er  Er0  1  0.060618  0.060639  0.439338  1
  Er  Er1  1  0.187796  0.812207  0.812287  1
  Er  Er2  1  0.812259  0.187762  0.187728  1
  Er  Er3  1  0.812230  0.187814  0.812267  1
  Er  Er4  1  0.187727  0.812250  0.187723  1
  Er  Er5  1  0.812214  0.812185  0.187833  1
  Er  Er6  1  0.187772  0.187824  0.812229  1
  Tm  Tm7  1  0.599643  0.599649  0.599583  1
  Tm  Tm8  1  0.599641  0.599631  0.201148  1
  Tm  Tm9  1  0.599371  0.201335  0.599647  1
  Tm  Tm10  1  0.201312  0.599375  0.599655  1
  Tm  Tm11  1  0.060656  0.439404  0.439397  1
  Tm  Tm12  1  0.439403  0.060653  0.060530  1
  Tm  Tm13  1  0.439413  0.060652  0.439390  1
  Tm  Tm14  1  0.060660  0.439388  0.060535  1
  Tm  Tm15  1  0.439358  0.439337  0.060642  1
  Cd  Cd16  1  0.831268  0.831267  0.831357  1
  Cd  Cd17  1  0.831269  0.831257  0.506104  1
  Cd  Cd18  1  0.831243  0.506137  0.831297  1
  Cd  Cd19  1  0.506139  0.831235  0.831300  1
  Ir  Ir20  1  0.392015  0.392000  0.392091  1
  Ir  Ir21  1  0.392006  0.392009  0.823900  1
  Ir  Ir22  1  0.392306  0.823681  0.392009  1
  Ir  Ir23  1  0.823678  0.392304  0.392007  1
