# generated using pymatgen
data_CeGdCo3Si5
_symmetry_space_group_name_H-M   'P 1'
_cell_length_a   7.89812995
_cell_length_b   7.92639057
_cell_length_c   7.92638900
_cell_angle_alpha   138.21693237
_cell_angle_beta   104.80981608
_cell_angle_gamma   89.97854941
_symmetry_Int_Tables_number   1
_chemical_formula_structural   CeGdCo3Si5
_chemical_formula_sum   'Ce2 Gd2 Co6 Si10'
_cell_volume   305.39862004
_cell_formula_units_Z   2
loop_
 _symmetry_equiv_pos_site_id
 _symmetry_equiv_pos_as_xyz
  1  'x, y, z'
loop_
 _atom_site_type_symbol
 _atom_site_label
 _atom_site_symmetry_multiplicity
 _atom_site_fract_x
 _atom_site_fract_y
 _atom_site_fract_z
 _atom_site_occupancy
  Ce  Ce0  1  0.394075  0.131935  0.262140  1
  Ce  Ce1  1  0.605925  0.868065  0.737860  1
  Gd  Gd2  1  0.867075  0.631716  0.235358  1
  Gd  Gd3  1  0.132925  0.368284  0.764642  1
  Co  Co4  1  0.000000  0.752906  0.752906  1
  Co  Co5  1  0.000000  0.247094  0.247094  1
  Co  Co6  1  0.252345  0.865291  0.387054  1
  Co  Co7  1  0.747655  0.134709  0.612946  1
  Co  Co8  1  0.477379  0.363132  0.114246  1
  Co  Co9  1  0.522621  0.636868  0.885754  1
  Si  Si10  1  0.500000  0.747883  0.247883  1
  Si  Si11  1  0.500000  0.252117  0.752117  1
  Si  Si12  1  0.232495  0.980199  0.745690  1
  Si  Si13  1  0.767505  0.513195  0.747704  1
  Si  Si14  1  0.767505  0.019801  0.254310  1
  Si  Si15  1  0.232495  0.486805  0.252296  1
  Si  Si16  1  0.047347  0.894972  0.152374  1
  Si  Si17  1  0.952653  0.105028  0.847626  1
  Si  Si18  1  0.747145  0.397831  0.349314  1
  Si  Si19  1  0.252855  0.602169  0.650686  1
