# generated using pymatgen
data_Tb8ZnGaPd23
_symmetry_space_group_name_H-M   'P 1'
_cell_length_a   8.45761100
_cell_length_b   8.37451300
_cell_length_c   8.29068100
_cell_angle_alpha   90.00000000
_cell_angle_beta   90.00000000
_cell_angle_gamma   90.00000000
_symmetry_Int_Tables_number   1
_chemical_formula_structural   Tb8ZnGaPd23
_chemical_formula_sum   'Tb8 Zn1 Ga1 Pd23'
_cell_volume   587.21544852
_cell_formula_units_Z   1
loop_
 _symmetry_equiv_pos_site_id
 _symmetry_equiv_pos_as_xyz
  1  'x, y, z'
loop_
 _atom_site_type_symbol
 _atom_site_label
 _atom_site_symmetry_multiplicity
 _atom_site_fract_x
 _atom_site_fract_y
 _atom_site_fract_z
 _atom_site_occupancy
  Tb  Tb0  1  0.260963  0.245904  0.748643  1
  Tb  Tb1  1  0.250977  0.746823  0.252069  1
  Tb  Tb2  1  0.749023  0.253177  0.252069  1
  Tb  Tb3  1  0.739037  0.754096  0.748643  1
  Tb  Tb4  1  0.749023  0.746823  0.252069  1
  Tb  Tb5  1  0.739037  0.245904  0.748643  1
  Tb  Tb6  1  0.260963  0.754096  0.748643  1
  Tb  Tb7  1  0.250977  0.253177  0.252069  1
  Zn  Zn8  1  0.000000  0.500000  0.729758  1
  Ga  Ga9  1  0.000000  0.000000  0.004378  1
  Pd  Pd10  1  0.500000  0.500000  0.747207  1
  Pd  Pd11  1  0.500000  0.254197  0.498159  1
  Pd  Pd12  1  0.252695  0.500000  0.505655  1
  Pd  Pd13  1  0.500000  0.500000  0.253205  1
  Pd  Pd14  1  0.500000  0.745803  0.498159  1
  Pd  Pd15  1  0.747305  0.500000  0.505655  1
  Pd  Pd16  1  0.000000  0.000000  0.709216  1
  Pd  Pd17  1  0.000000  0.295744  0.984388  1
  Pd  Pd18  1  0.288792  0.000000  0.002679  1
  Pd  Pd19  1  0.000000  0.000000  0.298900  1
  Pd  Pd20  1  0.000000  0.704256  0.984388  1
  Pd  Pd21  1  0.711208  0.000000  0.002679  1
  Pd  Pd22  1  0.500000  0.259050  0.002758  1
  Pd  Pd23  1  0.261877  0.000000  0.499430  1
  Pd  Pd24  1  0.000000  0.265968  0.508909  1
  Pd  Pd25  1  0.500000  0.000000  0.742064  1
  Pd  Pd26  1  0.261242  0.500000  0.996269  1
  Pd  Pd27  1  0.000000  0.500000  0.256232  1
  Pd  Pd28  1  0.500000  0.740950  0.002758  1
  Pd  Pd29  1  0.000000  0.734032  0.508909  1
  Pd  Pd30  1  0.500000  0.000000  0.259699  1
  Pd  Pd31  1  0.738123  0.000000  0.499430  1
  Pd  Pd32  1  0.738758  0.500000  0.996269  1
