# generated using pymatgen
data_La6MgCd22Se
_symmetry_space_group_name_H-M   'P 1'
_cell_length_a   10.16841141
_cell_length_b   10.16841078
_cell_length_c   10.16841100
_cell_angle_alpha   60.00000254
_cell_angle_beta   60.00000458
_cell_angle_gamma   60.00000477
_symmetry_Int_Tables_number   1
_chemical_formula_structural   La6MgCd22Se
_chemical_formula_sum   'La6 Mg1 Cd22 Se1'
_cell_volume   743.43726178
_cell_formula_units_Z   1
loop_
 _symmetry_equiv_pos_site_id
 _symmetry_equiv_pos_as_xyz
  1  'x, y, z'
loop_
 _atom_site_type_symbol
 _atom_site_label
 _atom_site_symmetry_multiplicity
 _atom_site_fract_x
 _atom_site_fract_y
 _atom_site_fract_z
 _atom_site_occupancy
  La  La0  1  0.788567  0.788567  0.211433  1
  La  La1  1  0.211433  0.788567  0.211433  1
  La  La2  1  0.788567  0.211433  0.211433  1
  La  La3  1  0.211433  0.211433  0.788567  1
  La  La4  1  0.788567  0.211433  0.788567  1
  La  La5  1  0.211433  0.788567  0.788567  1
  Mg  Mg6  1  0.500000  0.500000  0.500000  1
  Cd  Cd7  1  0.830949  0.830949  0.507153  1
  Cd  Cd8  1  0.830949  0.507153  0.830949  1
  Cd  Cd9  1  0.507153  0.830949  0.830949  1
  Cd  Cd10  1  0.830949  0.830949  0.830949  1
  Cd  Cd11  1  0.169051  0.169051  0.492847  1
  Cd  Cd12  1  0.169051  0.492847  0.169051  1
  Cd  Cd13  1  0.492847  0.169051  0.169051  1
  Cd  Cd14  1  0.169051  0.169051  0.169051  1
  Cd  Cd15  1  0.620732  0.620732  0.137804  1
  Cd  Cd16  1  0.620732  0.137804  0.620732  1
  Cd  Cd17  1  0.137804  0.620732  0.620732  1
  Cd  Cd18  1  0.620732  0.620732  0.620732  1
  Cd  Cd19  1  0.379268  0.379268  0.862196  1
  Cd  Cd20  1  0.379268  0.862196  0.379268  1
  Cd  Cd21  1  0.862196  0.379268  0.379268  1
  Cd  Cd22  1  0.379268  0.379268  0.379268  1
  Cd  Cd23  1  0.000000  0.000000  0.500000  1
  Cd  Cd24  1  0.500000  0.000000  0.500000  1
  Cd  Cd25  1  0.000000  0.500000  0.500000  1
  Cd  Cd26  1  0.500000  0.500000  0.000000  1
  Cd  Cd27  1  0.000000  0.500000  0.000000  1
  Cd  Cd28  1  0.500000  0.000000  0.000000  1
  Se  Se29  1  0.000000  0.000000  0.000000  1
