# generated using pymatgen
data_Zr2NbFe(BRu2)2
_symmetry_space_group_name_H-M   'P 1'
_cell_length_a   9.37622700
_cell_length_b   9.37622700
_cell_length_c   3.11636500
_cell_angle_alpha   90.00000000
_cell_angle_beta   90.00000000
_cell_angle_gamma   90.00000000
_symmetry_Int_Tables_number   1
_chemical_formula_structural   Zr2NbFe(BRu2)2
_chemical_formula_sum   'Zr4 Nb2 Fe2 B4 Ru8'
_cell_volume   273.97096814
_cell_formula_units_Z   2
loop_
 _symmetry_equiv_pos_site_id
 _symmetry_equiv_pos_as_xyz
  1  'x, y, z'
loop_
 _atom_site_type_symbol
 _atom_site_label
 _atom_site_symmetry_multiplicity
 _atom_site_fract_x
 _atom_site_fract_y
 _atom_site_fract_z
 _atom_site_occupancy
  Zr  Zr0  1  0.826409  0.673591  0.000000  1
  Zr  Zr1  1  0.173591  0.326409  0.000000  1
  Zr  Zr2  1  0.326409  0.826409  0.000000  1
  Zr  Zr3  1  0.673591  0.173591  0.000000  1
  Nb  Nb4  1  0.500000  0.500000  0.000000  1
  Nb  Nb5  1  0.000000  0.000000  0.000000  1
  Fe  Fe6  1  0.500000  0.000000  0.500000  1
  Fe  Fe7  1  0.000000  0.500000  0.500000  1
  B  B8  1  0.613181  0.886819  0.000000  1
  B  B9  1  0.386819  0.113181  0.000000  1
  B  B10  1  0.113181  0.613181  0.000000  1
  B  B11  1  0.886819  0.386819  0.000000  1
  Ru  Ru12  1  0.566215  0.723430  0.500000  1
  Ru  Ru13  1  0.433785  0.276570  0.500000  1
  Ru  Ru14  1  0.066215  0.776570  0.500000  1
  Ru  Ru15  1  0.933785  0.223430  0.500000  1
  Ru  Ru16  1  0.276570  0.566215  0.500000  1
  Ru  Ru17  1  0.723430  0.433785  0.500000  1
  Ru  Ru18  1  0.223430  0.066215  0.500000  1
  Ru  Ru19  1  0.776570  0.933785  0.500000  1
