# generated using pymatgen
data_Hf4InAsRh10
_symmetry_space_group_name_H-M   'P 1'
_cell_length_a   4.10271400
_cell_length_b   5.60013044
_cell_length_c   11.03624575
_cell_angle_alpha   89.22420365
_cell_angle_beta   90.00000000
_cell_angle_gamma   90.00000000
_symmetry_Int_Tables_number   1
_chemical_formula_structural   Hf4InAsRh10
_chemical_formula_sum   'Hf4 In1 As1 Rh10'
_cell_volume   253.54259833
_cell_formula_units_Z   1
loop_
 _symmetry_equiv_pos_site_id
 _symmetry_equiv_pos_as_xyz
  1  'x, y, z'
loop_
 _atom_site_type_symbol
 _atom_site_label
 _atom_site_symmetry_multiplicity
 _atom_site_fract_x
 _atom_site_fract_y
 _atom_site_fract_z
 _atom_site_occupancy
  Hf  Hf0  1  0.500000  0.318482  0.358797  1
  Hf  Hf1  1  0.500000  0.681518  0.641203  1
  Hf  Hf2  1  0.500000  0.173872  0.858796  1
  Hf  Hf3  1  0.500000  0.826128  0.141204  1
  In  In4  1  0.000000  0.000000  0.500000  1
  As  As5  1  0.000000  0.500000  0.000000  1
  Rh  Rh6  1  0.500000  0.315232  0.104503  1
  Rh  Rh7  1  0.500000  0.684768  0.895497  1
  Rh  Rh8  1  0.500000  0.794511  0.381386  1
  Rh  Rh9  1  0.500000  0.205489  0.618614  1
  Rh  Rh10  1  0.000000  0.931963  0.751131  1
  Rh  Rh11  1  0.000000  0.068037  0.248869  1
  Rh  Rh12  1  0.000000  0.435732  0.758858  1
  Rh  Rh13  1  0.000000  0.564268  0.241142  1
  Rh  Rh14  1  0.000000  0.500000  0.500000  1
  Rh  Rh15  1  0.000000  0.000000  0.000000  1
