# generated using pymatgen
data_Dy3Er2Lu3(InIr)2
_symmetry_space_group_name_H-M   'P 1'
_cell_length_a   9.57592944
_cell_length_b   9.57592913
_cell_length_c   9.57592900
_cell_angle_alpha   59.99999700
_cell_angle_beta   59.99999807
_cell_angle_gamma   59.99999565
_symmetry_Int_Tables_number   1
_chemical_formula_structural   Dy3Er2Lu3(InIr)2
_chemical_formula_sum   'Dy6 Er4 Lu6 In4 Ir4'
_cell_volume   620.90870682
_cell_formula_units_Z   2
loop_
 _symmetry_equiv_pos_site_id
 _symmetry_equiv_pos_as_xyz
  1  'x, y, z'
loop_
 _atom_site_type_symbol
 _atom_site_label
 _atom_site_symmetry_multiplicity
 _atom_site_fract_x
 _atom_site_fract_y
 _atom_site_fract_z
 _atom_site_occupancy
  Dy  Dy0  1  0.190239  0.809761  0.809761  1
  Dy  Dy1  1  0.809761  0.190239  0.190239  1
  Dy  Dy2  1  0.809761  0.190239  0.809761  1
  Dy  Dy3  1  0.190239  0.809761  0.190239  1
  Dy  Dy4  1  0.809761  0.809761  0.190239  1
  Dy  Dy5  1  0.190239  0.190239  0.809761  1
  Er  Er6  1  0.598810  0.598810  0.598810  1
  Er  Er7  1  0.598810  0.598810  0.203568  1
  Er  Er8  1  0.598810  0.203568  0.598810  1
  Er  Er9  1  0.203568  0.598810  0.598810  1
  Lu  Lu10  1  0.060796  0.439204  0.439204  1
  Lu  Lu11  1  0.439204  0.060796  0.060796  1
  Lu  Lu12  1  0.439204  0.060796  0.439204  1
  Lu  Lu13  1  0.060796  0.439204  0.060796  1
  Lu  Lu14  1  0.439204  0.439204  0.060796  1
  Lu  Lu15  1  0.060796  0.060796  0.439204  1
  In  In16  1  0.832741  0.832741  0.832741  1
  In  In17  1  0.832741  0.832741  0.501779  1
  In  In18  1  0.832741  0.501779  0.832741  1
  In  In19  1  0.501779  0.832741  0.832741  1
  Ir  Ir20  1  0.390368  0.390368  0.390368  1
  Ir  Ir21  1  0.390368  0.390368  0.828897  1
  Ir  Ir22  1  0.390368  0.828897  0.390368  1
  Ir  Ir23  1  0.828897  0.390368  0.390368  1
