# generated using pymatgen
data_Mg5Si3Ir7
_symmetry_space_group_name_H-M   'P 1'
_cell_length_a   2.98474200
_cell_length_b   11.96630900
_cell_length_c   12.73721800
_cell_angle_alpha   90.00000000
_cell_angle_beta   90.00000000
_cell_angle_gamma   90.00000000
_symmetry_Int_Tables_number   1
_chemical_formula_structural   Mg5Si3Ir7
_chemical_formula_sum   'Mg10 Si6 Ir14'
_cell_volume   454.92687316
_cell_formula_units_Z   2
loop_
 _symmetry_equiv_pos_site_id
 _symmetry_equiv_pos_as_xyz
  1  'x, y, z'
loop_
 _atom_site_type_symbol
 _atom_site_label
 _atom_site_symmetry_multiplicity
 _atom_site_fract_x
 _atom_site_fract_y
 _atom_site_fract_z
 _atom_site_occupancy
  Mg  Mg0  1  0.500000  0.750000  0.193107  1
  Mg  Mg1  1  0.500000  0.250000  0.806893  1
  Mg  Mg2  1  0.500000  0.449629  0.124469  1
  Mg  Mg3  1  0.500000  0.550371  0.875531  1
  Mg  Mg4  1  0.500000  0.050371  0.124469  1
  Mg  Mg5  1  0.500000  0.949629  0.875531  1
  Mg  Mg6  1  0.500000  0.374554  0.342943  1
  Mg  Mg7  1  0.500000  0.625446  0.657057  1
  Mg  Mg8  1  0.500000  0.125446  0.342943  1
  Mg  Mg9  1  0.500000  0.874554  0.657057  1
  Si  Si10  1  0.500000  0.750000  0.965342  1
  Si  Si11  1  0.500000  0.250000  0.034658  1
  Si  Si12  1  0.500000  0.875216  0.401962  1
  Si  Si13  1  0.500000  0.124784  0.598038  1
  Si  Si14  1  0.500000  0.624784  0.401962  1
  Si  Si15  1  0.500000  0.375216  0.598038  1
  Ir  Ir16  1  0.000000  0.000000  0.500000  1
  Ir  Ir17  1  0.000000  0.500000  0.500000  1
  Ir  Ir18  1  0.000000  0.750000  0.816604  1
  Ir  Ir19  1  0.000000  0.250000  0.183396  1
  Ir  Ir20  1  0.000000  0.750000  0.499726  1
  Ir  Ir21  1  0.000000  0.250000  0.500274  1
  Ir  Ir22  1  0.000000  0.877907  0.048116  1
  Ir  Ir23  1  0.000000  0.122093  0.951884  1
  Ir  Ir24  1  0.000000  0.622093  0.048116  1
  Ir  Ir25  1  0.000000  0.377907  0.951884  1
  Ir  Ir26  1  0.000000  0.934142  0.268769  1
  Ir  Ir27  1  0.000000  0.065858  0.731231  1
  Ir  Ir28  1  0.000000  0.565858  0.268769  1
  Ir  Ir29  1  0.000000  0.434142  0.731231  1
