# generated using pymatgen
data_CaTb5Si24Os7Ru
_symmetry_space_group_name_H-M   'P 1'
_cell_length_a   10.14698660
_cell_length_b   10.14698691
_cell_length_c   8.17525975
_cell_angle_alpha   89.98753018
_cell_angle_beta   89.98752158
_cell_angle_gamma   132.45510225
_symmetry_Int_Tables_number   1
_chemical_formula_structural   CaTb5Si24Os7Ru
_chemical_formula_sum   'Ca1 Tb5 Si24 Os7 Ru1'
_cell_volume   621.03799044
_cell_formula_units_Z   1
loop_
 _symmetry_equiv_pos_site_id
 _symmetry_equiv_pos_as_xyz
  1  'x, y, z'
loop_
 _atom_site_type_symbol
 _atom_site_label
 _atom_site_symmetry_multiplicity
 _atom_site_fract_x
 _atom_site_fract_y
 _atom_site_fract_z
 _atom_site_occupancy
  Ca  Ca0  1  0.500181  0.500181  0.499478  1
  Tb  Tb1  1  0.000651  0.000651  0.999982  1
  Tb  Tb2  1  0.500962  0.001113  0.749709  1
  Tb  Tb3  1  0.998566  0.499235  0.250339  1
  Tb  Tb4  1  0.499235  0.998566  0.250339  1
  Tb  Tb5  1  0.001113  0.500962  0.749709  1
  Si  Si6  1  0.796326  0.203616  0.500105  1
  Si  Si7  1  0.296056  0.703859  0.000206  1
  Si  Si8  1  0.203616  0.796326  0.500105  1
  Si  Si9  1  0.703859  0.296056  0.000206  1
  Si  Si10  1  0.335515  0.335515  0.830288  1
  Si  Si11  1  0.667190  0.667190  0.166874  1
  Si  Si12  1  0.169440  0.169440  0.334350  1
  Si  Si13  1  0.830294  0.830294  0.665945  1
  Si  Si14  1  0.121503  0.887724  0.728361  1
  Si  Si15  1  0.112038  0.877682  0.271700  1
  Si  Si16  1  0.610106  0.376819  0.229936  1
  Si  Si17  1  0.621961  0.389276  0.770325  1
  Si  Si18  1  0.877682  0.112038  0.271700  1
  Si  Si19  1  0.887724  0.121503  0.728361  1
  Si  Si20  1  0.389276  0.621961  0.770325  1
  Si  Si21  1  0.376819  0.610106  0.229936  1
  Si  Si22  1  0.346512  0.114037  0.505213  1
  Si  Si23  1  0.885434  0.653539  0.495419  1
  Si  Si24  1  0.388538  0.154747  0.006391  1
  Si  Si25  1  0.844725  0.611677  0.994432  1
  Si  Si26  1  0.653539  0.885434  0.495419  1
  Si  Si27  1  0.114037  0.346512  0.505213  1
  Si  Si28  1  0.611677  0.844725  0.994432  1
  Si  Si29  1  0.154747  0.388538  0.006391  1
  Os  Os30  1  0.670741  0.329416  0.500094  1
  Os  Os31  1  0.169914  0.830082  0.999703  1
  Os  Os32  1  0.329416  0.670741  0.500094  1
  Os  Os33  1  0.830082  0.169914  0.999703  1
  Os  Os34  1  0.124755  0.124755  0.628344  1
  Os  Os35  1  0.875525  0.875525  0.371301  1
  Os  Os36  1  0.372336  0.372336  0.125035  1
  Ru  Ru37  1  0.627905  0.627905  0.874538  1
