# generated using pymatgen
data_Y4Zr3IrF28
_symmetry_space_group_name_H-M   'P 1'
_cell_length_a   5.70941399
_cell_length_b   9.08004490
_cell_length_c   12.19673493
_cell_angle_alpha   62.54803686
_cell_angle_beta   89.74961302
_cell_angle_gamma   89.94664510
_symmetry_Int_Tables_number   1
_chemical_formula_structural   Y4Zr3IrF28
_chemical_formula_sum   'Y4 Zr3 Ir1 F28'
_cell_volume   561.09567519
_cell_formula_units_Z   1
loop_
 _symmetry_equiv_pos_site_id
 _symmetry_equiv_pos_as_xyz
  1  'x, y, z'
loop_
 _atom_site_type_symbol
 _atom_site_label
 _atom_site_symmetry_multiplicity
 _atom_site_fract_x
 _atom_site_fract_y
 _atom_site_fract_z
 _atom_site_occupancy
  Y  Y0  1  0.757112  0.815438  0.766352  1
  Y  Y1  1  0.260381  0.185114  0.730967  1
  Y  Y2  1  0.239334  0.185449  0.239042  1
  Y  Y3  1  0.742822  0.815568  0.266461  1
  Zr  Zr4  1  0.756146  0.273495  0.956093  1
  Zr  Zr5  1  0.255048  0.725402  0.543896  1
  Zr  Zr6  1  0.244841  0.725461  0.045451  1
  Ir  Ir7  1  0.741615  0.272954  0.455137  1
  F  F8  1  0.462718  0.708786  0.919233  1
  F  F9  1  0.941275  0.292029  0.577171  1
  F  F10  1  0.537217  0.289295  0.082187  1
  F  F11  1  0.037120  0.710088  0.418406  1
  F  F12  1  0.452300  0.280479  0.547148  1
  F  F13  1  0.949012  0.722031  0.951144  1
  F  F14  1  0.551913  0.717925  0.451352  1
  F  F15  1  0.050322  0.276982  0.051153  1
  F  F16  1  0.773133  0.525437  0.858178  1
  F  F17  1  0.265053  0.473696  0.641023  1
  F  F18  1  0.228394  0.474017  0.142795  1
  F  F19  1  0.732897  0.513827  0.359097  1
  F  F20  1  0.759040  0.022015  0.058215  1
  F  F21  1  0.261800  0.976437  0.443396  1
  F  F22  1  0.241667  0.975951  0.941009  1
  F  F23  1  0.745170  0.031849  0.548271  1
  F  F24  1  0.977017  0.735381  0.645672  1
  F  F25  1  0.481317  0.267013  0.851698  1
  F  F26  1  0.022937  0.270673  0.357565  1
  F  F27  1  0.520505  0.730794  0.149530  1
  F  F28  1  0.037389  0.747496  0.174588  1
  F  F29  1  0.546069  0.255932  0.329728  1
  F  F30  1  0.965138  0.252076  0.826201  1
  F  F31  1  0.464633  0.749289  0.671721  1
  F  F32  1  0.425775  0.973509  0.236124  1
  F  F33  1  0.925222  0.027265  0.267238  1
  F  F34  1  0.574632  0.026685  0.765649  1
  F  F35  1  0.073035  0.974163  0.731109  1
