# generated using pymatgen
data_Sm2Er5Sn23Os6
_symmetry_space_group_name_H-M   'P 1'
_cell_length_a   9.85742694
_cell_length_b   9.85742714
_cell_length_c   10.11744806
_cell_angle_alpha   89.90081566
_cell_angle_beta   90.09918232
_cell_angle_gamma   119.81220312
_symmetry_Int_Tables_number   1
_chemical_formula_structural   Sm2Er5Sn23Os6
_chemical_formula_sum   'Sm2 Er5 Sn23 Os6'
_cell_volume   852.99527622
_cell_formula_units_Z   1
loop_
 _symmetry_equiv_pos_site_id
 _symmetry_equiv_pos_as_xyz
  1  'x, y, z'
loop_
 _atom_site_type_symbol
 _atom_site_label
 _atom_site_symmetry_multiplicity
 _atom_site_fract_x
 _atom_site_fract_y
 _atom_site_fract_z
 _atom_site_occupancy
  Sm  Sm0  1  0.484910  0.515090  0.302612  1
  Sm  Sm1  1  0.000111  0.999889  0.999981  1
  Er  Er2  1  0.513086  0.486914  0.699142  1
  Er  Er3  1  0.486964  0.973896  0.300771  1
  Er  Er4  1  0.512963  0.025770  0.699315  1
  Er  Er5  1  0.026104  0.513036  0.300771  1
  Er  Er6  1  0.974230  0.487037  0.699315  1
  Sn  Sn7  1  0.118347  0.881653  0.277491  1
  Sn  Sn8  1  0.881903  0.118097  0.722594  1
  Sn  Sn9  1  0.117358  0.235116  0.277482  1
  Sn  Sn10  1  0.881775  0.763776  0.722325  1
  Sn  Sn11  1  0.764884  0.882642  0.277482  1
  Sn  Sn12  1  0.236224  0.118225  0.722325  1
  Sn  Sn13  1  0.779064  0.220936  0.464245  1
  Sn  Sn14  1  0.221111  0.778889  0.535720  1
  Sn  Sn15  1  0.780457  0.558557  0.464960  1
  Sn  Sn16  1  0.220234  0.441348  0.536683  1
  Sn  Sn17  1  0.441443  0.219543  0.464960  1
  Sn  Sn18  1  0.558652  0.779766  0.536683  1
  Sn  Sn19  1  0.350038  0.999615  0.999634  1
  Sn  Sn20  1  0.650036  0.000064  0.000026  1
  Sn  Sn21  1  0.999936  0.349964  0.000026  1
  Sn  Sn22  1  0.000385  0.649962  0.999634  1
  Sn  Sn23  1  0.650334  0.650097  0.999839  1
  Sn  Sn24  1  0.349903  0.349666  0.999839  1
  Sn  Sn25  1  0.331588  0.668412  0.131993  1
  Sn  Sn26  1  0.666709  0.333291  0.866052  1
  Sn  Sn27  1  0.333466  0.666534  0.827957  1
  Sn  Sn28  1  0.666799  0.333201  0.171400  1
  Sn  Sn29  1  0.000089  0.999911  0.500077  1
  Os  Os30  1  0.829021  0.170979  0.203009  1
  Os  Os31  1  0.170885  0.829115  0.796682  1
  Os  Os32  1  0.831084  0.658764  0.202533  1
  Os  Os33  1  0.170681  0.342009  0.796950  1
  Os  Os34  1  0.341236  0.168916  0.202533  1
  Os  Os35  1  0.657991  0.829319  0.796950  1
