# generated using pymatgen
data_Th3Ge2Rh3Pb
_symmetry_space_group_name_H-M   'P 1'
_cell_length_a   7.43972013
_cell_length_b   7.53775867
_cell_length_c   4.04251700
_cell_angle_alpha   90.00000000
_cell_angle_beta   90.00000000
_cell_angle_gamma   120.43588563
_symmetry_Int_Tables_number   1
_chemical_formula_structural   Th3Ge2Rh3Pb
_chemical_formula_sum   'Th3 Ge2 Rh3 Pb1'
_cell_volume   195.45958281
_cell_formula_units_Z   1
loop_
 _symmetry_equiv_pos_site_id
 _symmetry_equiv_pos_as_xyz
  1  'x, y, z'
loop_
 _atom_site_type_symbol
 _atom_site_label
 _atom_site_symmetry_multiplicity
 _atom_site_fract_x
 _atom_site_fract_y
 _atom_site_fract_z
 _atom_site_occupancy
  Th  Th0  1  0.999999  0.402876  0.500000  1
  Th  Th1  1  0.576042  0.584708  0.500000  1
  Th  Th2  1  0.423955  0.008676  0.500000  1
  Ge  Ge3  1  0.252096  0.250994  0.000000  1
  Ge  Ge4  1  0.747897  0.998887  0.000000  1
  Rh  Rh5  1  0.343262  0.657027  0.000000  1
  Rh  Rh6  1  0.656741  0.313770  0.000000  1
  Rh  Rh7  1  0.000013  0.029109  0.500000  1
  Pb  Pb8  1  0.999996  0.753954  0.000000  1
