# generated using pymatgen
data_Dy2Y3Ho3Pt4
_symmetry_space_group_name_H-M   'P 1'
_cell_length_a   4.76312600
_cell_length_b   7.16511383
_cell_length_c   8.80115326
_cell_angle_alpha   89.91846257
_cell_angle_beta   90.00000000
_cell_angle_gamma   90.00000000
_symmetry_Int_Tables_number   1
_chemical_formula_structural   Dy2Y3Ho3Pt4
_chemical_formula_sum   'Dy2 Y3 Ho3 Pt4'
_cell_volume   300.36844629
_cell_formula_units_Z   1
loop_
 _symmetry_equiv_pos_site_id
 _symmetry_equiv_pos_as_xyz
  1  'x, y, z'
loop_
 _atom_site_type_symbol
 _atom_site_label
 _atom_site_symmetry_multiplicity
 _atom_site_fract_x
 _atom_site_fract_y
 _atom_site_fract_z
 _atom_site_occupancy
  Dy  Dy0  1  0.750000  0.644815  0.420129  1
  Dy  Dy1  1  0.750000  0.010697  0.668723  1
  Y  Y2  1  0.250000  0.989938  0.331066  1
  Y  Y3  1  0.250000  0.489366  0.168493  1
  Y  Y4  1  0.750000  0.510483  0.831083  1
  Ho  Ho5  1  0.250000  0.855913  0.920262  1
  Ho  Ho6  1  0.250000  0.355258  0.579995  1
  Ho  Ho7  1  0.750000  0.144213  0.079719  1
  Pt  Pt8  1  0.250000  0.256533  0.906127  1
  Pt  Pt9  1  0.250000  0.757455  0.594776  1
  Pt  Pt10  1  0.750000  0.743548  0.092953  1
  Pt  Pt11  1  0.750000  0.241781  0.406676  1
