# generated using pymatgen
data_TmCdCu3Ir
_symmetry_space_group_name_H-M   'P 1'
_cell_length_a   5.20684404
_cell_length_b   5.20684336
_cell_length_c   5.20684377
_cell_angle_alpha   58.10515168
_cell_angle_beta   58.10515808
_cell_angle_gamma   58.10514691
_symmetry_Int_Tables_number   1
_chemical_formula_structural   TmCdCu3Ir
_chemical_formula_sum   'Tm1 Cd1 Cu3 Ir1'
_cell_volume   95.48176373
_cell_formula_units_Z   1
loop_
 _symmetry_equiv_pos_site_id
 _symmetry_equiv_pos_as_xyz
  1  'x, y, z'
loop_
 _atom_site_type_symbol
 _atom_site_label
 _atom_site_symmetry_multiplicity
 _atom_site_fract_x
 _atom_site_fract_y
 _atom_site_fract_z
 _atom_site_occupancy
  Tm  Tm0  1  0.997146  0.997146  0.997146  1
  Cd  Cd1  1  0.249585  0.249585  0.249585  1
  Cu  Cu2  1  0.626095  0.626095  0.125570  1
  Cu  Cu3  1  0.626095  0.125570  0.626095  1
  Cu  Cu4  1  0.125570  0.626095  0.626095  1
  Ir  Ir5  1  0.625509  0.625509  0.625509  1
