# generated using pymatgen
data_Dy5YNi2
_symmetry_space_group_name_H-M   'P 1'
_cell_length_a   6.32662400
_cell_length_b   6.82358800
_cell_length_c   9.56809000
_cell_angle_alpha   90.00000000
_cell_angle_beta   90.00000000
_cell_angle_gamma   90.00000000
_symmetry_Int_Tables_number   1
_chemical_formula_structural   Dy5YNi2
_chemical_formula_sum   'Dy10 Y2 Ni4'
_cell_volume   413.05708233
_cell_formula_units_Z   2
loop_
 _symmetry_equiv_pos_site_id
 _symmetry_equiv_pos_as_xyz
  1  'x, y, z'
loop_
 _atom_site_type_symbol
 _atom_site_label
 _atom_site_symmetry_multiplicity
 _atom_site_fract_x
 _atom_site_fract_y
 _atom_site_fract_z
 _atom_site_occupancy
  Dy  Dy0  1  0.322358  0.678264  0.066536  1
  Dy  Dy1  1  0.177642  0.178264  0.433464  1
  Dy  Dy2  1  0.677885  0.321749  0.565572  1
  Dy  Dy3  1  0.822115  0.821749  0.934428  1
  Dy  Dy4  1  0.677885  0.321749  0.934428  1
  Dy  Dy5  1  0.822115  0.821749  0.565572  1
  Dy  Dy6  1  0.322358  0.678264  0.433464  1
  Dy  Dy7  1  0.177642  0.178264  0.066536  1
  Dy  Dy8  1  0.857924  0.535293  0.250000  1
  Dy  Dy9  1  0.642076  0.035293  0.250000  1
  Y  Y10  1  0.140990  0.466327  0.750000  1
  Y  Y11  1  0.359010  0.966327  0.750000  1
  Ni  Ni12  1  0.054730  0.890617  0.250000  1
  Ni  Ni13  1  0.445270  0.390617  0.250000  1
  Ni  Ni14  1  0.940264  0.107738  0.750000  1
  Ni  Ni15  1  0.559736  0.607738  0.750000  1
