# generated using pymatgen
data_Ba(TlBr4)2
_symmetry_space_group_name_H-M   'P 1'
_cell_length_a   8.06256000
_cell_length_b   8.52842255
_cell_length_c   14.49696162
_cell_angle_alpha   85.64371726
_cell_angle_beta   90.00000000
_cell_angle_gamma   90.00000000
_symmetry_Int_Tables_number   1
_chemical_formula_structural   Ba(TlBr4)2
_chemical_formula_sum   'Ba2 Tl4 Br16'
_cell_volume   993.94457000
_cell_formula_units_Z   2
loop_
 _symmetry_equiv_pos_site_id
 _symmetry_equiv_pos_as_xyz
  1  'x, y, z'
loop_
 _atom_site_type_symbol
 _atom_site_label
 _atom_site_symmetry_multiplicity
 _atom_site_fract_x
 _atom_site_fract_y
 _atom_site_fract_z
 _atom_site_occupancy
  Ba  Ba0  1  0.155369  0.500000  0.250000  1
  Ba  Ba1  1  0.844631  0.500000  0.750000  1
  Tl  Tl2  1  0.263404  0.680722  0.579399  1
  Tl  Tl3  1  0.736596  0.680722  0.079399  1
  Tl  Tl4  1  0.736596  0.319278  0.420601  1
  Tl  Tl5  1  0.263404  0.319278  0.920601  1
  Br  Br6  1  0.545079  0.751258  0.657297  1
  Br  Br7  1  0.311847  0.746413  0.401626  1
  Br  Br8  1  0.831356  0.388569  0.118890  1
  Br  Br9  1  0.168644  0.611431  0.881110  1
  Br  Br10  1  0.454921  0.248742  0.342703  1
  Br  Br11  1  0.311847  0.253587  0.098374  1
  Br  Br12  1  0.688153  0.253587  0.598374  1
  Br  Br13  1  0.454921  0.751258  0.157297  1
  Br  Br14  1  0.168644  0.388569  0.618890  1
  Br  Br15  1  0.545079  0.248742  0.842703  1
  Br  Br16  1  0.831356  0.611431  0.381110  1
  Br  Br17  1  0.989573  0.835513  0.143410  1
  Br  Br18  1  0.688153  0.746413  0.901626  1
  Br  Br19  1  0.010427  0.164487  0.856590  1
  Br  Br20  1  0.989573  0.164487  0.356590  1
  Br  Br21  1  0.010427  0.835513  0.643410  1
