# generated using pymatgen
data_TbYb3Lu4(B6Ru)4
_symmetry_space_group_name_H-M   'P 1'
_cell_length_a   3.61642400
_cell_length_b   9.08024346
_cell_length_c   11.46997001
_cell_angle_alpha   89.94794829
_cell_angle_beta   90.00000000
_cell_angle_gamma   90.00000000
_symmetry_Int_Tables_number   1
_chemical_formula_structural   TbYb3Lu4(B6Ru)4
_chemical_formula_sum   'Tb1 Yb3 Lu4 B24 Ru4'
_cell_volume   376.65083853
_cell_formula_units_Z   1
loop_
 _symmetry_equiv_pos_site_id
 _symmetry_equiv_pos_as_xyz
  1  'x, y, z'
loop_
 _atom_site_type_symbol
 _atom_site_label
 _atom_site_symmetry_multiplicity
 _atom_site_fract_x
 _atom_site_fract_y
 _atom_site_fract_z
 _atom_site_occupancy
  Tb  Tb0  1  0.000000  0.176145  0.915106  1
  Yb  Yb1  1  0.000000  0.324574  0.414632  1
  Yb  Yb2  1  0.000000  0.675382  0.584818  1
  Yb  Yb3  1  0.000000  0.823107  0.085963  1
  Lu  Lu4  1  0.000000  0.941224  0.366981  1
  Lu  Lu5  1  0.000000  0.057809  0.631128  1
  Lu  Lu6  1  0.000000  0.443335  0.132707  1
  Lu  Lu7  1  0.000000  0.558609  0.868226  1
  B  B8  1  0.500000  0.553575  0.432725  1
  B  B9  1  0.500000  0.445741  0.567991  1
  B  B10  1  0.500000  0.054092  0.067289  1
  B  B11  1  0.500000  0.945293  0.933030  1
  B  B12  1  0.500000  0.749647  0.417392  1
  B  B13  1  0.500000  0.250164  0.582685  1
  B  B14  1  0.500000  0.250258  0.082418  1
  B  B15  1  0.500000  0.750443  0.917797  1
  B  B16  1  0.500000  0.791523  0.263955  1
  B  B17  1  0.500000  0.208116  0.735915  1
  B  B18  1  0.500000  0.291795  0.235113  1
  B  B19  1  0.500000  0.709166  0.764670  1
  B  B20  1  0.500000  0.630376  0.185144  1
  B  B21  1  0.500000  0.369854  0.815615  1
  B  B22  1  0.500000  0.130567  0.314285  1
  B  B23  1  0.500000  0.869842  0.684621  1
  B  B24  1  0.500000  0.982531  0.211119  1
  B  B25  1  0.500000  0.017007  0.788017  1
  B  B26  1  0.500000  0.483150  0.288536  1
  B  B27  1  0.500000  0.516776  0.712184  1
  B  B28  1  0.500000  0.597960  0.026937  1
  B  B29  1  0.500000  0.402061  0.973286  1
  B  B30  1  0.500000  0.096145  0.473134  1
  B  B31  1  0.500000  0.903660  0.525942  1
  Ru  Ru32  1  0.000000  0.639450  0.319741  1
  Ru  Ru33  1  0.000000  0.359493  0.681538  1
  Ru  Ru34  1  0.000000  0.139137  0.179916  1
  Ru  Ru35  1  0.000000  0.861997  0.819443  1
