# generated using pymatgen
data_Ce2HoIn3Co2
_symmetry_space_group_name_H-M   'P 1'
_cell_length_a   8.22183049
_cell_length_b   8.22182945
_cell_length_c   4.80893005
_cell_angle_alpha   82.97928537
_cell_angle_beta   82.97928629
_cell_angle_gamma   34.06539181
_symmetry_Int_Tables_number   1
_chemical_formula_structural   Ce2HoIn3Co2
_chemical_formula_sum   'Ce2 Ho1 In3 Co2'
_cell_volume   180.59392272
_cell_formula_units_Z   1
loop_
 _symmetry_equiv_pos_site_id
 _symmetry_equiv_pos_as_xyz
  1  'x, y, z'
loop_
 _atom_site_type_symbol
 _atom_site_label
 _atom_site_symmetry_multiplicity
 _atom_site_fract_x
 _atom_site_fract_y
 _atom_site_fract_z
 _atom_site_occupancy
  Ce  Ce0  1  0.829112  0.829112  0.577795  1
  Ce  Ce1  1  0.170888  0.170888  0.422205  1
  Ho  Ho2  1  0.000000  0.000000  0.000000  1
  In  In3  1  0.363457  0.363457  0.033511  1
  In  In4  1  0.500000  0.500000  0.500000  1
  In  In5  1  0.636543  0.636543  0.966489  1
  Co  Co6  1  0.798720  0.798720  0.146178  1
  Co  Co7  1  0.201280  0.201280  0.853822  1
