# generated using pymatgen
data_Ho2PtPbAu
_symmetry_space_group_name_H-M   'P 1'
_cell_length_a   8.12391800
_cell_length_b   8.11756200
_cell_length_c   3.55772300
_cell_angle_alpha   90.00000000
_cell_angle_beta   90.00000000
_cell_angle_gamma   90.00000000
_symmetry_Int_Tables_number   1
_chemical_formula_structural   Ho2PtPbAu
_chemical_formula_sum   'Ho4 Pt2 Pb2 Au2'
_cell_volume   234.61905268
_cell_formula_units_Z   2
loop_
 _symmetry_equiv_pos_site_id
 _symmetry_equiv_pos_as_xyz
  1  'x, y, z'
loop_
 _atom_site_type_symbol
 _atom_site_label
 _atom_site_symmetry_multiplicity
 _atom_site_fract_x
 _atom_site_fract_y
 _atom_site_fract_z
 _atom_site_occupancy
  Ho  Ho0  1  0.680231  0.164052  0.500000  1
  Ho  Ho1  1  0.145539  0.330615  0.500000  1
  Ho  Ho2  1  0.819769  0.664052  0.500000  1
  Ho  Ho3  1  0.354461  0.830615  0.500000  1
  Pt  Pt4  1  0.630021  0.878216  0.000000  1
  Pt  Pt5  1  0.869979  0.378216  0.000000  1
  Pb  Pb6  1  0.000744  0.996053  0.000000  1
  Pb  Pb7  1  0.499256  0.496053  0.000000  1
  Au  Au8  1  0.373071  0.131064  0.000000  1
  Au  Au9  1  0.126929  0.631064  0.000000  1
