# generated using pymatgen
data_Lu2Mg2Ge6Ir7
_symmetry_space_group_name_H-M   'P 1'
_cell_length_a   7.07561063
_cell_length_b   7.19936362
_cell_length_c   7.07560977
_cell_angle_alpha   109.44014357
_cell_angle_beta   108.82712967
_cell_angle_gamma   109.44014440
_symmetry_Int_Tables_number   1
_chemical_formula_structural   Lu2Mg2Ge6Ir7
_chemical_formula_sum   'Lu2 Mg2 Ge6 Ir7'
_cell_volume   279.84396181
_cell_formula_units_Z   1
loop_
 _symmetry_equiv_pos_site_id
 _symmetry_equiv_pos_as_xyz
  1  'x, y, z'
loop_
 _atom_site_type_symbol
 _atom_site_label
 _atom_site_symmetry_multiplicity
 _atom_site_fract_x
 _atom_site_fract_y
 _atom_site_fract_z
 _atom_site_occupancy
  Lu  Lu0  1  0.000000  0.000000  0.500000  1
  Lu  Lu1  1  0.500000  0.000000  0.000000  1
  Mg  Mg2  1  0.000000  0.500000  0.000000  1
  Mg  Mg3  1  0.500000  0.500000  0.500000  1
  Ge  Ge4  1  0.687480  0.681505  0.994025  1
  Ge  Ge5  1  0.312068  0.000000  0.312068  1
  Ge  Ge6  1  0.005975  0.318495  0.312520  1
  Ge  Ge7  1  0.312520  0.318495  0.005975  1
  Ge  Ge8  1  0.687932  0.000000  0.687932  1
  Ge  Ge9  1  0.994025  0.681505  0.687480  1
  Ir  Ir10  1  0.749439  0.254753  0.505315  1
  Ir  Ir11  1  0.750000  0.500000  0.250000  1
  Ir  Ir12  1  0.505315  0.254753  0.749439  1
  Ir  Ir13  1  0.250000  0.500000  0.750000  1
  Ir  Ir14  1  0.250561  0.745247  0.494685  1
  Ir  Ir15  1  0.494685  0.745247  0.250561  1
  Ir  Ir16  1  0.000000  0.000000  0.000000  1
