# generated using pymatgen
data_TbUReB6
_symmetry_space_group_name_H-M   'P 1'
_cell_length_a   3.64812100
_cell_length_b   9.32160600
_cell_length_c   11.44000300
_cell_angle_alpha   90.00000000
_cell_angle_beta   90.00000000
_cell_angle_gamma   90.00000000
_symmetry_Int_Tables_number   1
_chemical_formula_structural   TbUReB6
_chemical_formula_sum   'Tb4 U4 Re4 B24'
_cell_volume   389.03270715
_cell_formula_units_Z   4
loop_
 _symmetry_equiv_pos_site_id
 _symmetry_equiv_pos_as_xyz
  1  'x, y, z'
loop_
 _atom_site_type_symbol
 _atom_site_label
 _atom_site_symmetry_multiplicity
 _atom_site_fract_x
 _atom_site_fract_y
 _atom_site_fract_z
 _atom_site_occupancy
  Tb  Tb0  1  0.000000  0.336460  0.407643  1
  Tb  Tb1  1  0.000000  0.663540  0.592357  1
  Tb  Tb2  1  0.000000  0.836460  0.092357  1
  Tb  Tb3  1  0.000000  0.163540  0.907643  1
  U  U4  1  0.000000  0.956344  0.396241  1
  U  U5  1  0.000000  0.043656  0.603759  1
  U  U6  1  0.000000  0.456344  0.103759  1
  U  U7  1  0.000000  0.543656  0.896241  1
  Re  Re8  1  0.000000  0.645391  0.318271  1
  Re  Re9  1  0.000000  0.354609  0.681729  1
  Re  Re10  1  0.000000  0.145391  0.181729  1
  Re  Re11  1  0.000000  0.854609  0.818271  1
  B  B12  1  0.500000  0.552038  0.430701  1
  B  B13  1  0.500000  0.447962  0.569299  1
  B  B14  1  0.500000  0.052038  0.069299  1
  B  B15  1  0.500000  0.947962  0.930701  1
  B  B16  1  0.500000  0.743090  0.422791  1
  B  B17  1  0.500000  0.256910  0.577209  1
  B  B18  1  0.500000  0.243090  0.077209  1
  B  B19  1  0.500000  0.756910  0.922791  1
  B  B20  1  0.500000  0.801424  0.275207  1
  B  B21  1  0.500000  0.198576  0.724793  1
  B  B22  1  0.500000  0.301424  0.224793  1
  B  B23  1  0.500000  0.698576  0.775207  1
  B  B24  1  0.500000  0.643487  0.188593  1
  B  B25  1  0.500000  0.356513  0.811407  1
  B  B26  1  0.500000  0.143487  0.311407  1
  B  B27  1  0.500000  0.856513  0.688593  1
  B  B28  1  0.500000  0.988959  0.219665  1
  B  B29  1  0.500000  0.011041  0.780335  1
  B  B30  1  0.500000  0.488959  0.280335  1
  B  B31  1  0.500000  0.511041  0.719665  1
  B  B32  1  0.500000  0.639344  0.038527  1
  B  B33  1  0.500000  0.360656  0.961473  1
  B  B34  1  0.500000  0.139344  0.461473  1
  B  B35  1  0.500000  0.860656  0.538527  1
