# generated using pymatgen
data_La3Y5(CuP)12
_symmetry_space_group_name_H-M   'P 1'
_cell_length_a   3.95006700
_cell_length_b   10.80137671
_cell_length_c   12.98411500
_cell_angle_alpha   90.05893818
_cell_angle_beta   90.00000000
_cell_angle_gamma   90.00000000
_symmetry_Int_Tables_number   1
_chemical_formula_structural   La3Y5(CuP)12
_chemical_formula_sum   'La3 Y5 Cu12 P12'
_cell_volume   553.98205722
_cell_formula_units_Z   1
loop_
 _symmetry_equiv_pos_site_id
 _symmetry_equiv_pos_as_xyz
  1  'x, y, z'
loop_
 _atom_site_type_symbol
 _atom_site_label
 _atom_site_symmetry_multiplicity
 _atom_site_fract_x
 _atom_site_fract_y
 _atom_site_fract_z
 _atom_site_occupancy
  La  La0  1  0.250000  0.932722  0.792758  1
  La  La1  1  0.750000  0.432038  0.707110  1
  La  La2  1  0.250000  0.567746  0.293322  1
  Y  Y3  1  0.750000  0.068700  0.207379  1
  Y  Y4  1  0.250000  0.843604  0.500094  1
  Y  Y5  1  0.750000  0.342504  0.000365  1
  Y  Y6  1  0.250000  0.656896  0.001689  1
  Y  Y7  1  0.750000  0.154261  0.495973  1
  Cu  Cu8  1  0.250000  0.396039  0.510810  1
  Cu  Cu9  1  0.750000  0.901164  0.990531  1
  Cu  Cu10  1  0.250000  0.099760  0.015024  1
  Cu  Cu11  1  0.750000  0.602949  0.488953  1
  Cu  Cu12  1  0.250000  0.269589  0.332923  1
  Cu  Cu13  1  0.750000  0.773222  0.167468  1
  Cu  Cu14  1  0.250000  0.229251  0.834315  1
  Cu  Cu15  1  0.750000  0.730287  0.666193  1
  Cu  Cu16  1  0.250000  0.863398  0.277696  1
  Cu  Cu17  1  0.750000  0.354312  0.222079  1
  Cu  Cu18  1  0.250000  0.640969  0.779965  1
  Cu  Cu19  1  0.750000  0.141353  0.719139  1
  P  P20  1  0.250000  0.234208  0.643326  1
  P  P21  1  0.750000  0.735691  0.855898  1
  P  P22  1  0.250000  0.259456  0.145974  1
  P  P23  1  0.750000  0.765789  0.355475  1
  P  P24  1  0.250000  0.606868  0.597429  1
  P  P25  1  0.750000  0.107315  0.902006  1
  P  P26  1  0.250000  0.896125  0.098502  1
  P  P27  1  0.750000  0.393967  0.403309  1
  P  P28  1  0.250000  0.057550  0.367487  1
  P  P29  1  0.750000  0.557833  0.126859  1
  P  P30  1  0.250000  0.441832  0.874793  1
  P  P31  1  0.750000  0.942602  0.625159  1
