# generated using pymatgen
data_Gd8Tm2Si7Au
_symmetry_space_group_name_H-M   'P 1'
_cell_length_a   7.43850600
_cell_length_b   7.66796049
_cell_length_c   14.67462600
_cell_angle_alpha   89.66574111
_cell_angle_beta   90.00000000
_cell_angle_gamma   90.00000000
_symmetry_Int_Tables_number   1
_chemical_formula_structural   Gd8Tm2Si7Au
_chemical_formula_sum   'Gd16 Tm4 Si14 Au2'
_cell_volume   836.99957019
_cell_formula_units_Z   2
loop_
 _symmetry_equiv_pos_site_id
 _symmetry_equiv_pos_as_xyz
  1  'x, y, z'
loop_
 _atom_site_type_symbol
 _atom_site_label
 _atom_site_symmetry_multiplicity
 _atom_site_fract_x
 _atom_site_fract_y
 _atom_site_fract_z
 _atom_site_occupancy
  Gd  Gd0  1  0.977181  0.820430  0.099963  1
  Gd  Gd1  1  0.477181  0.679570  0.400037  1
  Gd  Gd2  1  0.520908  0.318105  0.900619  1
  Gd  Gd3  1  0.020908  0.181895  0.599381  1
  Gd  Gd4  1  0.027969  0.178656  0.901369  1
  Gd  Gd5  1  0.527969  0.321344  0.598631  1
  Gd  Gd6  1  0.474480  0.683049  0.101761  1
  Gd  Gd7  1  0.974480  0.816951  0.398239  1
  Gd  Gd8  1  0.675293  0.820681  0.878750  1
  Gd  Gd9  1  0.175293  0.679319  0.621250  1
  Gd  Gd10  1  0.818066  0.328010  0.123337  1
  Gd  Gd11  1  0.318066  0.171990  0.376663  1
  Gd  Gd12  1  0.321794  0.178650  0.123853  1
  Gd  Gd13  1  0.821794  0.321350  0.376147  1
  Gd  Gd14  1  0.183937  0.675063  0.878869  1
  Gd  Gd15  1  0.683937  0.824937  0.621131  1
  Tm  Tm16  1  0.649478  0.992300  0.250590  1
  Tm  Tm17  1  0.149478  0.507700  0.249410  1
  Tm  Tm18  1  0.847610  0.488917  0.749432  1
  Tm  Tm19  1  0.347610  0.011083  0.750568  1
  Si  Si20  1  0.767201  0.630035  0.251011  1
  Si  Si21  1  0.267201  0.869965  0.248989  1
  Si  Si22  1  0.732551  0.125708  0.751226  1
  Si  Si23  1  0.232551  0.374292  0.748774  1
  Si  Si24  1  0.022410  0.101950  0.248295  1
  Si  Si25  1  0.522410  0.398050  0.251705  1
  Si  Si26  1  0.474422  0.604506  0.747781  1
  Si  Si27  1  0.974422  0.895494  0.752219  1
  Si  Si28  1  0.646309  0.029059  0.041827  1
  Si  Si29  1  0.146309  0.470941  0.458173  1
  Si  Si30  1  0.157961  0.472972  0.044573  1
  Si  Si31  1  0.657961  0.027028  0.455427  1
  Si  Si32  1  0.353651  0.970328  0.962432  1
  Si  Si33  1  0.853651  0.529672  0.537568  1
  Au  Au34  1  0.848781  0.523994  0.957160  1
  Au  Au35  1  0.348781  0.976006  0.542840  1
