# generated using pymatgen
data_Pr15NdCd4Ir3Pd
_symmetry_space_group_name_H-M   'P 1'
_cell_length_a   10.04198307
_cell_length_b   10.04198236
_cell_length_c   10.04198339
_cell_angle_alpha   60.24847943
_cell_angle_beta   60.24848709
_cell_angle_gamma   60.24848025
_symmetry_Int_Tables_number   1
_chemical_formula_structural   Pr15NdCd4Ir3Pd
_chemical_formula_sum   'Pr15 Nd1 Cd4 Ir3 Pd1'
_cell_volume   720.07780415
_cell_formula_units_Z   1
loop_
 _symmetry_equiv_pos_site_id
 _symmetry_equiv_pos_as_xyz
  1  'x, y, z'
loop_
 _atom_site_type_symbol
 _atom_site_label
 _atom_site_symmetry_multiplicity
 _atom_site_fract_x
 _atom_site_fract_y
 _atom_site_fract_z
 _atom_site_occupancy
  Pr  Pr0  1  0.352207  0.352207  0.950589  1
  Pr  Pr1  1  0.352207  0.950589  0.352207  1
  Pr  Pr2  1  0.950589  0.352207  0.352207  1
  Pr  Pr3  1  0.804022  0.191005  0.191005  1
  Pr  Pr4  1  0.189204  0.809421  0.809421  1
  Pr  Pr5  1  0.191005  0.804022  0.191005  1
  Pr  Pr6  1  0.809421  0.189204  0.809421  1
  Pr  Pr7  1  0.191005  0.191005  0.804022  1
  Pr  Pr8  1  0.809421  0.809421  0.189204  1
  Pr  Pr9  1  0.940109  0.562077  0.562077  1
  Pr  Pr10  1  0.563055  0.938235  0.938235  1
  Pr  Pr11  1  0.562077  0.940109  0.562077  1
  Pr  Pr12  1  0.938235  0.563055  0.938235  1
  Pr  Pr13  1  0.562077  0.562077  0.940109  1
  Pr  Pr14  1  0.938235  0.938235  0.563055  1
  Nd  Nd15  1  0.346870  0.346870  0.346870  1
  Cd  Cd16  1  0.579989  0.579989  0.579989  1
  Cd  Cd17  1  0.579816  0.579816  0.260168  1
  Cd  Cd18  1  0.579816  0.260168  0.579816  1
  Cd  Cd19  1  0.260168  0.579816  0.579816  1
  Ir  Ir20  1  0.142245  0.142245  0.573359  1
  Ir  Ir21  1  0.142245  0.573359  0.142245  1
  Ir  Ir22  1  0.573359  0.142245  0.142245  1
  Pd  Pd23  1  0.142621  0.142621  0.142621  1
