# generated using pymatgen
data_NdHo11(SiPd)12
_symmetry_space_group_name_H-M   'P 1'
_cell_length_a   4.35249300
_cell_length_b   7.42676005
_cell_length_c   21.02187313
_cell_angle_alpha   90.01286906
_cell_angle_beta   90.00000000
_cell_angle_gamma   90.00000000
_symmetry_Int_Tables_number   1
_chemical_formula_structural   NdHo11(SiPd)12
_chemical_formula_sum   'Nd1 Ho11 Si12 Pd12'
_cell_volume   679.53037359
_cell_formula_units_Z   1
loop_
 _symmetry_equiv_pos_site_id
 _symmetry_equiv_pos_as_xyz
  1  'x, y, z'
loop_
 _atom_site_type_symbol
 _atom_site_label
 _atom_site_symmetry_multiplicity
 _atom_site_fract_x
 _atom_site_fract_y
 _atom_site_fract_z
 _atom_site_occupancy
  Nd  Nd0  1  0.250000  0.794151  0.501197  1
  Ho  Ho1  1  0.250000  0.704282  0.331992  1
  Ho  Ho2  1  0.750000  0.293960  0.667720  1
  Ho  Ho3  1  0.750000  0.206039  0.166895  1
  Ho  Ho4  1  0.250000  0.794154  0.833256  1
  Ho  Ho5  1  0.250000  0.793275  0.166246  1
  Ho  Ho6  1  0.750000  0.206673  0.833675  1
  Ho  Ho7  1  0.750000  0.293045  0.332304  1
  Ho  Ho8  1  0.250000  0.705868  0.667610  1
  Ho  Ho9  1  0.250000  0.710479  0.001113  1
  Ho  Ho10  1  0.750000  0.289319  0.998872  1
  Ho  Ho11  1  0.750000  0.213854  0.498539  1
  Si  Si12  1  0.250000  0.089444  0.071267  1
  Si  Si13  1  0.750000  0.910677  0.928712  1
  Si  Si14  1  0.750000  0.586892  0.426059  1
  Si  Si15  1  0.250000  0.409114  0.571460  1
  Si  Si16  1  0.250000  0.085831  0.270674  1
  Si  Si17  1  0.750000  0.914038  0.729739  1
  Si  Si18  1  0.750000  0.586124  0.228276  1
  Si  Si19  1  0.250000  0.414289  0.772096  1
  Si  Si20  1  0.250000  0.088137  0.393074  1
  Si  Si21  1  0.750000  0.913692  0.607197  1
  Si  Si22  1  0.750000  0.587462  0.104486  1
  Si  Si23  1  0.250000  0.412687  0.895577  1
  Pd  Pd24  1  0.250000  0.417306  0.236543  1
  Pd  Pd25  1  0.750000  0.582369  0.763296  1
  Pd  Pd26  1  0.750000  0.917342  0.262278  1
  Pd  Pd27  1  0.250000  0.082747  0.737742  1
  Pd  Pd28  1  0.250000  0.413449  0.436390  1
  Pd  Pd29  1  0.750000  0.578128  0.565290  1
  Pd  Pd30  1  0.750000  0.917144  0.062701  1
  Pd  Pd31  1  0.250000  0.083044  0.937594  1
  Pd  Pd32  1  0.250000  0.419788  0.093808  1
  Pd  Pd33  1  0.750000  0.580181  0.906434  1
  Pd  Pd34  1  0.750000  0.921224  0.403879  1
  Pd  Pd35  1  0.250000  0.083794  0.596010  1
