# generated using pymatgen
data_Li2Yb3ScPt3
_symmetry_space_group_name_H-M   'P 1'
_cell_length_a   7.17264100
_cell_length_b   7.21970765
_cell_length_c   4.21278700
_cell_angle_alpha   90.00000000
_cell_angle_beta   90.00000000
_cell_angle_gamma   119.78458476
_symmetry_Int_Tables_number   1
_chemical_formula_structural   Li2Yb3ScPt3
_chemical_formula_sum   'Li2 Yb3 Sc1 Pt3'
_cell_volume   189.33785892
_cell_formula_units_Z   1
loop_
 _symmetry_equiv_pos_site_id
 _symmetry_equiv_pos_as_xyz
  1  'x, y, z'
loop_
 _atom_site_type_symbol
 _atom_site_label
 _atom_site_symmetry_multiplicity
 _atom_site_fract_x
 _atom_site_fract_y
 _atom_site_fract_z
 _atom_site_occupancy
  Li  Li0  1  0.000323  0.752269  0.500000  1
  Li  Li1  1  0.248054  0.247731  0.500000  1
  Yb  Yb2  1  0.397421  0.000000  0.000000  1
  Yb  Yb3  1  0.009359  0.426399  0.000000  1
  Yb  Yb4  1  0.582960  0.573601  0.000000  1
  Sc  Sc5  1  0.755029  0.000000  0.500000  1
  Pt  Pt6  1  0.349218  0.675085  0.500000  1
  Pt  Pt7  1  0.674133  0.324915  0.500000  1
  Pt  Pt8  1  0.983502  0.000000  0.000000  1
