# generated using pymatgen
data_Hf6Zr2Bi9
_symmetry_space_group_name_H-M   'P 1'
_cell_length_a   10.82988400
_cell_length_b   10.82988400
_cell_length_c   7.65073700
_cell_angle_alpha   90.00000000
_cell_angle_beta   90.00000000
_cell_angle_gamma   90.00000000
_symmetry_Int_Tables_number   1
_chemical_formula_structural   Hf6Zr2Bi9
_chemical_formula_sum   'Hf12 Zr4 Bi18'
_cell_volume   897.32730409
_cell_formula_units_Z   2
loop_
 _symmetry_equiv_pos_site_id
 _symmetry_equiv_pos_as_xyz
  1  'x, y, z'
loop_
 _atom_site_type_symbol
 _atom_site_label
 _atom_site_symmetry_multiplicity
 _atom_site_fract_x
 _atom_site_fract_y
 _atom_site_fract_z
 _atom_site_occupancy
  Hf  Hf0  1  0.000000  0.000000  0.000000  1
  Hf  Hf1  1  0.500000  0.000000  0.000000  1
  Hf  Hf2  1  0.000000  0.500000  0.000000  1
  Hf  Hf3  1  0.500000  0.500000  0.000000  1
  Hf  Hf4  1  0.750000  0.105304  0.153517  1
  Hf  Hf5  1  0.750000  0.394695  0.153517  1
  Hf  Hf6  1  0.105304  0.750000  0.153517  1
  Hf  Hf7  1  0.394695  0.750000  0.153517  1
  Hf  Hf8  1  0.605304  0.249999  0.846484  1
  Hf  Hf9  1  0.894697  0.250000  0.846484  1
  Hf  Hf10  1  0.249999  0.605304  0.846484  1
  Hf  Hf11  1  0.250000  0.894697  0.846484  1
  Zr  Zr12  1  0.750000  0.750000  0.080445  1
  Zr  Zr13  1  0.250000  0.250000  0.432278  1
  Zr  Zr14  1  0.750000  0.750000  0.567723  1
  Zr  Zr15  1  0.250000  0.250000  0.919556  1
  Bi  Bi16  1  0.250000  0.015338  0.195576  1
  Bi  Bi17  1  0.015338  0.250000  0.195576  1
  Bi  Bi18  1  0.484661  0.249999  0.195576  1
  Bi  Bi19  1  0.249999  0.484661  0.195576  1
  Bi  Bi20  1  0.583453  0.583453  0.350545  1
  Bi  Bi21  1  0.916547  0.583453  0.350545  1
  Bi  Bi22  1  0.916547  0.916547  0.350545  1
  Bi  Bi23  1  0.583453  0.916547  0.350545  1
  Bi  Bi24  1  0.750000  0.250000  0.500000  1
  Bi  Bi25  1  0.250000  0.750000  0.500000  1
  Bi  Bi26  1  0.416547  0.083453  0.649455  1
  Bi  Bi27  1  0.083453  0.083453  0.649455  1
  Bi  Bi28  1  0.083453  0.416547  0.649455  1
  Bi  Bi29  1  0.416547  0.416547  0.649455  1
  Bi  Bi30  1  0.750000  0.515338  0.804425  1
  Bi  Bi31  1  0.515338  0.750000  0.804425  1
  Bi  Bi32  1  0.984662  0.750000  0.804425  1
  Bi  Bi33  1  0.750000  0.984662  0.804425  1
