# generated using pymatgen
data_Fe4Ir7RhO24
_symmetry_space_group_name_H-M   'P 1'
_cell_length_a   4.57211964
_cell_length_b   9.14237928
_cell_length_c   9.41380500
_cell_angle_alpha   90.00000000
_cell_angle_beta   90.00000000
_cell_angle_gamma   89.93934736
_symmetry_Int_Tables_number   1
_chemical_formula_structural   Fe4Ir7RhO24
_chemical_formula_sum   'Fe4 Ir7 Rh1 O24'
_cell_volume   393.49731681
_cell_formula_units_Z   1
loop_
 _symmetry_equiv_pos_site_id
 _symmetry_equiv_pos_as_xyz
  1  'x, y, z'
loop_
 _atom_site_type_symbol
 _atom_site_label
 _atom_site_symmetry_multiplicity
 _atom_site_fract_x
 _atom_site_fract_y
 _atom_site_fract_z
 _atom_site_occupancy
  Fe  Fe0  1  0.000000  0.500000  0.000134  1
  Fe  Fe1  1  0.500053  0.751768  0.499172  1
  Fe  Fe2  1  0.000000  0.000000  0.001941  1
  Fe  Fe3  1  0.499947  0.248232  0.499172  1
  Ir  Ir4  1  0.000000  0.500000  0.331520  1
  Ir  Ir5  1  0.500321  0.249789  0.831520  1
  Ir  Ir6  1  0.499679  0.750211  0.831520  1
  Ir  Ir7  1  0.500858  0.249532  0.168829  1
  Ir  Ir8  1  0.499142  0.750468  0.168829  1
  Ir  Ir9  1  0.000000  0.000000  0.667501  1
  Ir  Ir10  1  0.000000  0.500000  0.668367  1
  Rh  Rh11  1  0.000000  0.000000  0.331365  1
  O  O12  1  0.310066  0.155293  0.000021  1
  O  O13  1  0.310416  0.655030  0.000074  1
  O  O14  1  0.190102  0.405474  0.500140  1
  O  O15  1  0.190531  0.904260  0.501601  1
  O  O16  1  0.809469  0.095740  0.501601  1
  O  O17  1  0.809898  0.594526  0.500140  1
  O  O18  1  0.689584  0.344970  0.000074  1
  O  O19  1  0.689934  0.844707  0.000021  1
  O  O20  1  0.307469  0.154042  0.332963  1
  O  O21  1  0.303265  0.651414  0.333093  1
  O  O22  1  0.196406  0.401753  0.833230  1
  O  O23  1  0.195998  0.901971  0.832789  1
  O  O24  1  0.804002  0.098029  0.832789  1
  O  O25  1  0.803594  0.598247  0.833230  1
  O  O26  1  0.800869  0.099400  0.165299  1
  O  O27  1  0.802912  0.598747  0.166827  1
  O  O28  1  0.197088  0.401253  0.166827  1
  O  O29  1  0.199131  0.900600  0.165299  1
  O  O30  1  0.696735  0.348586  0.333093  1
  O  O31  1  0.692531  0.845958  0.332963  1
  O  O32  1  0.302656  0.151546  0.667050  1
  O  O33  1  0.303763  0.651524  0.666978  1
  O  O34  1  0.696237  0.348476  0.666978  1
  O  O35  1  0.697344  0.848454  0.667050  1
