# generated using pymatgen
data_Tm16Lu4(Ir3Ru)3
_symmetry_space_group_name_H-M   'P 1'
_cell_length_a   10.67571100
_cell_length_b   10.67571100
_cell_length_c   6.33394700
_cell_angle_alpha   90.00000000
_cell_angle_beta   90.00000000
_cell_angle_gamma   90.00000000
_symmetry_Int_Tables_number   1
_chemical_formula_structural   Tm16Lu4(Ir3Ru)3
_chemical_formula_sum   'Tm16 Lu4 Ir9 Ru3'
_cell_volume   721.88504067
_cell_formula_units_Z   1
loop_
 _symmetry_equiv_pos_site_id
 _symmetry_equiv_pos_as_xyz
  1  'x, y, z'
loop_
 _atom_site_type_symbol
 _atom_site_label
 _atom_site_symmetry_multiplicity
 _atom_site_fract_x
 _atom_site_fract_y
 _atom_site_fract_z
 _atom_site_occupancy
  Tm  Tm0  1  0.293322  0.086297  0.376573  1
  Tm  Tm1  1  0.293357  0.913835  0.876811  1
  Tm  Tm2  1  0.706643  0.086165  0.876811  1
  Tm  Tm3  1  0.706678  0.913703  0.376573  1
  Tm  Tm4  1  0.586165  0.793357  0.876811  1
  Tm  Tm5  1  0.586297  0.206678  0.376573  1
  Tm  Tm6  1  0.413703  0.793322  0.376573  1
  Tm  Tm7  1  0.413835  0.206643  0.876811  1
  Tm  Tm8  1  0.208255  0.413047  0.624613  1
  Tm  Tm9  1  0.208047  0.586909  0.121803  1
  Tm  Tm10  1  0.791953  0.413091  0.121803  1
  Tm  Tm11  1  0.791745  0.586953  0.624613  1
  Tm  Tm12  1  0.913091  0.708047  0.121803  1
  Tm  Tm13  1  0.913047  0.291745  0.624613  1
  Tm  Tm14  1  0.086953  0.708255  0.624613  1
  Tm  Tm15  1  0.086909  0.291953  0.121803  1
  Lu  Lu16  1  0.000000  0.000000  0.499893  1
  Lu  Lu17  1  0.000000  0.000000  0.999794  1
  Lu  Lu18  1  0.500000  0.500000  0.999794  1
  Lu  Lu19  1  0.500000  0.500000  0.499893  1
  Ir  Ir20  1  0.847973  0.152544  0.250176  1
  Ir  Ir21  1  0.847753  0.847474  0.749756  1
  Ir  Ir22  1  0.152247  0.152526  0.749756  1
  Ir  Ir23  1  0.152027  0.847456  0.250176  1
  Ir  Ir24  1  0.652526  0.347753  0.749756  1
  Ir  Ir25  1  0.652544  0.652027  0.250176  1
  Ir  Ir26  1  0.347456  0.347973  0.250176  1
  Ir  Ir27  1  0.347474  0.652247  0.749756  1
  Ir  Ir28  1  0.000000  0.500000  0.377981  1
  Ru  Ru29  1  0.500000  0.000000  0.122908  1
  Ru  Ru30  1  0.500000  0.000000  0.623007  1
  Ru  Ru31  1  0.000000  0.500000  0.877795  1
