# generated using pymatgen
data_La2ZnTe2(SO7)2
_symmetry_space_group_name_H-M   'P 1'
_cell_length_a   5.46387483
_cell_length_b   8.19627315
_cell_length_c   8.43816532
_cell_angle_alpha   115.76791384
_cell_angle_beta   106.83682290
_cell_angle_gamma   86.73155331
_symmetry_Int_Tables_number   1
_chemical_formula_structural   La2ZnTe2(SO7)2
_chemical_formula_sum   'La2 Zn1 Te2 S2 O14'
_cell_volume   324.68295409
_cell_formula_units_Z   1
loop_
 _symmetry_equiv_pos_site_id
 _symmetry_equiv_pos_as_xyz
  1  'x, y, z'
loop_
 _atom_site_type_symbol
 _atom_site_label
 _atom_site_symmetry_multiplicity
 _atom_site_fract_x
 _atom_site_fract_y
 _atom_site_fract_z
 _atom_site_occupancy
  La  La0  1  0.097006  0.252022  0.985165  1
  La  La1  1  0.902994  0.747978  0.014835  1
  Zn  Zn2  1  0.000000  0.000000  0.500000  1
  Te  Te3  1  0.525601  0.260768  0.652744  1
  Te  Te4  1  0.474399  0.739232  0.347256  1
  S  S5  1  0.781102  0.247775  0.255150  1
  S  S6  1  0.218898  0.752225  0.744850  1
  O  O7  1  0.926074  0.401221  0.264872  1
  O  O8  1  0.073926  0.598779  0.735128  1
  O  O9  1  0.877966  0.221883  0.424876  1
  O  O10  1  0.122034  0.778117  0.575124  1
  O  O11  1  0.503803  0.278129  0.223222  1
  O  O12  1  0.496197  0.721871  0.776778  1
  O  O13  1  0.820107  0.081922  0.091426  1
  O  O14  1  0.179893  0.918078  0.908574  1
  O  O15  1  0.744442  0.427986  0.885476  1
  O  O16  1  0.255558  0.572014  0.114524  1
  O  O17  1  0.284445  0.188803  0.738391  1
  O  O18  1  0.715555  0.811197  0.261609  1
  O  O19  1  0.750977  0.073284  0.657765  1
  O  O20  1  0.249023  0.926716  0.342235  1
