# generated using pymatgen
data_Tb12Ga2Co2SiTc
_symmetry_space_group_name_H-M   'P 1'
_cell_length_a   8.40646545
_cell_length_b   8.40646645
_cell_length_c   8.40646526
_cell_angle_alpha   112.66079888
_cell_angle_beta   111.17822205
_cell_angle_gamma   104.68205941
_symmetry_Int_Tables_number   1
_chemical_formula_structural   Tb12Ga2Co2SiTc
_chemical_formula_sum   'Tb12 Ga2 Co2 Si1 Tc1'
_cell_volume   454.86491178
_cell_formula_units_Z   1
loop_
 _symmetry_equiv_pos_site_id
 _symmetry_equiv_pos_as_xyz
  1  'x, y, z'
loop_
 _atom_site_type_symbol
 _atom_site_label
 _atom_site_symmetry_multiplicity
 _atom_site_fract_x
 _atom_site_fract_y
 _atom_site_fract_z
 _atom_site_occupancy
  Tb  Tb0  1  0.049886  0.746475  0.303411  1
  Tb  Tb1  1  0.955179  0.264309  0.690871  1
  Tb  Tb2  1  0.556935  0.253525  0.303411  1
  Tb  Tb3  1  0.426563  0.735691  0.690871  1
  Tb  Tb4  1  0.690633  0.874736  0.189578  1
  Tb  Tb5  1  0.314843  0.498945  0.189578  1
  Tb  Tb6  1  0.314843  0.125264  0.815897  1
  Tb  Tb7  1  0.690633  0.501055  0.815897  1
  Tb  Tb8  1  0.179255  0.219965  0.399219  1
  Tb  Tb9  1  0.809532  0.215581  0.025113  1
  Tb  Tb10  1  0.179255  0.780035  0.959290  1
  Tb  Tb11  1  0.809532  0.784419  0.593951  1
  Ga  Ga12  1  0.973666  0.500000  0.473666  1
  Ga  Ga13  1  0.506724  0.000000  0.506724  1
  Co  Co14  1  0.895292  0.891433  0.003859  1
  Co  Co15  1  0.112426  0.108567  0.003859  1
  Si  Si16  1  0.369801  0.500000  0.869801  1
  Tc  Tc17  1  0.665000  0.500000  0.165000  1
