# generated using pymatgen
data_Ta5Ti7Al8(RhC)4
_symmetry_space_group_name_H-M   'P 1'
_cell_length_a   8.24827467
_cell_length_b   8.23873570
_cell_length_c   8.24710259
_cell_angle_alpha   60.01675093
_cell_angle_beta   59.91770548
_cell_angle_gamma   60.06364291
_symmetry_Int_Tables_number   1
_chemical_formula_structural   Ta5Ti7Al8(RhC)4
_chemical_formula_sum   'Ta5 Ti7 Al8 Rh4 C4'
_cell_volume   396.28020417
_cell_formula_units_Z   1
loop_
 _symmetry_equiv_pos_site_id
 _symmetry_equiv_pos_as_xyz
  1  'x, y, z'
loop_
 _atom_site_type_symbol
 _atom_site_label
 _atom_site_symmetry_multiplicity
 _atom_site_fract_x
 _atom_site_fract_y
 _atom_site_fract_z
 _atom_site_occupancy
  Ta  Ta0  1  0.936907  0.934916  0.563971  1
  Ta  Ta1  1  0.688277  0.314111  0.311393  1
  Ta  Ta2  1  0.312006  0.687068  0.687793  1
  Ta  Ta3  1  0.686567  0.685059  0.313554  1
  Ta  Ta4  1  0.687071  0.313636  0.686173  1
  Ti  Ti5  1  0.313760  0.686962  0.312749  1
  Ti  Ti6  1  0.564001  0.937261  0.562730  1
  Ti  Ti7  1  0.563877  0.936160  0.936985  1
  Ti  Ti8  1  0.938343  0.564293  0.562618  1
  Ti  Ti9  1  0.937007  0.564117  0.935916  1
  Ti  Ti10  1  0.312845  0.314076  0.687215  1
  Ti  Ti11  1  0.562607  0.563154  0.938262  1
  Al  Al12  1  0.916556  0.254500  0.914108  1
  Al  Al13  1  0.333149  0.332399  0.997567  1
  Al  Al14  1  0.999947  0.334252  0.333302  1
  Al  Al15  1  0.332418  0.336252  0.336335  1
  Al  Al16  1  0.254088  0.916520  0.915583  1
  Al  Al17  1  0.914025  0.914827  0.918143  1
  Al  Al18  1  0.915522  0.913647  0.252518  1
  Al  Al19  1  0.334127  0.996800  0.332623  1
  Rh  Rh20  1  0.125871  0.624727  0.123310  1
  Rh  Rh21  1  0.124569  0.123706  0.624947  1
  Rh  Rh22  1  0.624097  0.126341  0.125201  1
  Rh  Rh23  1  0.122550  0.124852  0.126940  1
  C  C24  1  0.620743  0.124524  0.627211  1
  C  C25  1  0.624131  0.627587  0.121230  1
  C  C26  1  0.127530  0.620876  0.624129  1
  C  C27  1  0.627408  0.627378  0.627494  1
