# generated using pymatgen
data_Y3Ho5B24IrRu3
_symmetry_space_group_name_H-M   'P 1'
_cell_length_a   3.65545500
_cell_length_b   9.14698885
_cell_length_c   11.49642601
_cell_angle_alpha   90.04294262
_cell_angle_beta   90.00000000
_cell_angle_gamma   90.00000000
_symmetry_Int_Tables_number   1
_chemical_formula_structural   Y3Ho5B24IrRu3
_chemical_formula_sum   'Y3 Ho5 B24 Ir1 Ru3'
_cell_volume   384.39906092
_cell_formula_units_Z   1
loop_
 _symmetry_equiv_pos_site_id
 _symmetry_equiv_pos_as_xyz
  1  'x, y, z'
loop_
 _atom_site_type_symbol
 _atom_site_label
 _atom_site_symmetry_multiplicity
 _atom_site_fract_x
 _atom_site_fract_y
 _atom_site_fract_z
 _atom_site_occupancy
  Y  Y0  1  0.000000  0.319677  0.414425  1
  Y  Y1  1  0.000000  0.678484  0.588881  1
  Y  Y2  1  0.000000  0.823742  0.084267  1
  Ho  Ho3  1  0.000000  0.178003  0.913189  1
  Ho  Ho4  1  0.000000  0.945883  0.372992  1
  Ho  Ho5  1  0.000000  0.055829  0.627174  1
  Ho  Ho6  1  0.000000  0.442055  0.125685  1
  Ho  Ho7  1  0.000000  0.555674  0.873155  1
  B  B8  1  0.500000  0.553700  0.433408  1
  B  B9  1  0.500000  0.445800  0.567275  1
  B  B10  1  0.500000  0.054472  0.066936  1
  B  B11  1  0.500000  0.946251  0.932623  1
  B  B12  1  0.500000  0.749550  0.420826  1
  B  B13  1  0.500000  0.251512  0.580342  1
  B  B14  1  0.500000  0.247955  0.079745  1
  B  B15  1  0.500000  0.751999  0.919792  1
  B  B16  1  0.500000  0.792249  0.265858  1
  B  B17  1  0.500000  0.208718  0.733756  1
  B  B18  1  0.500000  0.291434  0.233737  1
  B  B19  1  0.500000  0.708579  0.766600  1
  B  B20  1  0.500000  0.632194  0.183920  1
  B  B21  1  0.500000  0.367956  0.814748  1
  B  B22  1  0.500000  0.132026  0.314805  1
  B  B23  1  0.500000  0.867917  0.685550  1
  B  B24  1  0.500000  0.983951  0.213047  1
  B  B25  1  0.500000  0.016468  0.786931  1
  B  B26  1  0.500000  0.482605  0.286700  1
  B  B27  1  0.500000  0.516165  0.713344  1
  B  B28  1  0.500000  0.609757  0.030516  1
  B  B29  1  0.500000  0.389903  0.969736  1
  B  B30  1  0.500000  0.109420  0.469906  1
  B  B31  1  0.500000  0.889999  0.529836  1
  Ir  Ir32  1  0.000000  0.637703  0.321508  1
  Ru  Ru33  1  0.000000  0.361976  0.678741  1
  Ru  Ru34  1  0.000000  0.138320  0.178987  1
  Ru  Ru35  1  0.000000  0.862075  0.821060  1
