# generated using pymatgen
data_Dy4Hg3IrPb2
_symmetry_space_group_name_H-M   'P 1'
_cell_length_a   8.21054721
_cell_length_b   8.21054724
_cell_length_c   3.83344500
_cell_angle_alpha   90.00000000
_cell_angle_beta   90.00000000
_cell_angle_gamma   90.92192935
_symmetry_Int_Tables_number   1
_chemical_formula_structural   Dy4Hg3IrPb2
_chemical_formula_sum   'Dy4 Hg3 Ir1 Pb2'
_cell_volume   258.39090277
_cell_formula_units_Z   1
loop_
 _symmetry_equiv_pos_site_id
 _symmetry_equiv_pos_as_xyz
  1  'x, y, z'
loop_
 _atom_site_type_symbol
 _atom_site_label
 _atom_site_symmetry_multiplicity
 _atom_site_fract_x
 _atom_site_fract_y
 _atom_site_fract_z
 _atom_site_occupancy
  Dy  Dy0  1  0.634460  0.178774  0.500000  1
  Dy  Dy1  1  0.196200  0.303800  0.500000  1
  Dy  Dy2  1  0.831348  0.668652  0.500000  1
  Dy  Dy3  1  0.321226  0.865540  0.500000  1
  Hg  Hg4  1  0.133176  0.623068  0.000000  1
  Hg  Hg5  1  0.627019  0.872981  0.000000  1
  Hg  Hg6  1  0.876932  0.366824  0.000000  1
  Ir  Ir7  1  0.377080  0.122920  0.000000  1
  Pb  Pb8  1  0.004513  0.001955  0.000000  1
  Pb  Pb9  1  0.498045  0.495487  0.000000  1
