# generated using pymatgen
data_Ca2Y2GaSiIr4
_symmetry_space_group_name_H-M   'P 1'
_cell_length_a   5.70800969
_cell_length_b   5.70800917
_cell_length_c   7.63017922
_cell_angle_alpha   79.07943552
_cell_angle_beta   79.07943569
_cell_angle_gamma   58.87412897
_symmetry_Int_Tables_number   1
_chemical_formula_structural   Ca2Y2GaSiIr4
_chemical_formula_sum   'Ca2 Y2 Ga1 Si1 Ir4'
_cell_volume   207.71529196
_cell_formula_units_Z   1
loop_
 _symmetry_equiv_pos_site_id
 _symmetry_equiv_pos_as_xyz
  1  'x, y, z'
loop_
 _atom_site_type_symbol
 _atom_site_label
 _atom_site_symmetry_multiplicity
 _atom_site_fract_x
 _atom_site_fract_y
 _atom_site_fract_z
 _atom_site_occupancy
  Ca  Ca0  1  0.009829  0.284132  0.853563  1
  Ca  Ca1  1  0.715868  0.990171  0.646437  1
  Y  Y2  1  0.994873  0.713325  0.144152  1
  Y  Y3  1  0.286675  0.005127  0.355848  1
  Ga  Ga4  1  0.400252  0.599748  0.750000  1
  Si  Si5  1  0.591685  0.408315  0.250000  1
  Ir  Ir6  1  0.488616  0.776124  0.006749  1
  Ir  Ir7  1  0.223876  0.511384  0.493251  1
  Ir  Ir8  1  0.509151  0.220823  0.026682  1
  Ir  Ir9  1  0.779177  0.490849  0.473318  1
