# generated using pymatgen
data_Ba2ScFeO5
_symmetry_space_group_name_H-M   'P 1'
_cell_length_a   5.98574200
_cell_length_b   6.10754800
_cell_length_c   15.82708300
_cell_angle_alpha   90.00000000
_cell_angle_beta   90.00000000
_cell_angle_gamma   90.00000000
_symmetry_Int_Tables_number   1
_chemical_formula_structural   Ba2ScFeO5
_chemical_formula_sum   'Ba8 Sc4 Fe4 O20'
_cell_volume   578.60976988
_cell_formula_units_Z   4
loop_
 _symmetry_equiv_pos_site_id
 _symmetry_equiv_pos_as_xyz
  1  'x, y, z'
loop_
 _atom_site_type_symbol
 _atom_site_label
 _atom_site_symmetry_multiplicity
 _atom_site_fract_x
 _atom_site_fract_y
 _atom_site_fract_z
 _atom_site_occupancy
  Ba  Ba0  1  0.002161  0.504521  0.116710  1
  Ba  Ba1  1  0.002161  0.504521  0.383290  1
  Ba  Ba2  1  0.502161  0.995479  0.116710  1
  Ba  Ba3  1  0.502161  0.995479  0.383290  1
  Ba  Ba4  1  0.497839  0.004521  0.616710  1
  Ba  Ba5  1  0.497839  0.004521  0.883290  1
  Ba  Ba6  1  0.997839  0.495479  0.616710  1
  Ba  Ba7  1  0.997839  0.495479  0.883290  1
  Sc  Sc8  1  0.500000  0.500000  0.000000  1
  Sc  Sc9  1  0.500000  0.500000  0.500000  1
  Sc  Sc10  1  0.000000  0.000000  0.500000  1
  Sc  Sc11  1  0.000000  0.000000  0.000000  1
  Fe  Fe12  1  0.491576  0.559771  0.750000  1
  Fe  Fe13  1  0.991576  0.940229  0.750000  1
  Fe  Fe14  1  0.008424  0.059771  0.250000  1
  Fe  Fe15  1  0.508424  0.440229  0.250000  1
  O  O16  1  0.491723  0.562349  0.140914  1
  O  O17  1  0.491723  0.562349  0.359086  1
  O  O18  1  0.211881  0.712300  0.750000  1
  O  O19  1  0.252050  0.752320  0.510040  1
  O  O20  1  0.252050  0.752320  0.989960  1
  O  O21  1  0.752050  0.747680  0.510040  1
  O  O22  1  0.752050  0.747680  0.989960  1
  O  O23  1  0.711881  0.787700  0.750000  1
  O  O24  1  0.991723  0.937651  0.140914  1
  O  O25  1  0.991723  0.937651  0.359086  1
  O  O26  1  0.008277  0.062349  0.640914  1
  O  O27  1  0.008277  0.062349  0.859086  1
  O  O28  1  0.288119  0.212300  0.250000  1
  O  O29  1  0.247950  0.252320  0.010040  1
  O  O30  1  0.247950  0.252320  0.489960  1
  O  O31  1  0.747950  0.247680  0.010040  1
  O  O32  1  0.747950  0.247680  0.489960  1
  O  O33  1  0.788119  0.287700  0.250000  1
  O  O34  1  0.508277  0.437651  0.640914  1
  O  O35  1  0.508277  0.437651  0.859086  1
