# generated using pymatgen
data_Er2LuZnSn3Rh2
_symmetry_space_group_name_H-M   'P 1'
_cell_length_a   7.57890578
_cell_length_b   7.56533316
_cell_length_c   3.83203200
_cell_angle_alpha   90.00000000
_cell_angle_beta   90.00000000
_cell_angle_gamma   119.82534406
_symmetry_Int_Tables_number   1
_chemical_formula_structural   Er2LuZnSn3Rh2
_chemical_formula_sum   'Er2 Lu1 Zn1 Sn3 Rh2'
_cell_volume   190.61451728
_cell_formula_units_Z   1
loop_
 _symmetry_equiv_pos_site_id
 _symmetry_equiv_pos_as_xyz
  1  'x, y, z'
loop_
 _atom_site_type_symbol
 _atom_site_label
 _atom_site_symmetry_multiplicity
 _atom_site_fract_x
 _atom_site_fract_y
 _atom_site_fract_z
 _atom_site_occupancy
  Er  Er0  1  0.018482  0.608648  0.000000  1
  Er  Er1  1  0.590297  0.981127  0.000000  1
  Lu  Lu2  1  0.389096  0.409994  0.000000  1
  Zn  Zn3  1  0.665463  0.333845  0.500000  1
  Sn  Sn4  1  0.739230  0.734886  0.500000  1
  Sn  Sn5  1  0.996827  0.260966  0.500000  1
  Sn  Sn6  1  0.264742  0.004451  0.500000  1
  Rh  Rh7  1  0.001563  0.001368  0.000000  1
  Rh  Rh8  1  0.334300  0.664714  0.500000  1
