# generated using pymatgen
data_Dy5Y3(Si4W3)4
_symmetry_space_group_name_H-M   'P 1'
_cell_length_a   6.78433235
_cell_length_b   6.95509905
_cell_length_c   12.92114501
_cell_angle_alpha   89.99869067
_cell_angle_beta   89.98302933
_cell_angle_gamma   90.00541922
_symmetry_Int_Tables_number   1
_chemical_formula_structural   Dy5Y3(Si4W3)4
_chemical_formula_sum   'Dy5 Y3 Si16 W12'
_cell_volume   609.69328752
_cell_formula_units_Z   1
loop_
 _symmetry_equiv_pos_site_id
 _symmetry_equiv_pos_as_xyz
  1  'x, y, z'
loop_
 _atom_site_type_symbol
 _atom_site_label
 _atom_site_symmetry_multiplicity
 _atom_site_fract_x
 _atom_site_fract_y
 _atom_site_fract_z
 _atom_site_occupancy
  Dy  Dy0  1  0.003027  0.832400  0.593382  1
  Dy  Dy1  1  0.496916  0.332341  0.093631  1
  Dy  Dy2  1  0.996891  0.167571  0.406570  1
  Dy  Dy3  1  0.496951  0.332443  0.406588  1
  Dy  Dy4  1  0.502975  0.667691  0.593369  1
  Y  Y5  1  0.997101  0.167649  0.093487  1
  Y  Y6  1  0.002837  0.832277  0.906545  1
  Y  Y7  1  0.502992  0.667513  0.906605  1
  Si  Si8  1  0.034108  0.130464  0.749881  1
  Si  Si9  1  0.965918  0.869514  0.250075  1
  Si  Si10  1  0.465954  0.630345  0.250091  1
  Si  Si11  1  0.534087  0.369538  0.749854  1
  Si  Si12  1  0.301364  0.867637  0.749816  1
  Si  Si13  1  0.698580  0.132405  0.250137  1
  Si  Si14  1  0.198675  0.367687  0.250213  1
  Si  Si15  1  0.801354  0.632338  0.749766  1
  Si  Si16  1  0.160473  0.457594  0.547158  1
  Si  Si17  1  0.839519  0.542456  0.452790  1
  Si  Si18  1  0.339569  0.957647  0.452732  1
  Si  Si19  1  0.839596  0.542311  0.047444  1
  Si  Si20  1  0.660459  0.042419  0.547190  1
  Si  Si21  1  0.160351  0.457395  0.952655  1
  Si  Si22  1  0.660181  0.042703  0.952689  1
  Si  Si23  1  0.339848  0.957581  0.047448  1
  W  W24  1  0.164606  0.499297  0.749796  1
  W  W25  1  0.835367  0.500655  0.250175  1
  W  W26  1  0.335443  0.999496  0.250131  1
  W  W27  1  0.664616  0.000712  0.749814  1
  W  W28  1  0.330229  0.163266  0.625503  1
  W  W29  1  0.669778  0.836767  0.374413  1
  W  W30  1  0.169745  0.663281  0.374454  1
  W  W31  1  0.669619  0.836794  0.125719  1
  W  W32  1  0.830215  0.336766  0.625478  1
  W  W33  1  0.330447  0.163223  0.874389  1
  W  W34  1  0.830401  0.336790  0.874312  1
  W  W35  1  0.169806  0.663033  0.125699  1
