# generated using pymatgen
data_DyTeO3F
_symmetry_space_group_name_H-M   'P 1'
_cell_length_a   4.41741722
_cell_length_b   6.77831615
_cell_length_c   7.08305324
_cell_angle_alpha   92.47423928
_cell_angle_beta   95.60461682
_cell_angle_gamma   96.75905870
_symmetry_Int_Tables_number   1
_chemical_formula_structural   DyTeO3F
_chemical_formula_sum   'Dy2 Te2 O6 F2'
_cell_volume   209.28366910
_cell_formula_units_Z   2
loop_
 _symmetry_equiv_pos_site_id
 _symmetry_equiv_pos_as_xyz
  1  'x, y, z'
loop_
 _atom_site_type_symbol
 _atom_site_label
 _atom_site_symmetry_multiplicity
 _atom_site_fract_x
 _atom_site_fract_y
 _atom_site_fract_z
 _atom_site_occupancy
  Dy  Dy0  1  0.455108  0.374505  0.242694  1
  Dy  Dy1  1  0.544893  0.625497  0.757307  1
  Te  Te2  1  0.702341  0.871084  0.283256  1
  Te  Te3  1  0.297652  0.128921  0.716754  1
  O  O4  1  0.630156  0.671586  0.081330  1
  O  O5  1  0.392289  0.030783  0.222686  1
  O  O6  1  0.493204  0.681500  0.433040  1
  O  O7  1  0.506786  0.318498  0.566958  1
  O  O8  1  0.607701  0.969216  0.777306  1
  O  O9  1  0.369871  0.328421  0.918673  1
  F  F10  1  0.953913  0.343997  0.261443  1
  F  F11  1  0.046083  0.655994  0.738553  1
