# generated using pymatgen
data_Th2Si6Pd19Pt2
_symmetry_space_group_name_H-M   'P 1'
_cell_length_a   8.70113479
_cell_length_b   8.70831421
_cell_length_c   8.70831397
_cell_angle_alpha   60.09117445
_cell_angle_beta   60.02727574
_cell_angle_gamma   60.02726964
_symmetry_Int_Tables_number   1
_chemical_formula_structural   Th2Si6Pd19Pt2
_chemical_formula_sum   'Th2 Si6 Pd19 Pt2'
_cell_volume   467.09646189
_cell_formula_units_Z   1
loop_
 _symmetry_equiv_pos_site_id
 _symmetry_equiv_pos_as_xyz
  1  'x, y, z'
loop_
 _atom_site_type_symbol
 _atom_site_label
 _atom_site_symmetry_multiplicity
 _atom_site_fract_x
 _atom_site_fract_y
 _atom_site_fract_z
 _atom_site_occupancy
  Th  Th0  1  0.750417  0.749583  0.749583  1
  Th  Th1  1  0.250136  0.249864  0.249864  1
  Si  Si2  1  0.736777  0.737167  0.262438  1
  Si  Si3  1  0.263619  0.737167  0.262438  1
  Si  Si4  1  0.736324  0.263676  0.263676  1
  Si  Si5  1  0.263619  0.262438  0.737167  1
  Si  Si6  1  0.736777  0.262438  0.737167  1
  Si  Si7  1  0.262596  0.737404  0.737404  1
  Pd  Pd8  1  0.000197  0.999803  0.999803  1
  Pd  Pd9  1  0.153745  0.615343  0.615343  1
  Pd  Pd10  1  0.615569  0.615343  0.615343  1
  Pd  Pd11  1  0.383563  0.385523  0.847352  1
  Pd  Pd12  1  0.383563  0.847352  0.385523  1
  Pd  Pd13  1  0.848131  0.384719  0.384719  1
  Pd  Pd14  1  0.382433  0.384719  0.384719  1
  Pd  Pd15  1  0.000542  0.999890  0.344891  1
  Pd  Pd16  1  0.654677  0.999890  0.344891  1
  Pd  Pd17  1  0.000411  0.654296  0.344882  1
  Pd  Pd18  1  0.654677  0.344891  0.999890  1
  Pd  Pd19  1  0.000542  0.344891  0.999890  1
  Pd  Pd20  1  0.000411  0.344882  0.654296  1
  Pd  Pd21  1  0.345066  0.654500  0.999757  1
  Pd  Pd22  1  0.345066  0.999757  0.654500  1
  Pd  Pd23  1  0.345030  0.000044  0.000044  1
  Pd  Pd24  1  0.000676  0.999757  0.654500  1
  Pd  Pd25  1  0.000676  0.654500  0.999757  1
  Pd  Pd26  1  0.654881  0.000044  0.000044  1
  Pt  Pt27  1  0.614939  0.614664  0.155457  1
  Pt  Pt28  1  0.614939  0.155457  0.614664  1
