# generated using pymatgen
data_Y4Zn4Ir3Pd
_symmetry_space_group_name_H-M   'P 1'
_cell_length_a   4.10813900
_cell_length_b   7.00646714
_cell_length_c   8.11830406
_cell_angle_alpha   90.15140335
_cell_angle_beta   90.00000000
_cell_angle_gamma   90.00000000
_symmetry_Int_Tables_number   1
_chemical_formula_structural   Y4Zn4Ir3Pd
_chemical_formula_sum   'Y4 Zn4 Ir3 Pd1'
_cell_volume   233.67272112
_cell_formula_units_Z   1
loop_
 _symmetry_equiv_pos_site_id
 _symmetry_equiv_pos_as_xyz
  1  'x, y, z'
loop_
 _atom_site_type_symbol
 _atom_site_label
 _atom_site_symmetry_multiplicity
 _atom_site_fract_x
 _atom_site_fract_y
 _atom_site_fract_z
 _atom_site_occupancy
  Y  Y0  1  0.250000  0.029056  0.323052  1
  Y  Y1  1  0.250000  0.545070  0.184690  1
  Y  Y2  1  0.750000  0.964646  0.683442  1
  Y  Y3  1  0.750000  0.470512  0.809637  1
  Zn  Zn4  1  0.250000  0.640185  0.565791  1
  Zn  Zn5  1  0.250000  0.137270  0.932253  1
  Zn  Zn6  1  0.750000  0.359962  0.436142  1
  Zn  Zn7  1  0.750000  0.858338  0.066451  1
  Ir  Ir8  1  0.250000  0.257323  0.620931  1
  Ir  Ir9  1  0.250000  0.758779  0.881224  1
  Ir  Ir10  1  0.750000  0.739802  0.378152  1
  Pd  Pd11  1  0.750000  0.239055  0.118236  1
