# generated using pymatgen
data_Y6Al24NiOs6Pd
_symmetry_space_group_name_H-M   'P 1'
_cell_length_a   8.82601651
_cell_length_b   8.79865005
_cell_length_c   9.55279667
_cell_angle_alpha   90.19368995
_cell_angle_beta   90.11576143
_cell_angle_gamma   119.74366342
_symmetry_Int_Tables_number   1
_chemical_formula_structural   Y6Al24NiOs6Pd
_chemical_formula_sum   'Y6 Al24 Ni1 Os6 Pd1'
_cell_volume   644.09737779
_cell_formula_units_Z   1
loop_
 _symmetry_equiv_pos_site_id
 _symmetry_equiv_pos_as_xyz
  1  'x, y, z'
loop_
 _atom_site_type_symbol
 _atom_site_label
 _atom_site_symmetry_multiplicity
 _atom_site_fract_x
 _atom_site_fract_y
 _atom_site_fract_z
 _atom_site_occupancy
  Y  Y0  1  0.189643  0.387188  0.251987  1
  Y  Y1  1  0.810357  0.612812  0.748013  1
  Y  Y2  1  0.616504  0.809838  0.251369  1
  Y  Y3  1  0.383496  0.190162  0.748631  1
  Y  Y4  1  0.190968  0.805490  0.251874  1
  Y  Y5  1  0.809032  0.194510  0.748126  1
  Al  Al6  1  0.332821  0.672785  0.023781  1
  Al  Al7  1  0.667179  0.327215  0.976219  1
  Al  Al8  1  0.666339  0.332281  0.521993  1
  Al  Al9  1  0.333661  0.667719  0.478007  1
  Al  Al10  1  0.164664  0.328133  0.575375  1
  Al  Al11  1  0.835336  0.671867  0.424625  1
  Al  Al12  1  0.672170  0.836389  0.574072  1
  Al  Al13  1  0.842065  0.674224  0.077845  1
  Al  Al14  1  0.327830  0.163611  0.425928  1
  Al  Al15  1  0.157935  0.325776  0.922155  1
  Al  Al16  1  0.165331  0.837051  0.575857  1
  Al  Al17  1  0.325827  0.158663  0.078160  1
  Al  Al18  1  0.834669  0.162949  0.424143  1
  Al  Al19  1  0.674173  0.841337  0.921840  1
  Al  Al20  1  0.836837  0.165027  0.076930  1
  Al  Al21  1  0.163163  0.834973  0.923070  1
  Al  Al22  1  0.559908  0.120848  0.246080  1
  Al  Al23  1  0.440092  0.879152  0.753920  1
  Al  Al24  1  0.876033  0.439157  0.248789  1
  Al  Al25  1  0.123967  0.560843  0.751211  1
  Al  Al26  1  0.562470  0.437442  0.251549  1
  Al  Al27  1  0.437530  0.562558  0.748451  1
  Al  Al28  1  0.997697  0.999848  0.250322  1
  Al  Al29  1  0.002303  0.000152  0.749678  1
  Ni  Ni30  1  0.500000  0.000000  0.000000  1
  Os  Os31  1  0.000000  0.500000  0.000000  1
  Os  Os32  1  0.500000  0.000000  0.500000  1
  Os  Os33  1  0.000000  0.500000  0.500000  1
  Os  Os34  1  0.500000  0.500000  0.500000  1
  Os  Os35  1  0.000000  0.000000  0.000000  1
  Os  Os36  1  0.000000  0.000000  0.500000  1
  Pd  Pd37  1  0.500000  0.500000  0.000000  1
