# generated using pymatgen
data_LuPu4Tc2C7
_symmetry_space_group_name_H-M   'P 1'
_cell_length_a   8.31028447
_cell_length_b   8.31028509
_cell_length_c   3.44711000
_cell_angle_alpha   90.00000000
_cell_angle_beta   90.00000000
_cell_angle_gamma   124.55218421
_symmetry_Int_Tables_number   1
_chemical_formula_structural   LuPu4Tc2C7
_chemical_formula_sum   'Lu1 Pu4 Tc2 C7'
_cell_volume   196.06882747
_cell_formula_units_Z   1
loop_
 _symmetry_equiv_pos_site_id
 _symmetry_equiv_pos_as_xyz
  1  'x, y, z'
loop_
 _atom_site_type_symbol
 _atom_site_label
 _atom_site_symmetry_multiplicity
 _atom_site_fract_x
 _atom_site_fract_y
 _atom_site_fract_z
 _atom_site_occupancy
  Lu  Lu0  1  0.500000  0.500000  0.000000  1
  Pu  Pu1  1  0.322301  0.061528  0.500000  1
  Pu  Pu2  1  0.677699  0.938472  0.500000  1
  Pu  Pu3  1  0.061528  0.322301  0.500000  1
  Pu  Pu4  1  0.938472  0.677699  0.500000  1
  Tc  Tc5  1  0.291307  0.708693  0.000000  1
  Tc  Tc6  1  0.708693  0.291307  0.000000  1
  C  C7  1  0.176761  0.176761  0.000000  1
  C  C8  1  0.823239  0.823239  0.000000  1
  C  C9  1  0.000000  0.000000  0.000000  1
  C  C10  1  0.376329  0.623671  0.500000  1
  C  C11  1  0.623671  0.376329  0.500000  1
  C  C12  1  0.500000  0.000000  0.000000  1
  C  C13  1  0.000000  0.500000  0.000000  1
