# generated using pymatgen
data_Lu4Co16Si9Tc4P3
_symmetry_space_group_name_H-M   'P 1'
_cell_length_a   3.72413400
_cell_length_b   10.41903805
_cell_length_c   11.89683805
_cell_angle_alpha   89.98937371
_cell_angle_beta   90.00000000
_cell_angle_gamma   90.00000000
_symmetry_Int_Tables_number   1
_chemical_formula_structural   Lu4Co16Si9Tc4P3
_chemical_formula_sum   'Lu4 Co16 Si9 Tc4 P3'
_cell_volume   461.61983903
_cell_formula_units_Z   1
loop_
 _symmetry_equiv_pos_site_id
 _symmetry_equiv_pos_as_xyz
  1  'x, y, z'
loop_
 _atom_site_type_symbol
 _atom_site_label
 _atom_site_symmetry_multiplicity
 _atom_site_fract_x
 _atom_site_fract_y
 _atom_site_fract_z
 _atom_site_occupancy
  Lu  Lu0  1  0.250000  0.578077  0.703011  1
  Lu  Lu1  1  0.250000  0.920709  0.204430  1
  Lu  Lu2  1  0.750000  0.420483  0.294560  1
  Lu  Lu3  1  0.750000  0.078771  0.796123  1
  Co  Co4  1  0.250000  0.406795  0.491502  1
  Co  Co5  1  0.250000  0.089020  0.989131  1
  Co  Co6  1  0.750000  0.588647  0.513451  1
  Co  Co7  1  0.750000  0.911058  0.011033  1
  Co  Co8  1  0.250000  0.212334  0.173311  1
  Co  Co9  1  0.250000  0.286279  0.674607  1
  Co  Co10  1  0.750000  0.787873  0.826497  1
  Co  Co11  1  0.750000  0.714002  0.325607  1
  Co  Co12  1  0.250000  0.885692  0.703548  1
  Co  Co13  1  0.250000  0.616201  0.199079  1
  Co  Co14  1  0.750000  0.114956  0.297293  1
  Co  Co15  1  0.750000  0.384764  0.796687  1
  Co  Co16  1  0.250000  0.467371  0.930987  1
  Co  Co17  1  0.250000  0.033417  0.431882  1
  Co  Co18  1  0.750000  0.532217  0.066717  1
  Co  Co19  1  0.750000  0.968248  0.568854  1
  Si  Si20  1  0.250000  0.416957  0.113736  1
  Si  Si21  1  0.250000  0.083335  0.614783  1
  Si  Si22  1  0.750000  0.583273  0.884677  1
  Si  Si23  1  0.750000  0.916627  0.386114  1
  Si  Si24  1  0.250000  0.267123  0.865475  1
  Si  Si25  1  0.250000  0.233333  0.365086  1
  Si  Si26  1  0.750000  0.732272  0.134348  1
  Si  Si27  1  0.750000  0.767236  0.635007  1
  Si  Si28  1  0.250000  0.598024  0.392305  1
  Tc  Tc29  1  0.250000  0.707923  0.988502  1
  Tc  Tc30  1  0.250000  0.796906  0.492589  1
  Tc  Tc31  1  0.750000  0.291904  0.010230  1
  Tc  Tc32  1  0.750000  0.206523  0.510311  1
  P  P33  1  0.250000  0.902672  0.891756  1
  P  P34  1  0.750000  0.401284  0.608146  1
  P  P35  1  0.750000  0.097695  0.108626  1
