# generated using pymatgen
data_Dy7Ho3(Co2Rh)2
_symmetry_space_group_name_H-M   'P 1'
_cell_length_a   7.10753791
_cell_length_b   7.10753769
_cell_length_c   8.71536834
_cell_angle_alpha   114.06180450
_cell_angle_beta   114.07743057
_cell_angle_gamma   89.98769370
_symmetry_Int_Tables_number   1
_chemical_formula_structural   Dy7Ho3(Co2Rh)2
_chemical_formula_sum   'Dy7 Ho3 Co4 Rh2'
_cell_volume   359.67916516
_cell_formula_units_Z   1
loop_
 _symmetry_equiv_pos_site_id
 _symmetry_equiv_pos_as_xyz
  1  'x, y, z'
loop_
 _atom_site_type_symbol
 _atom_site_label
 _atom_site_symmetry_multiplicity
 _atom_site_fract_x
 _atom_site_fract_y
 _atom_site_fract_z
 _atom_site_occupancy
  Dy  Dy0  1  0.463459  0.319110  0.282569  1
  Dy  Dy1  1  0.963746  0.463558  0.282359  1
  Dy  Dy2  1  0.318801  0.818613  0.282359  1
  Dy  Dy3  1  0.818626  0.963337  0.281963  1
  Dy  Dy4  1  0.181555  0.036120  0.717674  1
  Dy  Dy5  1  0.680999  0.181260  0.717830  1
  Dy  Dy6  1  0.036571  0.536830  0.717830  1
  Ho  Ho7  1  0.999564  0.999700  0.999714  1
  Ho  Ho8  1  0.500015  0.500150  0.999714  1
  Ho  Ho9  1  0.536810  0.681612  0.718422  1
  Co  Co10  1  0.612586  0.112015  0.999544  1
  Co  Co11  1  0.112617  0.387294  0.999910  1
  Co  Co12  1  0.886988  0.612929  0.999918  1
  Co  Co13  1  0.387530  0.886958  0.999544  1
  Rh  Rh14  1  0.250508  0.250699  0.500322  1
  Rh  Rh15  1  0.749623  0.749814  0.500322  1
