# generated using pymatgen
data_NdLu2(NiIr2)3
_symmetry_space_group_name_H-M   'P 1'
_cell_length_a   5.28121577
_cell_length_b   5.28121550
_cell_length_c   8.71823400
_cell_angle_alpha   72.36914776
_cell_angle_beta   72.36914866
_cell_angle_gamma   60.00001447
_symmetry_Int_Tables_number   1
_chemical_formula_structural   NdLu2(NiIr2)3
_chemical_formula_sum   'Nd1 Lu2 Ni3 Ir6'
_cell_volume   197.28574906
_cell_formula_units_Z   1
loop_
 _symmetry_equiv_pos_site_id
 _symmetry_equiv_pos_as_xyz
  1  'x, y, z'
loop_
 _atom_site_type_symbol
 _atom_site_label
 _atom_site_symmetry_multiplicity
 _atom_site_fract_x
 _atom_site_fract_y
 _atom_site_fract_z
 _atom_site_occupancy
  Nd  Nd0  1  0.000000  0.000000  0.000000  1
  Lu  Lu1  1  0.140969  0.140969  0.577094  1
  Lu  Lu2  1  0.859031  0.859031  0.422906  1
  Ni  Ni3  1  0.333061  0.333061  0.000819  1
  Ni  Ni4  1  0.666939  0.666939  0.999181  1
  Ni  Ni5  1  0.500000  0.500000  0.500000  1
  Ir  Ir6  1  0.081561  0.583998  0.750447  1
  Ir  Ir7  1  0.583998  0.583998  0.750447  1
  Ir  Ir8  1  0.583998  0.081561  0.750447  1
  Ir  Ir9  1  0.918439  0.416002  0.249553  1
  Ir  Ir10  1  0.416002  0.416002  0.249553  1
  Ir  Ir11  1  0.416002  0.918439  0.249553  1
