# generated using pymatgen
data_TmLuTcB8Rh
_symmetry_space_group_name_H-M   'P 1'
_cell_length_a   3.54851100
_cell_length_b   5.91875555
_cell_length_c   11.46676779
_cell_angle_alpha   90.23576396
_cell_angle_beta   90.00000000
_cell_angle_gamma   90.00000000
_symmetry_Int_Tables_number   1
_chemical_formula_structural   TmLuTcB8Rh
_chemical_formula_sum   'Tm2 Lu2 Tc2 B16 Rh2'
_cell_volume   240.83183809
_cell_formula_units_Z   2
loop_
 _symmetry_equiv_pos_site_id
 _symmetry_equiv_pos_as_xyz
  1  'x, y, z'
loop_
 _atom_site_type_symbol
 _atom_site_label
 _atom_site_symmetry_multiplicity
 _atom_site_fract_x
 _atom_site_fract_y
 _atom_site_fract_z
 _atom_site_occupancy
  Tm  Tm0  1  0.500000  0.370988  0.149052  1
  Tm  Tm1  1  0.500000  0.629012  0.850948  1
  Lu  Lu2  1  0.500000  0.130138  0.648181  1
  Lu  Lu3  1  0.500000  0.869862  0.351819  1
  Tc  Tc4  1  0.500000  0.364391  0.410570  1
  Tc  Tc5  1  0.500000  0.635609  0.589430  1
  B  B6  1  0.000000  0.113004  0.048455  1
  B  B7  1  0.000000  0.886996  0.951545  1
  B  B8  1  0.000000  0.386647  0.547182  1
  B  B9  1  0.000000  0.613353  0.452818  1
  B  B10  1  0.000000  0.134247  0.469723  1
  B  B11  1  0.000000  0.865753  0.530277  1
  B  B12  1  0.000000  0.364236  0.969950  1
  B  B13  1  0.000000  0.635764  0.030050  1
  B  B14  1  0.000000  0.021470  0.194317  1
  B  B15  1  0.000000  0.978530  0.805683  1
  B  B16  1  0.000000  0.476688  0.692984  1
  B  B17  1  0.000000  0.523312  0.307016  1
  B  B18  1  0.000000  0.208570  0.314308  1
  B  B19  1  0.000000  0.791430  0.685692  1
  B  B20  1  0.000000  0.291117  0.813232  1
  B  B21  1  0.000000  0.708883  0.186768  1
  Rh  Rh22  1  0.500000  0.141180  0.904922  1
  Rh  Rh23  1  0.500000  0.858820  0.095078  1
