# generated using pymatgen
data_Re2Sb7Mo
_symmetry_space_group_name_H-M   'P 1'
_cell_length_a   8.28108578
_cell_length_b   8.28152302
_cell_length_c   8.28152358
_cell_angle_alpha   109.31619834
_cell_angle_beta   109.54986712
_cell_angle_gamma   109.54986102
_symmetry_Int_Tables_number   1
_chemical_formula_structural   Re2Sb7Mo
_chemical_formula_sum   'Re4 Sb14 Mo2'
_cell_volume   437.19169699
_cell_formula_units_Z   2
loop_
 _symmetry_equiv_pos_site_id
 _symmetry_equiv_pos_as_xyz
  1  'x, y, z'
loop_
 _atom_site_type_symbol
 _atom_site_label
 _atom_site_symmetry_multiplicity
 _atom_site_fract_x
 _atom_site_fract_y
 _atom_site_fract_z
 _atom_site_occupancy
  Re  Re0  1  0.339225  0.339290  0.999935  1
  Re  Re1  1  0.000000  0.342089  0.342056  1
  Re  Re2  1  0.000000  0.657944  0.657911  1
  Re  Re3  1  0.660775  0.000065  0.660710  1
  Sb  Sb4  1  0.749535  0.250238  0.499297  1
  Sb  Sb5  1  0.500000  0.250614  0.749386  1
  Sb  Sb6  1  0.500000  0.750614  0.249386  1
  Sb  Sb7  1  0.250465  0.500703  0.749762  1
  Sb  Sb8  1  0.751319  0.500660  0.250659  1
  Sb  Sb9  1  0.248681  0.749341  0.499340  1
  Sb  Sb10  1  0.326795  0.326783  0.326717  1
  Sb  Sb11  1  0.000000  0.000064  0.326276  1
  Sb  Sb12  1  0.326795  0.000079  0.000012  1
  Sb  Sb13  1  0.000000  0.327283  0.999858  1
  Sb  Sb14  1  0.673205  0.999988  0.999921  1
  Sb  Sb15  1  0.000000  0.673724  0.999936  1
  Sb  Sb16  1  0.000000  0.000142  0.672717  1
  Sb  Sb17  1  0.673205  0.673283  0.673217  1
  Mo  Mo18  1  0.342842  0.999970  0.342872  1
  Mo  Mo19  1  0.657158  0.657128  0.000030  1
