# generated using pymatgen
data_Tb12CoNiPd2
_symmetry_space_group_name_H-M   'P 1'
_cell_length_a   6.39859208
_cell_length_b   7.01192868
_cell_length_c   9.60295600
_cell_angle_alpha   90.00000000
_cell_angle_beta   90.00000000
_cell_angle_gamma   90.04124397
_symmetry_Int_Tables_number   1
_chemical_formula_structural   Tb12CoNiPd2
_chemical_formula_sum   'Tb12 Co1 Ni1 Pd2'
_cell_volume   430.85063790
_cell_formula_units_Z   1
loop_
 _symmetry_equiv_pos_site_id
 _symmetry_equiv_pos_as_xyz
  1  'x, y, z'
loop_
 _atom_site_type_symbol
 _atom_site_label
 _atom_site_symmetry_multiplicity
 _atom_site_fract_x
 _atom_site_fract_y
 _atom_site_fract_z
 _atom_site_occupancy
  Tb  Tb0  1  0.317462  0.688471  0.064116  1
  Tb  Tb1  1  0.169220  0.168793  0.435532  1
  Tb  Tb2  1  0.668734  0.328676  0.562958  1
  Tb  Tb3  1  0.820547  0.812443  0.938450  1
  Tb  Tb4  1  0.668734  0.328676  0.937042  1
  Tb  Tb5  1  0.820547  0.812443  0.561550  1
  Tb  Tb6  1  0.317462  0.688471  0.435884  1
  Tb  Tb7  1  0.169220  0.168793  0.064468  1
  Tb  Tb8  1  0.875998  0.541680  0.250000  1
  Tb  Tb9  1  0.645331  0.022675  0.250000  1
  Tb  Tb10  1  0.144457  0.476816  0.750000  1
  Tb  Tb11  1  0.372971  0.964755  0.750000  1
  Co  Co12  1  0.058358  0.886939  0.250000  1
  Ni  Ni13  1  0.563017  0.611846  0.750000  1
  Pd  Pd14  1  0.444915  0.390014  0.250000  1
  Pd  Pd15  1  0.943028  0.108510  0.750000  1
