# generated using pymatgen
data_Tb15Ho5(Cd3Ni)2
_symmetry_space_group_name_H-M   'P 1'
_cell_length_a   9.61126100
_cell_length_b   9.61126059
_cell_length_c   9.84809900
_cell_angle_alpha   90.00000000
_cell_angle_beta   90.00000000
_cell_angle_gamma   119.99999798
_symmetry_Int_Tables_number   1
_chemical_formula_structural   Tb15Ho5(Cd3Ni)2
_chemical_formula_sum   'Tb15 Ho5 Cd6 Ni2'
_cell_volume   787.85041762
_cell_formula_units_Z   1
loop_
 _symmetry_equiv_pos_site_id
 _symmetry_equiv_pos_as_xyz
  1  'x, y, z'
loop_
 _atom_site_type_symbol
 _atom_site_label
 _atom_site_symmetry_multiplicity
 _atom_site_fract_x
 _atom_site_fract_y
 _atom_site_fract_z
 _atom_site_occupancy
  Tb  Tb0  1  0.543245  0.456755  0.249697  1
  Tb  Tb1  1  0.543245  0.086490  0.249697  1
  Tb  Tb2  1  0.913510  0.456755  0.249697  1
  Tb  Tb3  1  0.456164  0.543836  0.750643  1
  Tb  Tb4  1  0.456164  0.912327  0.750643  1
  Tb  Tb5  1  0.087673  0.543836  0.750643  1
  Tb  Tb6  1  0.210305  0.789695  0.436537  1
  Tb  Tb7  1  0.210305  0.420612  0.436537  1
  Tb  Tb8  1  0.579388  0.789695  0.436537  1
  Tb  Tb9  1  0.789715  0.210285  0.563057  1
  Tb  Tb10  1  0.789715  0.579428  0.563057  1
  Tb  Tb11  1  0.420572  0.210285  0.563057  1
  Tb  Tb12  1  0.789801  0.210199  0.937020  1
  Tb  Tb13  1  0.789801  0.579600  0.937020  1
  Tb  Tb14  1  0.420400  0.210199  0.937020  1
  Ho  Ho15  1  0.000000  0.000000  0.500352  1
  Ho  Ho16  1  0.000000  0.000000  0.000131  1
  Ho  Ho17  1  0.210876  0.789124  0.063252  1
  Ho  Ho18  1  0.210876  0.421754  0.063252  1
  Ho  Ho19  1  0.578246  0.789124  0.063252  1
  Cd  Cd20  1  0.885446  0.114554  0.249824  1
  Cd  Cd21  1  0.885446  0.770891  0.249824  1
  Cd  Cd22  1  0.229109  0.114554  0.249824  1
  Cd  Cd23  1  0.114609  0.885391  0.750193  1
  Cd  Cd24  1  0.114609  0.229219  0.750193  1
  Cd  Cd25  1  0.770781  0.885391  0.750193  1
  Ni  Ni26  1  0.333333  0.666667  0.248742  1
  Ni  Ni27  1  0.666667  0.333333  0.750105  1
