# generated using pymatgen
data_Pr5Ho(Er7Pt8)2
_symmetry_space_group_name_H-M   'P 1'
_cell_length_a   7.49729451
_cell_length_b   7.59802537
_cell_length_c   14.74242800
_cell_angle_alpha   89.97040959
_cell_angle_beta   90.03636156
_cell_angle_gamma   90.04510568
_symmetry_Int_Tables_number   1
_chemical_formula_structural   Pr5Ho(Er7Pt8)2
_chemical_formula_sum   'Pr5 Ho1 Er14 Pt16'
_cell_volume   839.79647210
_cell_formula_units_Z   1
loop_
 _symmetry_equiv_pos_site_id
 _symmetry_equiv_pos_as_xyz
  1  'x, y, z'
loop_
 _atom_site_type_symbol
 _atom_site_label
 _atom_site_symmetry_multiplicity
 _atom_site_fract_x
 _atom_site_fract_y
 _atom_site_fract_z
 _atom_site_occupancy
  Pr  Pr0  1  0.500220  0.323892  0.093830  1
  Pr  Pr1  1  0.001812  0.173489  0.407767  1
  Pr  Pr2  1  0.501366  0.327050  0.407669  1
  Pr  Pr3  1  0.000773  0.173618  0.092037  1
  Pr  Pr4  1  0.498999  0.678658  0.904925  1
  Ho  Ho5  1  0.999392  0.818843  0.595428  1
  Er  Er6  1  0.658063  0.166499  0.622752  1
  Er  Er7  1  0.156168  0.331603  0.875271  1
  Er  Er8  1  0.344045  0.833367  0.122905  1
  Er  Er9  1  0.846334  0.667834  0.378510  1
  Er  Er10  1  0.346498  0.831158  0.378985  1
  Er  Er11  1  0.846309  0.669134  0.121592  1
  Er  Er12  1  0.658253  0.166403  0.876026  1
  Er  Er13  1  0.157267  0.332763  0.622783  1
  Er  Er14  1  0.500271  0.681621  0.595974  1
  Er  Er15  1  0.001018  0.819668  0.903074  1
  Er  Er16  1  0.818418  0.509461  0.748757  1
  Er  Er17  1  0.318126  0.990615  0.748774  1
  Er  Er18  1  0.180219  0.489886  0.250133  1
  Er  Er19  1  0.680915  0.010055  0.250660  1
  Pt  Pt20  1  0.679130  0.955211  0.462829  1
  Pt  Pt21  1  0.177930  0.541746  0.039925  1
  Pt  Pt22  1  0.312999  0.030842  0.954731  1
  Pt  Pt23  1  0.815452  0.476641  0.547536  1
  Pt  Pt24  1  0.316490  0.024138  0.547218  1
  Pt  Pt25  1  0.826243  0.470657  0.953394  1
  Pt  Pt26  1  0.679147  0.960275  0.039756  1
  Pt  Pt27  1  0.179022  0.544447  0.462885  1
  Pt  Pt28  1  0.451430  0.380276  0.747749  1
  Pt  Pt29  1  0.953534  0.117008  0.749330  1
  Pt  Pt30  1  0.548114  0.626091  0.250437  1
  Pt  Pt31  1  0.048021  0.874131  0.250639  1
  Pt  Pt32  1  0.686318  0.859937  0.745985  1
  Pt  Pt33  1  0.180107  0.642723  0.748039  1
  Pt  Pt34  1  0.315663  0.136946  0.251118  1
  Pt  Pt35  1  0.815931  0.363317  0.250577  1
