# generated using pymatgen
data_SrCr2(Sb6Pt)2
_symmetry_space_group_name_H-M   'P 1'
_cell_length_a   8.21814161
_cell_length_b   8.25566390
_cell_length_c   8.21814135
_cell_angle_alpha   109.28958503
_cell_angle_beta   109.21328227
_cell_angle_gamma   109.72599252
_symmetry_Int_Tables_number   1
_chemical_formula_structural   SrCr2(Sb6Pt)2
_chemical_formula_sum   'Sr1 Cr2 Sb12 Pt2'
_cell_volume   430.18601868
_cell_formula_units_Z   1
loop_
 _symmetry_equiv_pos_site_id
 _symmetry_equiv_pos_as_xyz
  1  'x, y, z'
loop_
 _atom_site_type_symbol
 _atom_site_label
 _atom_site_symmetry_multiplicity
 _atom_site_fract_x
 _atom_site_fract_y
 _atom_site_fract_z
 _atom_site_occupancy
  Sr  Sr0  1  0.000000  0.000000  0.000000  1
  Cr  Cr1  1  0.500000  0.000000  0.000000  1
  Cr  Cr2  1  0.000000  0.000000  0.500000  1
  Sb  Sb3  1  0.152831  0.499056  0.346226  1
  Sb  Sb4  1  0.501878  0.665406  0.850096  1
  Sb  Sb5  1  0.346289  0.848956  0.184154  1
  Sb  Sb6  1  0.815309  0.665406  0.163528  1
  Sb  Sb7  1  0.664805  0.848956  0.502668  1
  Sb  Sb8  1  0.184691  0.334594  0.836472  1
  Sb  Sb9  1  0.653711  0.151044  0.815846  1
  Sb  Sb10  1  0.335195  0.151044  0.497332  1
  Sb  Sb11  1  0.498122  0.334594  0.149904  1
  Sb  Sb12  1  0.847169  0.500944  0.653774  1
  Sb  Sb13  1  0.838322  0.174735  0.336410  1
  Sb  Sb14  1  0.161678  0.825265  0.663590  1
  Pt  Pt15  1  0.500000  0.500000  0.500000  1
  Pt  Pt16  1  0.000000  0.500000  0.000000  1
