# generated using pymatgen
data_YErGa(PRh2)6
_symmetry_space_group_name_H-M   'P 1'
_cell_length_a   9.66112300
_cell_length_b   9.66112143
_cell_length_c   3.87655700
_cell_angle_alpha   90.00000000
_cell_angle_beta   90.00000000
_cell_angle_gamma   119.99999510
_symmetry_Int_Tables_number   1
_chemical_formula_structural   YErGa(PRh2)6
_chemical_formula_sum   'Y1 Er1 Ga1 P6 Rh12'
_cell_volume   313.35164527
_cell_formula_units_Z   1
loop_
 _symmetry_equiv_pos_site_id
 _symmetry_equiv_pos_as_xyz
  1  'x, y, z'
loop_
 _atom_site_type_symbol
 _atom_site_label
 _atom_site_symmetry_multiplicity
 _atom_site_fract_x
 _atom_site_fract_y
 _atom_site_fract_z
 _atom_site_occupancy
  Y  Y0  1  0.333333  0.666667  0.750602  1
  Er  Er1  1  0.666667  0.333333  0.249425  1
  Ga  Ga2  1  0.000000  0.000000  0.499978  1
  P  P3  1  0.403345  0.285555  0.749499  1
  P  P4  1  0.714445  0.117790  0.749499  1
  P  P5  1  0.882210  0.596655  0.749499  1
  P  P6  1  0.597068  0.714585  0.250504  1
  P  P7  1  0.285415  0.882484  0.250504  1
  P  P8  1  0.117516  0.402932  0.250504  1
  Rh  Rh9  1  0.452703  0.067599  0.749988  1
  Rh  Rh10  1  0.932401  0.385103  0.749988  1
  Rh  Rh11  1  0.614897  0.547297  0.749988  1
  Rh  Rh12  1  0.548154  0.933570  0.250000  1
  Rh  Rh13  1  0.066430  0.614585  0.250000  1
  Rh  Rh14  1  0.385415  0.451846  0.250000  1
  Rh  Rh15  1  0.157420  0.280073  0.752278  1
  Rh  Rh16  1  0.719927  0.877347  0.752278  1
  Rh  Rh17  1  0.122653  0.842580  0.752278  1
  Rh  Rh18  1  0.842514  0.719711  0.247729  1
  Rh  Rh19  1  0.280289  0.122803  0.247729  1
  Rh  Rh20  1  0.877197  0.157486  0.247729  1
