# generated using pymatgen
data_ErTh2(AlNi)3
_symmetry_space_group_name_H-M   'P 1'
_cell_length_a   7.04894459
_cell_length_b   7.04894529
_cell_length_c   4.00494300
_cell_angle_alpha   90.00000000
_cell_angle_beta   90.00000000
_cell_angle_gamma   120.83152958
_symmetry_Int_Tables_number   1
_chemical_formula_structural   ErTh2(AlNi)3
_chemical_formula_sum   'Er1 Th2 Al3 Ni3'
_cell_volume   170.87357578
_cell_formula_units_Z   1
loop_
 _symmetry_equiv_pos_site_id
 _symmetry_equiv_pos_as_xyz
  1  'x, y, z'
loop_
 _atom_site_type_symbol
 _atom_site_label
 _atom_site_symmetry_multiplicity
 _atom_site_fract_x
 _atom_site_fract_y
 _atom_site_fract_z
 _atom_site_occupancy
  Er  Er0  1  0.583053  0.583053  0.500000  1
  Th  Th1  1  0.421438  0.001415  0.500000  1
  Th  Th2  1  0.001415  0.421438  0.500000  1
  Al  Al3  1  0.767836  0.992038  0.000000  1
  Al  Al4  1  0.992038  0.767836  0.000000  1
  Al  Al5  1  0.237228  0.237228  0.000000  1
  Ni  Ni6  1  0.328395  0.666454  0.000000  1
  Ni  Ni7  1  0.666454  0.328395  0.000000  1
  Ni  Ni8  1  0.002143  0.002143  0.500000  1
