# generated using pymatgen
data_Nd8HoTm11Sn16
_symmetry_space_group_name_H-M   'P 1'
_cell_length_a   8.09411909
_cell_length_b   8.17355526
_cell_length_c   15.43579100
_cell_angle_alpha   89.99791105
_cell_angle_beta   89.99167546
_cell_angle_gamma   89.98582569
_symmetry_Int_Tables_number   1
_chemical_formula_structural   Nd8HoTm11Sn16
_chemical_formula_sum   'Nd8 Ho1 Tm11 Sn16'
_cell_volume   1021.19684428
_cell_formula_units_Z   1
loop_
 _symmetry_equiv_pos_site_id
 _symmetry_equiv_pos_as_xyz
  1  'x, y, z'
loop_
 _atom_site_type_symbol
 _atom_site_label
 _atom_site_symmetry_multiplicity
 _atom_site_fract_x
 _atom_site_fract_y
 _atom_site_fract_z
 _atom_site_occupancy
  Nd  Nd0  1  0.516201  0.321983  0.903792  1
  Nd  Nd1  1  0.016147  0.178175  0.596111  1
  Nd  Nd2  1  0.483704  0.678057  0.403670  1
  Nd  Nd3  1  0.983880  0.822033  0.096334  1
  Nd  Nd4  1  0.483813  0.677996  0.096583  1
  Nd  Nd5  1  0.983703  0.821976  0.403713  1
  Nd  Nd6  1  0.516320  0.321971  0.596008  1
  Nd  Nd7  1  0.016200  0.178117  0.903807  1
  Ho  Ho8  1  0.360716  0.836650  0.876582  1
  Tm  Tm9  1  0.860674  0.662992  0.623520  1
  Tm  Tm10  1  0.639499  0.163116  0.376364  1
  Tm  Tm11  1  0.139384  0.336941  0.123998  1
  Tm  Tm12  1  0.639457  0.163020  0.123630  1
  Tm  Tm13  1  0.139461  0.336953  0.376375  1
  Tm  Tm14  1  0.360528  0.837005  0.623619  1
  Tm  Tm15  1  0.860383  0.663197  0.876139  1
  Tm  Tm16  1  0.192669  0.503487  0.749750  1
  Tm  Tm17  1  0.693039  0.996413  0.749812  1
  Tm  Tm18  1  0.807020  0.496160  0.250032  1
  Tm  Tm19  1  0.307091  0.003811  0.250145  1
  Sn  Sn20  1  0.303586  0.041522  0.042892  1
  Sn  Sn21  1  0.803760  0.458914  0.457672  1
  Sn  Sn22  1  0.696092  0.958954  0.542361  1
  Sn  Sn23  1  0.195330  0.539929  0.957823  1
  Sn  Sn24  1  0.697446  0.959359  0.957647  1
  Sn  Sn25  1  0.196315  0.541027  0.542382  1
  Sn  Sn26  1  0.303855  0.041056  0.457748  1
  Sn  Sn27  1  0.803913  0.458979  0.042249  1
  Sn  Sn28  1  0.558592  0.623377  0.749676  1
  Sn  Sn29  1  0.057883  0.876176  0.749714  1
  Sn  Sn30  1  0.441765  0.376242  0.250073  1
  Sn  Sn31  1  0.941689  0.123700  0.250071  1
  Sn  Sn32  1  0.324423  0.144329  0.749655  1
  Sn  Sn33  1  0.824613  0.356237  0.749953  1
  Sn  Sn34  1  0.675456  0.856244  0.250044  1
  Sn  Sn35  1  0.175393  0.643905  0.250054  1
