# generated using pymatgen
data_Y20Cd3FeRuAu3
_symmetry_space_group_name_H-M   'P 1'
_cell_length_a   9.62948200
_cell_length_b   9.62948110
_cell_length_c   9.63596100
_cell_angle_alpha   90.00000000
_cell_angle_beta   90.00000000
_cell_angle_gamma   120.00000309
_symmetry_Int_Tables_number   1
_chemical_formula_structural   Y20Cd3FeRuAu3
_chemical_formula_sum   'Y20 Cd3 Fe1 Ru1 Au3'
_cell_volume   773.80487712
_cell_formula_units_Z   1
loop_
 _symmetry_equiv_pos_site_id
 _symmetry_equiv_pos_as_xyz
  1  'x, y, z'
loop_
 _atom_site_type_symbol
 _atom_site_label
 _atom_site_symmetry_multiplicity
 _atom_site_fract_x
 _atom_site_fract_y
 _atom_site_fract_z
 _atom_site_occupancy
  Y  Y0  1  0.000000  0.000000  0.461403  1
  Y  Y1  1  0.000000  0.000000  0.038597  1
  Y  Y2  1  0.211814  0.788186  0.436507  1
  Y  Y3  1  0.211814  0.423628  0.436507  1
  Y  Y4  1  0.576372  0.788186  0.436507  1
  Y  Y5  1  0.791904  0.208096  0.558307  1
  Y  Y6  1  0.791904  0.583806  0.558307  1
  Y  Y7  1  0.416194  0.208096  0.558307  1
  Y  Y8  1  0.791904  0.208096  0.941693  1
  Y  Y9  1  0.791904  0.583806  0.941693  1
  Y  Y10  1  0.416194  0.208096  0.941693  1
  Y  Y11  1  0.211814  0.788186  0.063493  1
  Y  Y12  1  0.211814  0.423628  0.063493  1
  Y  Y13  1  0.576372  0.788186  0.063493  1
  Y  Y14  1  0.539956  0.460044  0.250000  1
  Y  Y15  1  0.539956  0.079911  0.250000  1
  Y  Y16  1  0.920089  0.460044  0.250000  1
  Y  Y17  1  0.458148  0.541852  0.750000  1
  Y  Y18  1  0.458148  0.916297  0.750000  1
  Y  Y19  1  0.083703  0.541852  0.750000  1
  Cd  Cd20  1  0.109881  0.890119  0.750000  1
  Cd  Cd21  1  0.109881  0.219760  0.750000  1
  Cd  Cd22  1  0.780240  0.890119  0.750000  1
  Fe  Fe23  1  0.333333  0.666667  0.250000  1
  Ru  Ru24  1  0.666667  0.333333  0.750000  1
  Au  Au25  1  0.869918  0.130082  0.250000  1
  Au  Au26  1  0.869918  0.739836  0.250000  1
  Au  Au27  1  0.260164  0.130082  0.250000  1
