# generated using pymatgen
data_NaTbB4Ir5
_symmetry_space_group_name_H-M   'P 1'
_cell_length_a   7.48283738
_cell_length_b   6.29291211
_cell_length_c   5.62463518
_cell_angle_alpha   77.56423577
_cell_angle_beta   55.20995215
_cell_angle_gamma   47.22579998
_symmetry_Int_Tables_number   1
_chemical_formula_structural   NaTbB4Ir5
_chemical_formula_sum   'Na1 Tb1 B4 Ir5'
_cell_volume   153.01522316
_cell_formula_units_Z   1
loop_
 _symmetry_equiv_pos_site_id
 _symmetry_equiv_pos_as_xyz
  1  'x, y, z'
loop_
 _atom_site_type_symbol
 _atom_site_label
 _atom_site_symmetry_multiplicity
 _atom_site_fract_x
 _atom_site_fract_y
 _atom_site_fract_z
 _atom_site_occupancy
  Na  Na0  1  0.853848  0.853846  0.146153  1
  Tb  Tb1  1  0.131354  0.131352  0.868647  1
  B  B2  1  0.478025  0.791973  0.208026  1
  B  B3  1  0.212115  0.526949  0.473050  1
  B  B4  1  0.791975  0.478023  0.521976  1
  B  B5  1  0.526951  0.212113  0.787886  1
  Ir  Ir6  1  0.499864  0.499866  0.000135  1
  Ir  Ir7  1  0.251814  0.251816  0.248185  1
  Ir  Ir8  1  0.999865  0.999865  0.500135  1
  Ir  Ir9  1  0.502382  0.502380  0.497619  1
  Ir  Ir10  1  0.751815  0.751815  0.748185  1
