# generated using pymatgen
data_Er13LuTh2(TlRh)4
_symmetry_space_group_name_H-M   'P 1'
_cell_length_a   9.62534075
_cell_length_b   9.62534152
_cell_length_c   9.63670900
_cell_angle_alpha   59.96092186
_cell_angle_beta   59.96091920
_cell_angle_gamma   60.11421353
_symmetry_Int_Tables_number   1
_chemical_formula_structural   Er13LuTh2(TlRh)4
_chemical_formula_sum   'Er13 Lu1 Th2 Tl4 Rh4'
_cell_volume   631.48384724
_cell_formula_units_Z   1
loop_
 _symmetry_equiv_pos_site_id
 _symmetry_equiv_pos_as_xyz
  1  'x, y, z'
loop_
 _atom_site_type_symbol
 _atom_site_label
 _atom_site_symmetry_multiplicity
 _atom_site_fract_x
 _atom_site_fract_y
 _atom_site_fract_z
 _atom_site_occupancy
  Er  Er0  1  0.602436  0.194697  0.601434  1
  Er  Er1  1  0.194697  0.602436  0.601434  1
  Er  Er2  1  0.063212  0.438883  0.437710  1
  Er  Er3  1  0.438883  0.063212  0.060196  1
  Er  Er4  1  0.438883  0.063212  0.437710  1
  Er  Er5  1  0.063212  0.438883  0.060196  1
  Er  Er6  1  0.436385  0.436385  0.063615  1
  Er  Er7  1  0.060976  0.060976  0.439024  1
  Er  Er8  1  0.186423  0.815707  0.811746  1
  Er  Er9  1  0.815707  0.186423  0.186124  1
  Er  Er10  1  0.815707  0.186423  0.811746  1
  Er  Er11  1  0.186423  0.815707  0.186124  1
  Er  Er12  1  0.813595  0.813595  0.186405  1
  Lu  Lu13  1  0.191949  0.191949  0.808051  1
  Th  Th14  1  0.595552  0.595552  0.600174  1
  Th  Th15  1  0.595552  0.595552  0.208722  1
  Tl  Tl16  1  0.837193  0.837193  0.835050  1
  Tl  Tl17  1  0.837193  0.837193  0.490562  1
  Tl  Tl18  1  0.837148  0.491193  0.835829  1
  Tl  Tl19  1  0.491193  0.837148  0.835829  1
  Rh  Rh20  1  0.390889  0.390889  0.397028  1
  Rh  Rh21  1  0.390889  0.390889  0.821194  1
  Rh  Rh22  1  0.393842  0.822058  0.392050  1
  Rh  Rh23  1  0.822058  0.393842  0.392050  1
