# generated using pymatgen
data_NdV4Bi3F28
_symmetry_space_group_name_H-M   'P 1'
_cell_length_a   5.60430376
_cell_length_b   9.15264463
_cell_length_c   12.11234600
_cell_angle_alpha   62.45124323
_cell_angle_beta   90.05685307
_cell_angle_gamma   89.94802567
_symmetry_Int_Tables_number   1
_chemical_formula_structural   NdV4Bi3F28
_chemical_formula_sum   'Nd1 V4 Bi3 F28'
_cell_volume   550.84846571
_cell_formula_units_Z   1
loop_
 _symmetry_equiv_pos_site_id
 _symmetry_equiv_pos_as_xyz
  1  'x, y, z'
loop_
 _atom_site_type_symbol
 _atom_site_label
 _atom_site_symmetry_multiplicity
 _atom_site_fract_x
 _atom_site_fract_y
 _atom_site_fract_z
 _atom_site_occupancy
  Nd  Nd0  1  0.742860  0.805235  0.268016  1
  V  V1  1  0.755012  0.272183  0.956591  1
  V  V2  1  0.254754  0.727015  0.544206  1
  V  V3  1  0.246280  0.727194  0.042373  1
  V  V4  1  0.745257  0.273057  0.456534  1
  Bi  Bi5  1  0.759377  0.810601  0.767718  1
  Bi  Bi6  1  0.258480  0.190699  0.731074  1
  Bi  Bi7  1  0.238381  0.186621  0.231771  1
  F  F8  1  0.442159  0.710491  0.920816  1
  F  F9  1  0.940792  0.291075  0.578589  1
  F  F10  1  0.559636  0.289242  0.077967  1
  F  F11  1  0.057760  0.710975  0.422174  1
  F  F12  1  0.460528  0.282526  0.543510  1
  F  F13  1  0.960909  0.719648  0.955350  1
  F  F14  1  0.534275  0.717848  0.455890  1
  F  F15  1  0.041236  0.280865  0.043390  1
  F  F16  1  0.768398  0.496982  0.867005  1
  F  F17  1  0.266359  0.502005  0.634590  1
  F  F18  1  0.233811  0.503538  0.131822  1
  F  F19  1  0.733153  0.500940  0.367210  1
  F  F20  1  0.761993  0.046031  0.049196  1
  F  F21  1  0.260507  0.953020  0.453116  1
  F  F22  1  0.240353  0.952982  0.952450  1
  F  F23  1  0.739208  0.047573  0.547893  1
  F  F24  1  0.979692  0.734497  0.632669  1
  F  F25  1  0.481184  0.265021  0.867622  1
  F  F26  1  0.018921  0.268233  0.367860  1
  F  F27  1  0.519043  0.734124  0.133165  1
  F  F28  1  0.050695  0.745067  0.165446  1
  F  F29  1  0.553040  0.255004  0.334357  1
  F  F30  1  0.948292  0.251872  0.834067  1
  F  F31  1  0.448084  0.746086  0.667145  1
  F  F32  1  0.402134  0.970715  0.226817  1
  F  F33  1  0.911212  0.030685  0.272109  1
  F  F34  1  0.593226  0.028650  0.772691  1
  F  F35  1  0.092999  0.971696  0.726802  1
