# generated using pymatgen
data_Ba6Y3Tm(WO9)2
_symmetry_space_group_name_H-M   'P 1'
_cell_length_a   6.09205030
_cell_length_b   8.62863506
_cell_length_c   10.55489706
_cell_angle_alpha   65.87448125
_cell_angle_beta   73.22615272
_cell_angle_gamma   90.00047509
_symmetry_Int_Tables_number   1
_chemical_formula_structural   Ba6Y3Tm(WO9)2
_chemical_formula_sum   'Ba6 Y3 Tm1 W2 O18'
_cell_volume   480.38280779
_cell_formula_units_Z   1
loop_
 _symmetry_equiv_pos_site_id
 _symmetry_equiv_pos_as_xyz
  1  'x, y, z'
loop_
 _atom_site_type_symbol
 _atom_site_label
 _atom_site_symmetry_multiplicity
 _atom_site_fract_x
 _atom_site_fract_y
 _atom_site_fract_z
 _atom_site_occupancy
  Ba  Ba0  1  0.499997  0.266102  0.000001  1
  Ba  Ba1  1  0.839659  0.579876  0.320681  1
  Ba  Ba2  1  0.160351  0.900565  0.679317  1
  Ba  Ba3  1  0.500004  0.733898  0.999998  1
  Ba  Ba4  1  0.839647  0.099435  0.320682  1
  Ba  Ba5  1  0.160342  0.420124  0.679321  1
  Y  Y6  1  0.000000  0.000000  0.000000  1
  Y  Y7  1  0.329497  0.329486  0.341019  1
  Y  Y8  1  0.670502  0.670513  0.658981  1
  Tm  Tm9  1  0.000002  0.500001  0.999999  1
  W  W10  1  0.334251  0.834253  0.331488  1
  W  W11  1  0.665747  0.165746  0.668514  1
  O  O12  1  0.000003  0.248627  0.000001  1
  O  O13  1  0.330830  0.602050  0.338356  1
  O  O14  1  0.669163  0.940404  0.661645  1
  O  O15  1  0.161127  0.412140  0.175703  1
  O  O16  1  0.489862  0.759527  0.480953  1
  O  O17  1  0.817382  0.089560  0.820896  1
  O  O18  1  0.336805  0.587863  0.824292  1
  O  O19  1  0.638285  0.910432  0.179110  1
  O  O20  1  0.970810  0.240481  0.519042  1
  O  O21  1  0.999998  0.751373  0.999998  1
  O  O22  1  0.330837  0.059596  0.338354  1
  O  O23  1  0.669170  0.397949  0.661644  1
  O  O24  1  0.838873  0.587859  0.824298  1
  O  O25  1  0.182617  0.910440  0.179103  1
  O  O26  1  0.510139  0.240473  0.519047  1
  O  O27  1  0.663194  0.412138  0.175707  1
  O  O28  1  0.029190  0.759519  0.480957  1
  O  O29  1  0.361715  0.089568  0.820890  1
