# generated using pymatgen
data_Np3AgO9F
_symmetry_space_group_name_H-M   'P 1'
_cell_length_a   8.13225020
_cell_length_b   8.13115374
_cell_length_c   9.29281015
_cell_angle_alpha   77.59459589
_cell_angle_beta   77.58953639
_cell_angle_gamma   120.24876128
_symmetry_Int_Tables_number   1
_chemical_formula_structural   Np3AgO9F
_chemical_formula_sum   'Np6 Ag2 O18 F2'
_cell_volume   478.89322655
_cell_formula_units_Z   2
loop_
 _symmetry_equiv_pos_site_id
 _symmetry_equiv_pos_as_xyz
  1  'x, y, z'
loop_
 _atom_site_type_symbol
 _atom_site_label
 _atom_site_symmetry_multiplicity
 _atom_site_fract_x
 _atom_site_fract_y
 _atom_site_fract_z
 _atom_site_occupancy
  Np  Np0  1  0.475451  0.226189  0.498253  1
  Np  Np1  1  0.226173  0.475430  0.998275  1
  Np  Np2  1  0.724999  0.476859  0.996866  1
  Np  Np3  1  0.228339  0.975613  0.995319  1
  Np  Np4  1  0.476761  0.724901  0.496987  1
  Np  Np5  1  0.975585  0.228308  0.495357  1
  Ag  Ag6  1  0.028109  0.771561  0.520026  1
  Ag  Ag7  1  0.771529  0.028063  0.020077  1
  O  O8  1  0.942727  0.398254  0.996204  1
  O  O9  1  0.151336  0.204932  0.995197  1
  O  O10  1  0.398280  0.942780  0.496231  1
  O  O11  1  0.204911  0.151320  0.495185  1
  O  O12  1  0.786981  0.956098  0.503424  1
  O  O13  1  0.160965  0.495818  0.495644  1
  O  O14  1  0.956174  0.787071  0.003348  1
  O  O15  1  0.495830  0.160956  0.995610  1
  O  O16  1  0.609721  0.359654  0.222141  1
  O  O17  1  0.342137  0.091806  0.755982  1
  O  O18  1  0.359599  0.609665  0.722167  1
  O  O19  1  0.091783  0.342122  0.255975  1
  O  O20  1  0.744888  0.301157  0.496232  1
  O  O21  1  0.550015  0.505919  0.497285  1
  O  O22  1  0.301115  0.744854  0.996229  1
  O  O23  1  0.505971  0.550041  0.997271  1
  O  O24  1  0.836553  0.589165  0.777679  1
  O  O25  1  0.589135  0.836526  0.277738  1
  F  F26  1  0.107081  0.855870  0.249615  1
  F  F27  1  0.855852  0.107066  0.749684  1
