# generated using pymatgen
data_Sr5Si11PIr19
_symmetry_space_group_name_H-M   'P 1'
_cell_length_a   12.94992717
_cell_length_b   12.96791900
_cell_length_c   4.04622000
_cell_angle_alpha   90.00000000
_cell_angle_beta   90.00000000
_cell_angle_gamma   120.04597217
_symmetry_Int_Tables_number   1
_chemical_formula_structural   Sr5Si11PIr19
_chemical_formula_sum   'Sr5 Si11 P1 Ir19'
_cell_volume   588.18828116
_cell_formula_units_Z   1
loop_
 _symmetry_equiv_pos_site_id
 _symmetry_equiv_pos_as_xyz
  1  'x, y, z'
loop_
 _atom_site_type_symbol
 _atom_site_label
 _atom_site_symmetry_multiplicity
 _atom_site_fract_x
 _atom_site_fract_y
 _atom_site_fract_z
 _atom_site_occupancy
  Sr  Sr0  1  0.000000  0.817568  0.500000  1
  Sr  Sr1  1  0.182830  0.183003  0.500000  1
  Sr  Sr2  1  0.817170  0.000173  0.500000  1
  Sr  Sr3  1  0.333490  0.666873  0.000000  1
  Sr  Sr4  1  0.666510  0.333382  0.000000  1
  Si  Si5  1  0.815148  0.814867  0.000000  1
  Si  Si6  1  0.184852  0.999719  0.000000  1
  Si  Si7  1  0.521939  0.688137  0.500000  1
  Si  Si8  1  0.312167  0.834333  0.500000  1
  Si  Si9  1  0.165693  0.478162  0.500000  1
  Si  Si10  1  0.478061  0.166198  0.500000  1
  Si  Si11  1  0.687833  0.522166  0.500000  1
  Si  Si12  1  0.834307  0.312469  0.500000  1
  Si  Si13  1  0.000000  0.628121  0.000000  1
  Si  Si14  1  0.371574  0.371174  0.000000  1
  Si  Si15  1  0.628426  0.999601  0.000000  1
  P  P16  1  0.000000  0.185695  0.000000  1
  Ir  Ir17  1  0.000000  0.282803  0.500000  1
  Ir  Ir18  1  0.715252  0.715171  0.500000  1
  Ir  Ir19  1  0.284748  0.999919  0.500000  1
  Ir  Ir20  1  0.620731  0.804283  0.000000  1
  Ir  Ir21  1  0.195847  0.815932  0.000000  1
  Ir  Ir22  1  0.181637  0.376760  0.000000  1
  Ir  Ir23  1  0.379269  0.183552  0.000000  1
  Ir  Ir24  1  0.804153  0.620085  0.000000  1
  Ir  Ir25  1  0.818363  0.195124  0.000000  1
  Ir  Ir26  1  0.513486  0.875154  0.500000  1
  Ir  Ir27  1  0.125194  0.638330  0.500000  1
  Ir  Ir28  1  0.360136  0.486019  0.500000  1
  Ir  Ir29  1  0.486514  0.361668  0.500000  1
  Ir  Ir30  1  0.874806  0.513136  0.500000  1
  Ir  Ir31  1  0.639864  0.125883  0.500000  1
  Ir  Ir32  1  0.000000  0.004023  0.000000  1
  Ir  Ir33  1  0.000000  0.446288  0.000000  1
  Ir  Ir34  1  0.552581  0.553406  0.000000  1
  Ir  Ir35  1  0.447419  0.000825  0.000000  1
