# generated using pymatgen
data_NdSmGaNi7B2
_symmetry_space_group_name_H-M   'P 1'
_cell_length_a   5.11398638
_cell_length_b   5.11323207
_cell_length_c   6.94763200
_cell_angle_alpha   90.00000000
_cell_angle_beta   90.00000000
_cell_angle_gamma   120.06183485
_symmetry_Int_Tables_number   1
_chemical_formula_structural   NdSmGaNi7B2
_chemical_formula_sum   'Nd1 Sm1 Ga1 Ni7 B2'
_cell_volume   157.23584829
_cell_formula_units_Z   1
loop_
 _symmetry_equiv_pos_site_id
 _symmetry_equiv_pos_as_xyz
  1  'x, y, z'
loop_
 _atom_site_type_symbol
 _atom_site_label
 _atom_site_symmetry_multiplicity
 _atom_site_fract_x
 _atom_site_fract_y
 _atom_site_fract_z
 _atom_site_occupancy
  Nd  Nd0  1  0.999936  0.999998  0.000000  1
  Sm  Sm1  1  0.999982  0.000006  0.500000  1
  Ga  Ga2  1  0.333235  0.666650  0.000000  1
  Ni  Ni3  1  0.666706  0.333370  0.000000  1
  Ni  Ni4  1  0.500815  0.001655  0.296654  1
  Ni  Ni5  1  0.500818  0.499165  0.296798  1
  Ni  Ni6  1  0.998340  0.499177  0.296720  1
  Ni  Ni7  1  0.500815  0.001655  0.703346  1
  Ni  Ni8  1  0.500818  0.499165  0.703202  1
  Ni  Ni9  1  0.998340  0.499177  0.703280  1
  B  B10  1  0.333348  0.666698  0.500000  1
  B  B11  1  0.666644  0.333284  0.500000  1
