# generated using pymatgen
data_CeNdTm2(B6Ru)2
_symmetry_space_group_name_H-M   'P 1'
_cell_length_a   3.69438200
_cell_length_b   9.16726634
_cell_length_c   11.56554870
_cell_angle_alpha   89.93793430
_cell_angle_beta   90.00000000
_cell_angle_gamma   90.00000000
_symmetry_Int_Tables_number   1
_chemical_formula_structural   CeNdTm2(B6Ru)2
_chemical_formula_sum   'Ce2 Nd2 Tm4 B24 Ru4'
_cell_volume   391.69464643
_cell_formula_units_Z   2
loop_
 _symmetry_equiv_pos_site_id
 _symmetry_equiv_pos_as_xyz
  1  'x, y, z'
loop_
 _atom_site_type_symbol
 _atom_site_label
 _atom_site_symmetry_multiplicity
 _atom_site_fract_x
 _atom_site_fract_y
 _atom_site_fract_z
 _atom_site_occupancy
  Ce  Ce0  1  0.000000  0.822939  0.085880  1
  Ce  Ce1  1  0.000000  0.177061  0.914120  1
  Nd  Nd2  1  0.000000  0.322422  0.414180  1
  Nd  Nd3  1  0.000000  0.677578  0.585820  1
  Tm  Tm4  1  0.000000  0.944400  0.372831  1
  Tm  Tm5  1  0.000000  0.055600  0.627169  1
  Tm  Tm6  1  0.000000  0.444775  0.126922  1
  Tm  Tm7  1  0.000000  0.555225  0.873078  1
  B  B8  1  0.500000  0.556489  0.429962  1
  B  B9  1  0.500000  0.443511  0.570038  1
  B  B10  1  0.500000  0.054954  0.068055  1
  B  B11  1  0.500000  0.945046  0.931945  1
  B  B12  1  0.500000  0.750947  0.417371  1
  B  B13  1  0.500000  0.249053  0.582629  1
  B  B14  1  0.500000  0.250063  0.081224  1
  B  B15  1  0.500000  0.749937  0.918776  1
  B  B16  1  0.500000  0.792412  0.265546  1
  B  B17  1  0.500000  0.207588  0.734454  1
  B  B18  1  0.500000  0.291224  0.232845  1
  B  B19  1  0.500000  0.708776  0.767155  1
  B  B20  1  0.500000  0.632024  0.183901  1
  B  B21  1  0.500000  0.367976  0.816099  1
  B  B22  1  0.500000  0.130588  0.315027  1
  B  B23  1  0.500000  0.869412  0.684973  1
  B  B24  1  0.500000  0.984769  0.213721  1
  B  B25  1  0.500000  0.015231  0.786279  1
  B  B26  1  0.500000  0.485556  0.285097  1
  B  B27  1  0.500000  0.514444  0.714903  1
  B  B28  1  0.500000  0.605243  0.028448  1
  B  B29  1  0.500000  0.394757  0.971552  1
  B  B30  1  0.500000  0.102979  0.471860  1
  B  B31  1  0.500000  0.897021  0.528140  1
  Ru  Ru32  1  0.000000  0.641060  0.317435  1
  Ru  Ru33  1  0.000000  0.358940  0.682565  1
  Ru  Ru34  1  0.000000  0.138762  0.178227  1
  Ru  Ru35  1  0.000000  0.861238  0.821773  1
