# generated using pymatgen
data_Sb2IrRhSe2
_symmetry_space_group_name_H-M   'P 1'
_cell_length_a   6.26582400
_cell_length_b   6.26622585
_cell_length_c   6.26713285
_cell_angle_alpha   90.10928540
_cell_angle_beta   90.00000000
_cell_angle_gamma   90.00000000
_symmetry_Int_Tables_number   1
_chemical_formula_structural   Sb2IrRhSe2
_chemical_formula_sum   'Sb4 Ir2 Rh2 Se4'
_cell_volume   246.06641764
_cell_formula_units_Z   2
loop_
 _symmetry_equiv_pos_site_id
 _symmetry_equiv_pos_as_xyz
  1  'x, y, z'
loop_
 _atom_site_type_symbol
 _atom_site_label
 _atom_site_symmetry_multiplicity
 _atom_site_fract_x
 _atom_site_fract_y
 _atom_site_fract_z
 _atom_site_occupancy
  Sb  Sb0  1  0.875512  0.375469  0.123045  1
  Sb  Sb1  1  0.375512  0.124531  0.876955  1
  Sb  Sb2  1  0.124075  0.875972  0.374562  1
  Sb  Sb3  1  0.624075  0.624028  0.625438  1
  Ir  Ir4  1  0.504411  0.004728  0.496332  1
  Ir  Ir5  1  0.004411  0.495272  0.503668  1
  Rh  Rh6  1  0.494856  0.505009  0.005171  1
  Rh  Rh7  1  0.994856  0.994991  0.994829  1
  Se  Se8  1  0.122062  0.619892  0.877015  1
  Se  Se9  1  0.622062  0.880108  0.122985  1
  Se  Se10  1  0.879084  0.122749  0.620118  1
  Se  Se11  1  0.379084  0.377251  0.379882  1
