# generated using pymatgen
data_TmLuPa4(Al3Os)8
_symmetry_space_group_name_H-M   'P 1'
_cell_length_a   8.83797006
_cell_length_b   8.83797015
_cell_length_c   9.43903800
_cell_angle_alpha   90.00000000
_cell_angle_beta   90.00000000
_cell_angle_gamma   119.67801747
_symmetry_Int_Tables_number   1
_chemical_formula_structural   TmLuPa4(Al3Os)8
_chemical_formula_sum   'Tm1 Lu1 Pa4 Al24 Os8'
_cell_volume   640.56524506
_cell_formula_units_Z   1
loop_
 _symmetry_equiv_pos_site_id
 _symmetry_equiv_pos_as_xyz
  1  'x, y, z'
loop_
 _atom_site_type_symbol
 _atom_site_label
 _atom_site_symmetry_multiplicity
 _atom_site_fract_x
 _atom_site_fract_y
 _atom_site_fract_z
 _atom_site_occupancy
  Tm  Tm0  1  0.801693  0.198307  0.750000  1
  Lu  Lu1  1  0.198953  0.801047  0.250000  1
  Pa  Pa2  1  0.199316  0.393798  0.250000  1
  Pa  Pa3  1  0.800773  0.606446  0.750000  1
  Pa  Pa4  1  0.606202  0.800684  0.250000  1
  Pa  Pa5  1  0.393554  0.199227  0.750000  1
  Al  Al6  1  0.331304  0.668696  0.019536  1
  Al  Al7  1  0.668575  0.331425  0.980658  1
  Al  Al8  1  0.668575  0.331425  0.519342  1
  Al  Al9  1  0.331304  0.668696  0.480464  1
  Al  Al10  1  0.161537  0.324728  0.578100  1
  Al  Al11  1  0.838591  0.675369  0.421912  1
  Al  Al12  1  0.675272  0.838463  0.578100  1
  Al  Al13  1  0.838591  0.675369  0.078088  1
  Al  Al14  1  0.324631  0.161409  0.421912  1
  Al  Al15  1  0.161537  0.324728  0.921900  1
  Al  Al16  1  0.162550  0.837450  0.579374  1
  Al  Al17  1  0.324631  0.161409  0.078088  1
  Al  Al18  1  0.837440  0.162560  0.420490  1
  Al  Al19  1  0.675272  0.838463  0.921900  1
  Al  Al20  1  0.837440  0.162560  0.079510  1
  Al  Al21  1  0.162550  0.837450  0.920626  1
  Al  Al22  1  0.559911  0.122146  0.250000  1
  Al  Al23  1  0.439919  0.877638  0.750000  1
  Al  Al24  1  0.877854  0.440089  0.250000  1
  Al  Al25  1  0.122362  0.560081  0.750000  1
  Al  Al26  1  0.564445  0.435555  0.250000  1
  Al  Al27  1  0.435555  0.564445  0.750000  1
  Al  Al28  1  0.000279  0.999721  0.250000  1
  Al  Al29  1  0.999902  0.000098  0.750000  1
  Os  Os30  1  0.499738  0.999939  0.000169  1
  Os  Os31  1  0.000061  0.500262  0.000169  1
  Os  Os32  1  0.499738  0.999939  0.499831  1
  Os  Os33  1  0.499970  0.500030  0.000015  1
  Os  Os34  1  0.000061  0.500262  0.499831  1
  Os  Os35  1  0.499970  0.500030  0.499985  1
  Os  Os36  1  0.999973  0.000027  0.000027  1
  Os  Os37  1  0.999973  0.000027  0.499973  1
