# generated using pymatgen
data_Y4Er2Al24Os7Pt
_symmetry_space_group_name_H-M   'P 1'
_cell_length_a   8.83957219
_cell_length_b   8.83957152
_cell_length_c   9.56013022
_cell_angle_alpha   89.66646696
_cell_angle_beta   90.33353575
_cell_angle_gamma   119.92558771
_symmetry_Int_Tables_number   1
_chemical_formula_structural   Y4Er2Al24Os7Pt
_chemical_formula_sum   'Y4 Er2 Al24 Os7 Pt1'
_cell_volume   647.39932116
_cell_formula_units_Z   1
loop_
 _symmetry_equiv_pos_site_id
 _symmetry_equiv_pos_as_xyz
  1  'x, y, z'
loop_
 _atom_site_type_symbol
 _atom_site_label
 _atom_site_symmetry_multiplicity
 _atom_site_fract_x
 _atom_site_fract_y
 _atom_site_fract_z
 _atom_site_occupancy
  Y  Y0  1  0.190612  0.386950  0.251231  1
  Y  Y1  1  0.809388  0.613050  0.748769  1
  Y  Y2  1  0.613050  0.809388  0.251231  1
  Y  Y3  1  0.386950  0.190612  0.748769  1
  Er  Er4  1  0.195202  0.804798  0.251332  1
  Er  Er5  1  0.804798  0.195202  0.748668  1
  Al  Al6  1  0.331411  0.668589  0.019992  1
  Al  Al7  1  0.668589  0.331411  0.980008  1
  Al  Al8  1  0.666651  0.333349  0.517253  1
  Al  Al9  1  0.333349  0.666651  0.482747  1
  Al  Al10  1  0.163532  0.325609  0.577396  1
  Al  Al11  1  0.836468  0.674391  0.422604  1
  Al  Al12  1  0.674391  0.836468  0.577396  1
  Al  Al13  1  0.842218  0.675447  0.077701  1
  Al  Al14  1  0.325609  0.163532  0.422604  1
  Al  Al15  1  0.157782  0.324553  0.922299  1
  Al  Al16  1  0.163504  0.836496  0.575172  1
  Al  Al17  1  0.324553  0.157782  0.077701  1
  Al  Al18  1  0.836496  0.163504  0.424828  1
  Al  Al19  1  0.675447  0.842218  0.922299  1
  Al  Al20  1  0.836830  0.163170  0.075340  1
  Al  Al21  1  0.163170  0.836830  0.924660  1
  Al  Al22  1  0.559893  0.121699  0.249049  1
  Al  Al23  1  0.440107  0.878301  0.750951  1
  Al  Al24  1  0.878301  0.440107  0.249049  1
  Al  Al25  1  0.121699  0.559893  0.750951  1
  Al  Al26  1  0.561809  0.438191  0.251993  1
  Al  Al27  1  0.438191  0.561809  0.748007  1
  Al  Al28  1  0.000003  0.999997  0.250130  1
  Al  Al29  1  0.999997  0.000003  0.749870  1
  Os  Os30  1  0.500000  0.000000  0.000000  1
  Os  Os31  1  0.000000  0.500000  0.000000  1
  Os  Os32  1  0.500000  0.000000  0.500000  1
  Os  Os33  1  0.000000  0.500000  0.500000  1
  Os  Os34  1  0.500000  0.500000  0.500000  1
  Os  Os35  1  0.000000  0.000000  0.000000  1
  Os  Os36  1  0.000000  0.000000  0.500000  1
  Pt  Pt37  1  0.500000  0.500000  0.000000  1
