# generated using pymatgen
data_Pu2B8MoRu
_symmetry_space_group_name_H-M   'P 1'
_cell_length_a   6.01441333
_cell_length_b   11.64560426
_cell_length_c   3.57240600
_cell_angle_alpha   90.00000000
_cell_angle_beta   90.00000000
_cell_angle_gamma   90.11481874
_symmetry_Int_Tables_number   1
_chemical_formula_structural   Pu2B8MoRu
_chemical_formula_sum   'Pu4 B16 Mo2 Ru2'
_cell_volume   250.21609213
_cell_formula_units_Z   2
loop_
 _symmetry_equiv_pos_site_id
 _symmetry_equiv_pos_as_xyz
  1  'x, y, z'
loop_
 _atom_site_type_symbol
 _atom_site_label
 _atom_site_symmetry_multiplicity
 _atom_site_fract_x
 _atom_site_fract_y
 _atom_site_fract_z
 _atom_site_occupancy
  Pu  Pu0  1  0.627044  0.352368  0.000000  1
  Pu  Pu1  1  0.372956  0.647632  0.000000  1
  Pu  Pu2  1  0.126001  0.152472  0.000000  1
  Pu  Pu3  1  0.873999  0.847528  0.000000  1
  B  B4  1  0.788915  0.188804  0.500000  1
  B  B5  1  0.211085  0.811196  0.500000  1
  B  B6  1  0.285089  0.315094  0.500000  1
  B  B7  1  0.714911  0.684906  0.500000  1
  B  B8  1  0.867372  0.032425  0.500000  1
  B  B9  1  0.132628  0.967575  0.500000  1
  B  B10  1  0.364251  0.468248  0.500000  1
  B  B11  1  0.635749  0.531752  0.500000  1
  B  B12  1  0.886510  0.453608  0.500000  1
  B  B13  1  0.113490  0.546392  0.500000  1
  B  B14  1  0.383981  0.047027  0.500000  1
  B  B15  1  0.616019  0.952973  0.500000  1
  B  B16  1  0.974403  0.309476  0.500000  1
  B  B17  1  0.025597  0.690524  0.500000  1
  B  B18  1  0.472585  0.193877  0.500000  1
  B  B19  1  0.527415  0.806123  0.500000  1
  Mo  Mo20  1  0.629888  0.087420  0.000000  1
  Mo  Mo21  1  0.370112  0.912580  0.000000  1
  Ru  Ru22  1  0.137242  0.409436  0.000000  1
  Ru  Ru23  1  0.862758  0.590564  0.000000  1
