# generated using pymatgen
data_LiHf(TaRu2)2
_symmetry_space_group_name_H-M   'P 1'
_cell_length_a   6.29796428
_cell_length_b   6.29789610
_cell_length_c   6.24336901
_cell_angle_alpha   90.00370156
_cell_angle_beta   90.00360856
_cell_angle_gamma   89.98325106
_symmetry_Int_Tables_number   1
_chemical_formula_structural   LiHf(TaRu2)2
_chemical_formula_sum   'Li2 Hf2 Ta4 Ru8'
_cell_volume   247.63650655
_cell_formula_units_Z   2
loop_
 _symmetry_equiv_pos_site_id
 _symmetry_equiv_pos_as_xyz
  1  'x, y, z'
loop_
 _atom_site_type_symbol
 _atom_site_label
 _atom_site_symmetry_multiplicity
 _atom_site_fract_x
 _atom_site_fract_y
 _atom_site_fract_z
 _atom_site_occupancy
  Li  Li0  1  0.249949  0.749988  0.499996  1
  Li  Li1  1  0.750053  0.250011  0.500004  1
  Hf  Hf2  1  0.749968  0.250003  0.999998  1
  Hf  Hf3  1  0.250033  0.749997  0.999999  1
  Ta  Ta4  1  0.250019  0.249998  0.999998  1
  Ta  Ta5  1  0.749981  0.750001  0.999999  1
  Ta  Ta6  1  0.750051  0.750004  0.500001  1
  Ta  Ta7  1  0.249949  0.249997  0.500001  1
  Ru  Ru8  1  0.999971  0.499969  0.254009  1
  Ru  Ru9  1  0.000024  0.000025  0.254053  1
  Ru  Ru10  1  0.500024  0.500025  0.254119  1
  Ru  Ru11  1  0.499971  0.999972  0.254074  1
  Ru  Ru12  1  0.499973  0.499977  0.745879  1
  Ru  Ru13  1  0.500029  0.000030  0.745929  1
  Ru  Ru14  1  0.000028  0.500030  0.745990  1
  Ru  Ru15  1  0.999976  0.999974  0.745946  1
