# generated using pymatgen
data_Yb3ZnCrO6
_symmetry_space_group_name_H-M   'P 1'
_cell_length_a   6.25558586
_cell_length_b   6.33794801
_cell_length_c   6.33819895
_cell_angle_alpha   90.98364323
_cell_angle_beta   91.69752684
_cell_angle_gamma   91.64755356
_symmetry_Int_Tables_number   1
_chemical_formula_structural   Yb3ZnCrO6
_chemical_formula_sum   'Yb6 Zn2 Cr2 O12'
_cell_volume   251.03928101
_cell_formula_units_Z   2
loop_
 _symmetry_equiv_pos_site_id
 _symmetry_equiv_pos_as_xyz
  1  'x, y, z'
loop_
 _atom_site_type_symbol
 _atom_site_label
 _atom_site_symmetry_multiplicity
 _atom_site_fract_x
 _atom_site_fract_y
 _atom_site_fract_z
 _atom_site_occupancy
  Yb  Yb0  1  0.750363  0.385511  0.114500  1
  Yb  Yb1  1  0.249708  0.614611  0.885596  1
  Yb  Yb2  1  0.386552  0.112128  0.747138  1
  Yb  Yb3  1  0.113290  0.752639  0.388035  1
  Yb  Yb4  1  0.613519  0.887720  0.252922  1
  Yb  Yb5  1  0.886714  0.247482  0.611763  1
  Zn  Zn6  1  0.250485  0.246076  0.253370  1
  Zn  Zn7  1  0.749936  0.753724  0.746202  1
  Cr  Cr8  1  0.499748  0.499857  0.500283  1
  Cr  Cr9  1  0.999774  0.000300  0.000320  1
  O  O10  1  0.584656  0.448264  0.789191  1
  O  O11  1  0.953842  0.085671  0.294373  1
  O  O12  1  0.790500  0.578227  0.446150  1
  O  O13  1  0.046170  0.914590  0.705378  1
  O  O14  1  0.915531  0.710764  0.052136  1
  O  O15  1  0.453210  0.794615  0.585331  1
  O  O16  1  0.084509  0.289331  0.947600  1
  O  O17  1  0.415368  0.551498  0.210828  1
  O  O18  1  0.546723  0.205152  0.414952  1
  O  O19  1  0.290630  0.946263  0.078065  1
  O  O20  1  0.209447  0.421834  0.553850  1
  O  O21  1  0.709326  0.053748  0.922017  1
