# generated using pymatgen
data_Dy3Y12Ho(CdPt)4
_symmetry_space_group_name_H-M   'P 1'
_cell_length_a   9.71465879
_cell_length_b   9.71381956
_cell_length_c   9.71381900
_cell_angle_alpha   60.00000532
_cell_angle_beta   60.00286298
_cell_angle_gamma   60.00286528
_symmetry_Int_Tables_number   1
_chemical_formula_structural   Dy3Y12Ho(CdPt)4
_chemical_formula_sum   'Dy3 Y12 Ho1 Cd4 Pt4'
_cell_volume   648.20355715
_cell_formula_units_Z   1
loop_
 _symmetry_equiv_pos_site_id
 _symmetry_equiv_pos_as_xyz
  1  'x, y, z'
loop_
 _atom_site_type_symbol
 _atom_site_label
 _atom_site_symmetry_multiplicity
 _atom_site_fract_x
 _atom_site_fract_y
 _atom_site_fract_z
 _atom_site_occupancy
  Dy  Dy0  1  0.352175  0.352190  0.352190  1
  Dy  Dy1  1  0.352175  0.352190  0.943446  1
  Dy  Dy2  1  0.352175  0.943446  0.352190  1
  Y  Y3  1  0.810186  0.189857  0.189857  1
  Y  Y4  1  0.189819  0.810198  0.810198  1
  Y  Y5  1  0.189819  0.810198  0.189785  1
  Y  Y6  1  0.810186  0.189857  0.810101  1
  Y  Y7  1  0.189819  0.189785  0.810198  1
  Y  Y8  1  0.810186  0.810101  0.189857  1
  Y  Y9  1  0.935526  0.564446  0.564446  1
  Y  Y10  1  0.564466  0.935523  0.935523  1
  Y  Y11  1  0.564466  0.935523  0.564488  1
  Y  Y12  1  0.935526  0.564446  0.935581  1
  Y  Y13  1  0.564466  0.564488  0.935523  1
  Y  Y14  1  0.935526  0.935581  0.564446  1
  Ho  Ho15  1  0.943740  0.352087  0.352087  1
  Cd  Cd16  1  0.582050  0.581906  0.581906  1
  Cd  Cd17  1  0.582050  0.581906  0.254140  1
  Cd  Cd18  1  0.582050  0.254140  0.581906  1
  Cd  Cd19  1  0.254125  0.581959  0.581959  1
  Pt  Pt20  1  0.143694  0.144079  0.144079  1
  Pt  Pt21  1  0.143694  0.144079  0.568148  1
  Pt  Pt22  1  0.143694  0.568148  0.144079  1
  Pt  Pt23  1  0.568387  0.143871  0.143871  1
