# generated using pymatgen
data_Er3Th2Sn3Sb
_symmetry_space_group_name_H-M   'P 1'
_cell_length_a   8.10902300
_cell_length_b   8.15220900
_cell_length_c   15.39653400
_cell_angle_alpha   90.00000000
_cell_angle_beta   90.00000000
_cell_angle_gamma   90.00000000
_symmetry_Int_Tables_number   1
_chemical_formula_structural   Er3Th2Sn3Sb
_chemical_formula_sum   'Er12 Th8 Sn12 Sb4'
_cell_volume   1017.81020938
_cell_formula_units_Z   4
loop_
 _symmetry_equiv_pos_site_id
 _symmetry_equiv_pos_as_xyz
  1  'x, y, z'
loop_
 _atom_site_type_symbol
 _atom_site_label
 _atom_site_symmetry_multiplicity
 _atom_site_fract_x
 _atom_site_fract_y
 _atom_site_fract_z
 _atom_site_occupancy
  Er  Er0  1  0.363044  0.838558  0.876285  1
  Er  Er1  1  0.863044  0.661442  0.623715  1
  Er  Er2  1  0.636956  0.161442  0.376285  1
  Er  Er3  1  0.136956  0.338558  0.123715  1
  Er  Er4  1  0.637957  0.162317  0.123391  1
  Er  Er5  1  0.137957  0.337683  0.376609  1
  Er  Er6  1  0.362043  0.837683  0.623391  1
  Er  Er7  1  0.862043  0.662317  0.876609  1
  Er  Er8  1  0.191195  0.496544  0.748959  1
  Er  Er9  1  0.691195  0.003456  0.751041  1
  Er  Er10  1  0.808805  0.503456  0.248959  1
  Er  Er11  1  0.308805  0.996544  0.251041  1
  Th  Th12  1  0.520315  0.320883  0.904263  1
  Th  Th13  1  0.020315  0.179117  0.595737  1
  Th  Th14  1  0.479685  0.679117  0.404263  1
  Th  Th15  1  0.979685  0.820883  0.095737  1
  Th  Th16  1  0.481816  0.679247  0.095406  1
  Th  Th17  1  0.981816  0.820753  0.404594  1
  Th  Th18  1  0.518184  0.320753  0.595406  1
  Th  Th19  1  0.018184  0.179247  0.904594  1
  Sn  Sn20  1  0.702714  0.960303  0.956990  1
  Sn  Sn21  1  0.202714  0.539697  0.543010  1
  Sn  Sn22  1  0.297286  0.039697  0.456990  1
  Sn  Sn23  1  0.797286  0.460303  0.043010  1
  Sn  Sn24  1  0.557435  0.622229  0.749912  1
  Sn  Sn25  1  0.057435  0.877771  0.750088  1
  Sn  Sn26  1  0.442565  0.377771  0.249912  1
  Sn  Sn27  1  0.942565  0.122229  0.250088  1
  Sn  Sn28  1  0.325648  0.142409  0.750098  1
  Sn  Sn29  1  0.825648  0.357591  0.749902  1
  Sn  Sn30  1  0.674352  0.857591  0.250098  1
  Sn  Sn31  1  0.174352  0.642409  0.249902  1
  Sb  Sb32  1  0.297319  0.040364  0.042661  1
  Sb  Sb33  1  0.797319  0.459636  0.457339  1
  Sb  Sb34  1  0.702681  0.959636  0.542661  1
  Sb  Sb35  1  0.202681  0.540364  0.957339  1
