# generated using pymatgen
data_Cs4HfNiCl12
_symmetry_space_group_name_H-M   'P 1'
_cell_length_a   7.48583900
_cell_length_b   7.48583900
_cell_length_c   10.58582600
_cell_angle_alpha   90.00000000
_cell_angle_beta   90.00000000
_cell_angle_gamma   90.00000000
_symmetry_Int_Tables_number   1
_chemical_formula_structural   Cs4HfNiCl12
_chemical_formula_sum   'Cs4 Hf1 Ni1 Cl12'
_cell_volume   593.20624709
_cell_formula_units_Z   1
loop_
 _symmetry_equiv_pos_site_id
 _symmetry_equiv_pos_as_xyz
  1  'x, y, z'
loop_
 _atom_site_type_symbol
 _atom_site_label
 _atom_site_symmetry_multiplicity
 _atom_site_fract_x
 _atom_site_fract_y
 _atom_site_fract_z
 _atom_site_occupancy
  Cs  Cs0  1  0.500000  0.000000  0.756995  1
  Cs  Cs1  1  0.000000  0.500000  0.243005  1
  Cs  Cs2  1  0.500000  0.000000  0.243005  1
  Cs  Cs3  1  0.000000  0.500000  0.756995  1
  Hf  Hf4  1  0.500000  0.500000  0.500000  1
  Ni  Ni5  1  0.000000  0.000000  0.000000  1
  Cl  Cl6  1  0.000000  0.000000  0.786813  1
  Cl  Cl7  1  0.500000  0.500000  0.265617  1
  Cl  Cl8  1  0.732108  0.732108  0.500000  1
  Cl  Cl9  1  0.212204  0.212204  0.000000  1
  Cl  Cl10  1  0.732108  0.267892  0.500000  1
  Cl  Cl11  1  0.212204  0.787796  0.000000  1
  Cl  Cl12  1  0.000000  0.000000  0.213187  1
  Cl  Cl13  1  0.500000  0.500000  0.734383  1
  Cl  Cl14  1  0.267892  0.267892  0.500000  1
  Cl  Cl15  1  0.787796  0.787796  0.000000  1
  Cl  Cl16  1  0.267892  0.732108  0.500000  1
  Cl  Cl17  1  0.787796  0.212204  0.000000  1
