# generated using pymatgen
data_K4LaNpI10
_symmetry_space_group_name_H-M   'P 1'
_cell_length_a   9.33280577
_cell_length_b   9.89024800
_cell_length_c   14.78664608
_cell_angle_alpha   90.00000000
_cell_angle_beta   90.56599699
_cell_angle_gamma   90.00000000
_symmetry_Int_Tables_number   1
_chemical_formula_structural   K4LaNpI10
_chemical_formula_sum   'K8 La2 Np2 I20'
_cell_volume   1364.79648935
_cell_formula_units_Z   2
loop_
 _symmetry_equiv_pos_site_id
 _symmetry_equiv_pos_as_xyz
  1  'x, y, z'
loop_
 _atom_site_type_symbol
 _atom_site_label
 _atom_site_symmetry_multiplicity
 _atom_site_fract_x
 _atom_site_fract_y
 _atom_site_fract_z
 _atom_site_occupancy
  K  K0  1  0.947165  0.002645  0.825693  1
  K  K1  1  0.052835  0.997355  0.174307  1
  K  K2  1  0.447421  0.997475  0.671905  1
  K  K3  1  0.052835  0.502645  0.174307  1
  K  K4  1  0.552579  0.002525  0.328095  1
  K  K5  1  0.947165  0.497355  0.825693  1
  K  K6  1  0.552579  0.497475  0.328095  1
  K  K7  1  0.447421  0.502525  0.671905  1
  La  La8  1  0.421389  0.250000  0.994765  1
  La  La9  1  0.578611  0.750000  0.005235  1
  Np  Np10  1  0.928432  0.750000  0.502522  1
  Np  Np11  1  0.071568  0.250000  0.497478  1
  I  I12  1  0.127053  0.750000  0.679198  1
  I  I13  1  0.872947  0.250000  0.320802  1
  I  I14  1  0.628730  0.250000  0.819064  1
  I  I15  1  0.371270  0.750000  0.180936  1
  I  I16  1  0.835474  0.042912  0.576618  1
  I  I17  1  0.164526  0.957088  0.423382  1
  I  I18  1  0.331636  0.953267  0.920159  1
  I  I19  1  0.164526  0.542912  0.423382  1
  I  I20  1  0.668364  0.046733  0.079841  1
  I  I21  1  0.835474  0.457088  0.576618  1
  I  I22  1  0.668364  0.453267  0.079841  1
  I  I23  1  0.331636  0.546733  0.920159  1
  I  I24  1  0.579446  0.750000  0.508603  1
  I  I25  1  0.420554  0.250000  0.491397  1
  I  I26  1  0.069854  0.250000  0.991800  1
  I  I27  1  0.930146  0.750000  0.008200  1
  I  I28  1  0.663803  0.750000  0.793895  1
  I  I29  1  0.336197  0.250000  0.206105  1
  I  I30  1  0.162244  0.250000  0.705213  1
  I  I31  1  0.837756  0.750000  0.294787  1
