# generated using pymatgen
data_Zr2Fe8P7Ru4
_symmetry_space_group_name_H-M   'P 1'
_cell_length_a   8.97088164
_cell_length_b   8.97842232
_cell_length_c   3.69868600
_cell_angle_alpha   90.00000000
_cell_angle_beta   90.00000000
_cell_angle_gamma   120.17132975
_symmetry_Int_Tables_number   1
_chemical_formula_structural   Zr2Fe8P7Ru4
_chemical_formula_sum   'Zr2 Fe8 P7 Ru4'
_cell_volume   257.54960006
_cell_formula_units_Z   1
loop_
 _symmetry_equiv_pos_site_id
 _symmetry_equiv_pos_as_xyz
  1  'x, y, z'
loop_
 _atom_site_type_symbol
 _atom_site_label
 _atom_site_symmetry_multiplicity
 _atom_site_fract_x
 _atom_site_fract_y
 _atom_site_fract_z
 _atom_site_occupancy
  Zr  Zr0  1  0.663093  0.329310  0.500000  1
  Zr  Zr1  1  0.337522  0.667187  0.000000  1
  Fe  Fe2  1  0.560699  0.947590  0.500000  1
  Fe  Fe3  1  0.389796  0.440871  0.500000  1
  Fe  Fe4  1  0.718760  0.879972  0.000000  1
  Fe  Fe5  1  0.119953  0.845918  0.000000  1
  Fe  Fe6  1  0.160062  0.278709  0.000000  1
  Fe  Fe7  1  0.430403  0.063803  0.000000  1
  Fe  Fe8  1  0.932332  0.361290  0.000000  1
  Fe  Fe9  1  0.631588  0.570281  0.000000  1
  P  P10  1  0.588974  0.711533  0.500000  1
  P  P11  1  0.998477  0.000318  0.000000  1
  P  P12  1  0.295684  0.887595  0.500000  1
  P  P13  1  0.125124  0.403096  0.500000  1
  P  P14  1  0.879445  0.579360  0.000000  1
  P  P15  1  0.418772  0.305265  0.000000  1
  P  P16  1  0.693627  0.112313  0.000000  1
  Ru  Ru17  1  0.902716  0.119219  0.500000  1
  Ru  Ru18  1  0.221969  0.099564  0.500000  1
  Ru  Ru19  1  0.876065  0.784818  0.500000  1
  Ru  Ru20  1  0.054941  0.611989  0.500000  1
