# generated using pymatgen
data_YHfZrTcF15
_symmetry_space_group_name_H-M   'P 1'
_cell_length_a   8.14678988
_cell_length_b   8.14678937
_cell_length_c   8.12438549
_cell_angle_alpha   79.66493013
_cell_angle_beta   79.66492990
_cell_angle_gamma   99.76628299
_symmetry_Int_Tables_number   1
_chemical_formula_structural   YHfZrTcF15
_chemical_formula_sum   'Y2 Hf2 Zr2 Tc2 F30'
_cell_volume   510.38942467
_cell_formula_units_Z   2
loop_
 _symmetry_equiv_pos_site_id
 _symmetry_equiv_pos_as_xyz
  1  'x, y, z'
loop_
 _atom_site_type_symbol
 _atom_site_label
 _atom_site_symmetry_multiplicity
 _atom_site_fract_x
 _atom_site_fract_y
 _atom_site_fract_z
 _atom_site_occupancy
  Y  Y0  1  0.177334  0.822666  0.250000  1
  Y  Y1  1  0.821835  0.178165  0.750000  1
  Hf  Hf2  1  0.743838  0.677425  0.672933  1
  Hf  Hf3  1  0.322575  0.256162  0.827067  1
  Zr  Zr4  1  0.254255  0.321716  0.326943  1
  Zr  Zr5  1  0.678284  0.745745  0.173057  1
  Tc  Tc6  1  0.750746  0.249254  0.250000  1
  Tc  Tc7  1  0.249912  0.750088  0.750000  1
  F  F8  1  0.315201  0.350702  0.052563  1
  F  F9  1  0.936049  0.811702  0.150962  1
  F  F10  1  0.839945  0.463101  0.686807  1
  F  F11  1  0.461486  0.843756  0.185530  1
  F  F12  1  0.808634  0.931823  0.654253  1
  F  F13  1  0.350010  0.312982  0.558135  1
  F  F14  1  0.687018  0.649990  0.941864  1
  F  F15  1  0.068177  0.191366  0.845747  1
  F  F16  1  0.156244  0.538514  0.314470  1
  F  F17  1  0.536899  0.160055  0.813193  1
  F  F18  1  0.188298  0.063951  0.349038  1
  F  F19  1  0.649298  0.684799  0.447437  1
  F  F20  1  0.772683  0.281232  0.002278  1
  F  F21  1  0.999228  0.272975  0.216495  1
  F  F22  1  0.779856  0.501015  0.224189  1
  F  F23  1  0.502346  0.777493  0.724111  1
  F  F24  1  0.273905  0.998215  0.717397  1
  F  F25  1  0.281467  0.771878  0.502048  1
  F  F26  1  0.228122  0.718533  0.997952  1
  F  F27  1  0.001785  0.726095  0.782603  1
  F  F28  1  0.222507  0.497654  0.775889  1
  F  F29  1  0.498985  0.220144  0.275811  1
  F  F30  1  0.727025  0.000772  0.283505  1
  F  F31  1  0.718768  0.227317  0.497722  1
  F  F32  1  0.469271  0.530729  0.250000  1
  F  F33  1  0.747161  0.955007  0.972388  1
  F  F34  1  0.044993  0.252839  0.527612  1
  F  F35  1  0.253926  0.048386  0.025585  1
  F  F36  1  0.951614  0.746074  0.474415  1
  F  F37  1  0.530322  0.469678  0.750000  1
