# generated using pymatgen
data_Dy2Co9P6Os
_symmetry_space_group_name_H-M   'P 1'
_cell_length_a   3.67856000
_cell_length_b   10.32663100
_cell_length_c   11.72499800
_cell_angle_alpha   90.00000000
_cell_angle_beta   90.00000000
_cell_angle_gamma   90.00000000
_symmetry_Int_Tables_number   1
_chemical_formula_structural   Dy2Co9P6Os
_chemical_formula_sum   'Dy4 Co18 P12 Os2'
_cell_volume   445.39904358
_cell_formula_units_Z   2
loop_
 _symmetry_equiv_pos_site_id
 _symmetry_equiv_pos_as_xyz
  1  'x, y, z'
loop_
 _atom_site_type_symbol
 _atom_site_label
 _atom_site_symmetry_multiplicity
 _atom_site_fract_x
 _atom_site_fract_y
 _atom_site_fract_z
 _atom_site_occupancy
  Dy  Dy0  1  0.250000  0.582483  0.701880  1
  Dy  Dy1  1  0.250000  0.917517  0.201880  1
  Dy  Dy2  1  0.750000  0.413365  0.295447  1
  Dy  Dy3  1  0.750000  0.086635  0.795447  1
  Co  Co4  1  0.750000  0.283863  0.009084  1
  Co  Co5  1  0.750000  0.216137  0.509084  1
  Co  Co6  1  0.250000  0.406217  0.488114  1
  Co  Co7  1  0.250000  0.093783  0.988114  1
  Co  Co8  1  0.750000  0.591863  0.509906  1
  Co  Co9  1  0.750000  0.908137  0.009906  1
  Co  Co10  1  0.250000  0.220216  0.177034  1
  Co  Co11  1  0.250000  0.279784  0.677034  1
  Co  Co12  1  0.750000  0.777416  0.822797  1
  Co  Co13  1  0.750000  0.722584  0.322797  1
  Co  Co14  1  0.250000  0.887267  0.701836  1
  Co  Co15  1  0.250000  0.612733  0.201836  1
  Co  Co16  1  0.750000  0.115709  0.301109  1
  Co  Co17  1  0.750000  0.384291  0.801109  1
  Co  Co18  1  0.250000  0.465354  0.932667  1
  Co  Co19  1  0.250000  0.034646  0.432667  1
  Co  Co20  1  0.750000  0.533353  0.068779  1
  Co  Co21  1  0.750000  0.966647  0.568779  1
  P  P22  1  0.250000  0.416075  0.112354  1
  P  P23  1  0.250000  0.083925  0.612354  1
  P  P24  1  0.750000  0.578555  0.886521  1
  P  P25  1  0.750000  0.921445  0.386521  1
  P  P26  1  0.250000  0.270791  0.869544  1
  P  P27  1  0.250000  0.229209  0.369544  1
  P  P28  1  0.750000  0.729196  0.132470  1
  P  P29  1  0.750000  0.770804  0.632470  1
  P  P30  1  0.250000  0.593751  0.390166  1
  P  P31  1  0.250000  0.906249  0.890166  1
  P  P32  1  0.750000  0.397153  0.608616  1
  P  P33  1  0.750000  0.102847  0.108616  1
  Os  Os34  1  0.250000  0.715108  0.991676  1
  Os  Os35  1  0.250000  0.784892  0.491676  1
