# generated using pymatgen
data_Hf8Nb2ZnCuSb6
_symmetry_space_group_name_H-M   'P 1'
_cell_length_a   8.51826200
_cell_length_b   8.51826125
_cell_length_c   5.74095300
_cell_angle_alpha   90.00000000
_cell_angle_beta   90.00000000
_cell_angle_gamma   119.99999514
_symmetry_Int_Tables_number   1
_chemical_formula_structural   Hf8Nb2ZnCuSb6
_chemical_formula_sum   'Hf8 Nb2 Zn1 Cu1 Sb6'
_cell_volume   360.75851753
_cell_formula_units_Z   1
loop_
 _symmetry_equiv_pos_site_id
 _symmetry_equiv_pos_as_xyz
  1  'x, y, z'
loop_
 _atom_site_type_symbol
 _atom_site_label
 _atom_site_symmetry_multiplicity
 _atom_site_fract_x
 _atom_site_fract_y
 _atom_site_fract_z
 _atom_site_occupancy
  Hf  Hf0  1  0.333333  0.666667  0.500000  1
  Hf  Hf1  1  0.666667  0.333333  0.500000  1
  Hf  Hf2  1  0.733867  0.733867  0.743208  1
  Hf  Hf3  1  0.266133  0.000000  0.743208  1
  Hf  Hf4  1  0.000000  0.266133  0.743208  1
  Hf  Hf5  1  0.266133  0.266133  0.256792  1
  Hf  Hf6  1  0.733867  0.000000  0.256792  1
  Hf  Hf7  1  0.000000  0.733867  0.256792  1
  Nb  Nb8  1  0.666667  0.333333  0.000000  1
  Nb  Nb9  1  0.333333  0.666667  0.000000  1
  Zn  Zn10  1  0.000000  0.000000  0.000000  1
  Cu  Cu11  1  0.000000  0.000000  0.500000  1
  Sb  Sb12  1  0.387673  0.387673  0.755777  1
  Sb  Sb13  1  0.612327  0.000000  0.755777  1
  Sb  Sb14  1  0.000000  0.612327  0.755777  1
  Sb  Sb15  1  0.612327  0.612327  0.244223  1
  Sb  Sb16  1  0.387673  0.000000  0.244223  1
  Sb  Sb17  1  0.000000  0.387673  0.244223  1
