# generated using pymatgen
data_CeNd2Sm5(Si3Rh)4
_symmetry_space_group_name_H-M   'P 1'
_cell_length_a   8.22628501
_cell_length_b   8.22628490
_cell_length_c   8.28541400
_cell_angle_alpha   90.00000000
_cell_angle_beta   90.00000000
_cell_angle_gamma   119.99363668
_symmetry_Int_Tables_number   1
_chemical_formula_structural   CeNd2Sm5(Si3Rh)4
_chemical_formula_sum   'Ce1 Nd2 Sm5 Si12 Rh4'
_cell_volume   485.60168820
_cell_formula_units_Z   1
loop_
 _symmetry_equiv_pos_site_id
 _symmetry_equiv_pos_as_xyz
  1  'x, y, z'
loop_
 _atom_site_type_symbol
 _atom_site_label
 _atom_site_symmetry_multiplicity
 _atom_site_fract_x
 _atom_site_fract_y
 _atom_site_fract_z
 _atom_site_occupancy
  Ce  Ce0  1  0.999997  0.000003  0.750000  1
  Nd  Nd1  1  0.999996  0.000004  0.250000  1
  Nd  Nd2  1  0.501202  0.498798  0.250000  1
  Sm  Sm3  1  0.498832  0.501168  0.750000  1
  Sm  Sm4  1  0.498842  0.997728  0.750000  1
  Sm  Sm5  1  0.002272  0.501158  0.750000  1
  Sm  Sm6  1  0.997703  0.498834  0.250000  1
  Sm  Sm7  1  0.501166  0.002297  0.250000  1
  Si  Si8  1  0.833293  0.166707  0.999224  1
  Si  Si9  1  0.834023  0.667142  0.997917  1
  Si  Si10  1  0.332858  0.165977  0.997917  1
  Si  Si11  1  0.833293  0.166707  0.500776  1
  Si  Si12  1  0.834023  0.667142  0.502083  1
  Si  Si13  1  0.332858  0.165977  0.502083  1
  Si  Si14  1  0.166788  0.833212  0.502747  1
  Si  Si15  1  0.666953  0.833908  0.503820  1
  Si  Si16  1  0.166092  0.333047  0.503820  1
  Si  Si17  1  0.166788  0.833212  0.997253  1
  Si  Si18  1  0.666953  0.833908  0.996180  1
  Si  Si19  1  0.166092  0.333047  0.996180  1
  Rh  Rh20  1  0.666774  0.333226  0.995118  1
  Rh  Rh21  1  0.666774  0.333226  0.504882  1
  Rh  Rh22  1  0.333212  0.666788  0.494946  1
  Rh  Rh23  1  0.333212  0.666788  0.005054  1
