# generated using pymatgen
data_Hf10CuSn6Sb
_symmetry_space_group_name_H-M   'P 1'
_cell_length_a   8.66795500
_cell_length_b   8.66795592
_cell_length_c   5.88196700
_cell_angle_alpha   90.00000000
_cell_angle_beta   90.00000000
_cell_angle_gamma   120.00000031
_symmetry_Int_Tables_number   1
_chemical_formula_structural   Hf10CuSn6Sb
_chemical_formula_sum   'Hf10 Cu1 Sn6 Sb1'
_cell_volume   382.72475696
_cell_formula_units_Z   1
loop_
 _symmetry_equiv_pos_site_id
 _symmetry_equiv_pos_as_xyz
  1  'x, y, z'
loop_
 _atom_site_type_symbol
 _atom_site_label
 _atom_site_symmetry_multiplicity
 _atom_site_fract_x
 _atom_site_fract_y
 _atom_site_fract_z
 _atom_site_occupancy
  Hf  Hf0  1  0.728008  0.728008  0.733760  1
  Hf  Hf1  1  0.271992  0.000000  0.733760  1
  Hf  Hf2  1  0.000000  0.271992  0.733760  1
  Hf  Hf3  1  0.271992  0.271992  0.266240  1
  Hf  Hf4  1  0.728008  0.000000  0.266240  1
  Hf  Hf5  1  0.000000  0.728008  0.266240  1
  Hf  Hf6  1  0.666667  0.333333  0.000000  1
  Hf  Hf7  1  0.333333  0.666667  0.000000  1
  Hf  Hf8  1  0.333333  0.666667  0.500000  1
  Hf  Hf9  1  0.666667  0.333333  0.500000  1
  Cu  Cu10  1  0.000000  0.000000  0.500000  1
  Sn  Sn11  1  0.387181  0.387181  0.753828  1
  Sn  Sn12  1  0.612819  0.000000  0.753828  1
  Sn  Sn13  1  0.000000  0.612819  0.753828  1
  Sn  Sn14  1  0.612819  0.612819  0.246172  1
  Sn  Sn15  1  0.387181  0.000000  0.246172  1
  Sn  Sn16  1  0.000000  0.387181  0.246172  1
  Sb  Sb17  1  0.000000  0.000000  0.000000  1
