# generated using pymatgen
data_La5Sm2ThSe12
_symmetry_space_group_name_H-M   'P 1'
_cell_length_a   4.24271200
_cell_length_b   11.24148340
_cell_length_c   11.51850389
_cell_angle_alpha   90.43801944
_cell_angle_beta   90.00000000
_cell_angle_gamma   90.00000000
_symmetry_Int_Tables_number   1
_chemical_formula_structural   La5Sm2ThSe12
_chemical_formula_sum   'La5 Sm2 Th1 Se12'
_cell_volume   549.35180754
_cell_formula_units_Z   1
loop_
 _symmetry_equiv_pos_site_id
 _symmetry_equiv_pos_as_xyz
  1  'x, y, z'
loop_
 _atom_site_type_symbol
 _atom_site_label
 _atom_site_symmetry_multiplicity
 _atom_site_fract_x
 _atom_site_fract_y
 _atom_site_fract_z
 _atom_site_occupancy
  La  La0  1  0.250000  0.999805  0.696183  1
  La  La1  1  0.750000  0.002133  0.304224  1
  La  La2  1  0.750000  0.491891  0.810472  1
  La  La3  1  0.250000  0.506225  0.191010  1
  La  La4  1  0.250000  0.311976  0.510629  1
  Sm  Sm5  1  0.750000  0.813884  0.987019  1
  Sm  Sm6  1  0.250000  0.186152  0.013438  1
  Th  Th7  1  0.750000  0.686969  0.488950  1
  Se  Se8  1  0.750000  0.054742  0.884938  1
  Se  Se9  1  0.250000  0.943141  0.114982  1
  Se  Se10  1  0.250000  0.559111  0.620985  1
  Se  Se11  1  0.750000  0.447492  0.379111  1
  Se  Se12  1  0.250000  0.868414  0.452902  1
  Se  Se13  1  0.750000  0.124492  0.545985  1
  Se  Se14  1  0.750000  0.369027  0.047391  1
  Se  Se15  1  0.250000  0.632205  0.952722  1
  Se  Se16  1  0.250000  0.295620  0.773401  1
  Se  Se17  1  0.750000  0.706269  0.230700  1
  Se  Se18  1  0.750000  0.799526  0.725916  1
  Se  Se19  1  0.250000  0.200926  0.269041  1
