# generated using pymatgen
data_Dy4Tm4B24Ir3Rh
_symmetry_space_group_name_H-M   'P 1'
_cell_length_a   3.62937100
_cell_length_b   9.14119772
_cell_length_c   11.49681315
_cell_angle_alpha   90.02586184
_cell_angle_beta   90.00000000
_cell_angle_gamma   90.00000000
_symmetry_Int_Tables_number   1
_chemical_formula_structural   Dy4Tm4B24Ir3Rh
_chemical_formula_sum   'Dy4 Tm4 B24 Ir3 Rh1'
_cell_volume   381.42740758
_cell_formula_units_Z   1
loop_
 _symmetry_equiv_pos_site_id
 _symmetry_equiv_pos_as_xyz
  1  'x, y, z'
loop_
 _atom_site_type_symbol
 _atom_site_label
 _atom_site_symmetry_multiplicity
 _atom_site_fract_x
 _atom_site_fract_y
 _atom_site_fract_z
 _atom_site_occupancy
  Dy  Dy0  1  0.500000  0.322772  0.412854  1
  Dy  Dy1  1  0.500000  0.677508  0.586218  1
  Dy  Dy2  1  0.500000  0.178318  0.913332  1
  Dy  Dy3  1  0.500000  0.821699  0.087566  1
  Tm  Tm4  1  0.500000  0.445044  0.126115  1
  Tm  Tm5  1  0.500000  0.555683  0.874859  1
  Tm  Tm6  1  0.500000  0.055525  0.625017  1
  Tm  Tm7  1  0.500000  0.943294  0.374225  1
  B  B8  1  0.000000  0.108425  0.470086  1
  B  B9  1  0.000000  0.891199  0.529574  1
  B  B10  1  0.000000  0.391726  0.970545  1
  B  B11  1  0.000000  0.608719  0.029727  1
  B  B12  1  0.000000  0.131616  0.315694  1
  B  B13  1  0.000000  0.868179  0.683804  1
  B  B14  1  0.000000  0.368384  0.816212  1
  B  B15  1  0.000000  0.632068  0.184106  1
  B  B16  1  0.000000  0.053837  0.066524  1
  B  B17  1  0.000000  0.946478  0.933502  1
  B  B18  1  0.000000  0.446153  0.566453  1
  B  B19  1  0.000000  0.553425  0.433698  1
  B  B20  1  0.000000  0.482154  0.286720  1
  B  B21  1  0.000000  0.517798  0.713817  1
  B  B22  1  0.000000  0.018078  0.786350  1
  B  B23  1  0.000000  0.981890  0.213534  1
  B  B24  1  0.000000  0.250730  0.079710  1
  B  B25  1  0.000000  0.749621  0.920415  1
  B  B26  1  0.000000  0.249753  0.579385  1
  B  B27  1  0.000000  0.749827  0.420248  1
  B  B28  1  0.000000  0.293817  0.234302  1
  B  B29  1  0.000000  0.706472  0.765650  1
  B  B30  1  0.000000  0.206426  0.734163  1
  B  B31  1  0.000000  0.793611  0.265273  1
  Ir  Ir32  1  0.500000  0.138998  0.178971  1
  Ir  Ir33  1  0.500000  0.861472  0.820731  1
  Ir  Ir34  1  0.500000  0.360484  0.680205  1
  Rh  Rh35  1  0.500000  0.638821  0.320414  1
