# generated using pymatgen
data_Pr6Dy10MgCd3Ir4
_symmetry_space_group_name_H-M   'P 1'
_cell_length_a   9.79249440
_cell_length_b   9.79249384
_cell_length_c   9.79249416
_cell_angle_alpha   59.90395019
_cell_angle_beta   59.90395085
_cell_angle_gamma   59.90394804
_symmetry_Int_Tables_number   1
_chemical_formula_structural   Pr6Dy10MgCd3Ir4
_chemical_formula_sum   'Pr6 Dy10 Mg1 Cd3 Ir4'
_cell_volume   662.54837956
_cell_formula_units_Z   1
loop_
 _symmetry_equiv_pos_site_id
 _symmetry_equiv_pos_as_xyz
  1  'x, y, z'
loop_
 _atom_site_type_symbol
 _atom_site_label
 _atom_site_symmetry_multiplicity
 _atom_site_fract_x
 _atom_site_fract_y
 _atom_site_fract_z
 _atom_site_occupancy
  Pr  Pr0  1  0.941218  0.559276  0.559276  1
  Pr  Pr1  1  0.558090  0.941553  0.941553  1
  Pr  Pr2  1  0.559276  0.941218  0.559276  1
  Pr  Pr3  1  0.941553  0.558090  0.941553  1
  Pr  Pr4  1  0.559276  0.559276  0.941218  1
  Pr  Pr5  1  0.941553  0.941553  0.558090  1
  Dy  Dy6  1  0.346904  0.346904  0.346904  1
  Dy  Dy7  1  0.346856  0.346856  0.959928  1
  Dy  Dy8  1  0.346856  0.959928  0.346856  1
  Dy  Dy9  1  0.959928  0.346856  0.346856  1
  Dy  Dy10  1  0.812176  0.187343  0.187343  1
  Dy  Dy11  1  0.185536  0.813531  0.813531  1
  Dy  Dy12  1  0.187343  0.812176  0.187343  1
  Dy  Dy13  1  0.813531  0.185536  0.813531  1
  Dy  Dy14  1  0.187343  0.187343  0.812176  1
  Dy  Dy15  1  0.813531  0.813531  0.185536  1
  Mg  Mg16  1  0.576888  0.576888  0.576888  1
  Cd  Cd17  1  0.579469  0.579469  0.262076  1
  Cd  Cd18  1  0.579469  0.262076  0.579469  1
  Cd  Cd19  1  0.262076  0.579469  0.579469  1
  Ir  Ir20  1  0.141315  0.141315  0.141315  1
  Ir  Ir21  1  0.141845  0.141845  0.576120  1
  Ir  Ir22  1  0.141845  0.576120  0.141845  1
  Ir  Ir23  1  0.576120  0.141845  0.141845  1
