# generated using pymatgen
data_PaNi3Pt2
_symmetry_space_group_name_H-M   'P 1'
_cell_length_a   4.97243666
_cell_length_b   4.97243761
_cell_length_c   5.05156091
_cell_angle_alpha   60.51680691
_cell_angle_beta   60.51679300
_cell_angle_gamma   60.00000798
_symmetry_Int_Tables_number   1
_chemical_formula_structural   PaNi3Pt2
_chemical_formula_sum   'Pa1 Ni3 Pt2'
_cell_volume   89.00161395
_cell_formula_units_Z   1
loop_
 _symmetry_equiv_pos_site_id
 _symmetry_equiv_pos_as_xyz
  1  'x, y, z'
loop_
 _atom_site_type_symbol
 _atom_site_label
 _atom_site_symmetry_multiplicity
 _atom_site_fract_x
 _atom_site_fract_y
 _atom_site_fract_z
 _atom_site_occupancy
  Pa  Pa0  1  0.001801  0.001801  0.994599  1
  Ni  Ni1  1  0.625406  0.128351  0.620837  1
  Ni  Ni2  1  0.128351  0.625406  0.620837  1
  Ni  Ni3  1  0.625406  0.625406  0.620837  1
  Pt  Pt4  1  0.243185  0.243185  0.270445  1
  Pt  Pt5  1  0.625851  0.625851  0.122446  1
