# generated using pymatgen
data_Sr8LiMg6Si16Hg
_symmetry_space_group_name_H-M   'P 1'
_cell_length_a   4.40064200
_cell_length_b   11.43727135
_cell_length_c   14.44931100
_cell_angle_alpha   89.98486416
_cell_angle_beta   90.00000000
_cell_angle_gamma   90.00000000
_symmetry_Int_Tables_number   1
_chemical_formula_structural   Sr8LiMg6Si16Hg
_chemical_formula_sum   'Sr8 Li1 Mg6 Si16 Hg1'
_cell_volume   727.25311134
_cell_formula_units_Z   1
loop_
 _symmetry_equiv_pos_site_id
 _symmetry_equiv_pos_as_xyz
  1  'x, y, z'
loop_
 _atom_site_type_symbol
 _atom_site_label
 _atom_site_symmetry_multiplicity
 _atom_site_fract_x
 _atom_site_fract_y
 _atom_site_fract_z
 _atom_site_occupancy
  Sr  Sr0  1  0.250000  0.522785  0.197845  1
  Sr  Sr1  1  0.250000  0.739989  0.937561  1
  Sr  Sr2  1  0.750000  0.260577  0.061334  1
  Sr  Sr3  1  0.750000  0.246470  0.559721  1
  Sr  Sr4  1  0.250000  0.754330  0.440991  1
  Sr  Sr5  1  0.250000  0.975623  0.696416  1
  Sr  Sr6  1  0.750000  0.024545  0.304006  1
  Sr  Sr7  1  0.750000  0.476428  0.800701  1
  Li  Li8  1  0.750000  0.554984  0.557784  1
  Mg  Mg9  1  0.750000  0.941911  0.059428  1
  Mg  Mg10  1  0.250000  0.058422  0.940674  1
  Mg  Mg11  1  0.250000  0.677444  0.687333  1
  Mg  Mg12  1  0.750000  0.323213  0.310762  1
  Mg  Mg13  1  0.750000  0.178075  0.809178  1
  Mg  Mg14  1  0.250000  0.820170  0.190174  1
  Si  Si15  1  0.750000  0.951614  0.868186  1
  Si  Si16  1  0.250000  0.452415  0.635154  1
  Si  Si17  1  0.750000  0.548431  0.366926  1
  Si  Si18  1  0.250000  0.030469  0.467354  1
  Si  Si19  1  0.250000  0.047844  0.132863  1
  Si  Si20  1  0.250000  0.273977  0.722178  1
  Si  Si21  1  0.750000  0.725079  0.277500  1
  Si  Si22  1  0.750000  0.774774  0.776437  1
  Si  Si23  1  0.250000  0.212428  0.392144  1
  Si  Si24  1  0.750000  0.969861  0.533667  1
  Si  Si25  1  0.750000  0.529468  0.033634  1
  Si  Si26  1  0.250000  0.470845  0.965437  1
  Si  Si27  1  0.250000  0.287303  0.892465  1
  Si  Si28  1  0.750000  0.783531  0.605934  1
  Si  Si29  1  0.750000  0.712863  0.106093  1
  Si  Si30  1  0.250000  0.225237  0.222655  1
  Hg  Hg31  1  0.250000  0.448890  0.447462  1
