# generated using pymatgen
data_La4Nd2PtAu7
_symmetry_space_group_name_H-M   'P 1'
_cell_length_a   8.32038970
_cell_length_b   8.33267663
_cell_length_c   8.31797515
_cell_angle_alpha   113.71323488
_cell_angle_beta   113.68017130
_cell_angle_gamma   113.87040743
_symmetry_Int_Tables_number   1
_chemical_formula_structural   La4Nd2PtAu7
_chemical_formula_sum   'La4 Nd2 Pt1 Au7'
_cell_volume   356.65618450
_cell_formula_units_Z   1
loop_
 _symmetry_equiv_pos_site_id
 _symmetry_equiv_pos_as_xyz
  1  'x, y, z'
loop_
 _atom_site_type_symbol
 _atom_site_label
 _atom_site_symmetry_multiplicity
 _atom_site_fract_x
 _atom_site_fract_y
 _atom_site_fract_z
 _atom_site_occupancy
  La  La0  1  0.267818  0.387317  0.018574  1
  La  La1  1  0.388792  0.018625  0.268456  1
  La  La2  1  0.018141  0.268975  0.388076  1
  La  La3  1  0.732119  0.611689  0.981388  1
  Nd  Nd4  1  0.610270  0.981102  0.731556  1
  Nd  Nd5  1  0.981962  0.732081  0.611119  1
  Pt  Pt6  1  0.998547  0.998566  0.998007  1
  Au  Au7  1  0.502596  0.502991  0.501445  1
  Au  Au8  1  0.571067  0.235334  0.072965  1
  Au  Au9  1  0.234830  0.071512  0.571056  1
  Au  Au10  1  0.073101  0.570430  0.236095  1
  Au  Au11  1  0.429075  0.765301  0.926080  1
  Au  Au12  1  0.765173  0.926796  0.431232  1
  Au  Au13  1  0.926507  0.429281  0.763951  1
