# generated using pymatgen
data_Y3Ga5Ni9Sn
_symmetry_space_group_name_H-M   'P 1'
_cell_length_a   4.05906700
_cell_length_b   8.92561417
_cell_length_c   8.88097018
_cell_angle_alpha   60.58750656
_cell_angle_beta   90.00000000
_cell_angle_gamma   90.00000000
_symmetry_Int_Tables_number   1
_chemical_formula_structural   Y3Ga5Ni9Sn
_chemical_formula_sum   'Y3 Ga5 Ni9 Sn1'
_cell_volume   280.28258807
_cell_formula_units_Z   1
loop_
 _symmetry_equiv_pos_site_id
 _symmetry_equiv_pos_as_xyz
  1  'x, y, z'
loop_
 _atom_site_type_symbol
 _atom_site_label
 _atom_site_symmetry_multiplicity
 _atom_site_fract_x
 _atom_site_fract_y
 _atom_site_fract_z
 _atom_site_occupancy
  Y  Y0  1  0.500000  0.339327  0.330340  1
  Y  Y1  1  0.500000  0.660989  0.669035  1
  Y  Y2  1  0.000000  0.999563  0.012910  1
  Ga  Ga3  1  0.500000  0.726057  0.269949  1
  Ga  Ga4  1  0.500000  0.271438  0.996774  1
  Ga  Ga5  1  0.500000  0.999098  0.742352  1
  Ga  Ga6  1  0.000000  0.472125  0.521393  1
  Ga  Ga7  1  0.000000  0.529124  0.991686  1
  Ni  Ni8  1  0.000000  0.221800  0.157894  1
  Ni  Ni9  1  0.000000  0.170458  0.639852  1
  Ni  Ni10  1  0.000000  0.624630  0.199573  1
  Ni  Ni11  1  0.000000  0.829907  0.808211  1
  Ni  Ni12  1  0.000000  0.375704  0.823644  1
  Ni  Ni13  1  0.000000  0.779884  0.378106  1
  Ni  Ni14  1  0.500000  0.292970  0.707321  1
  Ni  Ni15  1  0.500000  0.706474  0.001171  1
  Ni  Ni16  1  0.500000  0.998947  0.276745  1
  Sn  Sn17  1  0.000000  0.001404  0.473147  1
