# generated using pymatgen
data_Eu4Sb3
_symmetry_space_group_name_H-M   'P 1'
_cell_length_a   8.41428795
_cell_length_b   8.41442609
_cell_length_c   8.41429300
_cell_angle_alpha   109.47144676
_cell_angle_beta   109.47095697
_cell_angle_gamma   109.47159968
_symmetry_Int_Tables_number   1
_chemical_formula_structural   Eu4Sb3
_chemical_formula_sum   'Eu8 Sb6'
_cell_volume   458.60182643
_cell_formula_units_Z   2
loop_
 _symmetry_equiv_pos_site_id
 _symmetry_equiv_pos_as_xyz
  1  'x, y, z'
loop_
 _atom_site_type_symbol
 _atom_site_label
 _atom_site_symmetry_multiplicity
 _atom_site_fract_x
 _atom_site_fract_y
 _atom_site_fract_z
 _atom_site_occupancy
  Eu  Eu0  1  0.141614  0.499998  0.999999  1
  Eu  Eu1  1  0.500000  0.999994  0.641617  1
  Eu  Eu2  1  0.358384  0.358384  0.358383  1
  Eu  Eu3  1  0.999997  0.141624  0.500000  1
  Eu  Eu4  1  0.858386  0.858385  0.858385  1
  Eu  Eu5  1  0.000003  0.641627  0.500002  1
  Eu  Eu6  1  0.641616  0.500000  0.999999  1
  Eu  Eu7  1  0.500000  0.999994  0.141618  1
  Sb  Sb8  1  0.875002  0.250000  0.125001  1
  Sb  Sb9  1  0.124998  0.874998  0.249999  1
  Sb  Sb10  1  0.374998  0.624997  0.749998  1
  Sb  Sb11  1  0.249998  0.124999  0.874998  1
  Sb  Sb12  1  0.750002  0.375001  0.625000  1
  Sb  Sb13  1  0.625002  0.749999  0.375000  1
