# generated using pymatgen
data_La2Nd6GaPd24
_symmetry_space_group_name_H-M   'P 1'
_cell_length_a   8.50894500
_cell_length_b   8.51195134
_cell_length_c   8.51195134
_cell_angle_alpha   90.03257908
_cell_angle_beta   90.00000000
_cell_angle_gamma   90.00000000
_symmetry_Int_Tables_number   1
_chemical_formula_structural   La2Nd6GaPd24
_chemical_formula_sum   'La2 Nd6 Ga1 Pd24'
_cell_volume   616.50117855
_cell_formula_units_Z   1
loop_
 _symmetry_equiv_pos_site_id
 _symmetry_equiv_pos_as_xyz
  1  'x, y, z'
loop_
 _atom_site_type_symbol
 _atom_site_label
 _atom_site_symmetry_multiplicity
 _atom_site_fract_x
 _atom_site_fract_y
 _atom_site_fract_z
 _atom_site_occupancy
  La  La0  1  0.252072  0.252034  0.747966  1
  La  La1  1  0.252072  0.747966  0.252034  1
  Nd  Nd2  1  0.748371  0.251731  0.251731  1
  Nd  Nd3  1  0.748371  0.748269  0.748269  1
  Nd  Nd4  1  0.748254  0.748197  0.251803  1
  Nd  Nd5  1  0.748254  0.251803  0.748197  1
  Nd  Nd6  1  0.251698  0.748297  0.748297  1
  Nd  Nd7  1  0.251698  0.251703  0.251703  1
  Ga  Ga8  1  0.999662  0.000000  0.000000  1
  Pd  Pd9  1  0.500296  0.500470  0.746485  1
  Pd  Pd10  1  0.500296  0.253515  0.499530  1
  Pd  Pd11  1  0.253523  0.500000  0.500000  1
  Pd  Pd12  1  0.500296  0.499530  0.253515  1
  Pd  Pd13  1  0.500296  0.746485  0.500470  1
  Pd  Pd14  1  0.746492  0.500000  0.500000  1
  Pd  Pd15  1  0.999616  0.999525  0.706442  1
  Pd  Pd16  1  0.999616  0.293558  0.000475  1
  Pd  Pd17  1  0.293642  0.000000  0.000000  1
  Pd  Pd18  1  0.999616  0.000475  0.293558  1
  Pd  Pd19  1  0.999616  0.706442  0.999525  1
  Pd  Pd20  1  0.706466  0.000000  0.000000  1
  Pd  Pd21  1  0.999676  0.500432  0.739231  1
  Pd  Pd22  1  0.500290  0.260776  0.000445  1
  Pd  Pd23  1  0.260734  0.000000  0.500000  1
  Pd  Pd24  1  0.999676  0.260769  0.499568  1
  Pd  Pd25  1  0.500290  0.999555  0.739224  1
  Pd  Pd26  1  0.260734  0.500000  0.000000  1
  Pd  Pd27  1  0.999676  0.499568  0.260769  1
  Pd  Pd28  1  0.500290  0.739224  0.999555  1
  Pd  Pd29  1  0.999676  0.739231  0.500432  1
  Pd  Pd30  1  0.500290  0.000445  0.260776  1
  Pd  Pd31  1  0.739220  0.000000  0.500000  1
  Pd  Pd32  1  0.739220  0.500000  0.000000  1
