# generated using pymatgen
data_KBe2P3O10
_symmetry_space_group_name_H-M   'P 1'
_cell_length_a   7.55768841
_cell_length_b   7.55768781
_cell_length_c   9.04232400
_cell_angle_alpha   67.76096857
_cell_angle_beta   67.76097065
_cell_angle_gamma   70.68331083
_symmetry_Int_Tables_number   1
_chemical_formula_structural   KBe2P3O10
_chemical_formula_sum   'K2 Be4 P6 O20'
_cell_volume   431.77128375
_cell_formula_units_Z   2
loop_
 _symmetry_equiv_pos_site_id
 _symmetry_equiv_pos_as_xyz
  1  'x, y, z'
loop_
 _atom_site_type_symbol
 _atom_site_label
 _atom_site_symmetry_multiplicity
 _atom_site_fract_x
 _atom_site_fract_y
 _atom_site_fract_z
 _atom_site_occupancy
  K  K0  1  0.695338  0.304662  0.250000  1
  K  K1  1  0.304662  0.695338  0.750000  1
  Be  Be2  1  0.699732  0.786406  0.938392  1
  Be  Be3  1  0.300268  0.213594  0.061608  1
  Be  Be4  1  0.213594  0.300268  0.561608  1
  Be  Be5  1  0.786406  0.699732  0.438392  1
  P  P6  1  0.867358  0.496794  0.754344  1
  P  P7  1  0.496794  0.867358  0.254344  1
  P  P8  1  0.132642  0.503206  0.245656  1
  P  P9  1  0.116438  0.883562  0.250000  1
  P  P10  1  0.883562  0.116438  0.750000  1
  P  P11  1  0.503206  0.132642  0.745656  1
  O  O12  1  0.603760  0.736943  0.138755  1
  O  O13  1  0.396240  0.263057  0.861245  1
  O  O14  1  0.263057  0.396240  0.361245  1
  O  O15  1  0.913440  0.535108  0.336993  1
  O  O16  1  0.724941  0.179610  0.651306  1
  O  O17  1  0.082444  0.130434  0.624478  1
  O  O18  1  0.820390  0.275059  0.848694  1
  O  O19  1  0.191747  0.422797  0.099140  1
  O  O20  1  0.736943  0.603760  0.638755  1
  O  O21  1  0.275059  0.820390  0.348694  1
  O  O22  1  0.535108  0.913440  0.836993  1
  O  O23  1  0.869566  0.917556  0.875522  1
  O  O24  1  0.464892  0.086560  0.163007  1
  O  O25  1  0.086560  0.464892  0.663007  1
  O  O26  1  0.577203  0.808253  0.400860  1
  O  O27  1  0.917556  0.869566  0.375522  1
  O  O28  1  0.179610  0.724941  0.151306  1
  O  O29  1  0.422797  0.191747  0.599140  1
  O  O30  1  0.808253  0.577203  0.900860  1
  O  O31  1  0.130434  0.082444  0.124478  1
