# generated using pymatgen
data_LiTe19
_symmetry_space_group_name_H-M   'P 1'
_cell_length_a   7.96740227
_cell_length_b   8.94102713
_cell_length_c   10.12016482
_cell_angle_alpha   103.09486505
_cell_angle_beta   96.93454769
_cell_angle_gamma   107.31739401
_symmetry_Int_Tables_number   1
_chemical_formula_structural   LiTe19
_chemical_formula_sum   'Li1 Te19'
_cell_volume   656.48086512
_cell_formula_units_Z   1
loop_
 _symmetry_equiv_pos_site_id
 _symmetry_equiv_pos_as_xyz
  1  'x, y, z'
loop_
 _atom_site_type_symbol
 _atom_site_label
 _atom_site_symmetry_multiplicity
 _atom_site_fract_x
 _atom_site_fract_y
 _atom_site_fract_z
 _atom_site_occupancy
  Li  Li0  1  0.000000  0.500000  0.000000  1
  Te  Te1  1  0.792059  0.579222  0.618857  1
  Te  Te2  1  0.635521  0.208747  0.198496  1
  Te  Te3  1  0.364479  0.791253  0.801504  1
  Te  Te4  1  0.594851  0.687268  0.192523  1
  Te  Te5  1  0.207941  0.420778  0.381143  1
  Te  Te6  1  0.405149  0.312732  0.807477  1
  Te  Te7  1  0.000000  0.000000  0.000000  1
  Te  Te8  1  0.198520  0.913939  0.393775  1
  Te  Te9  1  0.801480  0.086061  0.606225  1
  Te  Te10  1  0.706715  0.627834  0.906040  1
  Te  Te11  1  0.515212  0.255848  0.500682  1
  Te  Te12  1  0.711817  0.148779  0.909396  1
  Te  Te13  1  0.288183  0.851221  0.090604  1
  Te  Te14  1  0.484788  0.744152  0.499318  1
  Te  Te15  1  0.096009  0.465096  0.716471  1
  Te  Te16  1  0.293285  0.372166  0.093960  1
  Te  Te17  1  0.913056  0.039522  0.297866  1
  Te  Te18  1  0.086944  0.960478  0.702134  1
  Te  Te19  1  0.903991  0.534904  0.283529  1
