# generated using pymatgen
data_Tb2Er2Al4Pd3Ru
_symmetry_space_group_name_H-M   'P 1'
_cell_length_a   4.33734200
_cell_length_b   6.89786718
_cell_length_c   7.91705177
_cell_angle_alpha   90.10259678
_cell_angle_beta   90.00000000
_cell_angle_gamma   90.00000000
_symmetry_Int_Tables_number   1
_chemical_formula_structural   Tb2Er2Al4Pd3Ru
_chemical_formula_sum   'Tb2 Er2 Al4 Pd3 Ru1'
_cell_volume   236.86521343
_cell_formula_units_Z   1
loop_
 _symmetry_equiv_pos_site_id
 _symmetry_equiv_pos_as_xyz
  1  'x, y, z'
loop_
 _atom_site_type_symbol
 _atom_site_label
 _atom_site_symmetry_multiplicity
 _atom_site_fract_x
 _atom_site_fract_y
 _atom_site_fract_z
 _atom_site_occupancy
  Tb  Tb0  1  0.250000  0.036198  0.324051  1
  Tb  Tb1  1  0.250000  0.532401  0.178981  1
  Er  Er2  1  0.750000  0.977695  0.678993  1
  Er  Er3  1  0.750000  0.462439  0.814947  1
  Al  Al4  1  0.250000  0.143263  0.936001  1
  Al  Al5  1  0.250000  0.634003  0.563127  1
  Al  Al6  1  0.750000  0.859452  0.058884  1
  Al  Al7  1  0.750000  0.357228  0.444027  1
  Pd  Pd8  1  0.250000  0.772103  0.878206  1
  Pd  Pd9  1  0.750000  0.730705  0.378976  1
  Pd  Pd10  1  0.750000  0.230908  0.121763  1
  Ru  Ru11  1  0.250000  0.263604  0.622046  1
