# generated using pymatgen
data_GdDy3Y2(BO3)6
_symmetry_space_group_name_H-M   'P 1'
_cell_length_a   6.60759774
_cell_length_b   6.59661605
_cell_length_c   9.65868401
_cell_angle_alpha   70.37995009
_cell_angle_beta   70.39343912
_cell_angle_gamma   60.13302645
_symmetry_Int_Tables_number   1
_chemical_formula_structural   GdDy3Y2(BO3)6
_chemical_formula_sum   'Gd1 Dy3 Y2 B6 O18'
_cell_volume   336.50567999
_cell_formula_units_Z   1
loop_
 _symmetry_equiv_pos_site_id
 _symmetry_equiv_pos_as_xyz
  1  'x, y, z'
loop_
 _atom_site_type_symbol
 _atom_site_label
 _atom_site_symmetry_multiplicity
 _atom_site_fract_x
 _atom_site_fract_y
 _atom_site_fract_z
 _atom_site_occupancy
  Gd  Gd0  1  0.342746  0.829111  0.500851  1
  Dy  Dy1  1  0.828906  0.342681  0.000823  1
  Dy  Dy2  1  0.658211  0.170439  0.499230  1
  Dy  Dy3  1  0.171095  0.657234  0.999161  1
  Y  Y4  1  0.000583  0.499702  0.499989  1
  Y  Y5  1  0.500104  0.000031  0.000020  1
  B  B6  1  0.081793  0.157790  0.251885  1
  B  B7  1  0.845092  0.917708  0.246074  1
  B  B8  1  0.916101  0.843270  0.748096  1
  B  B9  1  0.155810  0.083430  0.754315  1
  B  B10  1  0.323414  0.675959  0.248920  1
  B  B11  1  0.677699  0.321895  0.750724  1
  O  O12  1  0.032481  0.219816  0.394842  1
  O  O13  1  0.782977  0.965401  0.103603  1
  O  O14  1  0.962853  0.782446  0.605146  1
  O  O15  1  0.216980  0.034806  0.897147  1
  O  O16  1  0.129807  0.314795  0.110686  1
  O  O17  1  0.689702  0.870045  0.388547  1
  O  O18  1  0.869361  0.685745  0.889346  1
  O  O19  1  0.312887  0.132514  0.612935  1
  O  O20  1  0.481336  0.614269  0.107814  1
  O  O21  1  0.385300  0.516610  0.390199  1
  O  O22  1  0.518894  0.385256  0.891403  1
  O  O23  1  0.618544  0.477659  0.608241  1
  O  O24  1  0.084284  0.700476  0.246715  1
  O  O25  1  0.298494  0.916916  0.250498  1
  O  O26  1  0.916056  0.299350  0.753355  1
  O  O27  1  0.700375  0.083031  0.748391  1
  O  O28  1  0.866497  0.134619  0.249054  1
  O  O29  1  0.131619  0.866999  0.751993  1
