# generated using pymatgen
data_Hf18Ga2Mo7W
_symmetry_space_group_name_H-M   'P 1'
_cell_length_a   8.67096700
_cell_length_b   8.67096801
_cell_length_c   8.72268400
_cell_angle_alpha   90.00000000
_cell_angle_beta   90.00000000
_cell_angle_gamma   120.00000758
_symmetry_Int_Tables_number   1
_chemical_formula_structural   Hf18Ga2Mo7W
_chemical_formula_sum   'Hf18 Ga2 Mo7 W1'
_cell_volume   567.95752159
_cell_formula_units_Z   1
loop_
 _symmetry_equiv_pos_site_id
 _symmetry_equiv_pos_as_xyz
  1  'x, y, z'
loop_
 _atom_site_type_symbol
 _atom_site_label
 _atom_site_symmetry_multiplicity
 _atom_site_fract_x
 _atom_site_fract_y
 _atom_site_fract_z
 _atom_site_occupancy
  Hf  Hf0  1  0.607942  0.803970  0.045287  1
  Hf  Hf1  1  0.802746  0.605493  0.544949  1
  Hf  Hf2  1  0.196030  0.392058  0.045287  1
  Hf  Hf3  1  0.196030  0.803970  0.045287  1
  Hf  Hf4  1  0.802746  0.197254  0.544949  1
  Hf  Hf5  1  0.394507  0.197254  0.544949  1
  Hf  Hf6  1  0.803970  0.607942  0.954713  1
  Hf  Hf7  1  0.803970  0.196030  0.954713  1
  Hf  Hf8  1  0.392058  0.196030  0.954713  1
  Hf  Hf9  1  0.605493  0.802746  0.455051  1
  Hf  Hf10  1  0.197254  0.802746  0.455051  1
  Hf  Hf11  1  0.197254  0.394507  0.455051  1
  Hf  Hf12  1  0.538789  0.077579  0.249622  1
  Hf  Hf13  1  0.461211  0.922421  0.750378  1
  Hf  Hf14  1  0.922421  0.461211  0.249622  1
  Hf  Hf15  1  0.538789  0.461211  0.249622  1
  Hf  Hf16  1  0.461211  0.538789  0.750378  1
  Hf  Hf17  1  0.077579  0.538789  0.750378  1
  Ga  Ga18  1  0.666667  0.333333  0.751414  1
  Ga  Ga19  1  0.333333  0.666667  0.248586  1
  Mo  Mo20  1  0.000000  0.000000  0.500000  1
  Mo  Mo21  1  0.889180  0.778359  0.250534  1
  Mo  Mo22  1  0.110820  0.221641  0.749466  1
  Mo  Mo23  1  0.221641  0.110820  0.250534  1
  Mo  Mo24  1  0.889180  0.110820  0.250534  1
  Mo  Mo25  1  0.110820  0.889180  0.749466  1
  Mo  Mo26  1  0.778359  0.889180  0.749466  1
  W  W27  1  0.000000  0.000000  0.000000  1
