# generated using pymatgen
data_Sn3OsPb4O13
_symmetry_space_group_name_H-M   'P 1'
_cell_length_a   7.60039681
_cell_length_b   7.60039701
_cell_length_c   7.60039688
_cell_angle_alpha   59.59345557
_cell_angle_beta   59.59345515
_cell_angle_gamma   59.59345701
_symmetry_Int_Tables_number   1
_chemical_formula_structural   Sn3OsPb4O13
_chemical_formula_sum   'Sn3 Os1 Pb4 O13'
_cell_volume   307.58276750
_cell_formula_units_Z   1
loop_
 _symmetry_equiv_pos_site_id
 _symmetry_equiv_pos_as_xyz
  1  'x, y, z'
loop_
 _atom_site_type_symbol
 _atom_site_label
 _atom_site_symmetry_multiplicity
 _atom_site_fract_x
 _atom_site_fract_y
 _atom_site_fract_z
 _atom_site_occupancy
  Sn  Sn0  1  0.000025  0.499592  0.499592  1
  Sn  Sn1  1  0.499592  0.000025  0.499592  1
  Sn  Sn2  1  0.499592  0.499592  0.000025  1
  Os  Os3  1  0.499410  0.499410  0.499410  1
  Pb  Pb4  1  0.501207  0.999051  0.999051  1
  Pb  Pb5  1  0.999051  0.501207  0.999051  1
  Pb  Pb6  1  0.999051  0.999051  0.501207  1
  Pb  Pb7  1  0.999150  0.999150  0.999150  1
  O  O8  1  0.830763  0.830763  0.425460  1
  O  O9  1  0.429181  0.429181  0.807044  1
  O  O10  1  0.830763  0.425460  0.830763  1
  O  O11  1  0.429181  0.807044  0.429181  1
  O  O12  1  0.425460  0.830763  0.830763  1
  O  O13  1  0.807044  0.429181  0.429181  1
  O  O14  1  0.171819  0.171819  0.572178  1
  O  O15  1  0.568620  0.568620  0.195132  1
  O  O16  1  0.171819  0.572178  0.171819  1
  O  O17  1  0.568620  0.195132  0.568620  1
  O  O18  1  0.572178  0.171819  0.171819  1
  O  O19  1  0.195132  0.568620  0.568620  1
  O  O20  1  0.127342  0.127342  0.127342  1
