# generated using pymatgen
data_Sr3Ca(ScSe2)8
_symmetry_space_group_name_H-M   'P 1'
_cell_length_a   3.96550900
_cell_length_b   12.27122952
_cell_length_c   14.34516169
_cell_angle_alpha   90.01109138
_cell_angle_beta   90.00000000
_cell_angle_gamma   90.00000000
_symmetry_Int_Tables_number   1
_chemical_formula_structural   Sr3Ca(ScSe2)8
_chemical_formula_sum   'Sr3 Ca1 Sc8 Se16'
_cell_volume   698.05952709
_cell_formula_units_Z   1
loop_
 _symmetry_equiv_pos_site_id
 _symmetry_equiv_pos_as_xyz
  1  'x, y, z'
loop_
 _atom_site_type_symbol
 _atom_site_label
 _atom_site_symmetry_multiplicity
 _atom_site_fract_x
 _atom_site_fract_y
 _atom_site_fract_z
 _atom_site_occupancy
  Sr  Sr0  1  0.250000  0.238152  0.331136  1
  Sr  Sr1  1  0.750000  0.261604  0.830505  1
  Sr  Sr2  1  0.250000  0.738171  0.169255  1
  Ca  Ca3  1  0.750000  0.761877  0.669668  1
  Sc  Sc4  1  0.250000  0.080498  0.597189  1
  Sc  Sc5  1  0.250000  0.057512  0.110126  1
  Sc  Sc6  1  0.750000  0.418979  0.096667  1
  Sc  Sc7  1  0.750000  0.940985  0.888240  1
  Sc  Sc8  1  0.750000  0.444451  0.610831  1
  Sc  Sc9  1  0.250000  0.558420  0.390972  1
  Sc  Sc10  1  0.750000  0.917555  0.404750  1
  Sc  Sc11  1  0.250000  0.581734  0.902579  1
  Se  Se12  1  0.250000  0.872618  0.532240  1
  Se  Se13  1  0.250000  0.795600  0.833977  1
  Se  Se14  1  0.250000  0.970310  0.285562  1
  Se  Se15  1  0.750000  0.411414  0.425861  1
  Se  Se16  1  0.250000  0.470829  0.215351  1
  Se  Se17  1  0.250000  0.088365  0.924955  1
  Se  Se18  1  0.750000  0.203085  0.159972  1
  Se  Se19  1  0.750000  0.027056  0.714664  1
  Se  Se20  1  0.250000  0.593022  0.576423  1
  Se  Se21  1  0.750000  0.703181  0.340082  1
  Se  Se22  1  0.250000  0.297230  0.659767  1
  Se  Se23  1  0.250000  0.375584  0.970996  1
  Se  Se24  1  0.750000  0.625109  0.028207  1
  Se  Se25  1  0.750000  0.531818  0.783962  1
  Se  Se26  1  0.750000  0.124036  0.471691  1
  Se  Se27  1  0.750000  0.910802  0.074375  1
