# generated using pymatgen
data_TbEr4(SiSb)2
_symmetry_space_group_name_H-M   'P 1'
_cell_length_a   8.44937401
_cell_length_b   8.47876247
_cell_length_c   7.79945539
_cell_angle_alpha   89.91499502
_cell_angle_beta   89.82073579
_cell_angle_gamma   125.31710615
_symmetry_Int_Tables_number   1
_chemical_formula_structural   TbEr4(SiSb)2
_chemical_formula_sum   'Tb2 Er8 Si4 Sb4'
_cell_volume   455.91844970
_cell_formula_units_Z   2
loop_
 _symmetry_equiv_pos_site_id
 _symmetry_equiv_pos_as_xyz
  1  'x, y, z'
loop_
 _atom_site_type_symbol
 _atom_site_label
 _atom_site_symmetry_multiplicity
 _atom_site_fract_x
 _atom_site_fract_y
 _atom_site_fract_z
 _atom_site_occupancy
  Tb  Tb0  1  0.702246  0.956863  0.669327  1
  Tb  Tb1  1  0.297754  0.043137  0.330673  1
  Er  Er2  1  0.042718  0.294532  0.331812  1
  Er  Er3  1  0.957282  0.705468  0.668188  1
  Er  Er4  1  0.457183  0.205691  0.831692  1
  Er  Er5  1  0.795194  0.543450  0.168532  1
  Er  Er6  1  0.542817  0.794309  0.168308  1
  Er  Er7  1  0.204806  0.456550  0.831468  1
  Er  Er8  1  0.000000  0.000000  0.000000  1
  Er  Er9  1  0.500000  0.500000  0.500000  1
  Si  Si10  1  0.372667  0.373899  0.125479  1
  Si  Si11  1  0.627333  0.626101  0.874521  1
  Si  Si12  1  0.128412  0.128177  0.627547  1
  Si  Si13  1  0.871588  0.871823  0.372453  1
  Sb  Sb14  1  0.793324  0.207517  0.002589  1
  Sb  Sb15  1  0.206676  0.792483  0.997411  1
  Sb  Sb16  1  0.709137  0.297128  0.501258  1
  Sb  Sb17  1  0.290863  0.702872  0.498742  1
