# generated using pymatgen
data_Th3SnRu2RhPb2
_symmetry_space_group_name_H-M   'P 1'
_cell_length_a   7.66019079
_cell_length_b   7.64529403
_cell_length_c   4.13462400
_cell_angle_alpha   90.00000000
_cell_angle_beta   90.00000000
_cell_angle_gamma   119.93568274
_symmetry_Int_Tables_number   1
_chemical_formula_structural   Th3SnRu2RhPb2
_chemical_formula_sum   'Th3 Sn1 Ru2 Rh1 Pb2'
_cell_volume   209.83674240
_cell_formula_units_Z   1
loop_
 _symmetry_equiv_pos_site_id
 _symmetry_equiv_pos_as_xyz
  1  'x, y, z'
loop_
 _atom_site_type_symbol
 _atom_site_label
 _atom_site_symmetry_multiplicity
 _atom_site_fract_x
 _atom_site_fract_y
 _atom_site_fract_z
 _atom_site_occupancy
  Th  Th0  1  0.408315  0.414893  0.500000  1
  Th  Th1  1  0.591685  0.006578  0.500000  1
  Th  Th2  1  0.000000  0.581667  0.500000  1
  Sn  Sn3  1  0.000000  0.252530  0.000000  1
  Ru  Ru4  1  0.673255  0.329221  0.000000  1
  Ru  Ru5  1  0.326745  0.655966  0.000000  1
  Rh  Rh6  1  0.000000  0.012863  0.500000  1
  Pb  Pb7  1  0.746973  0.746628  0.000000  1
  Pb  Pb8  1  0.253027  0.999655  0.000000  1
