# generated using pymatgen
data_Rb2Se(S4O13)2
_symmetry_space_group_name_H-M   'P 1'
_cell_length_a   7.79372630
_cell_length_b   8.96995114
_cell_length_c   9.53965408
_cell_angle_alpha   107.89617390
_cell_angle_beta   88.26306054
_cell_angle_gamma   107.49413519
_symmetry_Int_Tables_number   1
_chemical_formula_structural   Rb2Se(S4O13)2
_chemical_formula_sum   'Rb2 Se1 S8 O26'
_cell_volume   603.87188785
_cell_formula_units_Z   1
loop_
 _symmetry_equiv_pos_site_id
 _symmetry_equiv_pos_as_xyz
  1  'x, y, z'
loop_
 _atom_site_type_symbol
 _atom_site_label
 _atom_site_symmetry_multiplicity
 _atom_site_fract_x
 _atom_site_fract_y
 _atom_site_fract_z
 _atom_site_occupancy
  Rb  Rb0  1  0.132525  0.267520  0.879648  1
  Rb  Rb1  1  0.867475  0.732480  0.120352  1
  Se  Se2  1  0.500000  0.500000  0.500000  1
  S  S3  1  0.671695  0.358720  0.710565  1
  S  S4  1  0.328305  0.641280  0.289435  1
  S  S5  1  0.873601  0.190673  0.482682  1
  S  S6  1  0.126399  0.809327  0.517318  1
  S  S7  1  0.389418  0.150284  0.224310  1
  S  S8  1  0.610582  0.849716  0.775690  1
  S  S9  1  0.787871  0.222901  0.196916  1
  S  S10  1  0.212129  0.777099  0.803084  1
  O  O11  1  0.699118  0.186334  0.573647  1
  O  O12  1  0.300882  0.813666  0.426353  1
  O  O13  1  0.705623  0.480673  0.626396  1
  O  O14  1  0.294377  0.519327  0.373604  1
  O  O15  1  0.813077  0.406520  0.823724  1
  O  O16  1  0.186923  0.593480  0.176276  1
  O  O17  1  0.846953  0.298053  0.375925  1
  O  O18  1  0.153047  0.701947  0.624075  1
  O  O19  1  0.033308  0.292819  0.573767  1
  O  O20  1  0.966692  0.707181  0.426233  1
  O  O21  1  0.487990  0.292658  0.739833  1
  O  O22  1  0.512010  0.707342  0.260167  1
  O  O23  1  0.851597  0.024951  0.394925  1
  O  O24  1  0.148403  0.975049  0.605075  1
  O  O25  1  0.416757  0.242390  0.386495  1
  O  O26  1  0.583243  0.757610  0.613505  1
  O  O27  1  0.594853  0.097057  0.188449  1
  O  O28  1  0.405147  0.902943  0.811551  1
  O  O29  1  0.783883  0.364825  0.161068  1
  O  O30  1  0.216117  0.635175  0.838932  1
  O  O31  1  0.903293  0.128267  0.126967  1
  O  O32  1  0.096707  0.871733  0.873033  1
  O  O33  1  0.382943  0.245180  0.129027  1
  O  O34  1  0.617057  0.754820  0.870973  1
  O  O35  1  0.268013  0.987083  0.195546  1
  O  O36  1  0.731987  0.012917  0.804454  1
