# generated using pymatgen
data_Ac4Zn4Ir3Rh
_symmetry_space_group_name_H-M   'P 1'
_cell_length_a   4.18362900
_cell_length_b   7.61475190
_cell_length_c   17.09888100
_cell_angle_alpha   90.09240613
_cell_angle_beta   90.00000000
_cell_angle_gamma   90.00000000
_symmetry_Int_Tables_number   1
_chemical_formula_structural   Ac4Zn4Ir3Rh
_chemical_formula_sum   'Ac8 Zn8 Ir6 Rh2'
_cell_volume   544.72342008
_cell_formula_units_Z   2
loop_
 _symmetry_equiv_pos_site_id
 _symmetry_equiv_pos_as_xyz
  1  'x, y, z'
loop_
 _atom_site_type_symbol
 _atom_site_label
 _atom_site_symmetry_multiplicity
 _atom_site_fract_x
 _atom_site_fract_y
 _atom_site_fract_z
 _atom_site_occupancy
  Ac  Ac0  1  0.250000  0.170337  0.939796  1
  Ac  Ac1  1  0.250000  0.669345  0.560994  1
  Ac  Ac2  1  0.750000  0.330655  0.439006  1
  Ac  Ac3  1  0.750000  0.957490  0.279920  1
  Ac  Ac4  1  0.750000  0.829663  0.060204  1
  Ac  Ac5  1  0.750000  0.458702  0.220853  1
  Ac  Ac6  1  0.250000  0.042510  0.720080  1
  Ac  Ac7  1  0.250000  0.541298  0.779147  1
  Zn  Zn8  1  0.750000  0.001898  0.559070  1
  Zn  Zn9  1  0.250000  0.646975  0.355001  1
  Zn  Zn10  1  0.750000  0.353025  0.644999  1
  Zn  Zn11  1  0.250000  0.498328  0.059542  1
  Zn  Zn12  1  0.750000  0.501672  0.940458  1
  Zn  Zn13  1  0.250000  0.998102  0.440930  1
  Zn  Zn14  1  0.250000  0.145135  0.147251  1
  Zn  Zn15  1  0.750000  0.854865  0.852749  1
  Ir  Ir16  1  0.750000  0.766463  0.434331  1
  Ir  Ir17  1  0.250000  0.237043  0.313047  1
  Ir  Ir18  1  0.750000  0.260788  0.816064  1
  Ir  Ir19  1  0.750000  0.762957  0.686953  1
  Ir  Ir20  1  0.250000  0.233537  0.565669  1
  Ir  Ir21  1  0.250000  0.739212  0.183936  1
  Rh  Rh22  1  0.750000  0.265907  0.066582  1
  Rh  Rh23  1  0.250000  0.734093  0.933418  1
