# generated using pymatgen
data_Ca8AcThIr4
_symmetry_space_group_name_H-M   'P 1'
_cell_length_a   6.70936854
_cell_length_b   7.52774504
_cell_length_c   8.73271300
_cell_angle_alpha   97.16561927
_cell_angle_beta   112.59105605
_cell_angle_gamma   89.99998645
_symmetry_Int_Tables_number   1
_chemical_formula_structural   Ca8AcThIr4
_chemical_formula_sum   'Ca8 Ac1 Th1 Ir4'
_cell_volume   403.48212979
_cell_formula_units_Z   1
loop_
 _symmetry_equiv_pos_site_id
 _symmetry_equiv_pos_as_xyz
  1  'x, y, z'
loop_
 _atom_site_type_symbol
 _atom_site_label
 _atom_site_symmetry_multiplicity
 _atom_site_fract_x
 _atom_site_fract_y
 _atom_site_fract_z
 _atom_site_occupancy
  Ca  Ca0  1  0.983421  0.918353  0.177618  1
  Ca  Ca1  1  0.805802  0.581647  0.822382  1
  Ca  Ca2  1  0.012186  0.085310  0.821212  1
  Ca  Ca3  1  0.190975  0.414690  0.178788  1
  Ca  Ca4  1  0.644669  0.822696  0.442056  1
  Ca  Ca5  1  0.202613  0.677304  0.557944  1
  Ca  Ca6  1  0.357835  0.179411  0.559649  1
  Ca  Ca7  1  0.798186  0.320589  0.440351  1
  Ac  Ac8  1  0.421956  0.750000  0.000000  1
  Th  Th9  1  0.568154  0.250000  0.000000  1
  Ir  Ir10  1  0.807242  0.563409  0.206329  1
  Ir  Ir11  1  0.600913  0.936591  0.793671  1
  Ir  Ir12  1  0.197254  0.414322  0.788457  1
  Ir  Ir13  1  0.408797  0.085678  0.211543  1
