# generated using pymatgen
data_Er12CdCo4Ru
_symmetry_space_group_name_H-M   'P 1'
_cell_length_a   8.25015588
_cell_length_b   8.25015555
_cell_length_c   8.25015501
_cell_angle_alpha   110.50264614
_cell_angle_beta   111.40736808
_cell_angle_gamma   106.54406436
_symmetry_Int_Tables_number   1
_chemical_formula_structural   Er12CdCo4Ru
_chemical_formula_sum   'Er12 Cd1 Co4 Ru1'
_cell_volume   431.41029947
_cell_formula_units_Z   1
loop_
 _symmetry_equiv_pos_site_id
 _symmetry_equiv_pos_as_xyz
  1  'x, y, z'
loop_
 _atom_site_type_symbol
 _atom_site_label
 _atom_site_symmetry_multiplicity
 _atom_site_fract_x
 _atom_site_fract_y
 _atom_site_fract_z
 _atom_site_occupancy
  Er  Er0  1  0.285012  0.183212  0.468224  1
  Er  Er1  1  0.714988  0.816788  0.531776  1
  Er  Er2  1  0.285012  0.816788  0.101799  1
  Er  Er3  1  0.714988  0.183212  0.898201  1
  Er  Er4  1  0.620521  0.313776  0.306746  1
  Er  Er5  1  0.379479  0.686224  0.693254  1
  Er  Er6  1  0.007031  0.313776  0.693254  1
  Er  Er7  1  0.992969  0.686224  0.306746  1
  Er  Er8  1  0.216473  0.411067  0.194594  1
  Er  Er9  1  0.783527  0.588933  0.805406  1
  Er  Er10  1  0.216473  0.021878  0.805406  1
  Er  Er11  1  0.783527  0.978122  0.194594  1
  Cd  Cd12  1  0.500000  0.500000  0.000000  1
  Co  Co13  1  0.000000  0.376644  0.376644  1
  Co  Co14  1  0.000000  0.623356  0.623356  1
  Co  Co15  1  0.388097  0.888097  0.500000  1
  Co  Co16  1  0.611903  0.111903  0.500000  1
  Ru  Ru17  1  0.000000  0.000000  0.000000  1
