# generated using pymatgen
data_CePr3As3O4
_symmetry_space_group_name_H-M   'P 1'
_cell_length_a   7.04460098
_cell_length_b   7.04459908
_cell_length_c   8.06218100
_cell_angle_alpha   89.99700545
_cell_angle_beta   90.00299320
_cell_angle_gamma   146.43244680
_symmetry_Int_Tables_number   1
_chemical_formula_structural   CePr3As3O4
_chemical_formula_sum   'Ce1 Pr3 As3 O4'
_cell_volume   221.22150675
_cell_formula_units_Z   1
loop_
 _symmetry_equiv_pos_site_id
 _symmetry_equiv_pos_as_xyz
  1  'x, y, z'
loop_
 _atom_site_type_symbol
 _atom_site_label
 _atom_site_symmetry_multiplicity
 _atom_site_fract_x
 _atom_site_fract_y
 _atom_site_fract_z
 _atom_site_occupancy
  Ce  Ce0  1  0.985770  0.014230  0.500015  1
  Pr  Pr1  1  0.314415  0.685585  0.239711  1
  Pr  Pr2  1  0.001466  0.998534  0.000008  1
  Pr  Pr3  1  0.314397  0.685603  0.760275  1
  As  As4  1  0.634852  0.365148  0.682711  1
  As  As5  1  0.634873  0.365127  0.317275  1
  As  As6  1  0.683787  0.316213  0.999993  1
  O  O7  1  0.412375  0.587625  0.999998  1
  O  O8  1  0.909705  0.090295  0.744576  1
  O  O9  1  0.909723  0.090277  0.255432  1
  O  O10  1  0.396530  0.603470  0.500005  1
