# generated using pymatgen
data_Y16ZnIn6Cu
_symmetry_space_group_name_H-M   'P 1'
_cell_length_a   10.62222300
_cell_length_b   10.62222415
_cell_length_c   6.91007400
_cell_angle_alpha   90.00000000
_cell_angle_beta   90.00000000
_cell_angle_gamma   119.99999954
_symmetry_Int_Tables_number   1
_chemical_formula_structural   Y16ZnIn6Cu
_chemical_formula_sum   'Y16 Zn1 In6 Cu1'
_cell_volume   675.21830626
_cell_formula_units_Z   1
loop_
 _symmetry_equiv_pos_site_id
 _symmetry_equiv_pos_as_xyz
  1  'x, y, z'
loop_
 _atom_site_type_symbol
 _atom_site_label
 _atom_site_symmetry_multiplicity
 _atom_site_fract_x
 _atom_site_fract_y
 _atom_site_fract_z
 _atom_site_occupancy
  Y  Y0  1  0.473893  0.526107  0.477179  1
  Y  Y1  1  0.052213  0.526107  0.477179  1
  Y  Y2  1  0.473893  0.947787  0.477179  1
  Y  Y3  1  0.524069  0.475931  0.977673  1
  Y  Y4  1  0.951862  0.475931  0.977673  1
  Y  Y5  1  0.524069  0.048138  0.977673  1
  Y  Y6  1  0.827869  0.172131  0.264269  1
  Y  Y7  1  0.344260  0.172131  0.264269  1
  Y  Y8  1  0.827869  0.655740  0.264269  1
  Y  Y9  1  0.175005  0.824995  0.764702  1
  Y  Y10  1  0.649989  0.824995  0.764702  1
  Y  Y11  1  0.175005  0.350011  0.764702  1
  Y  Y12  1  0.333333  0.666667  0.108544  1
  Y  Y13  1  0.666667  0.333333  0.624660  1
  Y  Y14  1  0.000000  0.000000  0.499004  1
  Y  Y15  1  0.000000  0.000000  0.997433  1
  Zn  Zn16  1  0.666667  0.333333  0.201548  1
  In  In17  1  0.164666  0.835334  0.242161  1
  In  In18  1  0.670666  0.835334  0.242161  1
  In  In19  1  0.164666  0.329334  0.242161  1
  In  In20  1  0.836099  0.163901  0.742496  1
  In  In21  1  0.327801  0.163901  0.742496  1
  In  In22  1  0.836099  0.672199  0.742496  1
  Cu  Cu23  1  0.333333  0.666667  0.707929  1
