# generated using pymatgen
data_LiTb8Co2Hg
_symmetry_space_group_name_H-M   'P 1'
_cell_length_a   9.52719840
_cell_length_b   9.52719933
_cell_length_c   9.56445400
_cell_angle_alpha   59.87056219
_cell_angle_beta   59.87055894
_cell_angle_gamma   59.83781028
_symmetry_Int_Tables_number   1
_chemical_formula_structural   LiTb8Co2Hg
_chemical_formula_sum   'Li2 Tb16 Co4 Hg2'
_cell_volume   611.91359892
_cell_formula_units_Z   2
loop_
 _symmetry_equiv_pos_site_id
 _symmetry_equiv_pos_as_xyz
  1  'x, y, z'
loop_
 _atom_site_type_symbol
 _atom_site_label
 _atom_site_symmetry_multiplicity
 _atom_site_fract_x
 _atom_site_fract_y
 _atom_site_fract_z
 _atom_site_occupancy
  Li  Li0  1  0.817972  0.817972  0.537940  1
  Li  Li1  1  0.817972  0.817972  0.826114  1
  Tb  Tb2  1  0.441101  0.441101  0.058899  1
  Tb  Tb3  1  0.595935  0.595935  0.598326  1
  Tb  Tb4  1  0.188151  0.812693  0.812940  1
  Tb  Tb5  1  0.066659  0.066659  0.433341  1
  Tb  Tb6  1  0.436344  0.064531  0.061659  1
  Tb  Tb7  1  0.812693  0.188151  0.812940  1
  Tb  Tb8  1  0.436344  0.064531  0.437466  1
  Tb  Tb9  1  0.594954  0.217033  0.594007  1
  Tb  Tb10  1  0.809769  0.809769  0.190231  1
  Tb  Tb11  1  0.217033  0.594954  0.594007  1
  Tb  Tb12  1  0.812693  0.188151  0.186216  1
  Tb  Tb13  1  0.064531  0.436344  0.437466  1
  Tb  Tb14  1  0.188151  0.812693  0.186216  1
  Tb  Tb15  1  0.595935  0.595935  0.209805  1
  Tb  Tb16  1  0.186757  0.186757  0.813243  1
  Tb  Tb17  1  0.064531  0.436344  0.061659  1
  Co  Co18  1  0.393855  0.393855  0.387049  1
  Co  Co19  1  0.829337  0.396516  0.387073  1
  Co  Co20  1  0.396516  0.829337  0.387073  1
  Co  Co21  1  0.393855  0.393855  0.825243  1
  Hg  Hg22  1  0.499775  0.839136  0.830543  1
  Hg  Hg23  1  0.839136  0.499775  0.830543  1
