# generated using pymatgen
data_Zn3GaPd8
_symmetry_space_group_name_H-M   'P 1'
_cell_length_a   4.16046900
_cell_length_b   5.43661751
_cell_length_c   7.93053482
_cell_angle_alpha   89.91843542
_cell_angle_beta   90.00000000
_cell_angle_gamma   90.00000000
_symmetry_Int_Tables_number   1
_chemical_formula_structural   Zn3GaPd8
_chemical_formula_sum   'Zn3 Ga1 Pd8'
_cell_volume   179.37962278
_cell_formula_units_Z   1
loop_
 _symmetry_equiv_pos_site_id
 _symmetry_equiv_pos_as_xyz
  1  'x, y, z'
loop_
 _atom_site_type_symbol
 _atom_site_label
 _atom_site_symmetry_multiplicity
 _atom_site_fract_x
 _atom_site_fract_y
 _atom_site_fract_z
 _atom_site_occupancy
  Zn  Zn0  1  0.750000  0.181289  0.400620  1
  Zn  Zn1  1  0.250000  0.817873  0.595485  1
  Zn  Zn2  1  0.750000  0.691570  0.103644  1
  Ga  Ga3  1  0.250000  0.313417  0.900109  1
  Pd  Pd4  1  0.750000  0.173986  0.067585  1
  Pd  Pd5  1  0.250000  0.831375  0.928132  1
  Pd  Pd6  1  0.750000  0.666281  0.430661  1
  Pd  Pd7  1  0.250000  0.332164  0.572992  1
  Pd  Pd8  1  0.750000  0.041776  0.724081  1
  Pd  Pd9  1  0.250000  0.954089  0.273656  1
  Pd  Pd10  1  0.750000  0.542314  0.779031  1
  Pd  Pd11  1  0.250000  0.453866  0.224004  1
