# generated using pymatgen
data_Dy(AlAg2)4
_symmetry_space_group_name_H-M   'P 1'
_cell_length_a   7.14171467
_cell_length_b   7.14171540
_cell_length_c   7.14171452
_cell_angle_alpha   98.09276541
_cell_angle_beta   98.09276312
_cell_angle_gamma   135.92644888
_symmetry_Int_Tables_number   1
_chemical_formula_structural   Dy(AlAg2)4
_chemical_formula_sum   'Dy1 Al4 Ag8'
_cell_volume   234.85971671
_cell_formula_units_Z   1
loop_
 _symmetry_equiv_pos_site_id
 _symmetry_equiv_pos_as_xyz
  1  'x, y, z'
loop_
 _atom_site_type_symbol
 _atom_site_label
 _atom_site_symmetry_multiplicity
 _atom_site_fract_x
 _atom_site_fract_y
 _atom_site_fract_z
 _atom_site_occupancy
  Dy  Dy0  1  0.000000  0.000000  0.000000  1
  Al  Al1  1  0.500000  0.500000  0.500000  1
  Al  Al2  1  0.000000  0.000000  0.500000  1
  Al  Al3  1  0.000000  0.500000  0.000000  1
  Al  Al4  1  0.500000  0.000000  0.000000  1
  Ag  Ag5  1  0.283578  0.500000  0.783578  1
  Ag  Ag6  1  0.716422  0.500000  0.216422  1
  Ag  Ag7  1  0.500000  0.283578  0.783578  1
  Ag  Ag8  1  0.500000  0.716422  0.216422  1
  Ag  Ag9  1  0.343715  0.000000  0.343715  1
  Ag  Ag10  1  0.656285  0.000000  0.656285  1
  Ag  Ag11  1  0.000000  0.343715  0.343715  1
  Ag  Ag12  1  0.000000  0.656285  0.656285  1
