# generated using pymatgen
data_Sc5Si7Ni16Mo
_symmetry_space_group_name_H-M   'P 1'
_cell_length_a   8.05538392
_cell_length_b   8.05538402
_cell_length_c   8.00517300
_cell_angle_alpha   60.20598420
_cell_angle_beta   60.20598379
_cell_angle_gamma   59.58804594
_symmetry_Int_Tables_number   1
_chemical_formula_structural   Sc5Si7Ni16Mo
_chemical_formula_sum   'Sc5 Si7 Ni16 Mo1'
_cell_volume   367.27783779
_cell_formula_units_Z   1
loop_
 _symmetry_equiv_pos_site_id
 _symmetry_equiv_pos_as_xyz
  1  'x, y, z'
loop_
 _atom_site_type_symbol
 _atom_site_label
 _atom_site_symmetry_multiplicity
 _atom_site_fract_x
 _atom_site_fract_y
 _atom_site_fract_z
 _atom_site_occupancy
  Sc  Sc0  1  0.300314  0.704922  0.295078  1
  Sc  Sc1  1  0.704922  0.300314  0.295078  1
  Sc  Sc2  1  0.287805  0.287805  0.712195  1
  Sc  Sc3  1  0.704922  0.300314  0.699686  1
  Sc  Sc4  1  0.300314  0.704922  0.699686  1
  Si  Si5  1  0.004653  0.004653  0.995347  1
  Si  Si6  1  0.997908  0.997908  0.502092  1
  Si  Si7  1  0.507691  0.993037  0.492309  1
  Si  Si8  1  0.993037  0.507691  0.492309  1
  Si  Si9  1  0.497908  0.497908  0.002092  1
  Si  Si10  1  0.993037  0.507691  0.006963  1
  Si  Si11  1  0.507691  0.993037  0.006963  1
  Ni  Ni12  1  0.881961  0.881961  0.351273  1
  Ni  Ni13  1  0.879441  0.357971  0.881293  1
  Ni  Ni14  1  0.357971  0.879441  0.881293  1
  Ni  Ni15  1  0.881961  0.881961  0.884803  1
  Ni  Ni16  1  0.118707  0.118707  0.642029  1
  Ni  Ni17  1  0.115197  0.648727  0.118039  1
  Ni  Ni18  1  0.648727  0.115197  0.118039  1
  Ni  Ni19  1  0.118707  0.118707  0.120559  1
  Ni  Ni20  1  0.667885  0.667885  0.992316  1
  Ni  Ni21  1  0.666613  0.993789  0.669798  1
  Ni  Ni22  1  0.993789  0.666613  0.669798  1
  Ni  Ni23  1  0.667885  0.667885  0.671913  1
  Ni  Ni24  1  0.330202  0.330202  0.006211  1
  Ni  Ni25  1  0.328087  0.007684  0.332115  1
  Ni  Ni26  1  0.007684  0.328087  0.332115  1
  Ni  Ni27  1  0.330202  0.330202  0.333387  1
  Mo  Mo28  1  0.704775  0.704775  0.295225  1
