# generated using pymatgen
data_Rb3U3Ti2O13
_symmetry_space_group_name_H-M   'P 1'
_cell_length_a   9.92291400
_cell_length_b   9.92291348
_cell_length_c   8.52136300
_cell_angle_alpha   90.00000000
_cell_angle_beta   90.00000000
_cell_angle_gamma   120.00000174
_symmetry_Int_Tables_number   1
_chemical_formula_structural   Rb3U3Ti2O13
_chemical_formula_sum   'Rb6 U6 Ti4 O26'
_cell_volume   726.63802735
_cell_formula_units_Z   2
loop_
 _symmetry_equiv_pos_site_id
 _symmetry_equiv_pos_as_xyz
  1  'x, y, z'
loop_
 _atom_site_type_symbol
 _atom_site_label
 _atom_site_symmetry_multiplicity
 _atom_site_fract_x
 _atom_site_fract_y
 _atom_site_fract_z
 _atom_site_occupancy
  Rb  Rb0  1  0.973279  0.588517  0.750000  1
  Rb  Rb1  1  0.384763  0.411483  0.250000  1
  Rb  Rb2  1  0.588517  0.973279  0.250000  1
  Rb  Rb3  1  0.411483  0.384763  0.750000  1
  Rb  Rb4  1  0.615237  0.026721  0.750000  1
  Rb  Rb5  1  0.026721  0.615237  0.250000  1
  U  U6  1  0.000000  0.235945  0.500000  1
  U  U7  1  0.000000  0.235945  0.000000  1
  U  U8  1  0.235945  0.000000  0.500000  1
  U  U9  1  0.235945  0.000000  0.000000  1
  U  U10  1  0.764055  0.764055  0.000000  1
  U  U11  1  0.764055  0.764055  0.500000  1
  Ti  Ti12  1  0.333333  0.666667  0.964503  1
  Ti  Ti13  1  0.666667  0.333333  0.035497  1
  Ti  Ti14  1  0.666667  0.333333  0.464503  1
  Ti  Ti15  1  0.333333  0.666667  0.535497  1
  O  O16  1  0.826783  0.310993  0.532248  1
  O  O17  1  0.515791  0.689007  0.467752  1
  O  O18  1  0.515791  0.689007  0.032248  1
  O  O19  1  0.484209  0.173217  0.967752  1
  O  O20  1  0.017717  0.251731  0.750000  1
  O  O21  1  0.689007  0.515791  0.532248  1
  O  O22  1  0.765987  0.748269  0.250000  1
  O  O23  1  0.666667  0.333333  0.250000  1
  O  O24  1  0.814858  0.000000  0.000000  1
  O  O25  1  0.689007  0.515791  0.967752  1
  O  O26  1  0.185142  0.185142  0.500000  1
  O  O27  1  0.000000  0.814858  0.500000  1
  O  O28  1  0.814858  0.000000  0.500000  1
  O  O29  1  0.185142  0.185142  0.000000  1
  O  O30  1  0.484209  0.173217  0.532248  1
  O  O31  1  0.310993  0.826783  0.032248  1
  O  O32  1  0.234013  0.982283  0.750000  1
  O  O33  1  0.000000  0.814858  0.000000  1
  O  O34  1  0.310993  0.826783  0.467752  1
  O  O35  1  0.333333  0.666667  0.750000  1
  O  O36  1  0.748269  0.765987  0.750000  1
  O  O37  1  0.173217  0.484209  0.467752  1
  O  O38  1  0.826783  0.310993  0.967752  1
  O  O39  1  0.251731  0.017717  0.250000  1
  O  O40  1  0.982283  0.234013  0.250000  1
  O  O41  1  0.173217  0.484209  0.032248  1
