# generated using pymatgen
data_NaPb(CO3)2
_symmetry_space_group_name_H-M   'P 1'
_cell_length_a   6.49293109
_cell_length_b   6.49294555
_cell_length_c   6.49294589
_cell_angle_alpha   47.05749380
_cell_angle_beta   47.05755985
_cell_angle_gamma   47.05751167
_symmetry_Int_Tables_number   1
_chemical_formula_structural   NaPb(CO3)2
_chemical_formula_sum   'Na1 Pb1 C2 O6'
_cell_volume   134.10476230
_cell_formula_units_Z   1
loop_
 _symmetry_equiv_pos_site_id
 _symmetry_equiv_pos_as_xyz
  1  'x, y, z'
loop_
 _atom_site_type_symbol
 _atom_site_label
 _atom_site_symmetry_multiplicity
 _atom_site_fract_x
 _atom_site_fract_y
 _atom_site_fract_z
 _atom_site_occupancy
  Na  Na0  1  0.000000  0.000000  0.000000  1
  Pb  Pb1  1  0.500000  0.500000  0.500000  1
  C  C2  1  0.247758  0.247760  0.247757  1
  C  C3  1  0.752242  0.752240  0.752243  1
  O  O4  1  0.767795  0.494336  0.993803  1
  O  O5  1  0.505663  0.006198  0.232206  1
  O  O6  1  0.993802  0.767794  0.494337  1
  O  O7  1  0.006198  0.232206  0.505663  1
  O  O8  1  0.494337  0.993802  0.767794  1
  O  O9  1  0.232205  0.505664  0.006197  1
