# generated using pymatgen
data_Hf4Pd9Pt2Rh
_symmetry_space_group_name_H-M   'P 1'
_cell_length_a   5.64707500
_cell_length_b   5.67568860
_cell_length_c   9.28830239
_cell_angle_alpha   89.52969617
_cell_angle_beta   90.00000000
_cell_angle_gamma   119.83336458
_symmetry_Int_Tables_number   1
_chemical_formula_structural   Hf4Pd9Pt2Rh
_chemical_formula_sum   'Hf4 Pd9 Pt2 Rh1'
_cell_volume   258.23579458
_cell_formula_units_Z   1
loop_
 _symmetry_equiv_pos_site_id
 _symmetry_equiv_pos_as_xyz
  1  'x, y, z'
loop_
 _atom_site_type_symbol
 _atom_site_label
 _atom_site_symmetry_multiplicity
 _atom_site_fract_x
 _atom_site_fract_y
 _atom_site_fract_z
 _atom_site_occupancy
  Hf  Hf0  1  0.663320  0.326638  0.755246  1
  Hf  Hf1  1  0.336680  0.673362  0.244754  1
  Hf  Hf2  1  0.000000  0.000000  0.500000  1
  Hf  Hf3  1  0.000000  0.000000  0.000000  1
  Pd  Pd4  1  0.168023  0.336045  0.748307  1
  Pd  Pd5  1  0.831881  0.170591  0.251747  1
  Pd  Pd6  1  0.338709  0.170591  0.251747  1
  Pd  Pd7  1  0.661291  0.829409  0.748253  1
  Pd  Pd8  1  0.500000  0.500000  0.500000  1
  Pd  Pd9  1  0.000000  0.500000  0.500000  1
  Pd  Pd10  1  0.500000  0.000000  0.500000  1
  Pd  Pd11  1  0.831977  0.663955  0.251693  1
  Pd  Pd12  1  0.168119  0.829409  0.748253  1
  Pt  Pt13  1  0.000000  0.500000  0.000000  1
  Pt  Pt14  1  0.500000  0.500000  0.000000  1
  Rh  Rh15  1  0.500000  0.000000  0.000000  1
