# generated using pymatgen
data_Pr11Sm(Si7Br3)2
_symmetry_space_group_name_H-M   'P 1'
_cell_length_a   4.10644200
_cell_length_b   11.79525249
_cell_length_c   16.64191488
_cell_angle_alpha   89.84484920
_cell_angle_beta   90.00000000
_cell_angle_gamma   90.00000000
_symmetry_Int_Tables_number   1
_chemical_formula_structural   Pr11Sm(Si7Br3)2
_chemical_formula_sum   'Pr11 Sm1 Si14 Br6'
_cell_volume   806.07349162
_cell_formula_units_Z   1
loop_
 _symmetry_equiv_pos_site_id
 _symmetry_equiv_pos_as_xyz
  1  'x, y, z'
loop_
 _atom_site_type_symbol
 _atom_site_label
 _atom_site_symmetry_multiplicity
 _atom_site_fract_x
 _atom_site_fract_y
 _atom_site_fract_z
 _atom_site_occupancy
  Pr  Pr0  1  0.500000  0.341625  0.501063  1
  Pr  Pr1  1  0.000000  0.657542  0.999180  1
  Pr  Pr2  1  0.000000  0.641183  0.743510  1
  Pr  Pr3  1  0.500000  0.358324  0.243493  1
  Pr  Pr4  1  0.000000  0.641504  0.256447  1
  Pr  Pr5  1  0.500000  0.066066  0.879293  1
  Pr  Pr6  1  0.000000  0.935104  0.620253  1
  Pr  Pr7  1  0.500000  0.065250  0.119597  1
  Pr  Pr8  1  0.000000  0.934460  0.380135  1
  Pr  Pr9  1  0.500000  0.356134  0.999421  1
  Pr  Pr10  1  0.000000  0.643298  0.500683  1
  Sm  Sm11  1  0.500000  0.360517  0.757859  1
  Si  Si12  1  0.000000  0.152553  0.999104  1
  Si  Si13  1  0.500000  0.848177  0.500335  1
  Si  Si14  1  0.500000  0.566022  0.875536  1
  Si  Si15  1  0.000000  0.430817  0.625934  1
  Si  Si16  1  0.500000  0.566744  0.123497  1
  Si  Si17  1  0.000000  0.433053  0.376697  1
  Si  Si18  1  0.000000  0.254079  0.872025  1
  Si  Si19  1  0.500000  0.746207  0.626257  1
  Si  Si20  1  0.000000  0.253487  0.125676  1
  Si  Si21  1  0.500000  0.746286  0.374183  1
  Si  Si22  1  0.000000  0.457531  0.875561  1
  Si  Si23  1  0.500000  0.540578  0.624392  1
  Si  Si24  1  0.500000  0.542018  0.376768  1
  Si  Si25  1  0.000000  0.457833  0.123049  1
  Br  Br26  1  0.500000  0.113002  0.693378  1
  Br  Br27  1  0.000000  0.890911  0.807189  1
  Br  Br28  1  0.000000  0.138866  0.499836  1
  Br  Br29  1  0.500000  0.860920  0.999851  1
  Br  Br30  1  0.500000  0.108847  0.307040  1
  Br  Br31  1  0.000000  0.891063  0.192753  1
