# generated using pymatgen
data_Ho12Fe4AgPb
_symmetry_space_group_name_H-M   'P 1'
_cell_length_a   8.34673596
_cell_length_b   8.34673613
_cell_length_c   8.34673600
_cell_angle_alpha   111.05309162
_cell_angle_beta   110.67904222
_cell_angle_gamma   106.71639541
_symmetry_Int_Tables_number   1
_chemical_formula_structural   Ho12Fe4AgPb
_chemical_formula_sum   'Ho12 Fe4 Ag1 Pb1'
_cell_volume   446.86276881
_cell_formula_units_Z   1
loop_
 _symmetry_equiv_pos_site_id
 _symmetry_equiv_pos_as_xyz
  1  'x, y, z'
loop_
 _atom_site_type_symbol
 _atom_site_label
 _atom_site_symmetry_multiplicity
 _atom_site_fract_x
 _atom_site_fract_y
 _atom_site_fract_z
 _atom_site_occupancy
  Ho  Ho0  1  0.428889  0.220386  0.208502  1
  Ho  Ho1  1  0.571111  0.779614  0.791498  1
  Ho  Ho2  1  0.011883  0.220386  0.791498  1
  Ho  Ho3  1  0.988117  0.779614  0.208502  1
  Ho  Ho4  1  0.188238  0.291031  0.479270  1
  Ho  Ho5  1  0.811762  0.708969  0.520730  1
  Ho  Ho6  1  0.188238  0.708969  0.897206  1
  Ho  Ho7  1  0.811762  0.291031  0.102794  1
  Ho  Ho8  1  0.310674  0.612073  0.301400  1
  Ho  Ho9  1  0.689326  0.387927  0.698600  1
  Ho  Ho10  1  0.310674  0.009275  0.698600  1
  Ho  Ho11  1  0.689326  0.990725  0.301400  1
  Fe  Fe12  1  0.386306  0.000000  0.386306  1
  Fe  Fe13  1  0.613694  0.000000  0.613694  1
  Fe  Fe14  1  0.107719  0.607719  0.500000  1
  Fe  Fe15  1  0.892281  0.392281  0.500000  1
  Ag  Ag16  1  0.000000  0.000000  0.000000  1
  Pb  Pb17  1  0.500000  0.500000  0.000000  1
