# generated using pymatgen
data_Ho3Tm5Cd2IrRu
_symmetry_space_group_name_H-M   'P 1'
_cell_length_a   9.57266921
_cell_length_b   9.57250470
_cell_length_c   9.57450392
_cell_angle_alpha   59.52950371
_cell_angle_beta   59.52895416
_cell_angle_gamma   59.53028813
_symmetry_Int_Tables_number   1
_chemical_formula_structural   Ho3Tm5Cd2IrRu
_chemical_formula_sum   'Ho6 Tm10 Cd4 Ir2 Ru2'
_cell_volume   613.74703264
_cell_formula_units_Z   2
loop_
 _symmetry_equiv_pos_site_id
 _symmetry_equiv_pos_as_xyz
  1  'x, y, z'
loop_
 _atom_site_type_symbol
 _atom_site_label
 _atom_site_symmetry_multiplicity
 _atom_site_fract_x
 _atom_site_fract_y
 _atom_site_fract_z
 _atom_site_occupancy
  Ho  Ho0  1  0.188973  0.809502  0.811659  1
  Ho  Ho1  1  0.809084  0.188905  0.189282  1
  Ho  Ho2  1  0.809495  0.188985  0.811647  1
  Ho  Ho3  1  0.188944  0.809079  0.189259  1
  Ho  Ho4  1  0.810959  0.810946  0.189142  1
  Ho  Ho5  1  0.189551  0.189548  0.809673  1
  Tm  Tm6  1  0.598036  0.598063  0.599450  1
  Tm  Tm7  1  0.598582  0.598544  0.206905  1
  Tm  Tm8  1  0.597589  0.207946  0.598373  1
  Tm  Tm9  1  0.207955  0.597580  0.598362  1
  Tm  Tm10  1  0.062917  0.438077  0.437924  1
  Tm  Tm11  1  0.436947  0.062477  0.059959  1
  Tm  Tm12  1  0.438060  0.062920  0.437926  1
  Tm  Tm13  1  0.062470  0.436945  0.059946  1
  Tm  Tm14  1  0.437462  0.437490  0.061771  1
  Tm  Tm15  1  0.060254  0.060268  0.438327  1
  Cd  Cd16  1  0.829874  0.829880  0.830034  1
  Cd  Cd17  1  0.830410  0.830422  0.507620  1
  Cd  Cd18  1  0.830521  0.507113  0.830568  1
  Cd  Cd19  1  0.507106  0.830519  0.830556  1
  Ir  Ir20  1  0.393359  0.827196  0.392032  1
  Ir  Ir21  1  0.827188  0.393361  0.392066  1
  Ru  Ru22  1  0.391479  0.391468  0.389833  1
  Ru  Ru23  1  0.392786  0.392770  0.827687  1
