# generated using pymatgen
data_MnCuRhS4
_symmetry_space_group_name_H-M   'P 1'
_cell_length_a   6.95153747
_cell_length_b   6.95153666
_cell_length_c   6.85860700
_cell_angle_alpha   60.44124526
_cell_angle_beta   60.44124906
_cell_angle_gamma   60.98078937
_symmetry_Int_Tables_number   1
_chemical_formula_structural   MnCuRhS4
_chemical_formula_sum   'Mn2 Cu2 Rh2 S8'
_cell_volume   237.63269922
_cell_formula_units_Z   2
loop_
 _symmetry_equiv_pos_site_id
 _symmetry_equiv_pos_as_xyz
  1  'x, y, z'
loop_
 _atom_site_type_symbol
 _atom_site_label
 _atom_site_symmetry_multiplicity
 _atom_site_fract_x
 _atom_site_fract_y
 _atom_site_fract_z
 _atom_site_occupancy
  Mn  Mn0  1  0.125000  0.125000  0.625000  1
  Mn  Mn1  1  0.125000  0.125000  0.125000  1
  Cu  Cu2  1  0.749185  0.749185  0.750815  1
  Cu  Cu3  1  0.500815  0.500815  0.499185  1
  Rh  Rh4  1  0.125000  0.625000  0.125000  1
  Rh  Rh5  1  0.625000  0.125000  0.125000  1
  S  S6  1  0.887694  0.348680  0.881812  1
  S  S7  1  0.363479  0.363479  0.903610  1
  S  S8  1  0.363479  0.363479  0.369432  1
  S  S9  1  0.901320  0.362306  0.368188  1
  S  S10  1  0.886521  0.886521  0.880568  1
  S  S11  1  0.348680  0.887694  0.881812  1
  S  S12  1  0.362306  0.901320  0.368188  1
  S  S13  1  0.886521  0.886521  0.346390  1
