# generated using pymatgen
data_Cs3Sc(SeO4)3
_symmetry_space_group_name_H-M   'P 1'
_cell_length_a   10.12526226
_cell_length_b   10.12526255
_cell_length_c   10.12526169
_cell_angle_alpha   109.39715927
_cell_angle_beta   109.39716446
_cell_angle_gamma   109.39717220
_symmetry_Int_Tables_number   1
_chemical_formula_structural   Cs3Sc(SeO4)3
_chemical_formula_sum   'Cs6 Sc2 Se6 O24'
_cell_volume   801.27577211
_cell_formula_units_Z   2
loop_
 _symmetry_equiv_pos_site_id
 _symmetry_equiv_pos_as_xyz
  1  'x, y, z'
loop_
 _atom_site_type_symbol
 _atom_site_label
 _atom_site_symmetry_multiplicity
 _atom_site_fract_x
 _atom_site_fract_y
 _atom_site_fract_z
 _atom_site_occupancy
  Cs  Cs0  1  0.118359  0.648255  0.270678  1
  Cs  Cs1  1  0.270678  0.118359  0.648255  1
  Cs  Cs2  1  0.648255  0.270678  0.118359  1
  Cs  Cs3  1  0.293495  0.676519  0.830499  1
  Cs  Cs4  1  0.830499  0.293495  0.676519  1
  Cs  Cs5  1  0.676519  0.830499  0.293495  1
  Sc  Sc6  1  0.469310  0.469310  0.469310  1
  Sc  Sc7  1  0.967852  0.967852  0.967852  1
  Se  Se8  1  0.884009  0.701954  0.572549  1
  Se  Se9  1  0.572549  0.884009  0.701954  1
  Se  Se10  1  0.701954  0.572549  0.884009  1
  Se  Se11  1  0.362318  0.054035  0.237202  1
  Se  Se12  1  0.237202  0.362318  0.054035  1
  Se  Se13  1  0.054035  0.237202  0.362318  1
  O  O14  1  0.946735  0.756313  0.456820  1
  O  O15  1  0.456820  0.946735  0.756313  1
  O  O16  1  0.756313  0.456820  0.946735  1
  O  O17  1  0.678942  0.605431  0.466821  1
  O  O18  1  0.466821  0.678942  0.605431  1
  O  O19  1  0.605431  0.466821  0.678942  1
  O  O20  1  0.874326  0.736876  0.946771  1
  O  O21  1  0.946771  0.874326  0.736876  1
  O  O22  1  0.736876  0.946771  0.874326  1
  O  O23  1  0.619528  0.947310  0.584579  1
  O  O24  1  0.584579  0.619528  0.947310  1
  O  O25  1  0.947310  0.584579  0.619528  1
  O  O26  1  0.258880  0.331096  0.468518  1
  O  O27  1  0.468518  0.258880  0.331096  1
  O  O28  1  0.331096  0.468518  0.258880  1
  O  O29  1  0.062533  0.198905  0.988823  1
  O  O30  1  0.988823  0.062533  0.198905  1
  O  O31  1  0.198905  0.988823  0.062533  1
  O  O32  1  0.990142  0.186605  0.479046  1
  O  O33  1  0.479046  0.990142  0.186605  1
  O  O34  1  0.186605  0.479046  0.990142  1
  O  O35  1  0.312120  0.993423  0.354526  1
  O  O36  1  0.354526  0.312120  0.993423  1
  O  O37  1  0.993423  0.354526  0.312120  1
