# generated using pymatgen
data_Li8Pr5Nd3(SnBi)4
_symmetry_space_group_name_H-M   'P 1'
_cell_length_a   9.67890600
_cell_length_b   9.68453680
_cell_length_c   7.64963309
_cell_angle_alpha   89.91020368
_cell_angle_beta   90.00022406
_cell_angle_gamma   119.98364848
_symmetry_Int_Tables_number   1
_chemical_formula_structural   Li8Pr5Nd3(SnBi)4
_chemical_formula_sum   'Li8 Pr5 Nd3 Sn4 Bi4'
_cell_volume   621.07949071
_cell_formula_units_Z   1
loop_
 _symmetry_equiv_pos_site_id
 _symmetry_equiv_pos_as_xyz
  1  'x, y, z'
loop_
 _atom_site_type_symbol
 _atom_site_label
 _atom_site_symmetry_multiplicity
 _atom_site_fract_x
 _atom_site_fract_y
 _atom_site_fract_z
 _atom_site_occupancy
  Li  Li0  1  0.166978  0.334119  0.272409  1
  Li  Li1  1  0.170756  0.834297  0.278761  1
  Li  Li2  1  0.663560  0.834389  0.278829  1
  Li  Li3  1  0.831401  0.662585  0.780455  1
  Li  Li4  1  0.830866  0.168448  0.786012  1
  Li  Li5  1  0.337509  0.168297  0.785919  1
  Li  Li6  1  0.333842  0.667790  0.671232  1
  Li  Li7  1  0.665152  0.330050  0.178020  1
  Pr  Pr8  1  0.513724  0.027465  0.491090  1
  Pr  Pr9  1  0.507343  0.484190  0.491971  1
  Pr  Pr10  1  0.976838  0.484197  0.491942  1
  Pr  Pr11  1  0.491160  0.982399  0.999104  1
  Pr  Pr12  1  0.487823  0.506964  0.997182  1
  Nd  Nd13  1  0.019094  0.506879  0.997263  1
  Nd  Nd14  1  0.002812  0.005640  0.496288  1
  Nd  Nd15  1  0.001998  0.004004  0.005839  1
  Sn  Sn16  1  0.834380  0.166582  0.233430  1
  Sn  Sn17  1  0.332019  0.166178  0.233789  1
  Sn  Sn18  1  0.332427  0.665473  0.262484  1
  Sn  Sn19  1  0.667318  0.334039  0.763388  1
  Bi  Bi20  1  0.165940  0.332548  0.737896  1
  Bi  Bi21  1  0.165426  0.832980  0.736457  1
  Bi  Bi22  1  0.667789  0.833411  0.736015  1
  Bi  Bi23  1  0.833842  0.667079  0.236198  1
