# generated using pymatgen
data_Rb5Eu3Cl12
_symmetry_space_group_name_H-M   'P 1'
_cell_length_a   13.52119100
_cell_length_b   13.52119134
_cell_length_c   4.44733200
_cell_angle_alpha   90.00000000
_cell_angle_beta   90.00000000
_cell_angle_gamma   120.00000161
_symmetry_Int_Tables_number   1
_chemical_formula_structural   Rb5Eu3Cl12
_chemical_formula_sum   'Rb5 Eu3 Cl12'
_cell_volume   704.14172895
_cell_formula_units_Z   1
loop_
 _symmetry_equiv_pos_site_id
 _symmetry_equiv_pos_as_xyz
  1  'x, y, z'
loop_
 _atom_site_type_symbol
 _atom_site_label
 _atom_site_symmetry_multiplicity
 _atom_site_fract_x
 _atom_site_fract_y
 _atom_site_fract_z
 _atom_site_occupancy
  Rb  Rb0  1  0.333333  0.666667  0.000000  1
  Rb  Rb1  1  0.666667  0.333333  0.000000  1
  Rb  Rb2  1  0.709529  0.000000  0.000000  1
  Rb  Rb3  1  0.000000  0.709529  0.000000  1
  Rb  Rb4  1  0.290471  0.290471  0.000000  1
  Eu  Eu5  1  0.329989  0.000000  0.500000  1
  Eu  Eu6  1  0.000000  0.329989  0.500000  1
  Eu  Eu7  1  0.670011  0.670011  0.500000  1
  Cl  Cl8  1  0.193568  0.000000  0.000000  1
  Cl  Cl9  1  0.000000  0.193568  0.000000  1
  Cl  Cl10  1  0.806432  0.806432  0.000000  1
  Cl  Cl11  1  0.462357  0.000000  0.000000  1
  Cl  Cl12  1  0.000000  0.462357  0.000000  1
  Cl  Cl13  1  0.537643  0.537643  0.000000  1
  Cl  Cl14  1  0.239032  0.443884  0.500000  1
  Cl  Cl15  1  0.556116  0.795148  0.500000  1
  Cl  Cl16  1  0.443884  0.239032  0.500000  1
  Cl  Cl17  1  0.204852  0.760968  0.500000  1
  Cl  Cl18  1  0.795148  0.556116  0.500000  1
  Cl  Cl19  1  0.760968  0.204852  0.500000  1
