# generated using pymatgen
data_Al3V12Ga3(NiN2)2
_symmetry_space_group_name_H-M   'P 1'
_cell_length_a   6.56863404
_cell_length_b   6.56863360
_cell_length_c   6.56863347
_cell_angle_alpha   89.88173035
_cell_angle_beta   90.11826557
_cell_angle_gamma   90.11826674
_symmetry_Int_Tables_number   1
_chemical_formula_structural   Al3V12Ga3(NiN2)2
_chemical_formula_sum   'Al3 V12 Ga3 Ni2 N4'
_cell_volume   283.41469290
_cell_formula_units_Z   1
loop_
 _symmetry_equiv_pos_site_id
 _symmetry_equiv_pos_as_xyz
  1  'x, y, z'
loop_
 _atom_site_type_symbol
 _atom_site_label
 _atom_site_symmetry_multiplicity
 _atom_site_fract_x
 _atom_site_fract_y
 _atom_site_fract_z
 _atom_site_occupancy
  Al  Al0  1  0.332427  0.189030  0.825496  1
  Al  Al1  1  0.810970  0.325496  0.167573  1
  Al  Al2  1  0.674504  0.667573  0.689030  1
  V  V3  1  0.790655  0.960485  0.374800  1
  V  V4  1  0.710601  0.038667  0.876110  1
  V  V5  1  0.211234  0.462318  0.123369  1
  V  V6  1  0.290332  0.540842  0.624612  1
  V  V7  1  0.961333  0.376110  0.789399  1
  V  V8  1  0.039515  0.874800  0.709345  1
  V  V9  1  0.459158  0.124612  0.209668  1
  V  V10  1  0.537682  0.623369  0.288766  1
  V  V11  1  0.376631  0.788766  0.962318  1
  V  V12  1  0.875388  0.709668  0.040842  1
  V  V13  1  0.125200  0.209345  0.460485  1
  V  V14  1  0.623890  0.289399  0.538667  1
  Ga  Ga15  1  0.420603  0.924927  0.563960  1
  Ga  Ga16  1  0.936040  0.579397  0.424927  1
  Ga  Ga17  1  0.075073  0.063960  0.079397  1
  Ni  Ni18  1  0.181134  0.818866  0.318866  1
  Ni  Ni19  1  0.569192  0.430808  0.930808  1
  N  N20  1  0.874598  0.125402  0.625402  1
  N  N21  1  0.625302  0.874448  0.127016  1
  N  N22  1  0.125552  0.627016  0.874698  1
  N  N23  1  0.372984  0.374698  0.374448  1
