# generated using pymatgen
data_SmErCI
_symmetry_space_group_name_H-M   'P 1'
_cell_length_a   3.76935400
_cell_length_b   3.76935459
_cell_length_c   14.98303200
_cell_angle_alpha   90.00000000
_cell_angle_beta   90.00000000
_cell_angle_gamma   119.99999483
_symmetry_Int_Tables_number   1
_chemical_formula_structural   SmErCI
_chemical_formula_sum   'Sm2 Er2 C2 I2'
_cell_volume   184.35897368
_cell_formula_units_Z   2
loop_
 _symmetry_equiv_pos_site_id
 _symmetry_equiv_pos_as_xyz
  1  'x, y, z'
loop_
 _atom_site_type_symbol
 _atom_site_label
 _atom_site_symmetry_multiplicity
 _atom_site_fract_x
 _atom_site_fract_y
 _atom_site_fract_z
 _atom_site_occupancy
  Sm  Sm0  1  0.333333  0.666667  0.413638  1
  Sm  Sm1  1  0.666667  0.333333  0.913638  1
  Er  Er2  1  0.666667  0.333333  0.585210  1
  Er  Er3  1  0.333333  0.666667  0.085210  1
  C  C4  1  0.000000  0.000000  0.506104  1
  C  C5  1  0.000000  0.000000  0.006104  1
  I  I6  1  0.666667  0.333333  0.245047  1
  I  I7  1  0.333333  0.666667  0.745047  1
