# generated using pymatgen
data_ThNi(SeO4)3
_symmetry_space_group_name_H-M   'P 1'
_cell_length_a   9.31368403
_cell_length_b   9.31171481
_cell_length_c   6.14836800
_cell_angle_alpha   90.00000000
_cell_angle_beta   90.00000000
_cell_angle_gamma   119.99701148
_symmetry_Int_Tables_number   1
_chemical_formula_structural   ThNi(SeO4)3
_chemical_formula_sum   'Th2 Ni2 Se6 O24'
_cell_volume   461.80085162
_cell_formula_units_Z   2
loop_
 _symmetry_equiv_pos_site_id
 _symmetry_equiv_pos_as_xyz
  1  'x, y, z'
loop_
 _atom_site_type_symbol
 _atom_site_label
 _atom_site_symmetry_multiplicity
 _atom_site_fract_x
 _atom_site_fract_y
 _atom_site_fract_z
 _atom_site_occupancy
  Th  Th0  1  0.333355  0.666705  0.250000  1
  Th  Th1  1  0.666645  0.333295  0.749999  1
  Ni  Ni2  1  0.000000  0.000000  0.000000  1
  Ni  Ni3  1  0.000000  0.000000  0.500001  1
  Se  Se4  1  0.718361  0.097101  0.250000  1
  Se  Se5  1  0.378730  0.281657  0.250000  1
  Se  Se6  1  0.902924  0.621325  0.250000  1
  Se  Se7  1  0.097076  0.378676  0.749999  1
  Se  Se8  1  0.621269  0.718343  0.749999  1
  Se  Se9  1  0.281639  0.902899  0.749999  1
  O  O10  1  0.786812  0.553403  0.028008  1
  O  O11  1  0.766534  0.213237  0.027974  1
  O  O12  1  0.446644  0.233418  0.028018  1
  O  O13  1  0.844745  0.012512  0.250000  1
  O  O14  1  0.167778  0.155287  0.250000  1
  O  O15  1  0.445872  0.483808  0.250000  1
  O  O16  1  0.037884  0.554164  0.250000  1
  O  O17  1  0.987439  0.832362  0.250000  1
  O  O18  1  0.516236  0.962152  0.250000  1
  O  O19  1  0.446644  0.233418  0.471981  1
  O  O20  1  0.766534  0.213237  0.472025  1
  O  O21  1  0.786812  0.553403  0.471992  1
  O  O22  1  0.213189  0.446596  0.528009  1
  O  O23  1  0.233466  0.786763  0.527975  1
  O  O24  1  0.553355  0.766581  0.528019  1
  O  O25  1  0.483764  0.037848  0.749999  1
  O  O26  1  0.012562  0.167637  0.749999  1
  O  O27  1  0.962116  0.445837  0.749999  1
  O  O28  1  0.554128  0.516192  0.749999  1
  O  O29  1  0.832222  0.844713  0.749999  1
  O  O30  1  0.155254  0.987487  0.749999  1
  O  O31  1  0.553355  0.766581  0.971982  1
  O  O32  1  0.233466  0.786763  0.972025  1
  O  O33  1  0.213189  0.446596  0.971992  1
