# generated using pymatgen
data_Ho7Th3(FeBi2)2
_symmetry_space_group_name_H-M   'P 1'
_cell_length_a   8.21369771
_cell_length_b   8.66124467
_cell_length_c   12.52245560
_cell_angle_alpha   90.32915966
_cell_angle_beta   89.97808419
_cell_angle_gamma   89.65005406
_symmetry_Int_Tables_number   1
_chemical_formula_structural   Ho7Th3(FeBi2)2
_chemical_formula_sum   'Ho14 Th6 Fe4 Bi8'
_cell_volume   890.82668410
_cell_formula_units_Z   2
loop_
 _symmetry_equiv_pos_site_id
 _symmetry_equiv_pos_as_xyz
  1  'x, y, z'
loop_
 _atom_site_type_symbol
 _atom_site_label
 _atom_site_symmetry_multiplicity
 _atom_site_fract_x
 _atom_site_fract_y
 _atom_site_fract_z
 _atom_site_occupancy
  Ho  Ho0  1  0.342180  0.750334  0.700406  1
  Ho  Ho1  1  0.657820  0.249666  0.299594  1
  Ho  Ho2  1  0.844323  0.249428  0.801887  1
  Ho  Ho3  1  0.155677  0.750572  0.198113  1
  Ho  Ho4  1  0.882533  0.754138  0.806083  1
  Ho  Ho5  1  0.117467  0.245862  0.193917  1
  Ho  Ho6  1  0.383673  0.251138  0.697134  1
  Ho  Ho7  1  0.616327  0.748862  0.302866  1
  Ho  Ho8  1  0.829073  0.956668  0.061613  1
  Ho  Ho9  1  0.170927  0.043332  0.938387  1
  Ho  Ho10  1  0.046196  0.750785  0.499275  1
  Ho  Ho11  1  0.953804  0.249215  0.500725  1
  Ho  Ho12  1  0.550305  0.249894  0.000783  1
  Ho  Ho13  1  0.449695  0.750106  0.999217  1
  Th  Th14  1  0.679621  0.540688  0.560026  1
  Th  Th15  1  0.320379  0.459312  0.439974  1
  Th  Th16  1  0.178784  0.466744  0.940344  1
  Th  Th17  1  0.321626  0.040046  0.438330  1
  Th  Th18  1  0.821216  0.533256  0.059656  1
  Th  Th19  1  0.678374  0.959954  0.561670  1
  Fe  Fe20  1  0.068950  0.729204  0.987789  1
  Fe  Fe21  1  0.931050  0.270796  0.012211  1
  Fe  Fe22  1  0.567699  0.250653  0.511853  1
  Fe  Fe23  1  0.432301  0.749347  0.488147  1
  Bi  Bi24  1  0.576630  0.513493  0.824396  1
  Bi  Bi25  1  0.423370  0.486507  0.175604  1
  Bi  Bi26  1  0.073579  0.488329  0.675698  1
  Bi  Bi27  1  0.430918  0.010687  0.173048  1
  Bi  Bi28  1  0.926421  0.511671  0.324302  1
  Bi  Bi29  1  0.569082  0.989313  0.826952  1
  Bi  Bi30  1  0.924230  0.986880  0.322664  1
  Bi  Bi31  1  0.075770  0.013120  0.677336  1
