# generated using pymatgen
data_TbEr6Co6Sn23
_symmetry_space_group_name_H-M   'P 1'
_cell_length_a   9.68323000
_cell_length_b   9.68323035
_cell_length_c   9.95783200
_cell_angle_alpha   90.00000000
_cell_angle_beta   90.00000000
_cell_angle_gamma   120.00000563
_symmetry_Int_Tables_number   1
_chemical_formula_structural   TbEr6Co6Sn23
_chemical_formula_sum   'Tb1 Er6 Co6 Sn23'
_cell_volume   808.60405115
_cell_formula_units_Z   1
loop_
 _symmetry_equiv_pos_site_id
 _symmetry_equiv_pos_as_xyz
  1  'x, y, z'
loop_
 _atom_site_type_symbol
 _atom_site_label
 _atom_site_symmetry_multiplicity
 _atom_site_fract_x
 _atom_site_fract_y
 _atom_site_fract_z
 _atom_site_occupancy
  Tb  Tb0  1  0.000000  0.000000  0.000000  1
  Er  Er1  1  0.479059  0.520941  0.305898  1
  Er  Er2  1  0.520941  0.479059  0.694102  1
  Er  Er3  1  0.479059  0.958117  0.305898  1
  Er  Er4  1  0.520941  0.041883  0.694102  1
  Er  Er5  1  0.041883  0.520941  0.305898  1
  Er  Er6  1  0.958117  0.479059  0.694102  1
  Co  Co7  1  0.832232  0.167768  0.197424  1
  Co  Co8  1  0.167768  0.832232  0.802576  1
  Co  Co9  1  0.832232  0.664464  0.197424  1
  Co  Co10  1  0.167768  0.335536  0.802576  1
  Co  Co11  1  0.335536  0.167768  0.197424  1
  Co  Co12  1  0.664464  0.832232  0.802576  1
  Sn  Sn13  1  0.118419  0.881581  0.274927  1
  Sn  Sn14  1  0.881581  0.118419  0.725073  1
  Sn  Sn15  1  0.118419  0.236837  0.274927  1
  Sn  Sn16  1  0.881581  0.763163  0.725073  1
  Sn  Sn17  1  0.763163  0.881581  0.274927  1
  Sn  Sn18  1  0.236837  0.118419  0.725073  1
  Sn  Sn19  1  0.780854  0.219146  0.452190  1
  Sn  Sn20  1  0.219146  0.780854  0.547810  1
  Sn  Sn21  1  0.780854  0.561709  0.452190  1
  Sn  Sn22  1  0.219146  0.438291  0.547810  1
  Sn  Sn23  1  0.438291  0.219146  0.452190  1
  Sn  Sn24  1  0.561709  0.780854  0.547810  1
  Sn  Sn25  1  0.346097  0.000000  0.000000  1
  Sn  Sn26  1  0.653903  0.000000  0.000000  1
  Sn  Sn27  1  0.000000  0.346097  0.000000  1
  Sn  Sn28  1  0.000000  0.653903  0.000000  1
  Sn  Sn29  1  0.653903  0.653903  0.000000  1
  Sn  Sn30  1  0.346097  0.346097  0.000000  1
  Sn  Sn31  1  0.333333  0.666667  0.118963  1
  Sn  Sn32  1  0.666667  0.333333  0.881037  1
  Sn  Sn33  1  0.333333  0.666667  0.817667  1
  Sn  Sn34  1  0.666667  0.333333  0.182333  1
  Sn  Sn35  1  0.000000  0.000000  0.500000  1
