# generated using pymatgen
data_Sc6Zn20Ni3Ge
_symmetry_space_group_name_H-M   'P 1'
_cell_length_a   8.74894202
_cell_length_b   8.74894178
_cell_length_c   8.69547600
_cell_angle_alpha   59.73622553
_cell_angle_beta   59.73622646
_cell_angle_gamma   59.54974651
_symmetry_Int_Tables_number   1
_chemical_formula_structural   Sc6Zn20Ni3Ge
_chemical_formula_sum   'Sc6 Zn20 Ni3 Ge1'
_cell_volume   467.15234550
_cell_formula_units_Z   1
loop_
 _symmetry_equiv_pos_site_id
 _symmetry_equiv_pos_as_xyz
  1  'x, y, z'
loop_
 _atom_site_type_symbol
 _atom_site_label
 _atom_site_symmetry_multiplicity
 _atom_site_fract_x
 _atom_site_fract_y
 _atom_site_fract_z
 _atom_site_occupancy
  Sc  Sc0  1  0.715860  0.281542  0.283788  1
  Sc  Sc1  1  0.284140  0.718458  0.716212  1
  Sc  Sc2  1  0.281542  0.715860  0.283788  1
  Sc  Sc3  1  0.718458  0.284140  0.716212  1
  Sc  Sc4  1  0.285580  0.285580  0.710768  1
  Sc  Sc5  1  0.714420  0.714420  0.289232  1
  Zn  Zn6  1  0.118911  0.118911  0.118408  1
  Zn  Zn7  1  0.881089  0.881089  0.881592  1
  Zn  Zn8  1  0.125067  0.125067  0.638452  1
  Zn  Zn9  1  0.114385  0.640720  0.130369  1
  Zn  Zn10  1  0.874933  0.874933  0.361548  1
  Zn  Zn11  1  0.885615  0.359280  0.869631  1
  Zn  Zn12  1  0.640720  0.114385  0.130369  1
  Zn  Zn13  1  0.359280  0.885615  0.869631  1
  Zn  Zn14  1  0.500000  0.000000  0.000000  1
  Zn  Zn15  1  0.000000  0.500000  0.000000  1
  Zn  Zn16  1  0.000000  0.000000  0.500000  1
  Zn  Zn17  1  0.500000  0.500000  0.000000  1
  Zn  Zn18  1  0.331800  0.331800  0.340740  1
  Zn  Zn19  1  0.668200  0.668200  0.659260  1
  Zn  Zn20  1  0.337651  0.337651  0.988061  1
  Zn  Zn21  1  0.338997  0.992731  0.340344  1
  Zn  Zn22  1  0.662349  0.662349  0.011939  1
  Zn  Zn23  1  0.661003  0.007269  0.659656  1
  Zn  Zn24  1  0.992731  0.338997  0.340344  1
  Zn  Zn25  1  0.007269  0.661003  0.659656  1
  Ni  Ni26  1  0.000000  0.500000  0.500000  1
  Ni  Ni27  1  0.500000  0.000000  0.500000  1
  Ni  Ni28  1  0.000000  0.000000  0.000000  1
  Ge  Ge29  1  0.500000  0.500000  0.500000  1
