# generated using pymatgen
data_DyCd2Ni6SnB2
_symmetry_space_group_name_H-M   'P 1'
_cell_length_a   5.22039003
_cell_length_b   5.22278836
_cell_length_c   13.93763600
_cell_angle_alpha   90.00000000
_cell_angle_beta   90.00000000
_cell_angle_gamma   120.01147529
_symmetry_Int_Tables_number   1
_chemical_formula_structural   DyCd2Ni6SnB2
_chemical_formula_sum   'Dy2 Cd4 Ni12 Sn2 B4'
_cell_volume   329.05985254
_cell_formula_units_Z   2
loop_
 _symmetry_equiv_pos_site_id
 _symmetry_equiv_pos_as_xyz
  1  'x, y, z'
loop_
 _atom_site_type_symbol
 _atom_site_label
 _atom_site_symmetry_multiplicity
 _atom_site_fract_x
 _atom_site_fract_y
 _atom_site_fract_z
 _atom_site_occupancy
  Dy  Dy0  1  0.666686  0.333334  0.750000  1
  Dy  Dy1  1  0.333314  0.666666  0.250000  1
  Cd  Cd2  1  0.333266  0.666661  0.472320  1
  Cd  Cd3  1  0.666734  0.333339  0.972320  1
  Cd  Cd4  1  0.666734  0.333339  0.527680  1
  Cd  Cd5  1  0.333266  0.666661  0.027680  1
  Ni  Ni6  1  0.832989  0.665914  0.346578  1
  Ni  Ni7  1  0.334116  0.167044  0.346553  1
  Ni  Ni8  1  0.833008  0.167033  0.153422  1
  Ni  Ni9  1  0.665884  0.832956  0.653447  1
  Ni  Ni10  1  0.167011  0.334086  0.653422  1
  Ni  Ni11  1  0.832989  0.665914  0.153422  1
  Ni  Ni12  1  0.334116  0.167044  0.153447  1
  Ni  Ni13  1  0.665884  0.832956  0.846553  1
  Ni  Ni14  1  0.167011  0.334086  0.846578  1
  Ni  Ni15  1  0.166992  0.832967  0.653422  1
  Ni  Ni16  1  0.166992  0.832967  0.846578  1
  Ni  Ni17  1  0.833008  0.167033  0.346578  1
  Sn  Sn18  1  0.000000  0.000000  0.000000  1
  Sn  Sn19  1  0.000000  0.000000  0.500000  1
  B  B20  1  0.666937  0.333382  0.250000  1
  B  B21  1  0.333063  0.666618  0.750000  1
  B  B22  1  0.000218  0.000065  0.750000  1
  B  B23  1  0.999782  0.999935  0.250000  1
