# generated using pymatgen
data_NdHg4Se2Br5
_symmetry_space_group_name_H-M   'P 1'
_cell_length_a   8.79121439
_cell_length_b   11.32918700
_cell_length_c   9.49429313
_cell_angle_alpha   90.00000000
_cell_angle_beta   114.30852873
_cell_angle_gamma   90.00000000
_symmetry_Int_Tables_number   1
_chemical_formula_structural   NdHg4Se2Br5
_chemical_formula_sum   'Nd2 Hg8 Se4 Br10'
_cell_volume   861.77054008
_cell_formula_units_Z   2
loop_
 _symmetry_equiv_pos_site_id
 _symmetry_equiv_pos_as_xyz
  1  'x, y, z'
loop_
 _atom_site_type_symbol
 _atom_site_label
 _atom_site_symmetry_multiplicity
 _atom_site_fract_x
 _atom_site_fract_y
 _atom_site_fract_z
 _atom_site_occupancy
  Nd  Nd0  1  0.504465  0.433001  0.509778  1
  Nd  Nd1  1  0.495535  0.933001  0.490222  1
  Hg  Hg2  1  0.924074  0.187948  0.332934  1
  Hg  Hg3  1  0.075926  0.687948  0.667066  1
  Hg  Hg4  1  0.949270  0.662020  0.362731  1
  Hg  Hg5  1  0.050730  0.162020  0.637269  1
  Hg  Hg6  1  0.497824  0.182213  0.989534  1
  Hg  Hg7  1  0.502176  0.682213  0.010466  1
  Hg  Hg8  1  0.797345  0.432181  0.018817  1
  Hg  Hg9  1  0.202655  0.932181  0.981183  1
  Se  Se10  1  0.800344  0.204948  0.029181  1
  Se  Se11  1  0.199656  0.704948  0.970819  1
  Se  Se12  1  0.193486  0.157405  0.941114  1
  Se  Se13  1  0.806514  0.657405  0.058886  1
  Br  Br14  1  0.847824  0.924659  0.686663  1
  Br  Br15  1  0.152176  0.424659  0.313337  1
  Br  Br16  1  0.856450  0.439341  0.719685  1
  Br  Br17  1  0.143550  0.939341  0.280315  1
  Br  Br18  1  0.407955  0.459800  0.768413  1
  Br  Br19  1  0.592045  0.959800  0.231587  1
  Br  Br20  1  0.593401  0.389128  0.256572  1
  Br  Br21  1  0.406599  0.889128  0.743428  1
  Br  Br22  1  0.495933  0.180958  0.570226  1
  Br  Br23  1  0.504067  0.680958  0.429774  1
