# generated using pymatgen
data_Yb6Al13Os7W3
_symmetry_space_group_name_H-M   'P 1'
_cell_length_a   8.99777797
_cell_length_b   8.99777794
_cell_length_c   8.99777875
_cell_angle_alpha   59.68669477
_cell_angle_beta   59.68669602
_cell_angle_gamma   59.68668648
_symmetry_Int_Tables_number   1
_chemical_formula_structural   Yb6Al13Os7W3
_chemical_formula_sum   'Yb6 Al13 Os7 W3'
_cell_volume   511.43304479
_cell_formula_units_Z   1
loop_
 _symmetry_equiv_pos_site_id
 _symmetry_equiv_pos_as_xyz
  1  'x, y, z'
loop_
 _atom_site_type_symbol
 _atom_site_label
 _atom_site_symmetry_multiplicity
 _atom_site_fract_x
 _atom_site_fract_y
 _atom_site_fract_z
 _atom_site_occupancy
  Yb  Yb0  1  0.710028  0.710028  0.285888  1
  Yb  Yb1  1  0.291621  0.710308  0.291621  1
  Yb  Yb2  1  0.710308  0.291621  0.291621  1
  Yb  Yb3  1  0.291621  0.291621  0.710308  1
  Yb  Yb4  1  0.710028  0.285888  0.710028  1
  Yb  Yb5  1  0.285888  0.710028  0.710028  1
  Al  Al6  1  0.881574  0.881574  0.881574  1
  Al  Al7  1  0.119623  0.119623  0.641506  1
  Al  Al8  1  0.119623  0.641506  0.119623  1
  Al  Al9  1  0.641506  0.119623  0.119623  1
  Al  Al10  1  0.120806  0.120806  0.120806  1
  Al  Al11  1  0.671477  0.671477  0.991257  1
  Al  Al12  1  0.671477  0.991257  0.671477  1
  Al  Al13  1  0.991257  0.671477  0.671477  1
  Al  Al14  1  0.667268  0.667268  0.667268  1
  Al  Al15  1  0.329767  0.329767  0.014068  1
  Al  Al16  1  0.329767  0.014068  0.329767  1
  Al  Al17  1  0.014068  0.329767  0.329767  1
  Al  Al18  1  0.330210  0.330210  0.330210  1
  Os  Os19  1  0.004502  0.004502  0.004502  1
  Os  Os20  1  0.996612  0.996612  0.492122  1
  Os  Os21  1  0.505378  0.993581  0.505378  1
  Os  Os22  1  0.993581  0.505378  0.505378  1
  Os  Os23  1  0.505378  0.505378  0.993581  1
  Os  Os24  1  0.996612  0.492122  0.996612  1
  Os  Os25  1  0.492122  0.996612  0.996612  1
  W  W26  1  0.878006  0.878006  0.361890  1
  W  W27  1  0.878006  0.361890  0.878006  1
  W  W28  1  0.361890  0.878006  0.878006  1
