# generated using pymatgen
data_Er3Lu7Zn3Co
_symmetry_space_group_name_H-M   'P 1'
_cell_length_a   9.29913600
_cell_length_b   9.29913636
_cell_length_c   9.31176000
_cell_angle_alpha   90.00000000
_cell_angle_beta   90.00000000
_cell_angle_gamma   119.99999161
_symmetry_Int_Tables_number   1
_chemical_formula_structural   Er3Lu7Zn3Co
_chemical_formula_sum   'Er6 Lu14 Zn6 Co2'
_cell_volume   697.34494611
_cell_formula_units_Z   2
loop_
 _symmetry_equiv_pos_site_id
 _symmetry_equiv_pos_as_xyz
  1  'x, y, z'
loop_
 _atom_site_type_symbol
 _atom_site_label
 _atom_site_symmetry_multiplicity
 _atom_site_fract_x
 _atom_site_fract_y
 _atom_site_fract_z
 _atom_site_occupancy
  Er  Er0  1  0.541725  0.458275  0.250000  1
  Er  Er1  1  0.541725  0.083450  0.250000  1
  Er  Er2  1  0.916550  0.458275  0.250000  1
  Er  Er3  1  0.458275  0.541725  0.750000  1
  Er  Er4  1  0.458275  0.916550  0.750000  1
  Er  Er5  1  0.083450  0.541725  0.750000  1
  Lu  Lu6  1  0.000000  0.000000  0.500000  1
  Lu  Lu7  1  0.000000  0.000000  0.000000  1
  Lu  Lu8  1  0.209205  0.790795  0.437006  1
  Lu  Lu9  1  0.209205  0.418409  0.437006  1
  Lu  Lu10  1  0.581591  0.790795  0.437006  1
  Lu  Lu11  1  0.790795  0.209205  0.562994  1
  Lu  Lu12  1  0.790795  0.581591  0.562994  1
  Lu  Lu13  1  0.418409  0.209205  0.562994  1
  Lu  Lu14  1  0.790795  0.209205  0.937006  1
  Lu  Lu15  1  0.790795  0.581591  0.937006  1
  Lu  Lu16  1  0.418409  0.209205  0.937006  1
  Lu  Lu17  1  0.209205  0.790795  0.062994  1
  Lu  Lu18  1  0.209205  0.418409  0.062994  1
  Lu  Lu19  1  0.581591  0.790795  0.062994  1
  Zn  Zn20  1  0.886352  0.113648  0.250000  1
  Zn  Zn21  1  0.886352  0.772702  0.250000  1
  Zn  Zn22  1  0.227298  0.113648  0.250000  1
  Zn  Zn23  1  0.113648  0.886352  0.750000  1
  Zn  Zn24  1  0.113648  0.227298  0.750000  1
  Zn  Zn25  1  0.772702  0.886352  0.750000  1
  Co  Co26  1  0.333333  0.666667  0.250000  1
  Co  Co27  1  0.666667  0.333333  0.750000  1
