# generated using pymatgen
data_Y2Er2MnSi4Ir
_symmetry_space_group_name_H-M   'P 1'
_cell_length_a   5.65066668
_cell_length_b   5.65066713
_cell_length_c   9.99497500
_cell_angle_alpha   63.22377257
_cell_angle_beta   63.22378160
_cell_angle_gamma   43.31759212
_symmetry_Int_Tables_number   1
_chemical_formula_structural   Y2Er2MnSi4Ir
_chemical_formula_sum   'Y2 Er2 Mn1 Si4 Ir1'
_cell_volume   191.50181526
_cell_formula_units_Z   1
loop_
 _symmetry_equiv_pos_site_id
 _symmetry_equiv_pos_as_xyz
  1  'x, y, z'
loop_
 _atom_site_type_symbol
 _atom_site_label
 _atom_site_symmetry_multiplicity
 _atom_site_fract_x
 _atom_site_fract_y
 _atom_site_fract_z
 _atom_site_occupancy
  Y  Y0  1  0.813263  0.813263  0.108358  1
  Y  Y1  1  0.188480  0.188480  0.889642  1
  Er  Er2  1  0.005140  0.005140  0.323782  1
  Er  Er3  1  0.995854  0.995854  0.676798  1
  Mn  Mn4  1  0.273620  0.273620  0.373127  1
  Si  Si5  1  0.637535  0.637535  0.438747  1
  Si  Si6  1  0.360682  0.360682  0.561502  1
  Si  Si7  1  0.506950  0.506950  0.122666  1
  Si  Si8  1  0.491248  0.491248  0.878017  1
  Ir  Ir9  1  0.727229  0.727229  0.627360  1
