# generated using pymatgen
data_MnV12Fe3(Si2C)4
_symmetry_space_group_name_H-M   'P 1'
_cell_length_a   7.64079243
_cell_length_b   7.62231893
_cell_length_c   7.62231800
_cell_angle_alpha   59.99999537
_cell_angle_beta   60.07994159
_cell_angle_gamma   60.07994038
_symmetry_Int_Tables_number   1
_chemical_formula_structural   MnV12Fe3(Si2C)4
_chemical_formula_sum   'Mn1 V12 Fe3 Si8 C4'
_cell_volume   314.28327808
_cell_formula_units_Z   1
loop_
 _symmetry_equiv_pos_site_id
 _symmetry_equiv_pos_as_xyz
  1  'x, y, z'
loop_
 _atom_site_type_symbol
 _atom_site_label
 _atom_site_symmetry_multiplicity
 _atom_site_fract_x
 _atom_site_fract_y
 _atom_site_fract_z
 _atom_site_occupancy
  Mn  Mn0  1  0.125000  0.625000  0.625000  1
  V  V1  1  0.811382  0.809918  0.189350  1
  V  V2  1  0.188583  0.194077  0.808670  1
  V  V3  1  0.811382  0.189350  0.809918  1
  V  V4  1  0.188583  0.808670  0.194077  1
  V  V5  1  0.188583  0.808670  0.808670  1
  V  V6  1  0.811382  0.189350  0.189350  1
  V  V7  1  0.438618  0.440082  0.060650  1
  V  V8  1  0.061417  0.055923  0.441330  1
  V  V9  1  0.438618  0.060650  0.440082  1
  V  V10  1  0.061417  0.441330  0.055923  1
  V  V11  1  0.061417  0.441330  0.441330  1
  V  V12  1  0.438618  0.060650  0.060650  1
  Fe  Fe13  1  0.625000  0.125000  0.625000  1
  Fe  Fe14  1  0.625000  0.625000  0.125000  1
  Fe  Fe15  1  0.625000  0.625000  0.625000  1
  Si  Si16  1  0.760835  0.413056  0.413056  1
  Si  Si17  1  0.416270  0.758800  0.412466  1
  Si  Si18  1  0.416270  0.412466  0.758800  1
  Si  Si19  1  0.416270  0.412466  0.412466  1
  Si  Si20  1  0.489165  0.836944  0.836944  1
  Si  Si21  1  0.833730  0.491200  0.837534  1
  Si  Si22  1  0.833730  0.837534  0.491200  1
  Si  Si23  1  0.833730  0.837534  0.837534  1
  C  C24  1  0.625000  0.125000  0.125000  1
  C  C25  1  0.125000  0.625000  0.125000  1
  C  C26  1  0.125000  0.125000  0.625000  1
  C  C27  1  0.125000  0.125000  0.125000  1
