# generated using pymatgen
data_Pr2Pa4VCo17P12
_symmetry_space_group_name_H-M   'P 1'
_cell_length_a   3.76865800
_cell_length_b   10.48941800
_cell_length_c   12.41492300
_cell_angle_alpha   90.00000000
_cell_angle_beta   90.00000000
_cell_angle_gamma   90.00000000
_symmetry_Int_Tables_number   1
_chemical_formula_structural   Pr2Pa4VCo17P12
_chemical_formula_sum   'Pr2 Pa4 V1 Co17 P12'
_cell_volume   490.77468190
_cell_formula_units_Z   1
loop_
 _symmetry_equiv_pos_site_id
 _symmetry_equiv_pos_as_xyz
  1  'x, y, z'
loop_
 _atom_site_type_symbol
 _atom_site_label
 _atom_site_symmetry_multiplicity
 _atom_site_fract_x
 _atom_site_fract_y
 _atom_site_fract_z
 _atom_site_occupancy
  Pr  Pr0  1  0.000000  0.500000  0.518460  1
  Pr  Pr1  1  0.500000  0.000000  0.482663  1
  Pa  Pa2  1  0.500000  0.820151  0.209172  1
  Pa  Pa3  1  0.500000  0.179849  0.209172  1
  Pa  Pa4  1  0.000000  0.681865  0.793435  1
  Pa  Pa5  1  0.000000  0.318135  0.793435  1
  V  V6  1  0.500000  0.500000  0.150869  1
  Co  Co7  1  0.000000  0.000000  0.841387  1
  Co  Co8  1  0.500000  0.500000  0.711349  1
  Co  Co9  1  0.000000  0.000000  0.288921  1
  Co  Co10  1  0.000000  0.500000  0.985125  1
  Co  Co11  1  0.500000  0.000000  0.017879  1
  Co  Co12  1  0.500000  0.332367  0.992595  1
  Co  Co13  1  0.500000  0.667633  0.992595  1
  Co  Co14  1  0.000000  0.167946  0.004685  1
  Co  Co15  1  0.000000  0.832054  0.004685  1
  Co  Co16  1  0.500000  0.297522  0.425385  1
  Co  Co17  1  0.500000  0.702478  0.425385  1
  Co  Co18  1  0.000000  0.201812  0.575689  1
  Co  Co19  1  0.000000  0.798188  0.575689  1
  Co  Co20  1  0.500000  0.877307  0.716694  1
  Co  Co21  1  0.500000  0.122693  0.716694  1
  Co  Co22  1  0.000000  0.623115  0.282891  1
  Co  Co23  1  0.000000  0.376885  0.282891  1
  P  P24  1  0.500000  0.500000  0.886704  1
  P  P25  1  0.000000  0.000000  0.112456  1
  P  P26  1  0.500000  0.500000  0.338388  1
  P  P27  1  0.000000  0.000000  0.662422  1
  P  P28  1  0.500000  0.308465  0.614262  1
  P  P29  1  0.500000  0.691535  0.614262  1
  P  P30  1  0.000000  0.192008  0.387438  1
  P  P31  1  0.000000  0.807992  0.387438  1
  P  P32  1  0.500000  0.850178  0.895656  1
  P  P33  1  0.500000  0.149822  0.895656  1
  P  P34  1  0.000000  0.654817  0.103785  1
  P  P35  1  0.000000  0.345183  0.103785  1
