# generated using pymatgen
data_Nd2Al20IrRu2Rh
_symmetry_space_group_name_H-M   'P 1'
_cell_length_a   6.88640665
_cell_length_b   6.90030902
_cell_length_c   9.22675078
_cell_angle_alpha   90.20252813
_cell_angle_beta   90.15544918
_cell_angle_gamma   97.14835311
_symmetry_Int_Tables_number   1
_chemical_formula_structural   Nd2Al20IrRu2Rh
_chemical_formula_sum   'Nd2 Al20 Ir1 Ru2 Rh1'
_cell_volume   435.02703779
_cell_formula_units_Z   1
loop_
 _symmetry_equiv_pos_site_id
 _symmetry_equiv_pos_as_xyz
  1  'x, y, z'
loop_
 _atom_site_type_symbol
 _atom_site_label
 _atom_site_symmetry_multiplicity
 _atom_site_fract_x
 _atom_site_fract_y
 _atom_site_fract_z
 _atom_site_occupancy
  Nd  Nd0  1  0.874331  0.125985  0.749621  1
  Nd  Nd1  1  0.125669  0.874015  0.250379  1
  Al  Al2  1  0.620602  0.376579  0.551737  1
  Al  Al3  1  0.379398  0.623421  0.448263  1
  Al  Al4  1  0.376740  0.620986  0.050843  1
  Al  Al5  1  0.623260  0.379014  0.949157  1
  Al  Al6  1  0.226537  0.225536  0.498981  1
  Al  Al7  1  0.773463  0.774464  0.501019  1
  Al  Al8  1  0.776010  0.773864  0.000320  1
  Al  Al9  1  0.223990  0.226136  0.999680  1
  Al  Al10  1  0.843418  0.159909  0.102042  1
  Al  Al11  1  0.156582  0.840091  0.897958  1
  Al  Al12  1  0.160387  0.842034  0.602826  1
  Al  Al13  1  0.839613  0.157966  0.397174  1
  Al  Al14  1  0.858211  0.589564  0.750398  1
  Al  Al15  1  0.141789  0.410436  0.249602  1
  Al  Al16  1  0.409222  0.142080  0.749124  1
  Al  Al17  1  0.590778  0.857920  0.250876  1
  Al  Al18  1  0.224332  0.482493  0.753330  1
  Al  Al19  1  0.775668  0.517507  0.246670  1
  Al  Al20  1  0.517279  0.777409  0.747909  1
  Al  Al21  1  0.482721  0.222591  0.252091  1
  Ir  Ir22  1  0.500000  0.000000  0.000000  1
  Ru  Ru23  1  0.000000  0.500000  0.000000  1
  Ru  Ru24  1  0.500000  0.000000  0.500000  1
  Rh  Rh25  1  0.000000  0.500000  0.500000  1
