# generated using pymatgen
data_SrTa4Hg3O14
_symmetry_space_group_name_H-M   'P 1'
_cell_length_a   7.59038248
_cell_length_b   7.46180300
_cell_length_c   7.46180400
_cell_angle_alpha   60.00000444
_cell_angle_beta   60.55880369
_cell_angle_gamma   60.55880343
_symmetry_Int_Tables_number   1
_chemical_formula_structural   SrTa4Hg3O14
_chemical_formula_sum   'Sr1 Ta4 Hg3 O14'
_cell_volume   301.33758404
_cell_formula_units_Z   1
loop_
 _symmetry_equiv_pos_site_id
 _symmetry_equiv_pos_as_xyz
  1  'x, y, z'
loop_
 _atom_site_type_symbol
 _atom_site_label
 _atom_site_symmetry_multiplicity
 _atom_site_fract_x
 _atom_site_fract_y
 _atom_site_fract_z
 _atom_site_occupancy
  Sr  Sr0  1  0.125000  0.625000  0.625000  1
  Ta  Ta1  1  0.125000  0.625000  0.125000  1
  Ta  Ta2  1  0.125000  0.125000  0.625000  1
  Ta  Ta3  1  0.625000  0.125000  0.125000  1
  Ta  Ta4  1  0.125000  0.125000  0.125000  1
  Hg  Hg5  1  0.625000  0.625000  0.625000  1
  Hg  Hg6  1  0.625000  0.125000  0.625000  1
  Hg  Hg7  1  0.625000  0.625000  0.125000  1
  O  O8  1  0.712648  0.762450  0.762450  1
  O  O9  1  0.184224  0.810108  0.810108  1
  O  O10  1  0.184224  0.810108  0.195560  1
  O  O11  1  0.816211  0.812448  0.185670  1
  O  O12  1  0.816211  0.185670  0.812448  1
  O  O13  1  0.184224  0.195560  0.810108  1
  O  O14  1  0.433789  0.064330  0.064330  1
  O  O15  1  0.816211  0.185670  0.185670  1
  O  O16  1  0.065776  0.439892  0.054440  1
  O  O17  1  0.065776  0.054440  0.439892  1
  O  O18  1  0.433789  0.437552  0.064330  1
  O  O19  1  0.433789  0.064330  0.437552  1
  O  O20  1  0.065776  0.439892  0.439892  1
  O  O21  1  0.537352  0.487550  0.487550  1
