# generated using pymatgen
data_SmBiSO6
_symmetry_space_group_name_H-M   'P 1'
_cell_length_a   4.23990302
_cell_length_b   7.38072790
_cell_length_c   8.25572362
_cell_angle_alpha   106.07091922
_cell_angle_beta   91.08563545
_cell_angle_gamma   106.29407819
_symmetry_Int_Tables_number   1
_chemical_formula_structural   SmBiSO6
_chemical_formula_sum   'Sm2 Bi2 S2 O12'
_cell_volume   236.97237973
_cell_formula_units_Z   2
loop_
 _symmetry_equiv_pos_site_id
 _symmetry_equiv_pos_as_xyz
  1  'x, y, z'
loop_
 _atom_site_type_symbol
 _atom_site_label
 _atom_site_symmetry_multiplicity
 _atom_site_fract_x
 _atom_site_fract_y
 _atom_site_fract_z
 _atom_site_occupancy
  Sm  Sm0  1  0.340457  0.672064  0.921956  1
  Sm  Sm1  1  0.659543  0.327936  0.078044  1
  Bi  Bi2  1  0.675228  0.345899  0.591948  1
  Bi  Bi3  1  0.324772  0.654101  0.408052  1
  S  S4  1  0.944983  0.998251  0.758289  1
  S  S5  1  0.055017  0.001749  0.241711  1
  O  O6  1  0.767929  0.509891  0.877630  1
  O  O7  1  0.232071  0.490109  0.122370  1
  O  O8  1  0.268561  0.498529  0.623334  1
  O  O9  1  0.731439  0.501471  0.376666  1
  O  O10  1  0.747985  0.992563  0.605896  1
  O  O11  1  0.252015  0.007437  0.394104  1
  O  O12  1  0.728717  0.001589  0.901234  1
  O  O13  1  0.271283  0.998411  0.098766  1
  O  O14  1  0.227493  0.183160  0.809650  1
  O  O15  1  0.772507  0.816840  0.190350  1
  O  O16  1  0.055854  0.819304  0.724853  1
  O  O17  1  0.944146  0.180696  0.275147  1
