# generated using pymatgen
data_YbCuP2O7
_symmetry_space_group_name_H-M   'P 1'
_cell_length_a   6.02018087
_cell_length_b   6.46353970
_cell_length_c   7.36325203
_cell_angle_alpha   98.71737248
_cell_angle_beta   88.77001121
_cell_angle_gamma   111.30469135
_symmetry_Int_Tables_number   1
_chemical_formula_structural   YbCuP2O7
_chemical_formula_sum   'Yb2 Cu2 P4 O14'
_cell_volume   263.67703743
_cell_formula_units_Z   2
loop_
 _symmetry_equiv_pos_site_id
 _symmetry_equiv_pos_as_xyz
  1  'x, y, z'
loop_
 _atom_site_type_symbol
 _atom_site_label
 _atom_site_symmetry_multiplicity
 _atom_site_fract_x
 _atom_site_fract_y
 _atom_site_fract_z
 _atom_site_occupancy
  Yb  Yb0  1  0.707196  0.718023  0.364413  1
  Yb  Yb1  1  0.292804  0.281977  0.635587  1
  Cu  Cu2  1  0.735357  0.124817  0.827971  1
  Cu  Cu3  1  0.264643  0.875183  0.172029  1
  P  P4  1  0.839153  0.659670  0.883180  1
  P  P5  1  0.160847  0.340330  0.116820  1
  P  P6  1  0.757876  0.217580  0.377531  1
  P  P7  1  0.242124  0.782420  0.622469  1
  O  O8  1  0.930432  0.738623  0.086282  1
  O  O9  1  0.069568  0.261377  0.913718  1
  O  O10  1  0.745156  0.816684  0.803170  1
  O  O11  1  0.254844  0.183316  0.196830  1
  O  O12  1  0.660070  0.415899  0.854845  1
  O  O13  1  0.339930  0.584101  0.145155  1
  O  O14  1  0.366793  0.625722  0.542661  1
  O  O15  1  0.633207  0.374278  0.457339  1
  O  O16  1  0.901503  0.158162  0.515100  1
  O  O17  1  0.098497  0.841838  0.484900  1
  O  O18  1  0.930628  0.353106  0.230250  1
  O  O19  1  0.408738  0.007031  0.732616  1
  O  O20  1  0.591262  0.992969  0.267384  1
  O  O21  1  0.069372  0.646894  0.769750  1
