# generated using pymatgen
data_Yb4SnSb3O14
_symmetry_space_group_name_H-M   'P 1'
_cell_length_a   7.38602947
_cell_length_b   7.35078556
_cell_length_c   7.38603000
_cell_angle_alpha   59.84126712
_cell_angle_beta   59.99999762
_cell_angle_gamma   59.84126791
_symmetry_Int_Tables_number   1
_chemical_formula_structural   Yb4SnSb3O14
_chemical_formula_sum   'Yb4 Sn1 Sb3 O14'
_cell_volume   282.87508466
_cell_formula_units_Z   1
loop_
 _symmetry_equiv_pos_site_id
 _symmetry_equiv_pos_as_xyz
  1  'x, y, z'
loop_
 _atom_site_type_symbol
 _atom_site_label
 _atom_site_symmetry_multiplicity
 _atom_site_fract_x
 _atom_site_fract_y
 _atom_site_fract_z
 _atom_site_occupancy
  Yb  Yb0  1  0.625000  0.625000  0.125000  1
  Yb  Yb1  1  0.625000  0.125000  0.625000  1
  Yb  Yb2  1  0.125000  0.625000  0.625000  1
  Yb  Yb3  1  0.625000  0.625000  0.625000  1
  Sn  Sn4  1  0.125000  0.625000  0.125000  1
  Sb  Sb5  1  0.125000  0.125000  0.625000  1
  Sb  Sb6  1  0.625000  0.125000  0.125000  1
  Sb  Sb7  1  0.125000  0.125000  0.125000  1
  O  O8  1  0.748816  0.753553  0.748816  1
  O  O9  1  0.501184  0.496447  0.501184  1
  O  O10  1  0.042899  0.450927  0.042899  1
  O  O11  1  0.798139  0.198655  0.798139  1
  O  O12  1  0.044933  0.051345  0.451861  1
  O  O13  1  0.451861  0.051345  0.044933  1
  O  O14  1  0.042899  0.450927  0.463274  1
  O  O15  1  0.463274  0.450927  0.042899  1
  O  O16  1  0.451861  0.051345  0.451861  1
  O  O17  1  0.207101  0.799073  0.786726  1
  O  O18  1  0.798139  0.198655  0.205067  1
  O  O19  1  0.207101  0.799073  0.207101  1
  O  O20  1  0.786726  0.799073  0.207101  1
  O  O21  1  0.205067  0.198655  0.798139  1
