# generated using pymatgen
data_Y2HoSn3Ir2Pd
_symmetry_space_group_name_H-M   'P 1'
_cell_length_a   7.58842801
_cell_length_b   7.59335141
_cell_length_c   3.89544900
_cell_angle_alpha   90.00000000
_cell_angle_beta   90.00000000
_cell_angle_gamma   119.98499990
_symmetry_Int_Tables_number   1
_chemical_formula_structural   Y2HoSn3Ir2Pd
_chemical_formula_sum   'Y2 Ho1 Sn3 Ir2 Pd1'
_cell_volume   194.41917509
_cell_formula_units_Z   1
loop_
 _symmetry_equiv_pos_site_id
 _symmetry_equiv_pos_as_xyz
  1  'x, y, z'
loop_
 _atom_site_type_symbol
 _atom_site_label
 _atom_site_symmetry_multiplicity
 _atom_site_fract_x
 _atom_site_fract_y
 _atom_site_fract_z
 _atom_site_occupancy
  Y  Y0  1  0.396333  0.408436  0.500000  1
  Y  Y1  1  0.591579  0.987930  0.500000  1
  Ho  Ho2  1  0.012611  0.603945  0.500000  1
  Sn  Sn3  1  0.740516  0.738204  0.000000  1
  Sn  Sn4  1  0.261497  0.001769  0.000000  1
  Sn  Sn5  1  0.997909  0.259880  0.000000  1
  Ir  Ir6  1  0.332022  0.666460  0.000000  1
  Ir  Ir7  1  0.000048  0.999366  0.500000  1
  Pd  Pd8  1  0.667485  0.334009  0.000000  1
