# generated using pymatgen
data_LaCe2LuSb5
_symmetry_space_group_name_H-M   'P 1'
_cell_length_a   9.57677700
_cell_length_b   9.54828383
_cell_length_c   6.45733100
_cell_angle_alpha   90.00000000
_cell_angle_beta   90.00000000
_cell_angle_gamma   120.09875943
_symmetry_Int_Tables_number   1
_chemical_formula_structural   LaCe2LuSb5
_chemical_formula_sum   'La2 Ce4 Lu2 Sb10'
_cell_volume   510.85226090
_cell_formula_units_Z   2
loop_
 _symmetry_equiv_pos_site_id
 _symmetry_equiv_pos_as_xyz
  1  'x, y, z'
loop_
 _atom_site_type_symbol
 _atom_site_label
 _atom_site_symmetry_multiplicity
 _atom_site_fract_x
 _atom_site_fract_y
 _atom_site_fract_z
 _atom_site_occupancy
  La  La0  1  0.617036  0.000000  0.250000  1
  La  La1  1  0.382964  0.000000  0.750000  1
  Ce  Ce2  1  0.001368  0.615897  0.250000  1
  Ce  Ce3  1  0.998632  0.384103  0.750000  1
  Ce  Ce4  1  0.385470  0.384103  0.250000  1
  Ce  Ce5  1  0.614530  0.615897  0.750000  1
  Lu  Lu6  1  0.000000  0.000000  0.000000  1
  Lu  Lu7  1  0.000000  0.000000  0.500000  1
  Sb  Sb8  1  0.265732  0.000000  0.250000  1
  Sb  Sb9  1  0.734268  0.000000  0.750000  1
  Sb  Sb10  1  0.004512  0.271418  0.250000  1
  Sb  Sb11  1  0.995488  0.728582  0.750000  1
  Sb  Sb12  1  0.733094  0.728582  0.250000  1
  Sb  Sb13  1  0.266906  0.271418  0.750000  1
  Sb  Sb14  1  0.330777  0.661555  0.000000  1
  Sb  Sb15  1  0.669223  0.338445  0.000000  1
  Sb  Sb16  1  0.669223  0.338445  0.500000  1
  Sb  Sb17  1  0.330777  0.661555  0.500000  1
