# generated using pymatgen
data_TbMg(NiPt)2
_symmetry_space_group_name_H-M   'P 1'
_cell_length_a   5.00406167
_cell_length_b   5.16767699
_cell_length_c   5.16767493
_cell_angle_alpha   63.24342550
_cell_angle_beta   61.04193398
_cell_angle_gamma   61.04191927
_symmetry_Int_Tables_number   1
_chemical_formula_structural   TbMg(NiPt)2
_chemical_formula_sum   'Tb1 Mg1 Ni2 Pt2'
_cell_volume   98.15886962
_cell_formula_units_Z   1
loop_
 _symmetry_equiv_pos_site_id
 _symmetry_equiv_pos_as_xyz
  1  'x, y, z'
loop_
 _atom_site_type_symbol
 _atom_site_label
 _atom_site_symmetry_multiplicity
 _atom_site_fract_x
 _atom_site_fract_y
 _atom_site_fract_z
 _atom_site_occupancy
  Tb  Tb0  1  0.002235  0.997765  0.997765  1
  Mg  Mg1  1  0.239196  0.260804  0.260804  1
  Ni  Ni2  1  0.128428  0.621621  0.621621  1
  Ni  Ni3  1  0.628328  0.621621  0.621621  1
  Pt  Pt4  1  0.625906  0.622077  0.126111  1
  Pt  Pt5  1  0.625906  0.126111  0.622077  1
