# generated using pymatgen
data_Ca7Pr(NdIr2)2
_symmetry_space_group_name_H-M   'P 1'
_cell_length_a   8.66201813
_cell_length_b   8.74625075
_cell_length_c   7.55349249
_cell_angle_alpha   83.10231206
_cell_angle_beta   82.86939752
_cell_angle_gamma   45.26347573
_symmetry_Int_Tables_number   1
_chemical_formula_structural   Ca7Pr(NdIr2)2
_chemical_formula_sum   'Ca7 Pr1 Nd2 Ir4'
_cell_volume   402.92215546
_cell_formula_units_Z   1
loop_
 _symmetry_equiv_pos_site_id
 _symmetry_equiv_pos_as_xyz
  1  'x, y, z'
loop_
 _atom_site_type_symbol
 _atom_site_label
 _atom_site_symmetry_multiplicity
 _atom_site_fract_x
 _atom_site_fract_y
 _atom_site_fract_z
 _atom_site_occupancy
  Ca  Ca0  1  0.195849  0.984631  0.579656  1
  Ca  Ca1  1  0.983038  0.198577  0.084447  1
  Ca  Ca2  1  0.806766  0.017734  0.416525  1
  Ca  Ca3  1  0.361786  0.202846  0.821117  1
  Ca  Ca4  1  0.797432  0.639179  0.678637  1
  Ca  Ca5  1  0.637169  0.797220  0.179411  1
  Ca  Ca6  1  0.199853  0.364354  0.319019  1
  Pr  Pr7  1  0.022190  0.805913  0.917885  1
  Nd  Nd8  1  0.573323  0.429500  0.747040  1
  Nd  Nd9  1  0.433290  0.564745  0.252136  1
  Ir  Ir10  1  0.181501  0.602958  0.585065  1
  Ir  Ir11  1  0.385892  0.810835  0.923466  1
  Ir  Ir12  1  0.813216  0.402995  0.420301  1
  Ir  Ir13  1  0.608693  0.178514  0.075293  1
