# generated using pymatgen
data_Zr(S4Br3)2
_symmetry_space_group_name_H-M   'P 1'
_cell_length_a   9.04946073
_cell_length_b   8.53531797
_cell_length_c   15.29423488
_cell_angle_alpha   89.24326351
_cell_angle_beta   96.65461336
_cell_angle_gamma   95.37787757
_symmetry_Int_Tables_number   1
_chemical_formula_structural   Zr(S4Br3)2
_chemical_formula_sum   'Zr2 S16 Br12'
_cell_volume   1168.20000713
_cell_formula_units_Z   2
loop_
 _symmetry_equiv_pos_site_id
 _symmetry_equiv_pos_as_xyz
  1  'x, y, z'
loop_
 _atom_site_type_symbol
 _atom_site_label
 _atom_site_symmetry_multiplicity
 _atom_site_fract_x
 _atom_site_fract_y
 _atom_site_fract_z
 _atom_site_occupancy
  Zr  Zr0  1  0.717194  0.160453  0.873456  1
  Zr  Zr1  1  0.282806  0.839547  0.126544  1
  S  S2  1  0.413488  0.767285  0.646642  1
  S  S3  1  0.586512  0.232715  0.353358  1
  S  S4  1  0.270795  0.912782  0.577998  1
  S  S5  1  0.729205  0.087218  0.422002  1
  S  S6  1  0.103439  0.953362  0.653268  1
  S  S7  1  0.896561  0.046638  0.346732  1
  S  S8  1  0.916358  0.803136  0.614113  1
  S  S9  1  0.083642  0.196864  0.385887  1
  S  S10  1  0.912289  0.608448  0.695287  1
  S  S11  1  0.087711  0.391552  0.304713  1
  S  S12  1  0.001569  0.428411  0.636659  1
  S  S13  1  0.998431  0.571589  0.363341  1
  S  S14  1  0.221578  0.422708  0.688224  1
  S  S15  1  0.778422  0.577292  0.311776  1
  S  S16  1  0.642277  0.460788  0.395798  1
  S  S17  1  0.357723  0.539212  0.604202  1
  Br  Br18  1  0.728683  0.153778  0.070672  1
  Br  Br19  1  0.271317  0.846222  0.929328  1
  Br  Br20  1  0.670461  0.170383  0.709580  1
  Br  Br21  1  0.329539  0.829617  0.290420  1
  Br  Br22  1  0.397726  0.112591  0.901276  1
  Br  Br23  1  0.602274  0.887409  0.098724  1
  Br  Br24  1  0.543047  0.396991  0.890218  1
  Br  Br25  1  0.456953  0.603009  0.109782  1
  Br  Br26  1  0.965394  0.317423  0.902698  1
  Br  Br27  1  0.034606  0.682577  0.097302  1
  Br  Br28  1  0.761101  0.874045  0.887518  1
  Br  Br29  1  0.238899  0.125955  0.112482  1
