# generated using pymatgen
data_La7Th(GePd)8
_symmetry_space_group_name_H-M   'P 1'
_cell_length_a   4.56128000
_cell_length_b   7.81117402
_cell_length_c   14.90812603
_cell_angle_alpha   90.02563300
_cell_angle_beta   90.00000000
_cell_angle_gamma   90.00000000
_symmetry_Int_Tables_number   1
_chemical_formula_structural   La7Th(GePd)8
_chemical_formula_sum   'La7 Th1 Ge8 Pd8'
_cell_volume   531.16085140
_cell_formula_units_Z   1
loop_
 _symmetry_equiv_pos_site_id
 _symmetry_equiv_pos_as_xyz
  1  'x, y, z'
loop_
 _atom_site_type_symbol
 _atom_site_label
 _atom_site_symmetry_multiplicity
 _atom_site_fract_x
 _atom_site_fract_y
 _atom_site_fract_z
 _atom_site_occupancy
  La  La0  1  0.000000  0.216767  0.753209  1
  La  La1  1  0.000000  0.216504  0.247587  1
  La  La2  1  0.500000  0.783059  0.746569  1
  La  La3  1  0.000000  0.283824  0.499283  1
  La  La4  1  0.500000  0.716798  0.999770  1
  La  La5  1  0.000000  0.294936  0.001273  1
  La  La6  1  0.500000  0.706614  0.500164  1
  Th  Th7  1  0.500000  0.778801  0.252732  1
  Ge  Ge8  1  0.000000  0.589621  0.855490  1
  Ge  Ge9  1  0.000000  0.590230  0.147923  1
  Ge  Ge10  1  0.500000  0.410595  0.643581  1
  Ge  Ge11  1  0.500000  0.410457  0.355486  1
  Ge  Ge12  1  0.000000  0.910456  0.401764  1
  Ge  Ge13  1  0.000000  0.912817  0.593947  1
  Ge  Ge14  1  0.500000  0.088408  0.097391  1
  Ge  Ge15  1  0.500000  0.087338  0.906425  1
  Pd  Pd16  1  0.000000  0.922972  0.888704  1
  Pd  Pd17  1  0.000000  0.921776  0.115827  1
  Pd  Pd18  1  0.500000  0.077711  0.611553  1
  Pd  Pd19  1  0.500000  0.071376  0.383168  1
  Pd  Pd20  1  0.000000  0.587166  0.343822  1
  Pd  Pd21  1  0.000000  0.581155  0.651132  1
  Pd  Pd22  1  0.500000  0.422210  0.153514  1
  Pd  Pd23  1  0.500000  0.418410  0.849684  1
