# generated using pymatgen
data_Er20Ir7RhAu4
_symmetry_space_group_name_H-M   'P 1'
_cell_length_a   11.03859298
_cell_length_b   11.01927525
_cell_length_c   6.31758401
_cell_angle_alpha   89.85645680
_cell_angle_beta   89.97966527
_cell_angle_gamma   89.20317420
_symmetry_Int_Tables_number   1
_chemical_formula_structural   Er20Ir7RhAu4
_chemical_formula_sum   'Er20 Ir7 Rh1 Au4'
_cell_volume   768.37706265
_cell_formula_units_Z   1
loop_
 _symmetry_equiv_pos_site_id
 _symmetry_equiv_pos_as_xyz
  1  'x, y, z'
loop_
 _atom_site_type_symbol
 _atom_site_label
 _atom_site_symmetry_multiplicity
 _atom_site_fract_x
 _atom_site_fract_y
 _atom_site_fract_z
 _atom_site_occupancy
  Er  Er0  1  0.298574  0.088541  0.365856  1
  Er  Er1  1  0.302613  0.905808  0.865322  1
  Er  Er2  1  0.701798  0.073352  0.858219  1
  Er  Er3  1  0.701648  0.903388  0.371507  1
  Er  Er4  1  0.587532  0.786493  0.877039  1
  Er  Er5  1  0.575686  0.203811  0.361776  1
  Er  Er6  1  0.420565  0.789081  0.375434  1
  Er  Er7  1  0.411657  0.204949  0.878038  1
  Er  Er8  1  0.212607  0.421578  0.623531  1
  Er  Er9  1  0.210036  0.582983  0.125101  1
  Er  Er10  1  0.795550  0.427657  0.137356  1
  Er  Er11  1  0.794754  0.596786  0.621354  1
  Er  Er12  1  0.906234  0.706340  0.126550  1
  Er  Er13  1  0.919389  0.305414  0.637372  1
  Er  Er14  1  0.087096  0.703921  0.639987  1
  Er  Er15  1  0.094145  0.301907  0.136859  1
  Er  Er16  1  0.990571  0.997076  0.499701  1
  Er  Er17  1  0.996013  0.996443  0.998417  1
  Er  Er18  1  0.495684  0.501647  0.002144  1
  Er  Er19  1  0.499375  0.502210  0.499709  1
  Ir  Ir20  1  0.653075  0.651452  0.251125  1
  Ir  Ir21  1  0.348821  0.345498  0.250230  1
  Ir  Ir22  1  0.344273  0.653047  0.748097  1
  Ir  Ir23  1  0.499787  0.997992  0.113277  1
  Ir  Ir24  1  0.499090  0.998716  0.613888  1
  Ir  Ir25  1  0.000582  0.502347  0.886567  1
  Ir  Ir26  1  0.000952  0.502931  0.385729  1
  Rh  Rh27  1  0.846334  0.849119  0.750286  1
  Au  Au28  1  0.840212  0.160032  0.246463  1
  Au  Au29  1  0.152251  0.154543  0.748458  1
  Au  Au30  1  0.156342  0.843665  0.251663  1
  Au  Au31  1  0.656752  0.341274  0.752943  1
