# generated using pymatgen
data_Dy7CoSn23Ru5
_symmetry_space_group_name_H-M   'P 1'
_cell_length_a   9.83896044
_cell_length_b   9.87790641
_cell_length_c   10.05226095
_cell_angle_alpha   90.00000075
_cell_angle_beta   90.04330109
_cell_angle_gamma   120.13102773
_symmetry_Int_Tables_number   1
_chemical_formula_structural   Dy7CoSn23Ru5
_chemical_formula_sum   'Dy7 Co1 Sn23 Ru5'
_cell_volume   844.95468229
_cell_formula_units_Z   1
loop_
 _symmetry_equiv_pos_site_id
 _symmetry_equiv_pos_as_xyz
  1  'x, y, z'
loop_
 _atom_site_type_symbol
 _atom_site_label
 _atom_site_symmetry_multiplicity
 _atom_site_fract_x
 _atom_site_fract_y
 _atom_site_fract_z
 _atom_site_occupancy
  Dy  Dy0  1  0.007361  0.003681  0.003542  1
  Dy  Dy1  1  0.484541  0.516687  0.304617  1
  Dy  Dy2  1  0.515668  0.483500  0.695161  1
  Dy  Dy3  1  0.484541  0.967854  0.304617  1
  Dy  Dy4  1  0.515668  0.032168  0.695161  1
  Dy  Dy5  1  0.031963  0.515982  0.304230  1
  Dy  Dy6  1  0.965234  0.482617  0.695119  1
  Co  Co7  1  0.659311  0.829656  0.798809  1
  Sn  Sn8  1  0.350451  0.999744  0.000039  1
  Sn  Sn9  1  0.652299  0.996382  0.995638  1
  Sn  Sn10  1  0.000149  0.348339  0.000077  1
  Sn  Sn11  1  0.000149  0.651810  0.000077  1
  Sn  Sn12  1  0.652299  0.655917  0.995638  1
  Sn  Sn13  1  0.350451  0.350707  0.000039  1
  Sn  Sn14  1  0.334556  0.667279  0.819445  1
  Sn  Sn15  1  0.666584  0.333291  0.178580  1
  Sn  Sn16  1  0.999768  0.999884  0.501213  1
  Sn  Sn17  1  0.780062  0.221066  0.462813  1
  Sn  Sn18  1  0.220002  0.778204  0.536999  1
  Sn  Sn19  1  0.780062  0.558996  0.462813  1
  Sn  Sn20  1  0.220002  0.441798  0.536999  1
  Sn  Sn21  1  0.442244  0.221122  0.462345  1
  Sn  Sn22  1  0.563063  0.781532  0.542139  1
  Sn  Sn23  1  0.333462  0.666732  0.125418  1
  Sn  Sn24  1  0.665867  0.332933  0.873986  1
  Sn  Sn25  1  0.115934  0.883134  0.277385  1
  Sn  Sn26  1  0.879205  0.110321  0.725960  1
  Sn  Sn27  1  0.115934  0.232800  0.277385  1
  Sn  Sn28  1  0.879205  0.768884  0.725960  1
  Sn  Sn29  1  0.764045  0.882023  0.272083  1
  Sn  Sn30  1  0.235913  0.117956  0.727199  1
  Ru  Ru31  1  0.828643  0.168024  0.201389  1
  Ru  Ru32  1  0.169025  0.830301  0.797318  1
  Ru  Ru33  1  0.828643  0.660618  0.201389  1
  Ru  Ru34  1  0.169025  0.338726  0.797318  1
  Ru  Ru35  1  0.338669  0.169334  0.201094  1
