# generated using pymatgen
data_La5Pr5(Al2Ru3)2
_symmetry_space_group_name_H-M   'P 1'
_cell_length_a   8.60710112
_cell_length_b   8.60710050
_cell_length_c   8.66675099
_cell_angle_alpha   109.47933448
_cell_angle_beta   109.39307740
_cell_angle_gamma   109.26110922
_symmetry_Int_Tables_number   1
_chemical_formula_structural   La5Pr5(Al2Ru3)2
_chemical_formula_sum   'La5 Pr5 Al4 Ru6'
_cell_volume   495.95179340
_cell_formula_units_Z   1
loop_
 _symmetry_equiv_pos_site_id
 _symmetry_equiv_pos_as_xyz
  1  'x, y, z'
loop_
 _atom_site_type_symbol
 _atom_site_label
 _atom_site_symmetry_multiplicity
 _atom_site_fract_x
 _atom_site_fract_y
 _atom_site_fract_z
 _atom_site_occupancy
  La  La0  1  0.252359  0.690269  0.439867  1
  La  La1  1  0.750402  0.812491  0.060133  1
  La  La2  1  0.439689  0.250100  0.688278  1
  La  La3  1  0.689461  0.439461  0.250000  1
  La  La4  1  0.061823  0.751411  0.811722  1
  Pr  Pr5  1  0.814819  0.064819  0.750000  1
  Pr  Pr6  1  0.214422  0.216896  0.215636  1
  Pr  Pr7  1  0.501260  0.998785  0.284364  1
  Pr  Pr8  1  0.283372  0.498424  0.997426  1
  Pr  Pr9  1  0.000998  0.285946  0.502574  1
  Al  Al10  1  0.588955  0.589202  0.587379  1
  Al  Al11  1  0.501823  0.001577  0.912621  1
  Al  Al12  1  0.913641  0.498754  0.000300  1
  Al  Al13  1  0.998454  0.913341  0.499700  1
  Ru  Ru14  1  0.246216  0.110969  0.861890  1
  Ru  Ru15  1  0.749079  0.384326  0.638110  1
  Ru  Ru16  1  0.861924  0.254628  0.122939  1
  Ru  Ru17  1  0.112584  0.862583  0.250000  1
  Ru  Ru18  1  0.631688  0.738986  0.377061  1
  Ru  Ru19  1  0.387032  0.637032  0.750000  1
