# generated using pymatgen
data_NaPr5Se8
_symmetry_space_group_name_H-M   'P 1'
_cell_length_a   7.81246321
_cell_length_b   7.81246364
_cell_length_c   7.81246270
_cell_angle_alpha   109.53836544
_cell_angle_beta   109.53836334
_cell_angle_gamma   109.33701916
_symmetry_Int_Tables_number   1
_chemical_formula_structural   NaPr5Se8
_chemical_formula_sum   'Na1 Pr5 Se8'
_cell_volume   367.06270376
_cell_formula_units_Z   1
loop_
 _symmetry_equiv_pos_site_id
 _symmetry_equiv_pos_as_xyz
  1  'x, y, z'
loop_
 _atom_site_type_symbol
 _atom_site_label
 _atom_site_symmetry_multiplicity
 _atom_site_fract_x
 _atom_site_fract_y
 _atom_site_fract_z
 _atom_site_occupancy
  Na  Na0  1  0.000000  0.000000  0.000000  1
  Pr  Pr1  1  0.624575  0.499670  0.381656  1
  Pr  Pr2  1  0.500330  0.881985  0.124905  1
  Pr  Pr3  1  0.118015  0.242920  0.618344  1
  Pr  Pr4  1  0.250000  0.750000  0.500000  1
  Pr  Pr5  1  0.757080  0.375425  0.875095  1
  Se  Se6  1  0.720957  0.972038  0.598222  1
  Se  Se7  1  0.234612  0.488992  0.103792  1
  Se  Se8  1  0.869180  0.765388  0.254380  1
  Se  Se9  1  0.027962  0.626184  0.748919  1
  Se  Se10  1  0.385199  0.130820  0.896208  1
  Se  Se11  1  0.511008  0.614801  0.745620  1
  Se  Se12  1  0.877265  0.279043  0.251081  1
  Se  Se13  1  0.373816  0.122735  0.401778  1
