# generated using pymatgen
data_PrTm4U(Co3P2)6
_symmetry_space_group_name_H-M   'P 1'
_cell_length_a   3.69159100
_cell_length_b   10.52931300
_cell_length_c   12.12357400
_cell_angle_alpha   90.00000000
_cell_angle_beta   90.00000000
_cell_angle_gamma   90.00000000
_symmetry_Int_Tables_number   1
_chemical_formula_structural   PrTm4U(Co3P2)6
_chemical_formula_sum   'Pr1 Tm4 U1 Co18 P12'
_cell_volume   471.24231642
_cell_formula_units_Z   1
loop_
 _symmetry_equiv_pos_site_id
 _symmetry_equiv_pos_as_xyz
  1  'x, y, z'
loop_
 _atom_site_type_symbol
 _atom_site_label
 _atom_site_symmetry_multiplicity
 _atom_site_fract_x
 _atom_site_fract_y
 _atom_site_fract_z
 _atom_site_occupancy
  Pr  Pr0  1  0.500000  0.000000  0.475791  1
  Tm  Tm1  1  0.500000  0.816030  0.204920  1
  Tm  Tm2  1  0.500000  0.183970  0.204920  1
  Tm  Tm3  1  0.000000  0.682946  0.795172  1
  Tm  Tm4  1  0.000000  0.317054  0.795172  1
  U  U5  1  0.000000  0.500000  0.530024  1
  Co  Co6  1  0.500000  0.500000  0.158980  1
  Co  Co7  1  0.000000  0.000000  0.843163  1
  Co  Co8  1  0.500000  0.500000  0.694252  1
  Co  Co9  1  0.000000  0.000000  0.292963  1
  Co  Co10  1  0.000000  0.500000  0.985516  1
  Co  Co11  1  0.500000  0.000000  0.013686  1
  Co  Co12  1  0.500000  0.334162  0.993768  1
  Co  Co13  1  0.500000  0.665838  0.993768  1
  Co  Co14  1  0.000000  0.167200  0.005467  1
  Co  Co15  1  0.000000  0.832800  0.005467  1
  Co  Co16  1  0.500000  0.303338  0.431220  1
  Co  Co17  1  0.500000  0.696662  0.431220  1
  Co  Co18  1  0.000000  0.205739  0.569951  1
  Co  Co19  1  0.000000  0.794261  0.569951  1
  Co  Co20  1  0.500000  0.878369  0.713009  1
  Co  Co21  1  0.500000  0.121631  0.713009  1
  Co  Co22  1  0.000000  0.619560  0.290008  1
  Co  Co23  1  0.000000  0.380440  0.290008  1
  P  P24  1  0.500000  0.500000  0.878603  1
  P  P25  1  0.000000  0.000000  0.116987  1
  P  P26  1  0.500000  0.500000  0.345816  1
  P  P27  1  0.000000  0.000000  0.659885  1
  P  P28  1  0.500000  0.307072  0.616940  1
  P  P29  1  0.500000  0.692928  0.616940  1
  P  P30  1  0.000000  0.192901  0.380860  1
  P  P31  1  0.000000  0.807099  0.380860  1
  P  P32  1  0.500000  0.845837  0.894060  1
  P  P33  1  0.500000  0.154163  0.894060  1
  P  P34  1  0.000000  0.652747  0.106791  1
  P  P35  1  0.000000  0.347253  0.106791  1
