# generated using pymatgen
data_SmTm17(ThPt8)2
_symmetry_space_group_name_H-M   'P 1'
_cell_length_a   7.47712176
_cell_length_b   7.46910064
_cell_length_c   14.62577300
_cell_angle_alpha   89.99814361
_cell_angle_beta   89.97408437
_cell_angle_gamma   89.81571744
_symmetry_Int_Tables_number   1
_chemical_formula_structural   SmTm17(ThPt8)2
_chemical_formula_sum   'Sm1 Tm17 Th2 Pt16'
_cell_volume   816.80671963
_cell_formula_units_Z   1
loop_
 _symmetry_equiv_pos_site_id
 _symmetry_equiv_pos_as_xyz
  1  'x, y, z'
loop_
 _atom_site_type_symbol
 _atom_site_label
 _atom_site_symmetry_multiplicity
 _atom_site_fract_x
 _atom_site_fract_y
 _atom_site_fract_z
 _atom_site_occupancy
  Sm  Sm0  1  0.998268  0.822336  0.091315  1
  Tm  Tm1  1  0.681945  0.994382  0.248898  1
  Tm  Tm2  1  0.178557  0.508985  0.248564  1
  Tm  Tm3  1  0.821224  0.490921  0.747522  1
  Tm  Tm4  1  0.317972  0.005785  0.747776  1
  Tm  Tm5  1  0.661886  0.836727  0.624090  1
  Tm  Tm6  1  0.153900  0.667701  0.875959  1
  Tm  Tm7  1  0.847184  0.331836  0.377188  1
  Tm  Tm8  1  0.339680  0.163969  0.124900  1
  Tm  Tm9  1  0.343345  0.167785  0.378360  1
  Tm  Tm10  1  0.845325  0.334226  0.121878  1
  Tm  Tm11  1  0.154216  0.666167  0.621491  1
  Tm  Tm12  1  0.656897  0.831798  0.877671  1
  Tm  Tm13  1  0.996465  0.823383  0.406194  1
  Tm  Tm14  1  0.496655  0.681286  0.094889  1
  Tm  Tm15  1  0.502994  0.318288  0.594485  1
  Tm  Tm16  1  0.004076  0.178581  0.905420  1
  Tm  Tm17  1  0.003630  0.178881  0.591644  1
  Th  Th18  1  0.499064  0.320122  0.907873  1
  Th  Th19  1  0.501206  0.680183  0.408697  1
  Pt  Pt20  1  0.816376  0.644640  0.252219  1
  Pt  Pt21  1  0.320318  0.855300  0.252298  1
  Pt  Pt22  1  0.681021  0.144783  0.750909  1
  Pt  Pt23  1  0.180792  0.353191  0.749396  1
  Pt  Pt24  1  0.545747  0.385280  0.250272  1
  Pt  Pt25  1  0.046712  0.115094  0.251041  1
  Pt  Pt26  1  0.953860  0.886943  0.749881  1
  Pt  Pt27  1  0.453387  0.613914  0.749559  1
  Pt  Pt28  1  0.810119  0.530652  0.541699  1
  Pt  Pt29  1  0.317396  0.966745  0.957961  1
  Pt  Pt30  1  0.682901  0.035132  0.459409  1
  Pt  Pt31  1  0.191794  0.464750  0.040099  1
  Pt  Pt32  1  0.184130  0.465881  0.459341  1
  Pt  Pt33  1  0.678811  0.037583  0.041205  1
  Pt  Pt34  1  0.315858  0.965900  0.542059  1
  Pt  Pt35  1  0.816292  0.530872  0.957837  1
