# generated using pymatgen
data_Nd3SnGeIr2
_symmetry_space_group_name_H-M   'P 1'
_cell_length_a   5.78887800
_cell_length_b   8.41065500
_cell_length_c   13.66023400
_cell_angle_alpha   90.00000000
_cell_angle_beta   90.00000000
_cell_angle_gamma   90.00000000
_symmetry_Int_Tables_number   1
_chemical_formula_structural   Nd3SnGeIr2
_chemical_formula_sum   'Nd12 Sn4 Ge4 Ir8'
_cell_volume   665.09296585
_cell_formula_units_Z   4
loop_
 _symmetry_equiv_pos_site_id
 _symmetry_equiv_pos_as_xyz
  1  'x, y, z'
loop_
 _atom_site_type_symbol
 _atom_site_label
 _atom_site_symmetry_multiplicity
 _atom_site_fract_x
 _atom_site_fract_y
 _atom_site_fract_z
 _atom_site_occupancy
  Nd  Nd0  1  0.639588  0.251242  0.250000  1
  Nd  Nd1  1  0.360412  0.748758  0.750000  1
  Nd  Nd2  1  0.360412  0.751242  0.250000  1
  Nd  Nd3  1  0.639588  0.248758  0.750000  1
  Nd  Nd4  1  0.158862  0.394780  0.100776  1
  Nd  Nd5  1  0.841138  0.605220  0.899224  1
  Nd  Nd6  1  0.841138  0.605220  0.600776  1
  Nd  Nd7  1  0.841138  0.894780  0.399224  1
  Nd  Nd8  1  0.158862  0.394780  0.399224  1
  Nd  Nd9  1  0.158862  0.105220  0.600776  1
  Nd  Nd10  1  0.158862  0.105220  0.899224  1
  Nd  Nd11  1  0.841138  0.894780  0.100776  1
  Sn  Sn12  1  0.657998  0.250000  0.000000  1
  Sn  Sn13  1  0.342002  0.750000  0.000000  1
  Sn  Sn14  1  0.342002  0.750000  0.500000  1
  Sn  Sn15  1  0.657998  0.250000  0.500000  1
  Ge  Ge16  1  0.138630  0.103920  0.250000  1
  Ge  Ge17  1  0.861370  0.896080  0.750000  1
  Ge  Ge18  1  0.861370  0.603920  0.250000  1
  Ge  Ge19  1  0.138630  0.396080  0.750000  1
  Ir  Ir20  1  0.368977  0.040340  0.097171  1
  Ir  Ir21  1  0.631023  0.959660  0.902829  1
  Ir  Ir22  1  0.631023  0.959660  0.597171  1
  Ir  Ir23  1  0.631023  0.540340  0.402829  1
  Ir  Ir24  1  0.368977  0.040340  0.402829  1
  Ir  Ir25  1  0.368977  0.459660  0.597171  1
  Ir  Ir26  1  0.368977  0.459660  0.902829  1
  Ir  Ir27  1  0.631023  0.540340  0.097171  1
