# generated using pymatgen
data_Ho3Sc(Si5Os3)2
_symmetry_space_group_name_H-M   'P 1'
_cell_length_a   8.09551837
_cell_length_b   8.10862359
_cell_length_c   5.76533911
_cell_angle_alpha   70.54040780
_cell_angle_beta   70.63917678
_cell_angle_gamma   94.12644646
_symmetry_Int_Tables_number   1
_chemical_formula_structural   Ho3Sc(Si5Os3)2
_chemical_formula_sum   'Ho3 Sc1 Si10 Os6'
_cell_volume   329.50580863
_cell_formula_units_Z   1
loop_
 _symmetry_equiv_pos_site_id
 _symmetry_equiv_pos_as_xyz
  1  'x, y, z'
loop_
 _atom_site_type_symbol
 _atom_site_label
 _atom_site_symmetry_multiplicity
 _atom_site_fract_x
 _atom_site_fract_y
 _atom_site_fract_z
 _atom_site_occupancy
  Ho  Ho0  1  0.398767  0.131292  0.746738  1
  Ho  Ho1  1  0.130720  0.398929  0.247418  1
  Ho  Ho2  1  0.601239  0.869171  0.252903  1
  Sc  Sc3  1  0.868556  0.601602  0.751690  1
  Si  Si4  1  0.067001  0.261803  0.833783  1
  Si  Si5  1  0.739504  0.926722  0.667827  1
  Si  Si6  1  0.931772  0.737733  0.167449  1
  Si  Si7  1  0.263012  0.068393  0.333185  1
  Si  Si8  1  0.203526  0.792067  0.750442  1
  Si  Si9  1  0.794018  0.205839  0.250806  1
  Si  Si10  1  0.515960  0.489068  0.747831  1
  Si  Si11  1  0.487915  0.513583  0.250040  1
  Si  Si12  1  0.775580  0.227933  0.748988  1
  Si  Si13  1  0.222771  0.774688  0.252730  1
  Os  Os14  1  0.253799  0.543867  0.631207  1
  Os  Os15  1  0.454942  0.744108  0.870281  1
  Os  Os16  1  0.745683  0.457230  0.365831  1
  Os  Os17  1  0.545612  0.257876  0.129782  1
  Os  Os18  1  0.002079  0.996794  0.750267  1
  Os  Os19  1  0.997545  0.001302  0.250800  1
