# generated using pymatgen
data_Pr2Ho3Zr3(Co4P3)4
_symmetry_space_group_name_H-M   'P 1'
_cell_length_a   12.41883200
_cell_length_b   12.41883114
_cell_length_c   3.73280800
_cell_angle_alpha   90.00000000
_cell_angle_beta   90.00000000
_cell_angle_gamma   120.00000230
_symmetry_Int_Tables_number   1
_chemical_formula_structural   Pr2Ho3Zr3(Co4P3)4
_chemical_formula_sum   'Pr2 Ho3 Zr3 Co16 P12'
_cell_volume   498.57184277
_cell_formula_units_Z   1
loop_
 _symmetry_equiv_pos_site_id
 _symmetry_equiv_pos_as_xyz
  1  'x, y, z'
loop_
 _atom_site_type_symbol
 _atom_site_label
 _atom_site_symmetry_multiplicity
 _atom_site_fract_x
 _atom_site_fract_y
 _atom_site_fract_z
 _atom_site_occupancy
  Pr  Pr0  1  0.666667  0.333333  0.000000  1
  Pr  Pr1  1  0.333333  0.666667  0.000000  1
  Ho  Ho2  1  0.818066  0.818066  0.500000  1
  Ho  Ho3  1  0.181934  0.000000  0.500000  1
  Ho  Ho4  1  0.000000  0.181934  0.500000  1
  Zr  Zr5  1  0.441328  0.441328  0.000000  1
  Zr  Zr6  1  0.558672  0.000000  0.000000  1
  Zr  Zr7  1  0.000000  0.558672  0.000000  1
  Co  Co8  1  0.878729  0.352758  0.500000  1
  Co  Co9  1  0.647242  0.525971  0.500000  1
  Co  Co10  1  0.474029  0.121271  0.500000  1
  Co  Co11  1  0.352758  0.878729  0.500000  1
  Co  Co12  1  0.525971  0.647242  0.500000  1
  Co  Co13  1  0.121271  0.474029  0.500000  1
  Co  Co14  1  0.807602  0.176398  0.000000  1
  Co  Co15  1  0.823602  0.631204  0.000000  1
  Co  Co16  1  0.368796  0.192398  0.000000  1
  Co  Co17  1  0.176398  0.807602  0.000000  1
  Co  Co18  1  0.631204  0.823602  0.000000  1
  Co  Co19  1  0.192398  0.368796  0.000000  1
  Co  Co20  1  0.274447  0.274447  0.500000  1
  Co  Co21  1  0.725553  0.000000  0.500000  1
  Co  Co22  1  0.000000  0.725553  0.500000  1
  Co  Co23  1  0.000000  0.000000  0.000000  1
  P  P24  1  0.697898  0.168735  0.500000  1
  P  P25  1  0.831265  0.529163  0.500000  1
  P  P26  1  0.470837  0.302102  0.500000  1
  P  P27  1  0.168735  0.697898  0.500000  1
  P  P28  1  0.529163  0.831265  0.500000  1
  P  P29  1  0.302102  0.470837  0.500000  1
  P  P30  1  0.176040  0.176040  0.000000  1
  P  P31  1  0.823960  0.000000  0.000000  1
  P  P32  1  0.000000  0.823960  0.000000  1
  P  P33  1  0.649351  0.649351  0.000000  1
  P  P34  1  0.350649  0.000000  0.000000  1
  P  P35  1  0.000000  0.350649  0.000000  1
