# generated using pymatgen
data_Yb12Ho5Tm3Si16
_symmetry_space_group_name_H-M   'P 1'
_cell_length_a   7.37165615
_cell_length_b   7.78497508
_cell_length_c   15.05618315
_cell_angle_alpha   90.00248936
_cell_angle_beta   89.98398354
_cell_angle_gamma   90.01672404
_symmetry_Int_Tables_number   1
_chemical_formula_structural   Yb12Ho5Tm3Si16
_chemical_formula_sum   'Yb12 Ho5 Tm3 Si16'
_cell_volume   864.04656820
_cell_formula_units_Z   1
loop_
 _symmetry_equiv_pos_site_id
 _symmetry_equiv_pos_as_xyz
  1  'x, y, z'
loop_
 _atom_site_type_symbol
 _atom_site_label
 _atom_site_symmetry_multiplicity
 _atom_site_fract_x
 _atom_site_fract_y
 _atom_site_fract_z
 _atom_site_occupancy
  Yb  Yb0  1  0.972922  0.816341  0.403762  1
  Yb  Yb1  1  0.473041  0.683575  0.096238  1
  Yb  Yb2  1  0.527035  0.316460  0.596313  1
  Yb  Yb3  1  0.026970  0.183567  0.903744  1
  Yb  Yb4  1  0.027265  0.183642  0.596305  1
  Yb  Yb5  1  0.527327  0.316410  0.903735  1
  Yb  Yb6  1  0.472763  0.683582  0.403736  1
  Yb  Yb7  1  0.972633  0.816360  0.096240  1
  Yb  Yb8  1  0.352487  0.019820  0.749971  1
  Yb  Yb9  1  0.852484  0.480170  0.750025  1
  Yb  Yb10  1  0.147449  0.519948  0.249970  1
  Yb  Yb11  1  0.647633  0.980107  0.249917  1
  Ho  Ho12  1  0.314346  0.176525  0.121054  1
  Ho  Ho13  1  0.814378  0.323580  0.378896  1
  Ho  Ho14  1  0.185615  0.676573  0.878860  1
  Ho  Ho15  1  0.685686  0.823394  0.621212  1
  Ho  Ho16  1  0.314229  0.176456  0.378892  1
  Tm  Tm17  1  0.814309  0.323748  0.121079  1
  Tm  Tm18  1  0.185735  0.676304  0.621141  1
  Tm  Tm19  1  0.685723  0.823704  0.878879  1
  Si  Si20  1  0.857766  0.533929  0.538487  1
  Si  Si21  1  0.357820  0.966179  0.961531  1
  Si  Si22  1  0.642623  0.033591  0.461689  1
  Si  Si23  1  0.142181  0.466157  0.038462  1
  Si  Si24  1  0.142971  0.466584  0.461921  1
  Si  Si25  1  0.643427  0.033721  0.038254  1
  Si  Si26  1  0.356765  0.965956  0.538493  1
  Si  Si27  1  0.856551  0.533744  0.961757  1
  Si  Si28  1  0.977709  0.880587  0.750108  1
  Si  Si29  1  0.477696  0.619405  0.749903  1
  Si  Si30  1  0.522618  0.380922  0.249783  1
  Si  Si31  1  0.022009  0.119241  0.249889  1
  Si  Si32  1  0.249268  0.395994  0.749823  1
  Si  Si33  1  0.749292  0.103988  0.750191  1
  Si  Si34  1  0.250473  0.895701  0.249961  1
  Si  Si35  1  0.750801  0.604035  0.249777  1
