# generated using pymatgen
data_Lu3AlGa2Ge2Ir
_symmetry_space_group_name_H-M   'P 1'
_cell_length_a   6.90827930
_cell_length_b   6.85159720
_cell_length_c   4.15545300
_cell_angle_alpha   90.00000000
_cell_angle_beta   90.00000000
_cell_angle_gamma   119.72896198
_symmetry_Int_Tables_number   1
_chemical_formula_structural   Lu3AlGa2Ge2Ir
_chemical_formula_sum   'Lu3 Al1 Ga2 Ge2 Ir1'
_cell_volume   170.80098738
_cell_formula_units_Z   1
loop_
 _symmetry_equiv_pos_site_id
 _symmetry_equiv_pos_as_xyz
  1  'x, y, z'
loop_
 _atom_site_type_symbol
 _atom_site_label
 _atom_site_symmetry_multiplicity
 _atom_site_fract_x
 _atom_site_fract_y
 _atom_site_fract_z
 _atom_site_occupancy
  Lu  Lu0  1  0.412455  0.000987  0.000000  1
  Lu  Lu1  1  0.000000  0.411552  0.000000  1
  Lu  Lu2  1  0.587544  0.588531  0.000000  1
  Al  Al3  1  0.000000  0.769328  0.500001  1
  Ga  Ga4  1  0.765124  0.998655  0.500001  1
  Ga  Ga5  1  0.234875  0.233529  0.500001  1
  Ge  Ge6  1  0.668666  0.335696  0.500001  1
  Ge  Ge7  1  0.331334  0.667029  0.500001  1
  Ir  Ir8  1  0.000000  0.994692  0.000000  1
