# generated using pymatgen
data_ZrSnBi2F14
_symmetry_space_group_name_H-M   'P 1'
_cell_length_a   5.76511507
_cell_length_b   9.30644530
_cell_length_c   12.34885700
_cell_angle_alpha   61.76013076
_cell_angle_beta   89.99120455
_cell_angle_gamma   90.22323793
_symmetry_Int_Tables_number   1
_chemical_formula_structural   ZrSnBi2F14
_chemical_formula_sum   'Zr2 Sn2 Bi4 F28'
_cell_volume   583.68355030
_cell_formula_units_Z   2
loop_
 _symmetry_equiv_pos_site_id
 _symmetry_equiv_pos_as_xyz
  1  'x, y, z'
loop_
 _atom_site_type_symbol
 _atom_site_label
 _atom_site_symmetry_multiplicity
 _atom_site_fract_x
 _atom_site_fract_y
 _atom_site_fract_z
 _atom_site_occupancy
  Zr  Zr0  1  0.754798  0.725694  0.042858  1
  Zr  Zr1  1  0.245202  0.274306  0.957142  1
  Sn  Sn2  1  0.257464  0.275372  0.455712  1
  Sn  Sn3  1  0.742536  0.724628  0.544288  1
  Bi  Bi4  1  0.255510  0.814676  0.268070  1
  Bi  Bi5  1  0.744490  0.185324  0.731930  1
  Bi  Bi6  1  0.758696  0.181608  0.241539  1
  Bi  Bi7  1  0.241304  0.818392  0.758461  1
  F  F8  1  0.932137  0.708977  0.414854  1
  F  F9  1  0.067863  0.291023  0.585146  1
  F  F10  1  0.460172  0.288940  0.081702  1
  F  F11  1  0.539828  0.711060  0.918298  1
  F  F12  1  0.480888  0.734003  0.143286  1
  F  F13  1  0.519112  0.265997  0.856714  1
  F  F14  1  0.969096  0.269214  0.367484  1
  F  F15  1  0.030904  0.730786  0.632516  1
  F  F16  1  0.957402  0.752923  0.168274  1
  F  F17  1  0.042598  0.247077  0.831726  1
  F  F18  1  0.441062  0.260261  0.322887  1
  F  F19  1  0.558938  0.739739  0.677113  1
  F  F20  1  0.781704  0.481075  0.138563  1
  F  F21  1  0.218296  0.518925  0.861437  1
  F  F22  1  0.266440  0.517133  0.358270  1
  F  F23  1  0.733560  0.482867  0.641730  1
  F  F24  1  0.948652  0.271362  0.050946  1
  F  F25  1  0.051348  0.728638  0.949054  1
  F  F26  1  0.443267  0.716854  0.463361  1
  F  F27  1  0.556733  0.283146  0.536639  1
  F  F28  1  0.736082  0.969743  0.451032  1
  F  F29  1  0.263918  0.030257  0.548968  1
  F  F30  1  0.242356  0.024380  0.062222  1
  F  F31  1  0.757644  0.975620  0.937778  1
  F  F32  1  0.588142  0.967089  0.236613  1
  F  F33  1  0.411858  0.032911  0.763387  1
  F  F34  1  0.088257  0.028551  0.276170  1
  F  F35  1  0.911743  0.971449  0.723830  1
