# generated using pymatgen
data_NaPr5SmOsBr12
_symmetry_space_group_name_H-M   'P 1'
_cell_length_a   9.63579775
_cell_length_b   9.61252891
_cell_length_c   9.63100753
_cell_angle_alpha   107.21097696
_cell_angle_beta   107.43929050
_cell_angle_gamma   107.13331682
_symmetry_Int_Tables_number   1
_chemical_formula_structural   NaPr5SmOsBr12
_chemical_formula_sum   'Na1 Pr5 Sm1 Os1 Br12'
_cell_volume   737.55942958
_cell_formula_units_Z   1
loop_
 _symmetry_equiv_pos_site_id
 _symmetry_equiv_pos_as_xyz
  1  'x, y, z'
loop_
 _atom_site_type_symbol
 _atom_site_label
 _atom_site_symmetry_multiplicity
 _atom_site_fract_x
 _atom_site_fract_y
 _atom_site_fract_z
 _atom_site_occupancy
  Na  Na0  1  0.499963  0.500054  0.499912  1
  Pr  Pr1  1  0.320065  0.031382  0.113221  1
  Pr  Pr2  1  0.031727  0.113795  0.320286  1
  Pr  Pr3  1  0.968865  0.888276  0.680175  1
  Pr  Pr4  1  0.680117  0.969333  0.886628  1
  Pr  Pr5  1  0.887450  0.679991  0.968515  1
  Sm  Sm6  1  0.111799  0.316646  0.032176  1
  Os  Os7  1  0.000308  0.000753  0.000453  1
  Br  Br8  1  0.216436  0.680742  0.070554  1
  Br  Br9  1  0.449546  0.373606  0.154918  1
  Br  Br10  1  0.684699  0.071491  0.217399  1
  Br  Br11  1  0.928918  0.782503  0.315148  1
  Br  Br12  1  0.156681  0.454725  0.367642  1
  Br  Br13  1  0.373959  0.157315  0.455836  1
  Br  Br14  1  0.626020  0.842693  0.544230  1
  Br  Br15  1  0.842764  0.544495  0.626518  1
  Br  Br16  1  0.072253  0.220356  0.690268  1
  Br  Br17  1  0.315327  0.928564  0.782660  1
  Br  Br18  1  0.544269  0.626395  0.842388  1
  Br  Br19  1  0.788834  0.316889  0.931076  1
