# generated using pymatgen
data_TaNiB3W2
_symmetry_space_group_name_H-M   'P 1'
_cell_length_a   4.57458030
_cell_length_b   4.57457915
_cell_length_c   10.85304900
_cell_angle_alpha   90.00000000
_cell_angle_beta   90.00000000
_cell_angle_gamma   138.64370736
_symmetry_Int_Tables_number   1
_chemical_formula_structural   TaNiB3W2
_chemical_formula_sum   'Ta2 Ni2 B6 W4'
_cell_volume   150.06672675
_cell_formula_units_Z   2
loop_
 _symmetry_equiv_pos_site_id
 _symmetry_equiv_pos_as_xyz
  1  'x, y, z'
loop_
 _atom_site_type_symbol
 _atom_site_label
 _atom_site_symmetry_multiplicity
 _atom_site_fract_x
 _atom_site_fract_y
 _atom_site_fract_z
 _atom_site_occupancy
  Ta  Ta0  1  0.499429  0.500571  0.250000  1
  Ta  Ta1  1  0.500571  0.499429  0.750000  1
  Ni  Ni2  1  0.500000  0.500000  0.500000  1
  Ni  Ni3  1  0.500000  0.500000  0.000000  1
  B  B4  1  0.089850  0.910150  0.396961  1
  B  B5  1  0.910150  0.089850  0.603039  1
  B  B6  1  0.089850  0.910150  0.103039  1
  B  B7  1  0.910150  0.089850  0.896961  1
  B  B8  1  0.208966  0.791034  0.250000  1
  B  B9  1  0.791034  0.208966  0.750000  1
  W  W10  1  0.788032  0.211968  0.394453  1
  W  W11  1  0.211968  0.788032  0.605547  1
  W  W12  1  0.788032  0.211968  0.105547  1
  W  W13  1  0.211968  0.788032  0.894453  1
