# generated using pymatgen
data_DyHoHf2(Al3Rh)6
_symmetry_space_group_name_H-M   'P 1'
_cell_length_a   7.50422300
_cell_length_b   7.48639133
_cell_length_c   9.32875600
_cell_angle_alpha   90.00000000
_cell_angle_beta   90.00000000
_cell_angle_gamma   119.69781729
_symmetry_Int_Tables_number   1
_chemical_formula_structural   DyHoHf2(Al3Rh)6
_chemical_formula_sum   'Dy1 Ho1 Hf2 Al18 Rh6'
_cell_volume   455.24691177
_cell_formula_units_Z   1
loop_
 _symmetry_equiv_pos_site_id
 _symmetry_equiv_pos_as_xyz
  1  'x, y, z'
loop_
 _atom_site_type_symbol
 _atom_site_label
 _atom_site_symmetry_multiplicity
 _atom_site_fract_x
 _atom_site_fract_y
 _atom_site_fract_z
 _atom_site_occupancy
  Dy  Dy0  1  0.329689  0.005941  0.250000  1
  Ho  Ho1  1  0.670313  0.994032  0.750000  1
  Hf  Hf2  1  0.994976  0.670804  0.750000  1
  Hf  Hf3  1  0.005006  0.329198  0.250000  1
  Al  Al4  1  0.124988  0.122933  0.750000  1
  Al  Al5  1  0.874922  0.877036  0.250000  1
  Al  Al6  1  0.999491  0.337457  0.575292  1
  Al  Al7  1  0.000433  0.662469  0.424759  1
  Al  Al8  1  0.000433  0.662469  0.075241  1
  Al  Al9  1  0.331573  0.997449  0.921161  1
  Al  Al10  1  0.999491  0.337457  0.924708  1
  Al  Al11  1  0.668501  0.002551  0.078725  1
  Al  Al12  1  0.668501  0.002551  0.421275  1
  Al  Al13  1  0.331573  0.997449  0.578839  1
  Al  Al14  1  0.330782  0.333685  0.056461  1
  Al  Al15  1  0.669216  0.666381  0.943482  1
  Al  Al16  1  0.669216  0.666381  0.556518  1
  Al  Al17  1  0.330782  0.333685  0.443539  1
  Al  Al18  1  0.333590  0.548197  0.750000  1
  Al  Al19  1  0.666485  0.451904  0.250000  1
  Al  Al20  1  0.555436  0.343854  0.750000  1
  Al  Al21  1  0.444601  0.656106  0.250000  1
  Rh  Rh22  1  0.673078  0.327856  0.499499  1
  Rh  Rh23  1  0.326973  0.672157  0.500560  1
  Rh  Rh24  1  0.326973  0.672157  0.999440  1
  Rh  Rh25  1  0.673078  0.327856  0.000501  1
  Rh  Rh26  1  0.999949  0.999992  0.500033  1
  Rh  Rh27  1  0.999949  0.999992  0.999967  1
