# generated using pymatgen
data_RbTb2DyF10
_symmetry_space_group_name_H-M   'P 1'
_cell_length_a   8.32052836
_cell_length_b   8.31866449
_cell_length_c   8.31866021
_cell_angle_alpha   60.01468686
_cell_angle_beta   59.99246639
_cell_angle_gamma   59.99247793
_symmetry_Int_Tables_number   1
_chemical_formula_structural   RbTb2DyF10
_chemical_formula_sum   'Rb2 Tb4 Dy2 F20'
_cell_volume   407.13800777
_cell_formula_units_Z   2
loop_
 _symmetry_equiv_pos_site_id
 _symmetry_equiv_pos_as_xyz
  1  'x, y, z'
loop_
 _atom_site_type_symbol
 _atom_site_label
 _atom_site_symmetry_multiplicity
 _atom_site_fract_x
 _atom_site_fract_y
 _atom_site_fract_z
 _atom_site_occupancy
  Rb  Rb0  1  0.249999  0.250001  0.250000  1
  Rb  Rb1  1  0.750001  0.750000  0.750000  1
  Tb  Tb2  1  0.240246  0.759754  0.240246  1
  Tb  Tb3  1  0.759754  0.240246  0.759754  1
  Tb  Tb4  1  0.240246  0.240246  0.759754  1
  Tb  Tb5  1  0.759754  0.759754  0.240246  1
  Dy  Dy6  1  0.759546  0.240454  0.240454  1
  Dy  Dy7  1  0.240453  0.759546  0.759547  1
  F  F8  1  0.829514  0.500000  0.500000  1
  F  F9  1  0.170486  0.500000  0.500000  1
  F  F10  1  0.500000  0.829514  0.170486  1
  F  F11  1  0.500000  0.170486  0.829514  1
  F  F12  1  0.499179  0.829240  0.500821  1
  F  F13  1  0.170760  0.500821  0.829240  1
  F  F14  1  0.500821  0.170759  0.499180  1
  F  F15  1  0.829240  0.499179  0.170760  1
  F  F16  1  0.499179  0.500821  0.829241  1
  F  F17  1  0.500821  0.499179  0.170759  1
  F  F18  1  0.170760  0.829240  0.500821  1
  F  F19  1  0.829240  0.170760  0.499179  1
  F  F20  1  0.109899  0.110815  0.110815  1
  F  F21  1  0.890102  0.889185  0.889185  1
  F  F22  1  0.110815  0.109899  0.668472  1
  F  F23  1  0.110815  0.668471  0.109898  1
  F  F24  1  0.889185  0.890102  0.331529  1
  F  F25  1  0.889185  0.331529  0.890101  1
  F  F26  1  0.668471  0.110815  0.110815  1
  F  F27  1  0.331529  0.889185  0.889185  1
