# generated using pymatgen
data_Pm2F7
_symmetry_space_group_name_H-M   'P 1'
_cell_length_a   4.51051071
_cell_length_b   4.39725799
_cell_length_c   7.03729083
_cell_angle_alpha   87.52506980
_cell_angle_beta   93.00979921
_cell_angle_gamma   96.24637575
_symmetry_Int_Tables_number   1
_chemical_formula_structural   Pm2F7
_chemical_formula_sum   'Pm2 F7'
_cell_volume   138.45801125
_cell_formula_units_Z   1
loop_
 _symmetry_equiv_pos_site_id
 _symmetry_equiv_pos_as_xyz
  1  'x, y, z'
loop_
 _atom_site_type_symbol
 _atom_site_label
 _atom_site_symmetry_multiplicity
 _atom_site_fract_x
 _atom_site_fract_y
 _atom_site_fract_z
 _atom_site_occupancy
  Pm  Pm0  1  0.874507  0.381961  0.929750  1
  Pm  Pm1  1  0.327899  0.375171  0.464982  1
  F  F2  1  0.371365  0.875078  0.537312  1
  F  F3  1  0.191254  0.673688  0.170771  1
  F  F4  1  0.009609  0.084093  0.223772  1
  F  F5  1  0.843445  0.395105  0.580257  1
  F  F6  1  0.832948  0.882036  0.857517  1
  F  F7  1  0.600807  0.378312  0.197311  1
  F  F8  1  0.359216  0.362842  0.813998  1
