# generated using pymatgen
data_Pa3Si2
_symmetry_space_group_name_H-M   'P 1'
_cell_length_a   7.44172400
_cell_length_b   7.44172400
_cell_length_c   3.96277800
_cell_angle_alpha   90.00000000
_cell_angle_beta   90.00000000
_cell_angle_gamma   90.00000000
_symmetry_Int_Tables_number   1
_chemical_formula_structural   Pa3Si2
_chemical_formula_sum   'Pa6 Si4'
_cell_volume   219.45569770
_cell_formula_units_Z   2
loop_
 _symmetry_equiv_pos_site_id
 _symmetry_equiv_pos_as_xyz
  1  'x, y, z'
loop_
 _atom_site_type_symbol
 _atom_site_label
 _atom_site_symmetry_multiplicity
 _atom_site_fract_x
 _atom_site_fract_y
 _atom_site_fract_z
 _atom_site_occupancy
  Pa  Pa0  1  0.000000  0.000000  0.000000  1
  Pa  Pa1  1  0.499999  0.499999  0.000000  1
  Pa  Pa2  1  0.316638  0.183363  0.500002  1
  Pa  Pa3  1  0.816639  0.316638  0.500002  1
  Pa  Pa4  1  0.183363  0.683362  0.500002  1
  Pa  Pa5  1  0.683362  0.816639  0.500002  1
  Si  Si6  1  0.614721  0.114722  0.000000  1
  Si  Si7  1  0.114722  0.385277  0.000000  1
  Si  Si8  1  0.885278  0.614721  0.000000  1
  Si  Si9  1  0.385277  0.885278  0.000000  1
