# generated using pymatgen
data_Sc6Al16Co7
_symmetry_space_group_name_H-M   'P 1'
_cell_length_a   8.54272600
_cell_length_b   8.54272636
_cell_length_c   8.54272600
_cell_angle_alpha   119.99999859
_cell_angle_beta   90.00000000
_cell_angle_gamma   119.99999859
_symmetry_Int_Tables_number   1
_chemical_formula_structural   Sc6Al16Co7
_chemical_formula_sum   'Sc6 Al16 Co7'
_cell_volume   440.83337823
_cell_formula_units_Z   1
loop_
 _symmetry_equiv_pos_site_id
 _symmetry_equiv_pos_as_xyz
  1  'x, y, z'
loop_
 _atom_site_type_symbol
 _atom_site_label
 _atom_site_symmetry_multiplicity
 _atom_site_fract_x
 _atom_site_fract_y
 _atom_site_fract_z
 _atom_site_occupancy
  Sc  Sc0  1  0.293609  0.587217  0.293609  1
  Sc  Sc1  1  0.293609  0.000000  0.293609  1
  Sc  Sc2  1  0.706391  0.000000  0.293609  1
  Sc  Sc3  1  0.293609  0.000000  0.706391  1
  Sc  Sc4  1  0.706391  0.000000  0.706391  1
  Sc  Sc5  1  0.706391  0.412783  0.706391  1
  Al  Al6  1  0.333455  0.666910  0.000365  1
  Al  Al7  1  0.881359  0.762718  0.118641  1
  Al  Al8  1  0.355924  0.237283  0.118641  1
  Al  Al9  1  0.881359  0.237283  0.118641  1
  Al  Al10  1  0.000365  0.666910  0.333455  1
  Al  Al11  1  0.666545  0.666910  0.333455  1
  Al  Al12  1  0.666545  0.333091  0.333455  1
  Al  Al13  1  0.118641  0.237283  0.355924  1
  Al  Al14  1  0.881359  0.762718  0.644077  1
  Al  Al15  1  0.333455  0.333091  0.666545  1
  Al  Al16  1  0.999636  0.333091  0.666545  1
  Al  Al17  1  0.333455  0.666910  0.666545  1
  Al  Al18  1  0.118641  0.762718  0.881359  1
  Al  Al19  1  0.644077  0.762718  0.881359  1
  Al  Al20  1  0.118641  0.237283  0.881359  1
  Al  Al21  1  0.666545  0.333091  0.999636  1
  Co  Co22  1  0.000000  0.000000  0.000000  1
  Co  Co23  1  0.500000  0.000000  0.000000  1
  Co  Co24  1  0.000000  0.500000  0.000000  1
  Co  Co25  1  0.500000  0.500000  0.000000  1
  Co  Co26  1  0.000000  0.000000  0.500000  1
  Co  Co27  1  0.000000  0.500000  0.500000  1
  Co  Co28  1  0.500000  0.500000  0.500000  1
