# generated using pymatgen
data_MgZr3PaZnNi4
_symmetry_space_group_name_H-M   'P 1'
_cell_length_a   7.17605900
_cell_length_b   7.13581619
_cell_length_c   3.41544200
_cell_angle_alpha   90.00000000
_cell_angle_beta   90.00000000
_cell_angle_gamma   92.15167400
_symmetry_Int_Tables_number   1
_chemical_formula_structural   MgZr3PaZnNi4
_chemical_formula_sum   'Mg1 Zr3 Pa1 Zn1 Ni4'
_cell_volume   174.77135674
_cell_formula_units_Z   1
loop_
 _symmetry_equiv_pos_site_id
 _symmetry_equiv_pos_as_xyz
  1  'x, y, z'
loop_
 _atom_site_type_symbol
 _atom_site_label
 _atom_site_symmetry_multiplicity
 _atom_site_fract_x
 _atom_site_fract_y
 _atom_site_fract_z
 _atom_site_occupancy
  Mg  Mg0  1  0.496329  0.513600  0.000000  1
  Zr  Zr1  1  0.307743  0.833211  0.500000  1
  Zr  Zr2  1  0.166538  0.317110  0.500000  1
  Zr  Zr3  1  0.843890  0.683573  0.500000  1
  Pa  Pa4  1  0.677731  0.163061  0.500000  1
  Zn  Zn5  1  0.008485  0.995412  0.000000  1
  Ni  Ni6  1  0.121217  0.619417  0.000000  1
  Ni  Ni7  1  0.868007  0.364503  0.000000  1
  Ni  Ni8  1  0.630377  0.881754  0.000000  1
  Ni  Ni9  1  0.379684  0.128360  0.000000  1
