# generated using pymatgen
data_Ce2Cu2PdRh3
_symmetry_space_group_name_H-M   'P 1'
_cell_length_a   4.12285600
_cell_length_b   4.25666200
_cell_length_c   7.64014700
_cell_angle_alpha   90.00000000
_cell_angle_beta   90.00000000
_cell_angle_gamma   90.00000000
_symmetry_Int_Tables_number   1
_chemical_formula_structural   Ce2Cu2PdRh3
_chemical_formula_sum   'Ce2 Cu2 Pd1 Rh3'
_cell_volume   134.08155792
_cell_formula_units_Z   1
loop_
 _symmetry_equiv_pos_site_id
 _symmetry_equiv_pos_as_xyz
  1  'x, y, z'
loop_
 _atom_site_type_symbol
 _atom_site_label
 _atom_site_symmetry_multiplicity
 _atom_site_fract_x
 _atom_site_fract_y
 _atom_site_fract_z
 _atom_site_occupancy
  Ce  Ce0  1  0.000000  0.000000  0.244099  1
  Ce  Ce1  1  0.000000  0.000000  0.755901  1
  Cu  Cu2  1  0.500000  0.500000  0.249215  1
  Cu  Cu3  1  0.500000  0.500000  0.750785  1
  Pd  Pd4  1  0.000000  0.500000  0.500000  1
  Rh  Rh5  1  0.000000  0.500000  0.000000  1
  Rh  Rh6  1  0.500000  0.000000  0.500000  1
  Rh  Rh7  1  0.500000  0.000000  0.000000  1
