# generated using pymatgen
data_Tm3Lu2Co19(SiP3)3
_symmetry_space_group_name_H-M   'P 1'
_cell_length_a   11.97932400
_cell_length_b   11.97986659
_cell_length_c   3.65501500
_cell_angle_alpha   90.00000000
_cell_angle_beta   90.00000000
_cell_angle_gamma   119.99849626
_symmetry_Int_Tables_number   1
_chemical_formula_structural   Tm3Lu2Co19(SiP3)3
_chemical_formula_sum   'Tm3 Lu2 Co19 Si3 P9'
_cell_volume   454.26645584
_cell_formula_units_Z   1
loop_
 _symmetry_equiv_pos_site_id
 _symmetry_equiv_pos_as_xyz
  1  'x, y, z'
loop_
 _atom_site_type_symbol
 _atom_site_label
 _atom_site_symmetry_multiplicity
 _atom_site_fract_x
 _atom_site_fract_y
 _atom_site_fract_z
 _atom_site_occupancy
  Tm  Tm0  1  0.333334  0.666684  0.500000  1
  Tm  Tm1  1  0.666651  0.333316  0.500000  1
  Tm  Tm2  1  0.184500  0.000000  0.000000  1
  Lu  Lu3  1  0.999991  0.184557  0.000000  1
  Lu  Lu4  1  0.815433  0.815443  0.000000  1
  Co  Co5  1  0.201529  0.376996  0.500000  1
  Co  Co6  1  0.623020  0.824575  0.500000  1
  Co  Co7  1  0.175436  0.798166  0.500000  1
  Co  Co8  1  0.824532  0.623004  0.500000  1
  Co  Co9  1  0.798444  0.175425  0.500000  1
  Co  Co10  1  0.377269  0.201834  0.500000  1
  Co  Co11  1  0.556205  0.000000  0.500000  1
  Co  Co12  1  0.999985  0.556165  0.500000  1
  Co  Co13  1  0.443820  0.443835  0.500000  1
  Co  Co14  1  0.127768  0.485182  0.000000  1
  Co  Co15  1  0.514835  0.642590  0.000000  1
  Co  Co16  1  0.357539  0.872211  0.000000  1
  Co  Co17  1  0.642585  0.514818  0.000000  1
  Co  Co18  1  0.872244  0.357410  0.000000  1
  Co  Co19  1  0.485327  0.127789  0.000000  1
  Co  Co20  1  0.716309  0.000000  0.000000  1
  Co  Co21  1  0.999864  0.716134  0.000000  1
  Co  Co22  1  0.283730  0.283866  0.000000  1
  Co  Co23  1  0.999618  0.000000  0.500000  1
  Si  Si24  1  0.367978  0.000000  0.500000  1
  Si  Si25  1  0.000004  0.367601  0.500000  1
  Si  Si26  1  0.632403  0.632399  0.500000  1
  P  P27  1  0.314697  0.480465  0.000000  1
  P  P28  1  0.519554  0.834257  0.000000  1
  P  P29  1  0.165773  0.685358  0.000000  1
  P  P30  1  0.834232  0.519535  0.000000  1
  P  P31  1  0.685297  0.165743  0.000000  1
  P  P32  1  0.480415  0.314642  0.000000  1
  P  P33  1  0.819527  0.000000  0.500000  1
  P  P34  1  0.999668  0.819183  0.500000  1
  P  P35  1  0.180484  0.180817  0.500000  1
