# generated using pymatgen
data_Zr2FeCo2P7Ru9
_symmetry_space_group_name_H-M   'P 1'
_cell_length_a   9.28778935
_cell_length_b   9.27995714
_cell_length_c   3.80376800
_cell_angle_alpha   90.00000000
_cell_angle_beta   90.00000000
_cell_angle_gamma   120.41256498
_symmetry_Int_Tables_number   1
_chemical_formula_structural   Zr2FeCo2P7Ru9
_chemical_formula_sum   'Zr2 Fe1 Co2 P7 Ru9'
_cell_volume   282.73686817
_cell_formula_units_Z   1
loop_
 _symmetry_equiv_pos_site_id
 _symmetry_equiv_pos_as_xyz
  1  'x, y, z'
loop_
 _atom_site_type_symbol
 _atom_site_label
 _atom_site_symmetry_multiplicity
 _atom_site_fract_x
 _atom_site_fract_y
 _atom_site_fract_z
 _atom_site_occupancy
  Zr  Zr0  1  0.003363  0.002222  0.000000  1
  Zr  Zr1  1  0.331630  0.666262  0.500000  1
  Fe  Fe2  1  0.393521  0.219072  0.000000  1
  Co  Co3  1  0.825623  0.606111  0.000000  1
  Co  Co4  1  0.779519  0.173959  0.000000  1
  P  P5  1  0.078010  0.633600  0.000000  1
  P  P6  1  0.554263  0.918652  0.000000  1
  P  P7  1  0.364910  0.443177  0.000000  1
  P  P8  1  0.784738  0.735879  0.500000  1
  P  P9  1  0.950741  0.214524  0.500000  1
  P  P10  1  0.264367  0.051683  0.500000  1
  P  P11  1  0.665609  0.331884  0.000000  1
  Ru  Ru12  1  0.096854  0.400303  0.000000  1
  Ru  Ru13  1  0.303866  0.903675  0.000000  1
  Ru  Ru14  1  0.601026  0.696077  0.000000  1
  Ru  Ru15  1  0.050520  0.774951  0.500000  1
  Ru  Ru16  1  0.721658  0.948843  0.500000  1
  Ru  Ru17  1  0.226241  0.278039  0.500000  1
  Ru  Ru18  1  0.881697  0.422944  0.500000  1
  Ru  Ru19  1  0.544085  0.125844  0.500000  1
  Ru  Ru20  1  0.577760  0.452295  0.500000  1
