# generated using pymatgen
data_TbDy3(AlIr3)2
_symmetry_space_group_name_H-M   'P 1'
_cell_length_a   9.70838435
_cell_length_b   9.45448219
_cell_length_c   9.45448250
_cell_angle_alpha   34.50398081
_cell_angle_beta   31.06245860
_cell_angle_gamma   31.06246126
_symmetry_Int_Tables_number   1
_chemical_formula_structural   TbDy3(AlIr3)2
_chemical_formula_sum   'Tb1 Dy3 Al2 Ir6'
_cell_volume   217.33348970
_cell_formula_units_Z   1
loop_
 _symmetry_equiv_pos_site_id
 _symmetry_equiv_pos_as_xyz
  1  'x, y, z'
loop_
 _atom_site_type_symbol
 _atom_site_label
 _atom_site_symmetry_multiplicity
 _atom_site_fract_x
 _atom_site_fract_y
 _atom_site_fract_z
 _atom_site_occupancy
  Tb  Tb0  1  0.818371  0.808843  0.808843  1
  Dy  Dy1  1  0.318836  0.308491  0.308491  1
  Dy  Dy2  1  0.680832  0.691614  0.691614  1
  Dy  Dy3  1  0.181096  0.191561  0.191561  1
  Al  Al4  1  0.749887  0.249968  0.249968  1
  Al  Al5  1  0.250034  0.750086  0.750086  1
  Ir  Ir6  1  0.500487  0.499794  0.499794  1
  Ir  Ir7  1  0.999927  0.000013  0.000013  1
  Ir  Ir8  1  0.250061  0.249937  0.749513  1
  Ir  Ir9  1  0.750205  0.749770  0.250411  1
  Ir  Ir10  1  0.250061  0.749513  0.249937  1
  Ir  Ir11  1  0.750205  0.250411  0.749770  1
