# generated using pymatgen
data_Yb3P2
_symmetry_space_group_name_H-M   'P 1'
_cell_length_a   4.18280200
_cell_length_b   7.44089700
_cell_length_c   15.78279600
_cell_angle_alpha   90.00000000
_cell_angle_beta   90.00000000
_cell_angle_gamma   90.00000000
_symmetry_Int_Tables_number   1
_chemical_formula_structural   Yb3P2
_chemical_formula_sum   'Yb12 P8'
_cell_volume   491.22056805
_cell_formula_units_Z   4
loop_
 _symmetry_equiv_pos_site_id
 _symmetry_equiv_pos_as_xyz
  1  'x, y, z'
loop_
 _atom_site_type_symbol
 _atom_site_label
 _atom_site_symmetry_multiplicity
 _atom_site_fract_x
 _atom_site_fract_y
 _atom_site_fract_z
 _atom_site_occupancy
  Yb  Yb0  1  0.750000  0.629720  0.563997  1
  Yb  Yb1  1  0.250000  0.370280  0.436003  1
  Yb  Yb2  1  0.750000  0.129720  0.936003  1
  Yb  Yb3  1  0.250000  0.870280  0.063997  1
  Yb  Yb4  1  0.250000  0.146115  0.217069  1
  Yb  Yb5  1  0.750000  0.853885  0.782931  1
  Yb  Yb6  1  0.250000  0.646115  0.282931  1
  Yb  Yb7  1  0.750000  0.353885  0.717069  1
  Yb  Yb8  1  0.250000  0.014910  0.606242  1
  Yb  Yb9  1  0.750000  0.985090  0.393758  1
  Yb  Yb10  1  0.250000  0.514910  0.893758  1
  Yb  Yb11  1  0.750000  0.485090  0.106242  1
  P  P12  1  0.250000  0.269047  0.045041  1
  P  P13  1  0.750000  0.730953  0.954959  1
  P  P14  1  0.250000  0.769047  0.454959  1
  P  P15  1  0.750000  0.230953  0.545041  1
  P  P16  1  0.250000  0.149974  0.800628  1
  P  P17  1  0.750000  0.850026  0.199372  1
  P  P18  1  0.250000  0.649974  0.699372  1
  P  P19  1  0.750000  0.350026  0.300628  1
