# generated using pymatgen
data_Tb5Lu15Cd6FeRu
_symmetry_space_group_name_H-M   'P 1'
_cell_length_a   9.43266402
_cell_length_b   9.43279348
_cell_length_c   9.65135700
_cell_angle_alpha   90.00000000
_cell_angle_beta   90.00000000
_cell_angle_gamma   119.88421140
_symmetry_Int_Tables_number   1
_chemical_formula_structural   Tb5Lu15Cd6FeRu
_chemical_formula_sum   'Tb5 Lu15 Cd6 Fe1 Ru1'
_cell_volume   744.55921147
_cell_formula_units_Z   1
loop_
 _symmetry_equiv_pos_site_id
 _symmetry_equiv_pos_as_xyz
  1  'x, y, z'
loop_
 _atom_site_type_symbol
 _atom_site_label
 _atom_site_symmetry_multiplicity
 _atom_site_fract_x
 _atom_site_fract_y
 _atom_site_fract_z
 _atom_site_occupancy
  Tb  Tb0  1  0.539296  0.079222  0.250000  1
  Tb  Tb1  1  0.920732  0.460672  0.250000  1
  Tb  Tb2  1  0.459336  0.540643  0.750000  1
  Tb  Tb3  1  0.459544  0.919699  0.750000  1
  Tb  Tb4  1  0.080290  0.540461  0.750000  1
  Lu  Lu5  1  0.000330  0.999659  0.499597  1
  Lu  Lu6  1  0.000330  0.999659  0.000403  1
  Lu  Lu7  1  0.212456  0.787526  0.436284  1
  Lu  Lu8  1  0.213575  0.424811  0.436050  1
  Lu  Lu9  1  0.575203  0.786440  0.436042  1
  Lu  Lu10  1  0.790194  0.209797  0.559231  1
  Lu  Lu11  1  0.788983  0.579944  0.558713  1
  Lu  Lu12  1  0.420057  0.211016  0.558712  1
  Lu  Lu13  1  0.790194  0.209797  0.940769  1
  Lu  Lu14  1  0.788983  0.579944  0.941287  1
  Lu  Lu15  1  0.420057  0.211016  0.941288  1
  Lu  Lu16  1  0.212456  0.787526  0.063716  1
  Lu  Lu17  1  0.213575  0.424811  0.063950  1
  Lu  Lu18  1  0.575203  0.786440  0.063958  1
  Lu  Lu19  1  0.538429  0.461570  0.250000  1
  Cd  Cd20  1  0.886415  0.113569  0.250000  1
  Cd  Cd21  1  0.884230  0.771572  0.250000  1
  Cd  Cd22  1  0.228434  0.115807  0.250000  1
  Cd  Cd23  1  0.113320  0.886726  0.750000  1
  Cd  Cd24  1  0.113833  0.226374  0.750000  1
  Cd  Cd25  1  0.773620  0.886180  0.750000  1
  Fe  Fe26  1  0.333994  0.666034  0.250000  1
  Ru  Ru27  1  0.666932  0.333084  0.750000  1
