# generated using pymatgen
data_Ho10Tl4In4Ir3Pd
_symmetry_space_group_name_H-M   'P 1'
_cell_length_a   3.63726200
_cell_length_b   8.11218936
_cell_length_c   18.32476717
_cell_angle_alpha   90.02536421
_cell_angle_beta   90.00000000
_cell_angle_gamma   90.00000000
_symmetry_Int_Tables_number   1
_chemical_formula_structural   Ho10Tl4In4Ir3Pd
_chemical_formula_sum   'Ho10 Tl4 In4 Ir3 Pd1'
_cell_volume   540.69342439
_cell_formula_units_Z   1
loop_
 _symmetry_equiv_pos_site_id
 _symmetry_equiv_pos_as_xyz
  1  'x, y, z'
loop_
 _atom_site_type_symbol
 _atom_site_label
 _atom_site_symmetry_multiplicity
 _atom_site_fract_x
 _atom_site_fract_y
 _atom_site_fract_z
 _atom_site_occupancy
  Ho  Ho0  1  0.000000  0.500842  0.500888  1
  Ho  Ho1  1  0.000000  0.000128  0.999511  1
  Ho  Ho2  1  0.000000  0.729763  0.279206  1
  Ho  Ho3  1  0.000000  0.256629  0.721058  1
  Ho  Ho4  1  0.000000  0.756573  0.778932  1
  Ho  Ho5  1  0.000000  0.256349  0.218212  1
  Ho  Ho6  1  0.000000  0.614008  0.089097  1
  Ho  Ho7  1  0.000000  0.387315  0.907628  1
  Ho  Ho8  1  0.000000  0.886885  0.592440  1
  Ho  Ho9  1  0.000000  0.113923  0.412622  1
  Tl  Tl10  1  0.500000  0.708509  0.934847  1
  Tl  Tl11  1  0.500000  0.292138  0.064307  1
  Tl  Tl12  1  0.500000  0.791767  0.435157  1
  Tl  Tl13  1  0.500000  0.208423  0.565323  1
  In  In14  1  0.500000  0.575148  0.649419  1
  In  In15  1  0.500000  0.418149  0.350907  1
  In  In16  1  0.500000  0.921030  0.150389  1
  In  In17  1  0.500000  0.075481  0.850672  1
  Ir  Ir18  1  0.500000  0.526072  0.197623  1
  Ir  Ir19  1  0.500000  0.477350  0.800957  1
  Ir  Ir20  1  0.500000  0.977856  0.698814  1
  Pd  Pd21  1  0.500000  0.025663  0.301991  1
