# generated using pymatgen
data_La7NdSiPd24
_symmetry_space_group_name_H-M   'P 1'
_cell_length_a   8.53319715
_cell_length_b   8.53319715
_cell_length_c   8.53319715
_cell_angle_alpha   90.01528108
_cell_angle_beta   89.98471892
_cell_angle_gamma   89.98471892
_symmetry_Int_Tables_number   1
_chemical_formula_structural   La7NdSiPd24
_chemical_formula_sum   'La7 Nd1 Si1 Pd24'
_cell_volume   621.34855522
_cell_formula_units_Z   1
loop_
 _symmetry_equiv_pos_site_id
 _symmetry_equiv_pos_as_xyz
  1  'x, y, z'
loop_
 _atom_site_type_symbol
 _atom_site_label
 _atom_site_symmetry_multiplicity
 _atom_site_fract_x
 _atom_site_fract_y
 _atom_site_fract_z
 _atom_site_occupancy
  La  La0  1  0.253850  0.253733  0.253733  1
  La  La1  1  0.746296  0.746323  0.746323  1
  La  La2  1  0.746267  0.746150  0.253733  1
  La  La3  1  0.746267  0.253733  0.746150  1
  La  La4  1  0.253677  0.253704  0.746323  1
  La  La5  1  0.253677  0.746323  0.253704  1
  La  La6  1  0.253725  0.746275  0.746275  1
  Nd  Nd7  1  0.746611  0.253389  0.253389  1
  Si  Si8  1  0.999926  0.000074  0.000074  1
  Pd  Pd9  1  0.256649  0.499990  0.000024  1
  Pd  Pd10  1  0.743348  0.499790  0.000202  1
  Pd  Pd11  1  0.999798  0.256652  0.499790  1
  Pd  Pd12  1  0.500210  0.256652  0.000202  1
  Pd  Pd13  1  0.999976  0.743351  0.499990  1
  Pd  Pd14  1  0.500010  0.743351  0.000024  1
  Pd  Pd15  1  0.500210  0.000202  0.256652  1
  Pd  Pd16  1  0.256649  0.000024  0.499990  1
  Pd  Pd17  1  0.500010  0.000024  0.743351  1
  Pd  Pd18  1  0.743348  0.000202  0.499790  1
  Pd  Pd19  1  0.999798  0.499790  0.256652  1
  Pd  Pd20  1  0.999976  0.499990  0.743351  1
  Pd  Pd21  1  0.251615  0.499978  0.499978  1
  Pd  Pd22  1  0.748373  0.499792  0.499792  1
  Pd  Pd23  1  0.500208  0.251627  0.499792  1
  Pd  Pd24  1  0.500022  0.748385  0.499978  1
  Pd  Pd25  1  0.500208  0.499792  0.251627  1
  Pd  Pd26  1  0.500022  0.499978  0.748385  1
  Pd  Pd27  1  0.280391  0.000027  0.000027  1
  Pd  Pd28  1  0.719729  0.000396  0.000396  1
  Pd  Pd29  1  0.999604  0.280271  0.000396  1
  Pd  Pd30  1  0.999973  0.719609  0.000027  1
  Pd  Pd31  1  0.999604  0.000396  0.280271  1
  Pd  Pd32  1  0.999973  0.000027  0.719609  1
