# generated using pymatgen
data_Nd4Dy3Ag10
_symmetry_space_group_name_H-M   'P 1'
_cell_length_a   8.92826076
_cell_length_b   8.92825233
_cell_length_c   10.70490200
_cell_angle_alpha   90.00000000
_cell_angle_beta   90.00000000
_cell_angle_gamma   106.31491169
_symmetry_Int_Tables_number   1
_chemical_formula_structural   Nd4Dy3Ag10
_chemical_formula_sum   'Nd8 Dy6 Ag20'
_cell_volume   818.96641051
_cell_formula_units_Z   2
loop_
 _symmetry_equiv_pos_site_id
 _symmetry_equiv_pos_as_xyz
  1  'x, y, z'
loop_
 _atom_site_type_symbol
 _atom_site_label
 _atom_site_symmetry_multiplicity
 _atom_site_fract_x
 _atom_site_fract_y
 _atom_site_fract_z
 _atom_site_occupancy
  Nd  Nd0  1  0.700967  0.299032  0.000000  1
  Nd  Nd1  1  0.299033  0.700968  0.000000  1
  Nd  Nd2  1  0.799033  0.200968  0.500000  1
  Nd  Nd3  1  0.200967  0.799032  0.500000  1
  Nd  Nd4  1  0.308956  0.308956  0.198920  1
  Nd  Nd5  1  0.691044  0.691044  0.801080  1
  Nd  Nd6  1  0.191044  0.191044  0.698920  1
  Nd  Nd7  1  0.808956  0.808956  0.301080  1
  Dy  Dy8  1  0.011647  0.511646  0.250000  1
  Dy  Dy9  1  0.988353  0.488354  0.750000  1
  Dy  Dy10  1  0.488353  0.988354  0.750000  1
  Dy  Dy11  1  0.511647  0.011646  0.250000  1
  Dy  Dy12  1  0.000000  0.000000  0.000000  1
  Dy  Dy13  1  0.500000  0.500000  0.500000  1
  Ag  Ag14  1  0.103045  0.103045  0.403435  1
  Ag  Ag15  1  0.896955  0.896955  0.596565  1
  Ag  Ag16  1  0.396955  0.396955  0.903435  1
  Ag  Ag17  1  0.603045  0.603045  0.096565  1
  Ag  Ag18  1  0.880798  0.163365  0.210752  1
  Ag  Ag19  1  0.119202  0.836635  0.789248  1
  Ag  Ag20  1  0.619202  0.336635  0.710752  1
  Ag  Ag21  1  0.663365  0.380798  0.289248  1
  Ag  Ag22  1  0.380798  0.663365  0.289248  1
  Ag  Ag23  1  0.336635  0.619202  0.710752  1
  Ag  Ag24  1  0.836635  0.119202  0.789248  1
  Ag  Ag25  1  0.163365  0.880798  0.210752  1
  Ag  Ag26  1  0.932999  0.647151  0.009261  1
  Ag  Ag27  1  0.067001  0.352849  0.990739  1
  Ag  Ag28  1  0.567001  0.852849  0.509261  1
  Ag  Ag29  1  0.147151  0.432999  0.490739  1
  Ag  Ag30  1  0.432999  0.147151  0.490739  1
  Ag  Ag31  1  0.852849  0.567001  0.509261  1
  Ag  Ag32  1  0.352849  0.067001  0.990739  1
  Ag  Ag33  1  0.647151  0.932999  0.009261  1
