# generated using pymatgen
data_YbHo(MgAl4)2
_symmetry_space_group_name_H-M   'P 1'
_cell_length_a   9.43454031
_cell_length_b   9.43454029
_cell_length_c   9.43454000
_cell_angle_alpha   34.22396764
_cell_angle_beta   34.22396779
_cell_angle_gamma   34.22396890
_symmetry_Int_Tables_number   1
_chemical_formula_structural   YbHo(MgAl4)2
_chemical_formula_sum   'Yb1 Ho1 Mg2 Al8'
_cell_volume   236.87622951
_cell_formula_units_Z   1
loop_
 _symmetry_equiv_pos_site_id
 _symmetry_equiv_pos_as_xyz
  1  'x, y, z'
loop_
 _atom_site_type_symbol
 _atom_site_label
 _atom_site_symmetry_multiplicity
 _atom_site_fract_x
 _atom_site_fract_y
 _atom_site_fract_z
 _atom_site_occupancy
  Yb  Yb0  1  0.064102  0.064102  0.064102  1
  Ho  Ho1  1  0.936280  0.936280  0.936280  1
  Mg  Mg2  1  0.560714  0.560714  0.560714  1
  Mg  Mg3  1  0.439797  0.439797  0.439797  1
  Al  Al4  1  0.750274  0.750274  0.750274  1
  Al  Al5  1  0.249924  0.249924  0.249924  1
  Al  Al6  1  0.997486  0.499458  0.499458  1
  Al  Al7  1  0.501914  0.000296  0.000296  1
  Al  Al8  1  0.499458  0.997486  0.499458  1
  Al  Al9  1  0.000296  0.501914  0.000296  1
  Al  Al10  1  0.499458  0.499458  0.997486  1
  Al  Al11  1  0.000296  0.000296  0.501914  1
