# generated using pymatgen
data_Dy7Er3Cd7InNi4
_symmetry_space_group_name_H-M   'P 1'
_cell_length_a   3.56747700
_cell_length_b   7.88369609
_cell_length_c   18.18624533
_cell_angle_alpha   89.76751402
_cell_angle_beta   90.00000000
_cell_angle_gamma   90.00000000
_symmetry_Int_Tables_number   1
_chemical_formula_structural   Dy7Er3Cd7InNi4
_chemical_formula_sum   'Dy7 Er3 Cd7 In1 Ni4'
_cell_volume   511.48220161
_cell_formula_units_Z   1
loop_
 _symmetry_equiv_pos_site_id
 _symmetry_equiv_pos_as_xyz
  1  'x, y, z'
loop_
 _atom_site_type_symbol
 _atom_site_label
 _atom_site_symmetry_multiplicity
 _atom_site_fract_x
 _atom_site_fract_y
 _atom_site_fract_z
 _atom_site_occupancy
  Dy  Dy0  1  0.500000  0.750300  0.721204  1
  Dy  Dy1  1  0.500000  0.250377  0.778551  1
  Dy  Dy2  1  0.500000  0.497979  0.001243  1
  Dy  Dy3  1  0.500000  0.750931  0.221144  1
  Dy  Dy4  1  0.500000  0.247811  0.279167  1
  Dy  Dy5  1  0.500000  0.001892  0.500041  1
  Dy  Dy6  1  0.500000  0.614365  0.411571  1
  Er  Er7  1  0.500000  0.387130  0.588834  1
  Er  Er8  1  0.500000  0.885286  0.910834  1
  Er  Er9  1  0.500000  0.113453  0.089069  1
  Cd  Cd10  1  0.000000  0.789227  0.069101  1
  Cd  Cd11  1  0.000000  0.930914  0.349115  1
  Cd  Cd12  1  0.000000  0.069788  0.650726  1
  Cd  Cd13  1  0.000000  0.568511  0.849196  1
  Cd  Cd14  1  0.000000  0.712047  0.569514  1
  Cd  Cd15  1  0.000000  0.209179  0.930918  1
  Cd  Cd16  1  0.000000  0.289670  0.430503  1
  In  In17  1  0.000000  0.431482  0.151243  1
  Ni  Ni18  1  0.000000  0.970401  0.803766  1
  Ni  Ni19  1  0.000000  0.528308  0.302779  1
  Ni  Ni20  1  0.000000  0.471190  0.695500  1
  Ni  Ni21  1  0.000000  0.029758  0.195979  1
