# generated using pymatgen
data_Tb7Ho(ErPb3)2
_symmetry_space_group_name_H-M   'P 1'
_cell_length_a   9.07641000
_cell_length_b   9.07641082
_cell_length_c   6.65408400
_cell_angle_alpha   90.00000000
_cell_angle_beta   90.00000000
_cell_angle_gamma   120.00000432
_symmetry_Int_Tables_number   1
_chemical_formula_structural   Tb7Ho(ErPb3)2
_chemical_formula_sum   'Tb7 Ho1 Er2 Pb6'
_cell_volume   474.73050810
_cell_formula_units_Z   1
loop_
 _symmetry_equiv_pos_site_id
 _symmetry_equiv_pos_as_xyz
  1  'x, y, z'
loop_
 _atom_site_type_symbol
 _atom_site_label
 _atom_site_symmetry_multiplicity
 _atom_site_fract_x
 _atom_site_fract_y
 _atom_site_fract_z
 _atom_site_occupancy
  Tb  Tb0  1  0.333333  0.666667  0.000000  1
  Tb  Tb1  1  0.237922  0.000142  0.250149  1
  Tb  Tb2  1  0.237922  0.237779  0.749851  1
  Tb  Tb3  1  0.999858  0.762078  0.749851  1
  Tb  Tb4  1  0.999858  0.237779  0.250149  1
  Tb  Tb5  1  0.762221  0.762078  0.250149  1
  Tb  Tb6  1  0.762221  0.000142  0.749851  1
  Ho  Ho7  1  0.333333  0.666667  0.500000  1
  Er  Er8  1  0.666667  0.333333  0.500000  1
  Er  Er9  1  0.666667  0.333333  0.000000  1
  Pb  Pb10  1  0.604936  0.000787  0.250468  1
  Pb  Pb11  1  0.604936  0.604148  0.749532  1
  Pb  Pb12  1  0.999213  0.395064  0.749532  1
  Pb  Pb13  1  0.999213  0.604148  0.250468  1
  Pb  Pb14  1  0.395852  0.395064  0.250468  1
  Pb  Pb15  1  0.395852  0.000787  0.749532  1
