# generated using pymatgen
data_Cs4Dy3U5Se16
_symmetry_space_group_name_H-M   'P 1'
_cell_length_a   7.37914930
_cell_length_b   8.48620900
_cell_length_c   18.27118500
_cell_angle_alpha   90.00000000
_cell_angle_beta   90.08058830
_cell_angle_gamma   90.00000000
_symmetry_Int_Tables_number   1
_chemical_formula_structural   Cs4Dy3U5Se16
_chemical_formula_sum   'Cs4 Dy3 U5 Se16'
_cell_volume   1144.15880250
_cell_formula_units_Z   1
loop_
 _symmetry_equiv_pos_site_id
 _symmetry_equiv_pos_as_xyz
  1  'x, y, z'
loop_
 _atom_site_type_symbol
 _atom_site_label
 _atom_site_symmetry_multiplicity
 _atom_site_fract_x
 _atom_site_fract_y
 _atom_site_fract_z
 _atom_site_occupancy
  Cs  Cs0  1  0.348301  0.000000  0.001405  1
  Cs  Cs1  1  0.648620  0.500000  0.498227  1
  Cs  Cs2  1  0.030424  0.000000  0.498198  1
  Cs  Cs3  1  0.969495  0.500000  0.003212  1
  Dy  Dy4  1  0.000503  0.000000  0.247295  1
  Dy  Dy5  1  0.000312  0.000000  0.752316  1
  Dy  Dy6  1  0.999434  0.500000  0.252830  1
  U  U7  1  0.000753  0.500000  0.747866  1
  U  U8  1  0.500031  0.249901  0.250025  1
  U  U9  1  0.500310  0.752294  0.749768  1
  U  U10  1  0.500031  0.750099  0.250025  1
  U  U11  1  0.500310  0.247706  0.749768  1
  Se  Se12  1  0.829220  0.247422  0.334731  1
  Se  Se13  1  0.832352  0.750813  0.664938  1
  Se  Se14  1  0.170755  0.747479  0.165256  1
  Se  Se15  1  0.168139  0.253628  0.834935  1
  Se  Se16  1  0.170755  0.252521  0.165256  1
  Se  Se17  1  0.168139  0.746372  0.834935  1
  Se  Se18  1  0.829220  0.752578  0.334731  1
  Se  Se19  1  0.832352  0.249187  0.664938  1
  Se  Se20  1  0.661929  0.000000  0.166738  1
  Se  Se21  1  0.664844  0.000000  0.834311  1
  Se  Se22  1  0.338025  0.500000  0.333186  1
  Se  Se23  1  0.334654  0.500000  0.666499  1
  Se  Se24  1  0.334227  0.000000  0.332069  1
  Se  Se25  1  0.331179  0.000000  0.666611  1
  Se  Se26  1  0.665720  0.500000  0.167979  1
  Se  Se27  1  0.669966  0.500000  0.831949  1
