# generated using pymatgen
data_Sm2Er4NbCo17P12
_symmetry_space_group_name_H-M   'P 1'
_cell_length_a   3.71066400
_cell_length_b   10.58606500
_cell_length_c   12.27975100
_cell_angle_alpha   90.00000000
_cell_angle_beta   90.00000000
_cell_angle_gamma   90.00000000
_symmetry_Int_Tables_number   1
_chemical_formula_structural   Sm2Er4NbCo17P12
_chemical_formula_sum   'Sm2 Er4 Nb1 Co17 P12'
_cell_volume   482.36495500
_cell_formula_units_Z   1
loop_
 _symmetry_equiv_pos_site_id
 _symmetry_equiv_pos_as_xyz
  1  'x, y, z'
loop_
 _atom_site_type_symbol
 _atom_site_label
 _atom_site_symmetry_multiplicity
 _atom_site_fract_x
 _atom_site_fract_y
 _atom_site_fract_z
 _atom_site_occupancy
  Sm  Sm0  1  0.750000  0.250000  0.472428  1
  Sm  Sm1  1  0.250000  0.750000  0.522658  1
  Er  Er2  1  0.250000  0.930287  0.793514  1
  Er  Er3  1  0.250000  0.569713  0.793514  1
  Er  Er4  1  0.750000  0.067058  0.203456  1
  Er  Er5  1  0.750000  0.432942  0.203456  1
  Nb  Nb6  1  0.250000  0.250000  0.846508  1
  Co  Co7  1  0.750000  0.750000  0.160326  1
  Co  Co8  1  0.250000  0.250000  0.295592  1
  Co  Co9  1  0.750000  0.750000  0.706013  1
  Co  Co10  1  0.750000  0.250000  0.016039  1
  Co  Co11  1  0.250000  0.750000  0.985798  1
  Co  Co12  1  0.250000  0.420574  0.010791  1
  Co  Co13  1  0.250000  0.079426  0.010791  1
  Co  Co14  1  0.750000  0.586239  0.996084  1
  Co  Co15  1  0.750000  0.913761  0.996084  1
  Co  Co16  1  0.250000  0.455164  0.567883  1
  Co  Co17  1  0.250000  0.044836  0.567883  1
  Co  Co18  1  0.750000  0.547172  0.429295  1
  Co  Co19  1  0.750000  0.952828  0.429295  1
  Co  Co20  1  0.250000  0.870311  0.289946  1
  Co  Co21  1  0.250000  0.629689  0.289946  1
  Co  Co22  1  0.750000  0.126855  0.707244  1
  Co  Co23  1  0.750000  0.373145  0.707244  1
  P  P24  1  0.250000  0.250000  0.118852  1
  P  P25  1  0.750000  0.750000  0.883319  1
  P  P26  1  0.250000  0.250000  0.646467  1
  P  P27  1  0.750000  0.750000  0.342029  1
  P  P28  1  0.250000  0.442013  0.381212  1
  P  P29  1  0.250000  0.057987  0.381212  1
  P  P30  1  0.750000  0.560142  0.615614  1
  P  P31  1  0.750000  0.939858  0.615614  1
  P  P32  1  0.250000  0.899250  0.109649  1
  P  P33  1  0.250000  0.600750  0.109649  1
  P  P34  1  0.750000  0.088551  0.897297  1
  P  P35  1  0.750000  0.411449  0.897297  1
