# generated using pymatgen
data_Ce3Ga2Ge3
_symmetry_space_group_name_H-M   'P 1'
_cell_length_a   7.99609873
_cell_length_b   7.99609825
_cell_length_c   7.99609801
_cell_angle_alpha   120.14895106
_cell_angle_beta   120.14895005
_cell_angle_gamma   89.74219768
_symmetry_Int_Tables_number   1
_chemical_formula_structural   Ce3Ga2Ge3
_chemical_formula_sum   'Ce6 Ga4 Ge6'
_cell_volume   360.69138570
_cell_formula_units_Z   2
loop_
 _symmetry_equiv_pos_site_id
 _symmetry_equiv_pos_as_xyz
  1  'x, y, z'
loop_
 _atom_site_type_symbol
 _atom_site_label
 _atom_site_symmetry_multiplicity
 _atom_site_fract_x
 _atom_site_fract_y
 _atom_site_fract_z
 _atom_site_occupancy
  Ce  Ce0  1  0.663404  0.163404  0.823203  1
  Ce  Ce1  1  0.340201  0.840201  0.176797  1
  Ce  Ce2  1  0.840201  0.663404  0.500000  1
  Ce  Ce3  1  0.163404  0.340201  0.500000  1
  Ce  Ce4  1  0.743258  0.743258  0.000000  1
  Ce  Ce5  1  0.243258  0.243258  0.000000  1
  Ga  Ga6  1  0.951874  0.451874  0.776502  1
  Ga  Ga7  1  0.675372  0.175372  0.223498  1
  Ga  Ga8  1  0.175372  0.951874  0.500000  1
  Ga  Ga9  1  0.451874  0.675372  0.500000  1
  Ge  Ge10  1  0.492215  0.492215  0.000000  1
  Ge  Ge11  1  0.992215  0.992215  0.000000  1
  Ge  Ge12  1  0.045264  0.545264  0.206853  1
  Ge  Ge13  1  0.338412  0.838412  0.793147  1
  Ge  Ge14  1  0.838412  0.045264  0.500000  1
  Ge  Ge15  1  0.545264  0.338412  0.500000  1
