# generated using pymatgen
data_Er3Lu5(CdIr)2
_symmetry_space_group_name_H-M   'P 1'
_cell_length_a   9.47613400
_cell_length_b   9.47822741
_cell_length_c   9.47828400
_cell_angle_alpha   59.99980250
_cell_angle_beta   59.99249440
_cell_angle_gamma   59.99421359
_symmetry_Int_Tables_number   1
_chemical_formula_structural   Er3Lu5(CdIr)2
_chemical_formula_sum   'Er6 Lu10 Cd4 Ir4'
_cell_volume   601.90611457
_cell_formula_units_Z   2
loop_
 _symmetry_equiv_pos_site_id
 _symmetry_equiv_pos_as_xyz
  1  'x, y, z'
loop_
 _atom_site_type_symbol
 _atom_site_label
 _atom_site_symmetry_multiplicity
 _atom_site_fract_x
 _atom_site_fract_y
 _atom_site_fract_z
 _atom_site_occupancy
  Er  Er0  1  0.188430  0.811648  0.811567  1
  Er  Er1  1  0.811589  0.188406  0.188382  1
  Er  Er2  1  0.811589  0.188406  0.811623  1
  Er  Er3  1  0.188430  0.811648  0.188354  1
  Er  Er4  1  0.811574  0.811605  0.188410  1
  Er  Er5  1  0.188431  0.188413  0.811578  1
  Lu  Lu6  1  0.599447  0.599449  0.599434  1
  Lu  Lu7  1  0.599447  0.599449  0.201670  1
  Lu  Lu8  1  0.599450  0.201699  0.599425  1
  Lu  Lu9  1  0.201742  0.599423  0.599417  1
  Lu  Lu10  1  0.061079  0.438904  0.438927  1
  Lu  Lu11  1  0.438913  0.061094  0.061070  1
  Lu  Lu12  1  0.438913  0.061094  0.438924  1
  Lu  Lu13  1  0.061079  0.438904  0.061090  1
  Lu  Lu14  1  0.438988  0.438896  0.061058  1
  Lu  Lu15  1  0.061067  0.061134  0.438900  1
  Cd  Cd16  1  0.830973  0.830912  0.831151  1
  Cd  Cd17  1  0.830973  0.830912  0.506963  1
  Cd  Cd18  1  0.830952  0.507070  0.830989  1
  Cd  Cd19  1  0.506816  0.830959  0.831112  1
  Ir  Ir20  1  0.392026  0.391959  0.391966  1
  Ir  Ir21  1  0.392026  0.391959  0.824047  1
  Ir  Ir22  1  0.392013  0.824055  0.391966  1
  Ir  Ir23  1  0.824052  0.391997  0.391975  1
