# generated using pymatgen
data_Yb3Ho3Al18(Si3Os4)2
_symmetry_space_group_name_H-M   'P 1'
_cell_length_a   8.70835541
_cell_length_b   8.66279064
_cell_length_c   9.62796700
_cell_angle_alpha   90.00000000
_cell_angle_beta   90.00000000
_cell_angle_gamma   120.13904942
_symmetry_Int_Tables_number   1
_chemical_formula_structural   Yb3Ho3Al18(Si3Os4)2
_chemical_formula_sum   'Yb3 Ho3 Al18 Si6 Os8'
_cell_volume   628.12917879
_cell_formula_units_Z   1
loop_
 _symmetry_equiv_pos_site_id
 _symmetry_equiv_pos_as_xyz
  1  'x, y, z'
loop_
 _atom_site_type_symbol
 _atom_site_label
 _atom_site_symmetry_multiplicity
 _atom_site_fract_x
 _atom_site_fract_y
 _atom_site_fract_z
 _atom_site_occupancy
  Yb  Yb0  1  0.194540  0.388401  0.250000  1
  Yb  Yb1  1  0.805863  0.611862  0.750000  1
  Yb  Yb2  1  0.608911  0.806639  0.250000  1
  Ho  Ho3  1  0.391718  0.193524  0.750000  1
  Ho  Ho4  1  0.198390  0.807294  0.250000  1
  Ho  Ho5  1  0.802161  0.192679  0.750000  1
  Al  Al6  1  0.165635  0.331717  0.577584  1
  Al  Al7  1  0.833498  0.667950  0.422459  1
  Al  Al8  1  0.668961  0.834070  0.575568  1
  Al  Al9  1  0.833498  0.667950  0.077541  1
  Al  Al10  1  0.331100  0.166070  0.422794  1
  Al  Al11  1  0.165635  0.331717  0.922416  1
  Al  Al12  1  0.165287  0.833881  0.576957  1
  Al  Al13  1  0.331100  0.166070  0.077206  1
  Al  Al14  1  0.834121  0.165720  0.423496  1
  Al  Al15  1  0.668961  0.834070  0.924432  1
  Al  Al16  1  0.834121  0.165720  0.076504  1
  Al  Al17  1  0.165287  0.833881  0.923043  1
  Al  Al18  1  0.872234  0.432670  0.250000  1
  Al  Al19  1  0.126847  0.567259  0.750000  1
  Al  Al20  1  0.560181  0.433835  0.250000  1
  Al  Al21  1  0.440758  0.567922  0.750000  1
  Al  Al22  1  0.999069  0.998589  0.250000  1
  Al  Al23  1  0.000126  0.000526  0.750000  1
  Si  Si24  1  0.332092  0.663804  0.038558  1
  Si  Si25  1  0.668996  0.336589  0.960350  1
  Si  Si26  1  0.668996  0.336589  0.539650  1
  Si  Si27  1  0.332092  0.663804  0.461442  1
  Si  Si28  1  0.564262  0.127577  0.250000  1
  Si  Si29  1  0.436371  0.872200  0.750000  1
  Os  Os30  1  0.499397  0.000602  0.999024  1
  Os  Os31  1  0.000186  0.500000  0.999448  1
  Os  Os32  1  0.499397  0.000602  0.500976  1
  Os  Os33  1  0.499375  0.498690  0.998375  1
  Os  Os34  1  0.000186  0.500000  0.500552  1
  Os  Os35  1  0.499375  0.498690  0.501625  1
  Os  Os36  1  0.000635  0.000419  0.000366  1
  Os  Os37  1  0.000635  0.000419  0.499634  1
