# generated using pymatgen
data_Tb3ErLuPb3
_symmetry_space_group_name_H-M   'P 1'
_cell_length_a   9.04277700
_cell_length_b   9.04277759
_cell_length_c   6.60356700
_cell_angle_alpha   90.00000000
_cell_angle_beta   90.00000000
_cell_angle_gamma   120.00000149
_symmetry_Int_Tables_number   1
_chemical_formula_structural   Tb3ErLuPb3
_chemical_formula_sum   'Tb6 Er2 Lu2 Pb6'
_cell_volume   467.64132714
_cell_formula_units_Z   2
loop_
 _symmetry_equiv_pos_site_id
 _symmetry_equiv_pos_as_xyz
  1  'x, y, z'
loop_
 _atom_site_type_symbol
 _atom_site_label
 _atom_site_symmetry_multiplicity
 _atom_site_fract_x
 _atom_site_fract_y
 _atom_site_fract_z
 _atom_site_occupancy
  Tb  Tb0  1  0.760585  0.760585  0.750227  1
  Tb  Tb1  1  0.239415  0.000000  0.750227  1
  Tb  Tb2  1  0.000000  0.239415  0.750227  1
  Tb  Tb3  1  0.239415  0.239415  0.249773  1
  Tb  Tb4  1  0.760585  0.000000  0.249773  1
  Tb  Tb5  1  0.000000  0.760585  0.249773  1
  Er  Er6  1  0.333333  0.666667  0.500000  1
  Er  Er7  1  0.666667  0.333333  0.500000  1
  Lu  Lu8  1  0.666667  0.333333  0.000000  1
  Lu  Lu9  1  0.333333  0.666667  0.000000  1
  Pb  Pb10  1  0.394970  0.394970  0.750576  1
  Pb  Pb11  1  0.605030  0.000000  0.750576  1
  Pb  Pb12  1  0.000000  0.605030  0.750576  1
  Pb  Pb13  1  0.605030  0.605030  0.249424  1
  Pb  Pb14  1  0.394970  0.000000  0.249424  1
  Pb  Pb15  1  0.000000  0.394970  0.249424  1
