# generated using pymatgen
data_SiMo12Pt5(RhN2)2
_symmetry_space_group_name_H-M   'P 1'
_cell_length_a   6.88289923
_cell_length_b   6.87053321
_cell_length_c   6.86832745
_cell_angle_alpha   89.93820624
_cell_angle_beta   89.94980333
_cell_angle_gamma   89.97742002
_symmetry_Int_Tables_number   1
_chemical_formula_structural   SiMo12Pt5(RhN2)2
_chemical_formula_sum   'Si1 Mo12 Pt5 Rh2 N4'
_cell_volume   324.79728786
_cell_formula_units_Z   1
loop_
 _symmetry_equiv_pos_site_id
 _symmetry_equiv_pos_as_xyz
  1  'x, y, z'
loop_
 _atom_site_type_symbol
 _atom_site_label
 _atom_site_symmetry_multiplicity
 _atom_site_fract_x
 _atom_site_fract_y
 _atom_site_fract_z
 _atom_site_occupancy
  Si  Si0  1  0.190544  0.184012  0.182938  1
  Mo  Mo1  1  0.616556  0.708965  0.948410  1
  Mo  Mo2  1  0.462169  0.869856  0.306599  1
  Mo  Mo3  1  0.702868  0.949516  0.619805  1
  Mo  Mo4  1  0.546360  0.373286  0.203452  1
  Mo  Mo5  1  0.374290  0.200628  0.551340  1
  Mo  Mo6  1  0.204095  0.548004  0.374842  1
  Mo  Mo7  1  0.869258  0.306164  0.463412  1
  Mo  Mo8  1  0.046296  0.118065  0.794230  1
  Mo  Mo9  1  0.306993  0.463935  0.869136  1
  Mo  Mo10  1  0.120495  0.795197  0.041899  1
  Mo  Mo11  1  0.789546  0.045708  0.118019  1
  Mo  Mo12  1  0.952531  0.620451  0.704238  1
  Pt  Pt13  1  0.817288  0.686714  0.306072  1
  Pt  Pt14  1  0.684841  0.304264  0.818588  1
  Pt  Pt15  1  0.557743  0.560643  0.560751  1
  Pt  Pt16  1  0.071195  0.959486  0.417498  1
  Pt  Pt17  1  0.960582  0.414894  0.069717  1
  Rh  Rh18  1  0.306938  0.818598  0.688205  1
  Rh  Rh19  1  0.416142  0.067588  0.958605  1
  N  N20  1  0.376204  0.628618  0.126871  1
  N  N21  1  0.872237  0.871807  0.871192  1
  N  N22  1  0.127629  0.375648  0.627729  1
  N  N23  1  0.627197  0.127952  0.376450  1
