# generated using pymatgen
data_Sc3CoSn3Ru5
_symmetry_space_group_name_H-M   'P 1'
_cell_length_a   4.52537800
_cell_length_b   6.38907600
_cell_length_c   13.57690801
_cell_angle_alpha   90.00014349
_cell_angle_beta   90.00432150
_cell_angle_gamma   89.99987392
_symmetry_Int_Tables_number   1
_chemical_formula_structural   Sc3CoSn3Ru5
_chemical_formula_sum   'Sc6 Co2 Sn6 Ru10'
_cell_volume   392.54892282
_cell_formula_units_Z   2
loop_
 _symmetry_equiv_pos_site_id
 _symmetry_equiv_pos_as_xyz
  1  'x, y, z'
loop_
 _atom_site_type_symbol
 _atom_site_label
 _atom_site_symmetry_multiplicity
 _atom_site_fract_x
 _atom_site_fract_y
 _atom_site_fract_z
 _atom_site_occupancy
  Sc  Sc0  1  0.000012  0.999960  0.997512  1
  Sc  Sc1  1  0.500231  0.500009  0.165743  1
  Sc  Sc2  1  0.000182  0.999986  0.333353  1
  Sc  Sc3  1  0.500011  0.500010  0.500841  1
  Sc  Sc4  1  0.999805  0.999959  0.669145  1
  Sc  Sc5  1  0.499820  0.500068  0.833356  1
  Co  Co6  1  0.999779  0.252269  0.833388  1
  Co  Co7  1  0.999781  0.747737  0.833387  1
  Sn  Sn8  1  0.000006  0.500011  0.996276  1
  Sn  Sn9  1  0.500207  0.999999  0.165246  1
  Sn  Sn10  1  0.000139  0.500001  0.333283  1
  Sn  Sn11  1  0.500007  0.999999  0.501407  1
  Sn  Sn12  1  0.999778  0.500011  0.670486  1
  Sn  Sn13  1  0.499883  0.999981  0.833316  1
  Ru  Ru14  1  0.500012  0.249719  0.997067  1
  Ru  Ru15  1  0.500013  0.750282  0.997070  1
  Ru  Ru16  1  0.000230  0.250578  0.164012  1
  Ru  Ru17  1  0.000230  0.749418  0.164011  1
  Ru  Ru18  1  0.500147  0.249185  0.333287  1
  Ru  Ru19  1  0.500146  0.750815  0.333288  1
  Ru  Ru20  1  0.999997  0.250651  0.502642  1
  Ru  Ru21  1  0.999997  0.749347  0.502643  1
  Ru  Ru22  1  0.499794  0.249849  0.669624  1
  Ru  Ru23  1  0.499794  0.750152  0.669619  1
