# generated using pymatgen
data_La7Yb12PrSn16
_symmetry_space_group_name_H-M   'P 1'
_cell_length_a   8.02502303
_cell_length_b   8.55611807
_cell_length_c   16.18248511
_cell_angle_alpha   90.01201572
_cell_angle_beta   89.99486948
_cell_angle_gamma   90.00862514
_symmetry_Int_Tables_number   1
_chemical_formula_structural   La7Yb12PrSn16
_chemical_formula_sum   'La7 Yb12 Pr1 Sn16'
_cell_volume   1111.13865465
_cell_formula_units_Z   1
loop_
 _symmetry_equiv_pos_site_id
 _symmetry_equiv_pos_as_xyz
  1  'x, y, z'
loop_
 _atom_site_type_symbol
 _atom_site_label
 _atom_site_symmetry_multiplicity
 _atom_site_fract_x
 _atom_site_fract_y
 _atom_site_fract_z
 _atom_site_occupancy
  La  La0  1  0.494301  0.315249  0.904042  1
  La  La1  1  0.994372  0.184741  0.595952  1
  La  La2  1  0.505555  0.684626  0.404024  1
  La  La3  1  0.005531  0.815581  0.095738  1
  La  La4  1  0.505747  0.684543  0.095877  1
  La  La5  1  0.005571  0.815309  0.404034  1
  La  La6  1  0.494440  0.315285  0.596011  1
  Yb  Yb7  1  0.334114  0.826995  0.876329  1
  Yb  Yb8  1  0.834150  0.673083  0.623743  1
  Yb  Yb9  1  0.665834  0.173107  0.376302  1
  Yb  Yb10  1  0.165732  0.326803  0.123584  1
  Yb  Yb11  1  0.665947  0.173197  0.123634  1
  Yb  Yb12  1  0.165819  0.326910  0.376303  1
  Yb  Yb13  1  0.334186  0.826866  0.623725  1
  Yb  Yb14  1  0.834277  0.673115  0.876333  1
  Yb  Yb15  1  0.162011  0.504114  0.750110  1
  Yb  Yb16  1  0.662199  0.995791  0.750118  1
  Yb  Yb17  1  0.837898  0.495685  0.249992  1
  Yb  Yb18  1  0.337900  0.004304  0.250003  1
  Pr  Pr19  1  0.994174  0.185202  0.903848  1
  Sn  Sn20  1  0.330777  0.035137  0.038496  1
  Sn  Sn21  1  0.831165  0.465067  0.461442  1
  Sn  Sn22  1  0.668718  0.965098  0.538549  1
  Sn  Sn23  1  0.168571  0.534486  0.961381  1
  Sn  Sn24  1  0.669479  0.965100  0.961299  1
  Sn  Sn25  1  0.168835  0.534996  0.538579  1
  Sn  Sn26  1  0.331218  0.034965  0.461475  1
  Sn  Sn27  1  0.831311  0.464715  0.038419  1
  Sn  Sn28  1  0.535359  0.602388  0.750061  1
  Sn  Sn29  1  0.035228  0.897757  0.750186  1
  Sn  Sn30  1  0.464778  0.397556  0.250030  1
  Sn  Sn31  1  0.964756  0.102504  0.250066  1
  Sn  Sn32  1  0.289248  0.140702  0.750190  1
  Sn  Sn33  1  0.789961  0.359047  0.750101  1
  Sn  Sn34  1  0.710412  0.859388  0.249992  1
  Sn  Sn35  1  0.210426  0.640586  0.250031  1
