# generated using pymatgen
data_Lu2P7IrRu11
_symmetry_space_group_name_H-M   'P 1'
_cell_length_a   9.36456312
_cell_length_b   9.40996029
_cell_length_c   3.94312900
_cell_angle_alpha   90.00000000
_cell_angle_beta   90.00000000
_cell_angle_gamma   119.69171464
_symmetry_Int_Tables_number   1
_chemical_formula_structural   Lu2P7IrRu11
_chemical_formula_sum   'Lu2 P7 Ir1 Ru11'
_cell_volume   301.84757743
_cell_formula_units_Z   1
loop_
 _symmetry_equiv_pos_site_id
 _symmetry_equiv_pos_as_xyz
  1  'x, y, z'
loop_
 _atom_site_type_symbol
 _atom_site_label
 _atom_site_symmetry_multiplicity
 _atom_site_fract_x
 _atom_site_fract_y
 _atom_site_fract_z
 _atom_site_occupancy
  Lu  Lu0  1  0.667639  0.334806  0.500000  1
  Lu  Lu1  1  0.331477  0.663566  0.000000  1
  P  P2  1  0.598386  0.713700  0.500000  1
  P  P3  1  0.999464  0.000308  0.000000  1
  P  P4  1  0.277298  0.877992  0.500000  1
  P  P5  1  0.119303  0.401086  0.500000  1
  P  P6  1  0.884492  0.575605  0.000000  1
  P  P7  1  0.427376  0.310035  0.000000  1
  P  P8  1  0.695680  0.121706  0.000000  1
  Ir  Ir9  1  0.549099  0.941032  0.500000  1
  Ru  Ru10  1  0.392051  0.444074  0.500000  1
  Ru  Ru11  1  0.913297  0.124518  0.500000  1
  Ru  Ru12  1  0.210196  0.085786  0.500000  1
  Ru  Ru13  1  0.876411  0.792632  0.500000  1
  Ru  Ru14  1  0.726111  0.893515  0.000000  1
  Ru  Ru15  1  0.109355  0.836255  0.000000  1
  Ru  Ru16  1  0.164654  0.271769  0.000000  1
  Ru  Ru17  1  0.430312  0.069102  0.000000  1
  Ru  Ru18  1  0.934122  0.360980  0.000000  1
  Ru  Ru19  1  0.641038  0.574474  0.000000  1
  Ru  Ru20  1  0.052239  0.607059  0.500000  1
