# generated using pymatgen
data_Sr10TcWN10
_symmetry_space_group_name_H-M   'P 1'
_cell_length_a   7.68281618
_cell_length_b   7.68281668
_cell_length_c   9.04532600
_cell_angle_alpha   76.28682800
_cell_angle_beta   76.28683475
_cell_angle_gamma   96.74623651
_symmetry_Int_Tables_number   1
_chemical_formula_structural   Sr10TcWN10
_chemical_formula_sum   'Sr10 Tc1 W1 N10'
_cell_volume   495.29730075
_cell_formula_units_Z   1
loop_
 _symmetry_equiv_pos_site_id
 _symmetry_equiv_pos_as_xyz
  1  'x, y, z'
loop_
 _atom_site_type_symbol
 _atom_site_label
 _atom_site_symmetry_multiplicity
 _atom_site_fract_x
 _atom_site_fract_y
 _atom_site_fract_z
 _atom_site_occupancy
  Sr  Sr0  1  0.388071  0.388381  0.390547  1
  Sr  Sr1  1  0.611619  0.611929  0.609453  1
  Sr  Sr2  1  0.667531  0.667276  0.011295  1
  Sr  Sr3  1  0.332724  0.332469  0.988705  1
  Sr  Sr4  1  0.923620  0.922231  0.207674  1
  Sr  Sr5  1  0.077769  0.076380  0.792326  1
  Sr  Sr6  1  0.561642  0.101638  0.744891  1
  Sr  Sr7  1  0.898362  0.438358  0.255109  1
  Sr  Sr8  1  0.438225  0.897911  0.255243  1
  Sr  Sr9  1  0.102089  0.561775  0.744757  1
  Tc  Tc10  1  0.755645  0.244355  0.000000  1
  W  W11  1  0.244476  0.755524  0.000000  1
  N  N12  1  0.657726  0.659598  0.311213  1
  N  N13  1  0.340402  0.342274  0.688787  1
  N  N14  1  0.714732  0.011085  0.982708  1
  N  N15  1  0.988915  0.285268  0.017292  1
  N  N16  1  0.283725  0.993750  0.021313  1
  N  N17  1  0.006250  0.716275  0.978687  1
  N  N18  1  0.415217  0.736440  0.818961  1
  N  N19  1  0.263560  0.584783  0.181038  1
  N  N20  1  0.593956  0.266257  0.177178  1
  N  N21  1  0.733743  0.406044  0.822821  1
