# generated using pymatgen
data_HoEr(P2Ir3)2
_symmetry_space_group_name_H-M   'P 1'
_cell_length_a   3.96881600
_cell_length_b   11.17835400
_cell_length_c   12.77309500
_cell_angle_alpha   90.00148335
_cell_angle_beta   90.00000000
_cell_angle_gamma   90.00000000
_symmetry_Int_Tables_number   1
_chemical_formula_structural   HoEr(P2Ir3)2
_chemical_formula_sum   'Ho3 Er3 P12 Ir18'
_cell_volume   566.67619082
_cell_formula_units_Z   3
loop_
 _symmetry_equiv_pos_site_id
 _symmetry_equiv_pos_as_xyz
  1  'x, y, z'
loop_
 _atom_site_type_symbol
 _atom_site_label
 _atom_site_symmetry_multiplicity
 _atom_site_fract_x
 _atom_site_fract_y
 _atom_site_fract_z
 _atom_site_occupancy
  Ho  Ho0  1  0.750000  0.249997  0.477243  1
  Ho  Ho1  1  0.250000  0.750003  0.522749  1
  Ho  Ho2  1  0.250000  0.934789  0.795653  1
  Er  Er3  1  0.250000  0.565169  0.795625  1
  Er  Er4  1  0.750000  0.065147  0.204360  1
  Er  Er5  1  0.750000  0.434847  0.204362  1
  P  P6  1  0.250000  0.250010  0.124787  1
  P  P7  1  0.750000  0.749863  0.875258  1
  P  P8  1  0.250000  0.249969  0.640048  1
  P  P9  1  0.750000  0.749999  0.359953  1
  P  P10  1  0.250000  0.434755  0.382023  1
  P  P11  1  0.250000  0.065258  0.382008  1
  P  P12  1  0.750000  0.565230  0.617981  1
  P  P13  1  0.750000  0.934716  0.617863  1
  P  P14  1  0.250000  0.905181  0.106455  1
  P  P15  1  0.250000  0.594824  0.106467  1
  P  P16  1  0.750000  0.095020  0.893593  1
  P  P17  1  0.750000  0.405165  0.893540  1
  Ir  Ir18  1  0.250000  0.250004  0.818830  1
  Ir  Ir19  1  0.750000  0.750004  0.181171  1
  Ir  Ir20  1  0.250000  0.250002  0.300872  1
  Ir  Ir21  1  0.750000  0.749805  0.699031  1
  Ir  Ir22  1  0.750000  0.250017  0.029359  1
  Ir  Ir23  1  0.250000  0.749875  0.970848  1
  Ir  Ir24  1  0.250000  0.413491  0.999040  1
  Ir  Ir25  1  0.250000  0.086573  0.999176  1
  Ir  Ir26  1  0.750000  0.586478  0.000957  1
  Ir  Ir27  1  0.750000  0.913471  0.001051  1
  Ir  Ir28  1  0.250000  0.454803  0.569643  1
  Ir  Ir29  1  0.250000  0.045253  0.569539  1
  Ir  Ir30  1  0.750000  0.545158  0.430345  1
  Ir  Ir31  1  0.750000  0.954835  0.430340  1
  Ir  Ir32  1  0.250000  0.881055  0.285994  1
  Ir  Ir33  1  0.250000  0.618941  0.286003  1
  Ir  Ir34  1  0.750000  0.119218  0.713831  1
  Ir  Ir35  1  0.750000  0.381075  0.714002  1
