# generated using pymatgen
data_Cs2Mn2SeS3
_symmetry_space_group_name_H-M   'P 1'
_cell_length_a   5.78873224
_cell_length_b   7.32554970
_cell_length_c   7.26183871
_cell_angle_alpha   117.06394007
_cell_angle_beta   100.66644030
_cell_angle_gamma   101.79808532
_symmetry_Int_Tables_number   1
_chemical_formula_structural   Cs2Mn2SeS3
_chemical_formula_sum   'Cs2 Mn2 Se1 S3'
_cell_volume   254.40038783
_cell_formula_units_Z   1
loop_
 _symmetry_equiv_pos_site_id
 _symmetry_equiv_pos_as_xyz
  1  'x, y, z'
loop_
 _atom_site_type_symbol
 _atom_site_label
 _atom_site_symmetry_multiplicity
 _atom_site_fract_x
 _atom_site_fract_y
 _atom_site_fract_z
 _atom_site_occupancy
  Cs  Cs0  1  0.244145  0.361737  0.648975  1
  Cs  Cs1  1  0.745730  0.633787  0.344756  1
  Mn  Mn2  1  0.233036  0.000527  0.010094  1
  Mn  Mn3  1  0.773248  0.002252  0.003135  1
  Se  Se4  1  0.413838  0.928232  0.721750  1
  S  S5  1  0.095697  0.277508  0.086538  1
  S  S6  1  0.585927  0.072357  0.262538  1
  S  S7  1  0.908379  0.723599  0.922215  1
