# generated using pymatgen
data_ErPa5(Sb4Pt3)2
_symmetry_space_group_name_H-M   'P 1'
_cell_length_a   8.46905172
_cell_length_b   8.46905093
_cell_length_c   8.46905251
_cell_angle_alpha   109.56577523
_cell_angle_beta   109.28228597
_cell_angle_gamma   109.56576468
_symmetry_Int_Tables_number   1
_chemical_formula_structural   ErPa5(Sb4Pt3)2
_chemical_formula_sum   'Er1 Pa5 Sb8 Pt6'
_cell_volume   467.60476663
_cell_formula_units_Z   1
loop_
 _symmetry_equiv_pos_site_id
 _symmetry_equiv_pos_as_xyz
  1  'x, y, z'
loop_
 _atom_site_type_symbol
 _atom_site_label
 _atom_site_symmetry_multiplicity
 _atom_site_fract_x
 _atom_site_fract_y
 _atom_site_fract_z
 _atom_site_occupancy
  Er  Er0  1  0.875000  0.250000  0.125000  1
  Pa  Pa1  1  0.625000  0.750000  0.375000  1
  Pa  Pa2  1  0.250166  0.125146  0.875785  1
  Pa  Pa3  1  0.750638  0.374854  0.625019  1
  Pa  Pa4  1  0.124215  0.874381  0.249362  1
  Pa  Pa5  1  0.374981  0.625619  0.749834  1
  Sb  Sb6  1  0.679546  0.501491  0.000891  1
  Sb  Sb7  1  0.499400  0.998509  0.678056  1
  Sb  Sb8  1  0.998548  0.676217  0.497344  1
  Sb  Sb9  1  0.821127  0.823783  0.822331  1
  Sb  Sb10  1  0.502656  0.001204  0.178873  1
  Sb  Sb11  1  0.177669  0.498796  0.001452  1
  Sb  Sb12  1  0.999109  0.178656  0.500600  1
  Sb  Sb13  1  0.321944  0.321344  0.320454  1
  Pt  Pt14  1  0.375000  0.250000  0.625000  1
  Pt  Pt15  1  0.125000  0.750000  0.875000  1
  Pt  Pt16  1  0.251597  0.625877  0.375844  1
  Pt  Pt17  1  0.749967  0.874123  0.125720  1
  Pt  Pt18  1  0.624156  0.375753  0.250033  1
  Pt  Pt19  1  0.874280  0.124247  0.748403  1
