# generated using pymatgen
data_Y10CdFeHg2
_symmetry_space_group_name_H-M   'P 1'
_cell_length_a   9.63190020
_cell_length_b   9.63190134
_cell_length_c   9.69026900
_cell_angle_alpha   90.00000000
_cell_angle_beta   90.00000000
_cell_angle_gamma   119.90292574
_symmetry_Int_Tables_number   1
_chemical_formula_structural   Y10CdFeHg2
_chemical_formula_sum   'Y20 Cd2 Fe2 Hg4'
_cell_volume   779.31754532
_cell_formula_units_Z   2
loop_
 _symmetry_equiv_pos_site_id
 _symmetry_equiv_pos_as_xyz
  1  'x, y, z'
loop_
 _atom_site_type_symbol
 _atom_site_label
 _atom_site_symmetry_multiplicity
 _atom_site_fract_x
 _atom_site_fract_y
 _atom_site_fract_z
 _atom_site_occupancy
  Y  Y0  1  0.001523  0.998477  0.492162  1
  Y  Y1  1  0.001523  0.998477  0.007838  1
  Y  Y2  1  0.541458  0.458542  0.250000  1
  Y  Y3  1  0.542054  0.083394  0.250000  1
  Y  Y4  1  0.916606  0.457946  0.250000  1
  Y  Y5  1  0.457498  0.542502  0.750000  1
  Y  Y6  1  0.455610  0.917016  0.750000  1
  Y  Y7  1  0.082984  0.544390  0.750000  1
  Y  Y8  1  0.212167  0.787833  0.435298  1
  Y  Y9  1  0.211775  0.423794  0.436179  1
  Y  Y10  1  0.576206  0.788225  0.436179  1
  Y  Y11  1  0.787866  0.212134  0.563982  1
  Y  Y12  1  0.787413  0.575899  0.564123  1
  Y  Y13  1  0.424101  0.212587  0.564123  1
  Y  Y14  1  0.787866  0.212134  0.936018  1
  Y  Y15  1  0.787413  0.575899  0.935877  1
  Y  Y16  1  0.424101  0.212587  0.935877  1
  Y  Y17  1  0.212167  0.787833  0.064702  1
  Y  Y18  1  0.211775  0.423794  0.063821  1
  Y  Y19  1  0.576206  0.788225  0.063821  1
  Cd  Cd20  1  0.112836  0.228201  0.750000  1
  Cd  Cd21  1  0.771799  0.887164  0.750000  1
  Fe  Fe22  1  0.333630  0.666370  0.250000  1
  Fe  Fe23  1  0.666475  0.333525  0.750000  1
  Hg  Hg24  1  0.880671  0.119329  0.250000  1
  Hg  Hg25  1  0.880191  0.759337  0.250000  1
  Hg  Hg26  1  0.240663  0.119809  0.250000  1
  Hg  Hg27  1  0.115423  0.884577  0.750000  1
