# generated using pymatgen
data_Tb8Ti8NbSi16Mo3
_symmetry_space_group_name_H-M   'P 1'
_cell_length_a   7.03117010
_cell_length_b   7.03117044
_cell_length_c   12.93204108
_cell_angle_alpha   89.99501045
_cell_angle_beta   90.00499071
_cell_angle_gamma   90.02105811
_symmetry_Int_Tables_number   1
_chemical_formula_structural   Tb8Ti8NbSi16Mo3
_chemical_formula_sum   'Tb8 Ti8 Nb1 Si16 Mo3'
_cell_volume   639.32586299
_cell_formula_units_Z   1
loop_
 _symmetry_equiv_pos_site_id
 _symmetry_equiv_pos_as_xyz
  1  'x, y, z'
loop_
 _atom_site_type_symbol
 _atom_site_label
 _atom_site_symmetry_multiplicity
 _atom_site_fract_x
 _atom_site_fract_y
 _atom_site_fract_z
 _atom_site_occupancy
  Tb  Tb0  1  0.340542  0.000528  0.466987  1
  Tb  Tb1  1  0.499789  0.840055  0.716513  1
  Tb  Tb2  1  0.500965  0.158622  0.217998  1
  Tb  Tb3  1  0.840055  0.499789  0.283487  1
  Tb  Tb4  1  0.158622  0.500965  0.782002  1
  Tb  Tb5  1  0.660270  0.998309  0.966803  1
  Tb  Tb6  1  0.000528  0.340542  0.533013  1
  Tb  Tb7  1  0.998309  0.660270  0.033197  1
  Ti  Ti8  1  0.153202  0.009469  0.875794  1
  Ti  Ti9  1  0.491318  0.653275  0.126724  1
  Ti  Ti10  1  0.509715  0.346697  0.625434  1
  Ti  Ti11  1  0.653275  0.491318  0.873276  1
  Ti  Ti12  1  0.346697  0.509715  0.374566  1
  Ti  Ti13  1  0.846640  0.990311  0.376338  1
  Ti  Ti14  1  0.009469  0.153202  0.124206  1
  Ti  Ti15  1  0.990311  0.846640  0.623662  1
  Nb  Nb16  1  0.326279  0.326279  0.000000  1
  Si  Si17  1  0.200891  0.129301  0.685245  1
  Si  Si18  1  0.370390  0.703511  0.935174  1
  Si  Si19  1  0.629282  0.299369  0.435455  1
  Si  Si20  1  0.703511  0.370390  0.064826  1
  Si  Si21  1  0.299369  0.629282  0.564545  1
  Si  Si22  1  0.799300  0.870715  0.185338  1
  Si  Si23  1  0.129301  0.200891  0.314755  1
  Si  Si24  1  0.870715  0.799300  0.814662  1
  Si  Si25  1  0.291624  0.950406  0.065983  1
  Si  Si26  1  0.547345  0.790932  0.315028  1
  Si  Si27  1  0.454473  0.208178  0.813533  1
  Si  Si28  1  0.790932  0.547345  0.684972  1
  Si  Si29  1  0.208178  0.454473  0.186467  1
  Si  Si30  1  0.708816  0.047368  0.565246  1
  Si  Si31  1  0.950406  0.291624  0.934017  1
  Si  Si32  1  0.047368  0.708816  0.434754  1
  Mo  Mo33  1  0.172862  0.825893  0.250945  1
  Mo  Mo34  1  0.825893  0.172862  0.749055  1
  Mo  Mo35  1  0.673356  0.673356  0.500000  1
