# generated using pymatgen
data_Dy3Ho9Co5Sn
_symmetry_space_group_name_H-M   'P 1'
_cell_length_a   8.26345179
_cell_length_b   8.26345199
_cell_length_c   8.26421569
_cell_angle_alpha   106.98419699
_cell_angle_beta   110.61832918
_cell_angle_gamma   110.83582619
_symmetry_Int_Tables_number   1
_chemical_formula_structural   Dy3Ho9Co5Sn
_chemical_formula_sum   'Dy3 Ho9 Co5 Sn1'
_cell_volume   433.82077545
_cell_formula_units_Z   1
loop_
 _symmetry_equiv_pos_site_id
 _symmetry_equiv_pos_as_xyz
  1  'x, y, z'
loop_
 _atom_site_type_symbol
 _atom_site_label
 _atom_site_symmetry_multiplicity
 _atom_site_fract_x
 _atom_site_fract_y
 _atom_site_fract_z
 _atom_site_occupancy
  Dy  Dy0  1  0.806914  0.791857  0.598771  1
  Dy  Dy1  1  0.193366  0.791363  0.984728  1
  Dy  Dy2  1  0.807064  0.208135  0.015201  1
  Ho  Ho3  1  0.476837  0.291606  0.185577  1
  Ho  Ho4  1  0.106651  0.292234  0.814235  1
  Ho  Ho5  1  0.893971  0.708739  0.185577  1
  Ho  Ho6  1  0.522002  0.707584  0.814235  1
  Ho  Ho7  1  0.306180  0.619751  0.313978  1
  Ho  Ho8  1  0.306031  0.992170  0.685870  1
  Ho  Ho9  1  0.693701  0.379840  0.685870  1
  Ho  Ho10  1  0.694228  0.007796  0.313978  1
  Ho  Ho11  1  0.193688  0.209199  0.402886  1
  Co  Co12  1  0.500142  0.612017  0.112159  1
  Co  Co13  1  0.499215  0.387470  0.886685  1
  Co  Co14  1  0.377013  0.000159  0.377173  1
  Co  Co15  1  0.621445  0.999839  0.621285  1
  Co  Co16  1  0.001311  0.000570  0.001882  1
  Sn  Sn17  1  0.000242  0.499670  0.499913  1
