# generated using pymatgen
data_Er12ZnCo4Bi
_symmetry_space_group_name_H-M   'P 1'
_cell_length_a   8.32418512
_cell_length_b   8.32418383
_cell_length_c   8.32418502
_cell_angle_alpha   109.69495296
_cell_angle_beta   111.46454924
_cell_angle_gamma   107.28123650
_symmetry_Int_Tables_number   1
_chemical_formula_structural   Er12ZnCo4Bi
_chemical_formula_sum   'Er12 Zn1 Co4 Bi1'
_cell_volume   443.42629857
_cell_formula_units_Z   1
loop_
 _symmetry_equiv_pos_site_id
 _symmetry_equiv_pos_as_xyz
  1  'x, y, z'
loop_
 _atom_site_type_symbol
 _atom_site_label
 _atom_site_symmetry_multiplicity
 _atom_site_fract_x
 _atom_site_fract_y
 _atom_site_fract_z
 _atom_site_occupancy
  Er  Er0  1  0.286541  0.182543  0.469085  1
  Er  Er1  1  0.713459  0.817457  0.530915  1
  Er  Er2  1  0.286541  0.817457  0.103998  1
  Er  Er3  1  0.713459  0.182543  0.896002  1
  Er  Er4  1  0.622148  0.313494  0.308653  1
  Er  Er5  1  0.377852  0.686506  0.691347  1
  Er  Er6  1  0.004842  0.313494  0.691347  1
  Er  Er7  1  0.995158  0.686506  0.308653  1
  Er  Er8  1  0.218243  0.424308  0.206065  1
  Er  Er9  1  0.781757  0.575692  0.793935  1
  Er  Er10  1  0.218243  0.012178  0.793935  1
  Er  Er11  1  0.781757  0.987822  0.206065  1
  Zn  Zn12  1  0.000000  0.000000  0.000000  1
  Co  Co13  1  0.000000  0.376368  0.376368  1
  Co  Co14  1  0.000000  0.623632  0.623632  1
  Co  Co15  1  0.387549  0.887549  0.500000  1
  Co  Co16  1  0.612451  0.112451  0.500000  1
  Bi  Bi17  1  0.500000  0.500000  0.000000  1
