# generated using pymatgen
data_Tm2Lu6Tc3B24Os
_symmetry_space_group_name_H-M   'P 1'
_cell_length_a   3.61413700
_cell_length_b   9.05364933
_cell_length_c   11.41688002
_cell_angle_alpha   89.95448516
_cell_angle_beta   90.00000000
_cell_angle_gamma   90.00000000
_symmetry_Int_Tables_number   1
_chemical_formula_structural   Tm2Lu6Tc3B24Os
_chemical_formula_sum   'Tm2 Lu6 Tc3 B24 Os1'
_cell_volume   373.57308653
_cell_formula_units_Z   1
loop_
 _symmetry_equiv_pos_site_id
 _symmetry_equiv_pos_as_xyz
  1  'x, y, z'
loop_
 _atom_site_type_symbol
 _atom_site_label
 _atom_site_symmetry_multiplicity
 _atom_site_fract_x
 _atom_site_fract_y
 _atom_site_fract_z
 _atom_site_occupancy
  Tm  Tm0  1  0.000000  0.323346  0.413686  1
  Tm  Tm1  1  0.000000  0.675686  0.584308  1
  Lu  Lu2  1  0.000000  0.822473  0.087496  1
  Lu  Lu3  1  0.000000  0.178443  0.914509  1
  Lu  Lu4  1  0.000000  0.942939  0.370418  1
  Lu  Lu5  1  0.000000  0.057779  0.629514  1
  Lu  Lu6  1  0.000000  0.443393  0.129601  1
  Lu  Lu7  1  0.000000  0.556562  0.870182  1
  Tc  Tc8  1  0.000000  0.638866  0.320186  1
  Tc  Tc9  1  0.000000  0.361123  0.680439  1
  Tc  Tc10  1  0.000000  0.138075  0.178288  1
  B  B11  1  0.500000  0.553033  0.433375  1
  B  B12  1  0.500000  0.446868  0.566523  1
  B  B13  1  0.500000  0.052777  0.066080  1
  B  B14  1  0.500000  0.946452  0.933569  1
  B  B15  1  0.500000  0.750024  0.419514  1
  B  B16  1  0.500000  0.249777  0.580571  1
  B  B17  1  0.500000  0.250469  0.080215  1
  B  B18  1  0.500000  0.750123  0.919460  1
  B  B19  1  0.500000  0.793040  0.265102  1
  B  B20  1  0.500000  0.207021  0.735564  1
  B  B21  1  0.500000  0.292866  0.234858  1
  B  B22  1  0.500000  0.707852  0.765035  1
  B  B23  1  0.500000  0.630956  0.184520  1
  B  B24  1  0.500000  0.369005  0.816096  1
  B  B25  1  0.500000  0.130287  0.314994  1
  B  B26  1  0.500000  0.869240  0.684760  1
  B  B27  1  0.500000  0.980660  0.211977  1
  B  B28  1  0.500000  0.018159  0.787945  1
  B  B29  1  0.500000  0.481143  0.287601  1
  B  B30  1  0.500000  0.518733  0.712303  1
  B  B31  1  0.500000  0.601400  0.027902  1
  B  B32  1  0.500000  0.399783  0.972013  1
  B  B33  1  0.500000  0.100712  0.472079  1
  B  B34  1  0.500000  0.899335  0.528306  1
  Os  Os35  1  0.000000  0.861601  0.821008  1
