# generated using pymatgen
data_Cs5Rb3Al2(GaSe5)2
_symmetry_space_group_name_H-M   'P 1'
_cell_length_a   8.54139412
_cell_length_b   8.96924636
_cell_length_c   11.41952453
_cell_angle_alpha   77.43442905
_cell_angle_beta   85.83040388
_cell_angle_gamma   80.85121256
_symmetry_Int_Tables_number   1
_chemical_formula_structural   Cs5Rb3Al2(GaSe5)2
_chemical_formula_sum   'Cs5 Rb3 Al2 Ga2 Se10'
_cell_volume   842.37123691
_cell_formula_units_Z   1
loop_
 _symmetry_equiv_pos_site_id
 _symmetry_equiv_pos_as_xyz
  1  'x, y, z'
loop_
 _atom_site_type_symbol
 _atom_site_label
 _atom_site_symmetry_multiplicity
 _atom_site_fract_x
 _atom_site_fract_y
 _atom_site_fract_z
 _atom_site_occupancy
  Cs  Cs0  1  0.051719  0.605916  0.759782  1
  Cs  Cs1  1  0.823125  0.910919  0.129925  1
  Cs  Cs2  1  0.950573  0.395087  0.238122  1
  Cs  Cs3  1  0.557040  0.715864  0.505342  1
  Cs  Cs4  1  0.443597  0.279680  0.493407  1
  Rb  Rb5  1  0.436728  0.329211  0.089283  1
  Rb  Rb6  1  0.559992  0.673317  0.906458  1
  Rb  Rb7  1  0.160104  0.092166  0.869304  1
  Al  Al8  1  0.904177  0.085580  0.598030  1
  Al  Al9  1  0.100716  0.915046  0.404581  1
  Ga  Ga10  1  0.295165  0.731101  0.207492  1
  Ga  Ga11  1  0.704877  0.268646  0.792584  1
  Se  Se12  1  0.863471  0.354214  0.603179  1
  Se  Se13  1  0.183162  0.971656  0.587995  1
  Se  Se14  1  0.431144  0.381442  0.778614  1
  Se  Se15  1  0.179392  0.698165  0.031377  1
  Se  Se16  1  0.823715  0.313395  0.963418  1
  Se  Se17  1  0.563973  0.603984  0.224228  1
  Se  Se18  1  0.134910  0.647374  0.396658  1
  Se  Se19  1  0.255119  0.013592  0.227684  1
  Se  Se20  1  0.755329  0.984750  0.777132  1
  Se  Se21  1  0.821973  0.028896  0.415403  1
