# generated using pymatgen
data_Dy3Al3Ga2Pd
_symmetry_space_group_name_H-M   'P 1'
_cell_length_a   6.99414900
_cell_length_b   6.99414813
_cell_length_c   4.31332200
_cell_angle_alpha   90.00000000
_cell_angle_beta   90.00000000
_cell_angle_gamma   119.99999937
_symmetry_Int_Tables_number   1
_chemical_formula_structural   Dy3Al3Ga2Pd
_chemical_formula_sum   'Dy3 Al3 Ga2 Pd1'
_cell_volume   182.73099595
_cell_formula_units_Z   1
loop_
 _symmetry_equiv_pos_site_id
 _symmetry_equiv_pos_as_xyz
  1  'x, y, z'
loop_
 _atom_site_type_symbol
 _atom_site_label
 _atom_site_symmetry_multiplicity
 _atom_site_fract_x
 _atom_site_fract_y
 _atom_site_fract_z
 _atom_site_occupancy
  Dy  Dy0  1  0.581862  0.000000  0.000000  1
  Dy  Dy1  1  0.000000  0.581862  0.000000  1
  Dy  Dy2  1  0.418138  0.418138  0.000000  1
  Al  Al3  1  0.235340  0.000000  0.500000  1
  Al  Al4  1  0.000000  0.235340  0.500000  1
  Al  Al5  1  0.764660  0.764660  0.500000  1
  Ga  Ga6  1  0.333333  0.666667  0.500000  1
  Ga  Ga7  1  0.666667  0.333333  0.500000  1
  Pd  Pd8  1  0.000000  0.000000  0.000000  1
