# generated using pymatgen
data_Lu6VFe6Co11P12
_symmetry_space_group_name_H-M   'P 1'
_cell_length_a   3.67067200
_cell_length_b   10.47226200
_cell_length_c   12.00416000
_cell_angle_alpha   90.00000000
_cell_angle_beta   90.00000000
_cell_angle_gamma   90.00000000
_symmetry_Int_Tables_number   1
_chemical_formula_structural   Lu6VFe6Co11P12
_chemical_formula_sum   'Lu6 V1 Fe6 Co11 P12'
_cell_volume   461.44277819
_cell_formula_units_Z   1
loop_
 _symmetry_equiv_pos_site_id
 _symmetry_equiv_pos_as_xyz
  1  'x, y, z'
loop_
 _atom_site_type_symbol
 _atom_site_label
 _atom_site_symmetry_multiplicity
 _atom_site_fract_x
 _atom_site_fract_y
 _atom_site_fract_z
 _atom_site_occupancy
  Lu  Lu0  1  0.000000  0.500000  0.524681  1
  Lu  Lu1  1  0.500000  0.000000  0.474993  1
  Lu  Lu2  1  0.500000  0.821089  0.205413  1
  Lu  Lu3  1  0.500000  0.178911  0.205413  1
  Lu  Lu4  1  0.000000  0.680252  0.796483  1
  Lu  Lu5  1  0.000000  0.319748  0.796483  1
  V  V6  1  0.500000  0.500000  0.151254  1
  Fe  Fe7  1  0.000000  0.000000  0.841486  1
  Fe  Fe8  1  0.500000  0.000000  0.010703  1
  Fe  Fe9  1  0.500000  0.330167  0.994056  1
  Fe  Fe10  1  0.500000  0.669833  0.994056  1
  Fe  Fe11  1  0.500000  0.295340  0.431799  1
  Fe  Fe12  1  0.500000  0.704660  0.431799  1
  Co  Co13  1  0.500000  0.500000  0.701063  1
  Co  Co14  1  0.000000  0.000000  0.299270  1
  Co  Co15  1  0.000000  0.500000  0.985477  1
  Co  Co16  1  0.000000  0.165956  0.005561  1
  Co  Co17  1  0.000000  0.834044  0.005561  1
  Co  Co18  1  0.000000  0.201378  0.572052  1
  Co  Co19  1  0.000000  0.798622  0.572052  1
  Co  Co20  1  0.500000  0.880086  0.708545  1
  Co  Co21  1  0.500000  0.119914  0.708545  1
  Co  Co22  1  0.000000  0.621922  0.291266  1
  Co  Co23  1  0.000000  0.378078  0.291266  1
  P  P24  1  0.500000  0.500000  0.883717  1
  P  P25  1  0.000000  0.000000  0.116573  1
  P  P26  1  0.500000  0.500000  0.349368  1
  P  P27  1  0.000000  0.000000  0.654574  1
  P  P28  1  0.500000  0.311225  0.616863  1
  P  P29  1  0.500000  0.688775  0.616863  1
  P  P30  1  0.000000  0.190388  0.384610  1
  P  P31  1  0.000000  0.809612  0.384610  1
  P  P32  1  0.500000  0.847004  0.891227  1
  P  P33  1  0.500000  0.152996  0.891227  1
  P  P34  1  0.000000  0.656332  0.105545  1
  P  P35  1  0.000000  0.343668  0.105545  1
