# generated using pymatgen
data_Y2Ho14Cd4OsPt3
_symmetry_space_group_name_H-M   'P 1'
_cell_length_a   9.66962997
_cell_length_b   9.66963051
_cell_length_c   9.67007616
_cell_angle_alpha   59.56756235
_cell_angle_beta   59.56756452
_cell_angle_gamma   59.55010371
_symmetry_Int_Tables_number   1
_chemical_formula_structural   Y2Ho14Cd4OsPt3
_chemical_formula_sum   'Y2 Ho14 Cd4 Os1 Pt3'
_cell_volume   632.97398404
_cell_formula_units_Z   1
loop_
 _symmetry_equiv_pos_site_id
 _symmetry_equiv_pos_as_xyz
  1  'x, y, z'
loop_
 _atom_site_type_symbol
 _atom_site_label
 _atom_site_symmetry_multiplicity
 _atom_site_fract_x
 _atom_site_fract_y
 _atom_site_fract_z
 _atom_site_occupancy
  Y  Y0  1  0.565492  0.565492  0.935343  1
  Y  Y1  1  0.937326  0.937326  0.559123  1
  Ho  Ho2  1  0.351528  0.351528  0.351977  1
  Ho  Ho3  1  0.349844  0.349844  0.947553  1
  Ho  Ho4  1  0.350170  0.947533  0.349851  1
  Ho  Ho5  1  0.947533  0.350170  0.349851  1
  Ho  Ho6  1  0.814534  0.188945  0.188962  1
  Ho  Ho7  1  0.188936  0.809947  0.809918  1
  Ho  Ho8  1  0.188945  0.814534  0.188962  1
  Ho  Ho9  1  0.809947  0.188936  0.809918  1
  Ho  Ho10  1  0.188987  0.188987  0.814480  1
  Ho  Ho11  1  0.809932  0.809932  0.188965  1
  Ho  Ho12  1  0.935881  0.565052  0.565032  1
  Ho  Ho13  1  0.558532  0.937866  0.937792  1
  Ho  Ho14  1  0.565052  0.935881  0.565032  1
  Ho  Ho15  1  0.937866  0.558532  0.937792  1
  Cd  Cd16  1  0.580605  0.580605  0.580521  1
  Cd  Cd17  1  0.581198  0.581198  0.254472  1
  Cd  Cd18  1  0.581073  0.254441  0.581241  1
  Cd  Cd19  1  0.254441  0.581073  0.581241  1
  Os  Os20  1  0.143260  0.143260  0.142969  1
  Pt  Pt21  1  0.143452  0.143452  0.572160  1
  Pt  Pt22  1  0.143285  0.572184  0.143425  1
  Pt  Pt23  1  0.572184  0.143285  0.143425  1
