# generated using pymatgen
data_Dy3YAl18(PtRh)3
_symmetry_space_group_name_H-M   'P 1'
_cell_length_a   7.59930903
_cell_length_b   7.59940180
_cell_length_c   9.43815001
_cell_angle_alpha   89.99358411
_cell_angle_beta   89.99403766
_cell_angle_gamma   119.62522697
_symmetry_Int_Tables_number   1
_chemical_formula_structural   Dy3YAl18(PtRh)3
_chemical_formula_sum   'Dy3 Y1 Al18 Pt3 Rh3'
_cell_volume   473.80402991
_cell_formula_units_Z   1
loop_
 _symmetry_equiv_pos_site_id
 _symmetry_equiv_pos_as_xyz
  1  'x, y, z'
loop_
 _atom_site_type_symbol
 _atom_site_label
 _atom_site_symmetry_multiplicity
 _atom_site_fract_x
 _atom_site_fract_y
 _atom_site_fract_z
 _atom_site_occupancy
  Dy  Dy0  1  0.005578  0.331869  0.249965  1
  Dy  Dy1  1  0.668128  0.994430  0.750037  1
  Dy  Dy2  1  0.330542  0.004105  0.249779  1
  Y  Y3  1  0.995871  0.669471  0.750227  1
  Al  Al4  1  0.124402  0.125260  0.750646  1
  Al  Al5  1  0.874825  0.875598  0.249354  1
  Al  Al6  1  0.999889  0.330646  0.576158  1
  Al  Al7  1  0.999278  0.669559  0.423390  1
  Al  Al8  1  0.996409  0.665269  0.075004  1
  Al  Al9  1  0.334789  0.003656  0.925131  1
  Al  Al10  1  0.996292  0.330757  0.925130  1
  Al  Al11  1  0.669178  0.003706  0.074938  1
  Al  Al12  1  0.669285  0.000108  0.423767  1
  Al  Al13  1  0.330505  0.000790  0.576467  1
  Al  Al14  1  0.332433  0.329038  0.053773  1
  Al  Al15  1  0.670902  0.667561  0.946287  1
  Al  Al16  1  0.670033  0.670080  0.556039  1
  Al  Al17  1  0.329918  0.329908  0.443893  1
  Al  Al18  1  0.339467  0.544109  0.750505  1
  Al  Al19  1  0.660069  0.452222  0.246610  1
  Al  Al20  1  0.547687  0.339825  0.753391  1
  Al  Al21  1  0.455884  0.660609  0.249497  1
  Pt  Pt22  1  0.671981  0.327975  0.499994  1
  Pt  Pt23  1  0.327411  0.672612  0.499983  1
  Pt  Pt24  1  0.327463  0.672573  0.000019  1
  Rh  Rh25  1  0.671928  0.328007  0.000015  1
  Rh  Rh26  1  0.999750  0.000304  0.499975  1
  Rh  Rh27  1  0.000104  0.999953  0.000024  1
