# generated using pymatgen
data_Rb8Pa(MoBr8)3
_symmetry_space_group_name_H-M   'P 1'
_cell_length_a   13.54090224
_cell_length_b   13.54090229
_cell_length_c   13.54090239
_cell_angle_alpha   132.98497462
_cell_angle_beta   132.98497319
_cell_angle_gamma   68.67774930
_symmetry_Int_Tables_number   1
_chemical_formula_structural   Rb8Pa(MoBr8)3
_chemical_formula_sum   'Rb8 Pa1 Mo3 Br24'
_cell_volume   1304.65185987
_cell_formula_units_Z   1
loop_
 _symmetry_equiv_pos_site_id
 _symmetry_equiv_pos_as_xyz
  1  'x, y, z'
loop_
 _atom_site_type_symbol
 _atom_site_label
 _atom_site_symmetry_multiplicity
 _atom_site_fract_x
 _atom_site_fract_y
 _atom_site_fract_z
 _atom_site_occupancy
  Rb  Rb0  1  0.378526  0.348745  0.489007  1
  Rb  Rb1  1  0.110482  0.621474  0.970218  1
  Rb  Rb2  1  0.859737  0.889518  0.510993  1
  Rb  Rb3  1  0.116970  0.148006  0.498910  1
  Rb  Rb4  1  0.381941  0.883030  0.031035  1
  Rb  Rb5  1  0.649095  0.618059  0.501090  1
  Rb  Rb6  1  0.651255  0.140263  0.029782  1
  Rb  Rb7  1  0.851994  0.350905  0.968965  1
  Pa  Pa8  1  0.250000  0.750000  0.500000  1
  Mo  Mo9  1  0.500000  0.500000  0.000000  1
  Mo  Mo10  1  0.750000  0.250000  0.500000  1
  Mo  Mo11  1  0.000000  0.000000  0.000000  1
  Br  Br12  1  0.999442  0.776511  0.276287  1
  Br  Br13  1  0.014159  0.241131  0.250782  1
  Br  Br14  1  0.276844  0.000558  0.777069  1
  Br  Br15  1  0.988306  0.230595  0.717587  1
  Br  Br16  1  0.128198  0.628198  0.500000  1
  Br  Br17  1  0.263092  0.521602  0.782251  1
  Br  Br18  1  0.500224  0.723156  0.723713  1
  Br  Br19  1  0.513009  0.270719  0.282413  1
  Br  Br20  1  0.478398  0.260649  0.741491  1
  Br  Br21  1  0.615512  0.615512  0.000000  1
  Br  Br22  1  0.519159  0.736908  0.258509  1
  Br  Br23  1  0.116075  0.116075  0.000000  1
  Br  Br24  1  0.883925  0.883925  0.000000  1
  Br  Br25  1  0.990349  0.763377  0.749218  1
  Br  Br26  1  0.758869  0.009651  0.773028  1
  Br  Br27  1  0.236623  0.985841  0.226972  1
  Br  Br28  1  0.739351  0.480841  0.217749  1
  Br  Br29  1  0.223489  0.499776  0.222931  1
  Br  Br30  1  0.371802  0.871802  0.500000  1
  Br  Br31  1  0.866378  0.366378  0.500000  1
  Br  Br32  1  0.384488  0.384488  0.000000  1
  Br  Br33  1  0.633622  0.133622  0.500000  1
  Br  Br34  1  0.769405  0.486991  0.757711  1
  Br  Br35  1  0.729281  0.011694  0.242289  1
