# generated using pymatgen
data_Th4U4Tc(B8Mo)3
_symmetry_space_group_name_H-M   'P 1'
_cell_length_a   3.78239000
_cell_length_b   9.40317111
_cell_length_c   11.53549941
_cell_angle_alpha   90.00671271
_cell_angle_beta   90.00000000
_cell_angle_gamma   90.00000000
_symmetry_Int_Tables_number   1
_chemical_formula_structural   Th4U4Tc(B8Mo)3
_chemical_formula_sum   'Th4 U4 Tc1 B24 Mo3'
_cell_volume   410.27687970
_cell_formula_units_Z   1
loop_
 _symmetry_equiv_pos_site_id
 _symmetry_equiv_pos_as_xyz
  1  'x, y, z'
loop_
 _atom_site_type_symbol
 _atom_site_label
 _atom_site_symmetry_multiplicity
 _atom_site_fract_x
 _atom_site_fract_y
 _atom_site_fract_z
 _atom_site_occupancy
  Th  Th0  1  0.000000  0.335414  0.408253  1
  Th  Th1  1  0.000000  0.664674  0.592475  1
  Th  Th2  1  0.000000  0.835728  0.091643  1
  Th  Th3  1  0.000000  0.164587  0.907630  1
  U  U4  1  0.000000  0.958148  0.395910  1
  U  U5  1  0.000000  0.042387  0.604003  1
  U  U6  1  0.000000  0.456152  0.103631  1
  U  U7  1  0.000000  0.542816  0.896327  1
  Tc  Tc8  1  0.000000  0.647762  0.317524  1
  B  B9  1  0.500000  0.556301  0.427233  1
  B  B10  1  0.500000  0.444588  0.571622  1
  B  B11  1  0.500000  0.055586  0.071713  1
  B  B12  1  0.500000  0.944293  0.928371  1
  B  B13  1  0.500000  0.746022  0.420640  1
  B  B14  1  0.500000  0.253473  0.578447  1
  B  B15  1  0.500000  0.246785  0.078771  1
  B  B16  1  0.500000  0.753365  0.921593  1
  B  B17  1  0.500000  0.802243  0.274747  1
  B  B18  1  0.500000  0.196892  0.724868  1
  B  B19  1  0.500000  0.303431  0.225369  1
  B  B20  1  0.500000  0.696661  0.775045  1
  B  B21  1  0.500000  0.643724  0.188186  1
  B  B22  1  0.500000  0.356674  0.812337  1
  B  B23  1  0.500000  0.143401  0.312822  1
  B  B24  1  0.500000  0.856175  0.687375  1
  B  B25  1  0.500000  0.991052  0.221268  1
  B  B26  1  0.500000  0.008312  0.778398  1
  B  B27  1  0.500000  0.492447  0.279366  1
  B  B28  1  0.500000  0.508765  0.721276  1
  B  B29  1  0.500000  0.634924  0.037674  1
  B  B30  1  0.500000  0.365473  0.963171  1
  B  B31  1  0.500000  0.134865  0.463158  1
  B  B32  1  0.500000  0.864273  0.536468  1
  Mo  Mo33  1  0.000000  0.352506  0.682142  1
  Mo  Mo34  1  0.000000  0.148162  0.182938  1
  Mo  Mo35  1  0.000000  0.851938  0.817608  1
