# generated using pymatgen
data_Ho3Er5Cd2RuPt
_symmetry_space_group_name_H-M   'P 1'
_cell_length_a   9.58515851
_cell_length_b   9.58515969
_cell_length_c   9.60676200
_cell_angle_alpha   59.92541933
_cell_angle_beta   59.92541526
_cell_angle_gamma   59.78789909
_symmetry_Int_Tables_number   1
_chemical_formula_structural   Ho3Er5Cd2RuPt
_chemical_formula_sum   'Ho6 Er10 Cd4 Ru2 Pt2'
_cell_volume   622.40167446
_cell_formula_units_Z   2
loop_
 _symmetry_equiv_pos_site_id
 _symmetry_equiv_pos_as_xyz
  1  'x, y, z'
loop_
 _atom_site_type_symbol
 _atom_site_label
 _atom_site_symmetry_multiplicity
 _atom_site_fract_x
 _atom_site_fract_y
 _atom_site_fract_z
 _atom_site_occupancy
  Ho  Ho0  1  0.186774  0.809854  0.816598  1
  Ho  Ho1  1  0.809854  0.186774  0.186775  1
  Ho  Ho2  1  0.809854  0.186774  0.816598  1
  Ho  Ho3  1  0.186774  0.809854  0.186775  1
  Ho  Ho4  1  0.814113  0.814113  0.185887  1
  Ho  Ho5  1  0.188062  0.188062  0.811938  1
  Er  Er6  1  0.598930  0.598930  0.603234  1
  Er  Er7  1  0.598930  0.598930  0.198907  1
  Er  Er8  1  0.596996  0.203460  0.599772  1
  Er  Er9  1  0.203460  0.596996  0.599772  1
  Er  Er10  1  0.065786  0.438333  0.438863  1
  Er  Er11  1  0.438333  0.065786  0.057018  1
  Er  Er12  1  0.438333  0.065786  0.438863  1
  Er  Er13  1  0.065786  0.438333  0.057018  1
  Er  Er14  1  0.437450  0.437450  0.062550  1
  Er  Er15  1  0.059320  0.059320  0.440680  1
  Cd  Cd16  1  0.830241  0.830241  0.831574  1
  Cd  Cd17  1  0.830241  0.830241  0.507945  1
  Cd  Cd18  1  0.831258  0.505170  0.831786  1
  Cd  Cd19  1  0.505170  0.831258  0.831786  1
  Ru  Ru20  1  0.393474  0.393474  0.389701  1
  Ru  Ru21  1  0.393474  0.393474  0.823352  1
  Pt  Pt22  1  0.394012  0.823379  0.391304  1
  Pt  Pt23  1  0.823379  0.394012  0.391304  1
