# generated using pymatgen
data_Pr2Nd2ScSn3
_symmetry_space_group_name_H-M   'P 1'
_cell_length_a   9.16243592
_cell_length_b   9.16243522
_cell_length_c   9.16243400
_cell_angle_alpha   96.38645942
_cell_angle_beta   96.38645894
_cell_angle_gamma   141.03515027
_symmetry_Int_Tables_number   1
_chemical_formula_structural   Pr2Nd2ScSn3
_chemical_formula_sum   'Pr4 Nd4 Sc2 Sn6'
_cell_volume   456.00436494
_cell_formula_units_Z   2
loop_
 _symmetry_equiv_pos_site_id
 _symmetry_equiv_pos_as_xyz
  1  'x, y, z'
loop_
 _atom_site_type_symbol
 _atom_site_label
 _atom_site_symmetry_multiplicity
 _atom_site_fract_x
 _atom_site_fract_y
 _atom_site_fract_z
 _atom_site_occupancy
  Pr  Pr0  1  0.912830  0.221664  0.134490  1
  Pr  Pr1  1  0.221663  0.087172  0.308840  1
  Pr  Pr2  1  0.778337  0.912828  0.691160  1
  Pr  Pr3  1  0.087170  0.778336  0.865510  1
  Nd  Nd4  1  0.722965  0.412962  0.135932  1
  Nd  Nd5  1  0.277035  0.587038  0.864068  1
  Nd  Nd6  1  0.587047  0.722972  0.310023  1
  Nd  Nd7  1  0.412953  0.277028  0.689977  1
  Sc  Sc8  1  0.750144  0.250146  0.500016  1
  Sc  Sc9  1  0.249856  0.749854  0.499984  1
  Sn  Sn10  1  0.748363  0.748364  0.000000  1
  Sn  Sn11  1  0.251637  0.251636  0.000000  1
  Sn  Sn12  1  0.848682  0.651050  0.499733  1
  Sn  Sn13  1  0.651038  0.151317  0.802351  1
  Sn  Sn14  1  0.348962  0.848683  0.197649  1
  Sn  Sn15  1  0.151318  0.348950  0.500267  1
