# generated using pymatgen
data_Gd5Ho5InSb5
_symmetry_space_group_name_H-M   'P 1'
_cell_length_a   8.97766300
_cell_length_b   8.96675458
_cell_length_c   6.38605000
_cell_angle_alpha   90.00000000
_cell_angle_beta   90.00000000
_cell_angle_gamma   120.04024731
_symmetry_Int_Tables_number   1
_chemical_formula_structural   Gd5Ho5InSb5
_chemical_formula_sum   'Gd5 Ho5 In1 Sb5'
_cell_volume   445.02586576
_cell_formula_units_Z   1
loop_
 _symmetry_equiv_pos_site_id
 _symmetry_equiv_pos_as_xyz
  1  'x, y, z'
loop_
 _atom_site_type_symbol
 _atom_site_label
 _atom_site_symmetry_multiplicity
 _atom_site_fract_x
 _atom_site_fract_y
 _atom_site_fract_z
 _atom_site_occupancy
  Gd  Gd0  1  0.758909  0.000000  0.750000  1
  Gd  Gd1  1  0.754376  0.758031  0.250000  1
  Gd  Gd2  1  0.996345  0.241969  0.250000  1
  Gd  Gd3  1  0.003159  0.761563  0.750000  1
  Gd  Gd4  1  0.241595  0.238437  0.750000  1
  Ho  Ho5  1  0.334541  0.668183  0.999675  1
  Ho  Ho6  1  0.666358  0.331817  0.500325  1
  Ho  Ho7  1  0.666358  0.331817  0.999675  1
  Ho  Ho8  1  0.334541  0.668183  0.500325  1
  Ho  Ho9  1  0.239857  0.000000  0.250000  1
  In  In10  1  0.402058  0.000000  0.750000  1
  Sb  Sb11  1  0.391806  0.391036  0.250000  1
  Sb  Sb12  1  0.000771  0.608964  0.250000  1
  Sb  Sb13  1  0.999337  0.392028  0.750000  1
  Sb  Sb14  1  0.607309  0.607972  0.750000  1
  Sb  Sb15  1  0.602681  0.000000  0.250000  1
