# generated using pymatgen
data_Ca20Cd3Cu8Hg
_symmetry_space_group_name_H-M   'P 1'
_cell_length_a   7.94968500
_cell_length_b   7.94968500
_cell_length_c   14.65195900
_cell_angle_alpha   90.00000000
_cell_angle_beta   90.00000000
_cell_angle_gamma   90.00000000
_symmetry_Int_Tables_number   1
_chemical_formula_structural   Ca20Cd3Cu8Hg
_chemical_formula_sum   'Ca20 Cd3 Cu8 Hg1'
_cell_volume   925.96705581
_cell_formula_units_Z   1
loop_
 _symmetry_equiv_pos_site_id
 _symmetry_equiv_pos_as_xyz
  1  'x, y, z'
loop_
 _atom_site_type_symbol
 _atom_site_label
 _atom_site_symmetry_multiplicity
 _atom_site_fract_x
 _atom_site_fract_y
 _atom_site_fract_z
 _atom_site_occupancy
  Ca  Ca0  1  0.672251  0.165751  0.109476  1
  Ca  Ca1  1  0.169873  0.668755  0.611824  1
  Ca  Ca2  1  0.327749  0.834249  0.109476  1
  Ca  Ca3  1  0.830127  0.331245  0.611824  1
  Ca  Ca4  1  0.834249  0.672251  0.109476  1
  Ca  Ca5  1  0.331245  0.169873  0.611824  1
  Ca  Ca6  1  0.165751  0.327749  0.109476  1
  Ca  Ca7  1  0.668755  0.830127  0.611824  1
  Ca  Ca8  1  0.834249  0.327749  0.890524  1
  Ca  Ca9  1  0.331245  0.830127  0.388176  1
  Ca  Ca10  1  0.165751  0.672251  0.890524  1
  Ca  Ca11  1  0.668755  0.169873  0.388176  1
  Ca  Ca12  1  0.672251  0.834249  0.890524  1
  Ca  Ca13  1  0.169873  0.331245  0.388176  1
  Ca  Ca14  1  0.327749  0.165751  0.890524  1
  Ca  Ca15  1  0.830127  0.668755  0.388176  1
  Ca  Ca16  1  0.500000  0.500000  0.754622  1
  Ca  Ca17  1  0.000000  0.000000  0.250713  1
  Ca  Ca18  1  0.000000  0.000000  0.749287  1
  Ca  Ca19  1  0.500000  0.500000  0.245378  1
  Cd  Cd20  1  0.500000  0.500000  0.500000  1
  Cd  Cd21  1  0.500000  0.500000  0.000000  1
  Cd  Cd22  1  0.000000  0.000000  0.500000  1
  Cu  Cu23  1  0.612913  0.113841  0.751649  1
  Cu  Cu24  1  0.113841  0.612913  0.248351  1
  Cu  Cu25  1  0.886159  0.387087  0.248351  1
  Cu  Cu26  1  0.387087  0.886159  0.751649  1
  Cu  Cu27  1  0.886159  0.612913  0.751649  1
  Cu  Cu28  1  0.387087  0.113841  0.248351  1
  Cu  Cu29  1  0.113841  0.387087  0.751649  1
  Cu  Cu30  1  0.612913  0.886159  0.248351  1
  Hg  Hg31  1  0.000000  0.000000  0.000000  1
