# generated using pymatgen
data_Er3ZrZn2Ir3
_symmetry_space_group_name_H-M   'P 1'
_cell_length_a   7.14863531
_cell_length_b   7.14863529
_cell_length_c   4.10290100
_cell_angle_alpha   90.00000000
_cell_angle_beta   90.00000000
_cell_angle_gamma   120.68747047
_symmetry_Int_Tables_number   1
_chemical_formula_structural   Er3ZrZn2Ir3
_chemical_formula_sum   'Er3 Zr1 Zn2 Ir3'
_cell_volume   180.30905595
_cell_formula_units_Z   1
loop_
 _symmetry_equiv_pos_site_id
 _symmetry_equiv_pos_as_xyz
  1  'x, y, z'
loop_
 _atom_site_type_symbol
 _atom_site_label
 _atom_site_symmetry_multiplicity
 _atom_site_fract_x
 _atom_site_fract_y
 _atom_site_fract_z
 _atom_site_occupancy
  Er  Er0  1  0.386686  0.386686  0.500000  1
  Er  Er1  1  0.583463  0.014679  0.500000  1
  Er  Er2  1  0.014679  0.583463  0.500000  1
  Zr  Zr3  1  0.759642  0.759642  0.000000  1
  Zn  Zn4  1  0.250555  0.998733  0.000000  1
  Zn  Zn5  1  0.998733  0.250555  0.000000  1
  Ir  Ir6  1  0.671977  0.343559  0.000000  1
  Ir  Ir7  1  0.343559  0.671977  0.000000  1
  Ir  Ir8  1  0.990704  0.990704  0.500000  1
