# generated using pymatgen
data_Sm3Zn2Ir7
_symmetry_space_group_name_H-M   'P 1'
_cell_length_a   5.50957322
_cell_length_b   5.50957252
_cell_length_c   8.97565500
_cell_angle_alpha   72.12643989
_cell_angle_beta   72.12644224
_cell_angle_gamma   59.99999997
_symmetry_Int_Tables_number   1
_chemical_formula_structural   Sm3Zn2Ir7
_chemical_formula_sum   'Sm3 Zn2 Ir7'
_cell_volume   220.64204716
_cell_formula_units_Z   1
loop_
 _symmetry_equiv_pos_site_id
 _symmetry_equiv_pos_as_xyz
  1  'x, y, z'
loop_
 _atom_site_type_symbol
 _atom_site_label
 _atom_site_symmetry_multiplicity
 _atom_site_fract_x
 _atom_site_fract_y
 _atom_site_fract_z
 _atom_site_occupancy
  Sm  Sm0  1  0.859456  0.859456  0.421633  1
  Sm  Sm1  1  0.140544  0.140544  0.578367  1
  Sm  Sm2  1  0.000000  0.000000  0.000000  1
  Zn  Zn3  1  0.664800  0.664800  0.005598  1
  Zn  Zn4  1  0.335200  0.335200  0.994402  1
  Ir  Ir5  1  0.413547  0.413547  0.249318  1
  Ir  Ir6  1  0.923588  0.413547  0.249318  1
  Ir  Ir7  1  0.413547  0.923588  0.249318  1
  Ir  Ir8  1  0.586453  0.586453  0.750682  1
  Ir  Ir9  1  0.076412  0.586453  0.750682  1
  Ir  Ir10  1  0.586453  0.076412  0.750682  1
  Ir  Ir11  1  0.500000  0.500000  0.500000  1
