# generated using pymatgen
data_Pa3(Fe3Ge)2
_symmetry_space_group_name_H-M   'P 1'
_cell_length_a   7.60923963
_cell_length_b   7.60923899
_cell_length_c   7.60923800
_cell_angle_alpha   109.47122066
_cell_angle_beta   109.47121895
_cell_angle_gamma   109.47121650
_symmetry_Int_Tables_number   1
_chemical_formula_structural   Pa3(Fe3Ge)2
_chemical_formula_sum   'Pa6 Fe12 Ge4'
_cell_volume   339.15778817
_cell_formula_units_Z   2
loop_
 _symmetry_equiv_pos_site_id
 _symmetry_equiv_pos_as_xyz
  1  'x, y, z'
loop_
 _atom_site_type_symbol
 _atom_site_label
 _atom_site_symmetry_multiplicity
 _atom_site_fract_x
 _atom_site_fract_y
 _atom_site_fract_z
 _atom_site_occupancy
  Pa  Pa0  1  0.710749  0.710749  0.000000  1
  Pa  Pa1  1  0.289251  0.000000  0.289251  1
  Pa  Pa2  1  0.000000  0.289251  0.289251  1
  Pa  Pa3  1  0.289251  0.289251  0.000000  1
  Pa  Pa4  1  0.710749  0.000000  0.710749  1
  Pa  Pa5  1  0.000000  0.710749  0.710749  1
  Fe  Fe6  1  0.350984  0.350984  0.701969  1
  Fe  Fe7  1  0.649016  0.000000  0.350984  1
  Fe  Fe8  1  0.000000  0.649016  0.350984  1
  Fe  Fe9  1  0.649016  0.350984  0.000000  1
  Fe  Fe10  1  0.350984  0.701969  0.350984  1
  Fe  Fe11  1  0.000000  0.350984  0.649016  1
  Fe  Fe12  1  0.350984  0.649016  0.000000  1
  Fe  Fe13  1  0.350984  0.000000  0.649016  1
  Fe  Fe14  1  0.701969  0.350984  0.350984  1
  Fe  Fe15  1  0.649016  0.649016  0.298031  1
  Fe  Fe16  1  0.649016  0.298031  0.649016  1
  Fe  Fe17  1  0.298031  0.649016  0.649016  1
  Ge  Ge18  1  0.000000  0.000000  0.500000  1
  Ge  Ge19  1  0.000000  0.500000  0.000000  1
  Ge  Ge20  1  0.500000  0.000000  0.000000  1
  Ge  Ge21  1  0.500000  0.500000  0.500000  1
