# generated using pymatgen
data_Tb15ErMgAg3Rh4
_symmetry_space_group_name_H-M   'P 1'
_cell_length_a   9.58049295
_cell_length_b   9.60761143
_cell_length_c   9.60761066
_cell_angle_alpha   60.22395443
_cell_angle_beta   60.16843024
_cell_angle_gamma   60.16843224
_symmetry_Int_Tables_number   1
_chemical_formula_structural   Tb15ErMgAg3Rh4
_chemical_formula_sum   'Tb15 Er1 Mg1 Ag3 Rh4'
_cell_volume   627.96877995
_cell_formula_units_Z   1
loop_
 _symmetry_equiv_pos_site_id
 _symmetry_equiv_pos_as_xyz
  1  'x, y, z'
loop_
 _atom_site_type_symbol
 _atom_site_label
 _atom_site_symmetry_multiplicity
 _atom_site_fract_x
 _atom_site_fract_y
 _atom_site_fract_z
 _atom_site_occupancy
  Tb  Tb0  1  0.349392  0.348862  0.953151  1
  Tb  Tb1  1  0.349392  0.953151  0.348862  1
  Tb  Tb2  1  0.937834  0.354031  0.354031  1
  Tb  Tb3  1  0.809512  0.188991  0.188991  1
  Tb  Tb4  1  0.185327  0.813317  0.813317  1
  Tb  Tb5  1  0.186541  0.812337  0.187154  1
  Tb  Tb6  1  0.809850  0.188739  0.810763  1
  Tb  Tb7  1  0.186541  0.187154  0.812337  1
  Tb  Tb8  1  0.809850  0.810763  0.188739  1
  Tb  Tb9  1  0.934698  0.563518  0.563518  1
  Tb  Tb10  1  0.565369  0.934993  0.934993  1
  Tb  Tb11  1  0.563278  0.936585  0.564160  1
  Tb  Tb12  1  0.934316  0.564243  0.935791  1
  Tb  Tb13  1  0.563278  0.564160  0.936585  1
  Tb  Tb14  1  0.934316  0.935791  0.564243  1
  Er  Er15  1  0.350788  0.348668  0.348668  1
  Mg  Mg16  1  0.288249  0.570334  0.570334  1
  Ag  Ag17  1  0.582267  0.584971  0.584971  1
  Ag  Ag18  1  0.582052  0.585258  0.248793  1
  Ag  Ag19  1  0.582052  0.248793  0.585258  1
  Rh  Rh20  1  0.139388  0.143970  0.143970  1
  Rh  Rh21  1  0.141961  0.146972  0.570366  1
  Rh  Rh22  1  0.141961  0.570366  0.146972  1
  Rh  Rh23  1  0.571787  0.144034  0.144034  1
