# generated using pymatgen
data_Sc6CoNi
_symmetry_space_group_name_H-M   'P 1'
_cell_length_a   5.87558700
_cell_length_b   6.36908100
_cell_length_c   8.77711300
_cell_angle_alpha   90.00000000
_cell_angle_beta   90.00000000
_cell_angle_gamma   90.00000000
_symmetry_Int_Tables_number   1
_chemical_formula_structural   Sc6CoNi
_chemical_formula_sum   'Sc12 Co2 Ni2'
_cell_volume   328.45790846
_cell_formula_units_Z   2
loop_
 _symmetry_equiv_pos_site_id
 _symmetry_equiv_pos_as_xyz
  1  'x, y, z'
loop_
 _atom_site_type_symbol
 _atom_site_label
 _atom_site_symmetry_multiplicity
 _atom_site_fract_x
 _atom_site_fract_y
 _atom_site_fract_z
 _atom_site_occupancy
  Sc  Sc0  1  0.318337  0.679324  0.065243  1
  Sc  Sc1  1  0.181663  0.179324  0.434757  1
  Sc  Sc2  1  0.679210  0.318350  0.559463  1
  Sc  Sc3  1  0.820790  0.818350  0.940537  1
  Sc  Sc4  1  0.679210  0.318350  0.940537  1
  Sc  Sc5  1  0.820790  0.818350  0.559463  1
  Sc  Sc6  1  0.318337  0.679324  0.434757  1
  Sc  Sc7  1  0.181663  0.179324  0.065243  1
  Sc  Sc8  1  0.875967  0.538592  0.250000  1
  Sc  Sc9  1  0.624033  0.038592  0.250000  1
  Sc  Sc10  1  0.126068  0.468399  0.750000  1
  Sc  Sc11  1  0.373932  0.968399  0.750000  1
  Co  Co12  1  0.037160  0.895043  0.250000  1
  Co  Co13  1  0.462840  0.395043  0.250000  1
  Ni  Ni14  1  0.952000  0.102617  0.750000  1
  Ni  Ni15  1  0.548000  0.602617  0.750000  1
