# generated using pymatgen
data_RbReSb12RuPt2
_symmetry_space_group_name_H-M   'P 1'
_cell_length_a   8.26047779
_cell_length_b   8.24706286
_cell_length_c   8.25799400
_cell_angle_alpha   109.47878160
_cell_angle_beta   109.47883815
_cell_angle_gamma   109.42888428
_symmetry_Int_Tables_number   1
_chemical_formula_structural   RbReSb12RuPt2
_chemical_formula_sum   'Rb1 Re1 Sb12 Ru1 Pt2'
_cell_volume   433.21405398
_cell_formula_units_Z   1
loop_
 _symmetry_equiv_pos_site_id
 _symmetry_equiv_pos_as_xyz
  1  'x, y, z'
loop_
 _atom_site_type_symbol
 _atom_site_label
 _atom_site_symmetry_multiplicity
 _atom_site_fract_x
 _atom_site_fract_y
 _atom_site_fract_z
 _atom_site_occupancy
  Rb  Rb0  1  0.000000  0.000000  0.000000  1
  Re  Re1  1  0.000000  0.500000  0.000000  1
  Sb  Sb2  1  0.159936  0.497036  0.337963  1
  Sb  Sb3  1  0.500144  0.650986  0.838101  1
  Sb  Sb4  1  0.339280  0.840209  0.188025  1
  Sb  Sb5  1  0.811972  0.651385  0.150921  1
  Sb  Sb6  1  0.652008  0.839126  0.500122  1
  Sb  Sb7  1  0.188028  0.348615  0.849079  1
  Sb  Sb8  1  0.660720  0.159791  0.811975  1
  Sb  Sb9  1  0.347992  0.160874  0.499878  1
  Sb  Sb10  1  0.499856  0.349014  0.161899  1
  Sb  Sb11  1  0.840064  0.502964  0.662037  1
  Sb  Sb12  1  0.846688  0.194999  0.347834  1
  Sb  Sb13  1  0.153312  0.805001  0.652166  1
  Ru  Ru14  1  0.500000  0.500000  0.500000  1
  Pt  Pt15  1  0.500000  0.000000  0.000000  1
  Pt  Pt16  1  0.000000  0.000000  0.500000  1
