# generated using pymatgen
data_CrRe3As5S4
_symmetry_space_group_name_H-M   'P 1'
_cell_length_a   7.01706748
_cell_length_b   7.01706836
_cell_length_c   7.01706829
_cell_angle_alpha   60.27483084
_cell_angle_beta   60.27482784
_cell_angle_gamma   60.27482795
_symmetry_Int_Tables_number   1
_chemical_formula_structural   CrRe3As5S4
_chemical_formula_sum   'Cr1 Re3 As5 S4'
_cell_volume   245.83577569
_cell_formula_units_Z   1
loop_
 _symmetry_equiv_pos_site_id
 _symmetry_equiv_pos_as_xyz
  1  'x, y, z'
loop_
 _atom_site_type_symbol
 _atom_site_label
 _atom_site_symmetry_multiplicity
 _atom_site_fract_x
 _atom_site_fract_y
 _atom_site_fract_z
 _atom_site_occupancy
  Cr  Cr0  1  0.403542  0.403542  0.403542  1
  Re  Re1  1  0.401444  0.401444  0.796719  1
  Re  Re2  1  0.401444  0.796719  0.401444  1
  Re  Re3  1  0.796719  0.401444  0.401444  1
  As  As4  1  0.998781  0.998781  0.998781  1
  As  As5  1  0.143331  0.143331  0.143331  1
  As  As6  1  0.147617  0.147617  0.567924  1
  As  As7  1  0.147617  0.567924  0.147617  1
  As  As8  1  0.567924  0.147617  0.147617  1
  S  S9  1  0.632040  0.632040  0.632040  1
  S  S10  1  0.623650  0.623650  0.112241  1
  S  S11  1  0.623650  0.112241  0.623650  1
  S  S12  1  0.112241  0.623650  0.623650  1
