# generated using pymatgen
data_Sc5(TlBi)2
_symmetry_space_group_name_H-M   'P 1'
_cell_length_a   8.41473031
_cell_length_b   8.41473012
_cell_length_c   7.83845000
_cell_angle_alpha   90.00000000
_cell_angle_beta   90.00000000
_cell_angle_gamma   124.46202363
_symmetry_Int_Tables_number   1
_chemical_formula_structural   Sc5(TlBi)2
_chemical_formula_sum   'Sc10 Tl4 Bi4'
_cell_volume   457.61684031
_cell_formula_units_Z   2
loop_
 _symmetry_equiv_pos_site_id
 _symmetry_equiv_pos_as_xyz
  1  'x, y, z'
loop_
 _atom_site_type_symbol
 _atom_site_label
 _atom_site_symmetry_multiplicity
 _atom_site_fract_x
 _atom_site_fract_y
 _atom_site_fract_z
 _atom_site_occupancy
  Sc  Sc0  1  0.032369  0.295044  0.336275  1
  Sc  Sc1  1  0.967631  0.704956  0.663725  1
  Sc  Sc2  1  0.467631  0.204956  0.836275  1
  Sc  Sc3  1  0.795044  0.532369  0.163725  1
  Sc  Sc4  1  0.532369  0.795044  0.163725  1
  Sc  Sc5  1  0.204956  0.467631  0.836275  1
  Sc  Sc6  1  0.704956  0.967631  0.663725  1
  Sc  Sc7  1  0.295044  0.032369  0.336275  1
  Sc  Sc8  1  0.000000  0.000000  0.000000  1
  Sc  Sc9  1  0.500000  0.500000  0.500000  1
  Tl  Tl10  1  0.361152  0.361152  0.137539  1
  Tl  Tl11  1  0.638848  0.638848  0.862461  1
  Tl  Tl12  1  0.138848  0.138848  0.637539  1
  Tl  Tl13  1  0.861152  0.861152  0.362461  1
  Bi  Bi14  1  0.794103  0.205897  0.000000  1
  Bi  Bi15  1  0.205898  0.794103  0.000000  1
  Bi  Bi16  1  0.705897  0.294103  0.500000  1
  Bi  Bi17  1  0.294103  0.705897  0.500000  1
