# generated using pymatgen
data_Rb4DyHoF10
_symmetry_space_group_name_H-M   'P 1'
_cell_length_a   6.94710495
_cell_length_b   7.41099300
_cell_length_c   11.47626223
_cell_angle_alpha   90.00000000
_cell_angle_beta   89.81632604
_cell_angle_gamma   90.00000000
_symmetry_Int_Tables_number   1
_chemical_formula_structural   Rb4DyHoF10
_chemical_formula_sum   'Rb8 Dy2 Ho2 F20'
_cell_volume   590.85170688
_cell_formula_units_Z   2
loop_
 _symmetry_equiv_pos_site_id
 _symmetry_equiv_pos_as_xyz
  1  'x, y, z'
loop_
 _atom_site_type_symbol
 _atom_site_label
 _atom_site_symmetry_multiplicity
 _atom_site_fract_x
 _atom_site_fract_y
 _atom_site_fract_z
 _atom_site_occupancy
  Rb  Rb0  1  0.536433  0.997236  0.828719  1
  Rb  Rb1  1  0.463567  0.497236  0.171281  1
  Rb  Rb2  1  0.963507  0.997169  0.329541  1
  Rb  Rb3  1  0.036493  0.497169  0.670459  1
  Rb  Rb4  1  0.536433  0.502764  0.828719  1
  Rb  Rb5  1  0.463567  0.002764  0.171281  1
  Rb  Rb6  1  0.963507  0.502831  0.329541  1
  Rb  Rb7  1  0.036493  0.002831  0.670459  1
  Dy  Dy8  1  0.939499  0.250000  0.001966  1
  Dy  Dy9  1  0.060501  0.750000  0.998034  1
  Ho  Ho10  1  0.559795  0.250000  0.501758  1
  Ho  Ho11  1  0.440205  0.750000  0.498242  1
  F  F12  1  0.881882  0.750000  0.839480  1
  F  F13  1  0.118118  0.250000  0.160520  1
  F  F14  1  0.617527  0.750000  0.340158  1
  F  F15  1  0.382473  0.250000  0.659842  1
  F  F16  1  0.850204  0.250000  0.817662  1
  F  F17  1  0.149796  0.750000  0.182338  1
  F  F18  1  0.649608  0.250000  0.318412  1
  F  F19  1  0.350392  0.750000  0.681588  1
  F  F20  1  0.641979  0.964482  0.568843  1
  F  F21  1  0.358021  0.464482  0.431157  1
  F  F22  1  0.857248  0.964802  0.069970  1
  F  F23  1  0.142752  0.464802  0.930030  1
  F  F24  1  0.376137  0.750000  0.984519  1
  F  F25  1  0.623863  0.250000  0.015481  1
  F  F26  1  0.126565  0.750000  0.484167  1
  F  F27  1  0.873435  0.250000  0.515833  1
  F  F28  1  0.142752  0.035198  0.930030  1
  F  F29  1  0.857248  0.535198  0.069970  1
  F  F30  1  0.358021  0.035518  0.431157  1
  F  F31  1  0.641979  0.535518  0.568843  1
