# generated using pymatgen
data_Nb4Co4Sb5Ir
_symmetry_space_group_name_H-M   'P 1'
_cell_length_a   7.32318127
_cell_length_b   7.32300357
_cell_length_c   7.32353438
_cell_angle_alpha   99.78999965
_cell_angle_beta   99.78962836
_cell_angle_gamma   131.29451163
_symmetry_Int_Tables_number   1
_chemical_formula_structural   Nb4Co4Sb5Ir
_chemical_formula_sum   'Nb4 Co4 Sb5 Ir1'
_cell_volume   268.82474531
_cell_formula_units_Z   1
loop_
 _symmetry_equiv_pos_site_id
 _symmetry_equiv_pos_as_xyz
  1  'x, y, z'
loop_
 _atom_site_type_symbol
 _atom_site_label
 _atom_site_symmetry_multiplicity
 _atom_site_fract_x
 _atom_site_fract_y
 _atom_site_fract_z
 _atom_site_occupancy
  Nb  Nb0  1  0.810856  0.413241  0.204291  1
  Nb  Nb1  1  0.593389  0.789083  0.402373  1
  Nb  Nb2  1  0.186717  0.591034  0.797603  1
  Nb  Nb3  1  0.008965  0.006575  0.995671  1
  Co  Co4  1  0.459917  0.365347  0.280493  1
  Co  Co5  1  0.234615  0.715111  0.494558  1
  Co  Co6  1  0.020544  0.140048  0.705427  1
  Co  Co7  1  0.884856  0.579424  0.919486  1
  Sb  Sb8  1  0.308261  0.924225  0.230799  1
  Sb  Sb9  1  0.122605  0.291799  0.416015  1
  Sb  Sb10  1  0.899993  0.699978  0.599964  1
  Sb  Sb11  1  0.675856  0.106632  0.784052  1
  Sb  Sb12  1  0.493428  0.477498  0.969266  1
  Ir  Ir13  1  0.649998  0.950005  0.100000  1
