# generated using pymatgen
data_La11Nd5Cd4TcNi3
_symmetry_space_group_name_H-M   'P 1'
_cell_length_a   10.05343426
_cell_length_b   10.05179394
_cell_length_c   10.05179352
_cell_angle_alpha   59.33373428
_cell_angle_beta   59.42343046
_cell_angle_gamma   59.42343662
_symmetry_Int_Tables_number   1
_chemical_formula_structural   La11Nd5Cd4TcNi3
_chemical_formula_sum   'La11 Nd5 Cd4 Tc1 Ni3'
_cell_volume   708.35371554
_cell_formula_units_Z   1
loop_
 _symmetry_equiv_pos_site_id
 _symmetry_equiv_pos_as_xyz
  1  'x, y, z'
loop_
 _atom_site_type_symbol
 _atom_site_label
 _atom_site_symmetry_multiplicity
 _atom_site_fract_x
 _atom_site_fract_y
 _atom_site_fract_z
 _atom_site_occupancy
  La  La0  1  0.598535  0.597653  0.597653  1
  La  La1  1  0.597136  0.596151  0.213066  1
  La  La2  1  0.597136  0.213066  0.596151  1
  La  La3  1  0.213794  0.595871  0.595871  1
  La  La4  1  0.061019  0.438378  0.438378  1
  La  La5  1  0.441584  0.054339  0.054339  1
  La  La6  1  0.438968  0.061091  0.438065  1
  La  La7  1  0.053342  0.440613  0.055064  1
  La  La8  1  0.438968  0.438065  0.061091  1
  La  La9  1  0.053342  0.055064  0.440613  1
  La  La10  1  0.184507  0.817417  0.817417  1
  Nd  Nd11  1  0.804327  0.187282  0.187282  1
  Nd  Nd12  1  0.815537  0.186623  0.816989  1
  Nd  Nd13  1  0.188165  0.804508  0.188805  1
  Nd  Nd14  1  0.815537  0.816989  0.186623  1
  Nd  Nd15  1  0.188165  0.188805  0.804508  1
  Cd  Cd16  1  0.828926  0.829937  0.829937  1
  Cd  Cd17  1  0.830604  0.829612  0.508869  1
  Cd  Cd18  1  0.830604  0.508869  0.829612  1
  Cd  Cd19  1  0.510720  0.830073  0.830073  1
  Tc  Tc20  1  0.391266  0.389630  0.389630  1
  Ni  Ni21  1  0.394546  0.394467  0.829548  1
  Ni  Ni22  1  0.394546  0.829548  0.394467  1
  Ni  Ni23  1  0.828727  0.395946  0.395946  1
