# generated using pymatgen
data_LaPr9(Sn3O)2
_symmetry_space_group_name_H-M   'P 1'
_cell_length_a   9.47117705
_cell_length_b   9.47117643
_cell_length_c   9.47117603
_cell_angle_alpha   126.38134810
_cell_angle_beta   126.38134410
_cell_angle_gamma   79.26226772
_symmetry_Int_Tables_number   1
_chemical_formula_structural   LaPr9(Sn3O)2
_chemical_formula_sum   'La1 Pr9 Sn6 O2'
_cell_volume   532.41908386
_cell_formula_units_Z   1
loop_
 _symmetry_equiv_pos_site_id
 _symmetry_equiv_pos_as_xyz
  1  'x, y, z'
loop_
 _atom_site_type_symbol
 _atom_site_label
 _atom_site_symmetry_multiplicity
 _atom_site_fract_x
 _atom_site_fract_y
 _atom_site_fract_z
 _atom_site_occupancy
  La  La0  1  0.004071  0.004071  0.000000  1
  Pr  Pr1  1  0.498591  0.304451  0.501038  1
  Pr  Pr2  1  0.803413  0.997553  0.498962  1
  Pr  Pr3  1  0.997553  0.498591  0.194139  1
  Pr  Pr4  1  0.304451  0.803413  0.805861  1
  Pr  Pr5  1  0.503310  0.697423  0.499094  1
  Pr  Pr6  1  0.198328  0.004216  0.500906  1
  Pr  Pr7  1  0.004216  0.503310  0.805886  1
  Pr  Pr8  1  0.697423  0.198328  0.194114  1
  Pr  Pr9  1  0.503637  0.503637  0.000000  1
  Sn  Sn10  1  0.139975  0.362309  0.501251  1
  Sn  Sn11  1  0.861058  0.638724  0.498749  1
  Sn  Sn12  1  0.638724  0.139975  0.777665  1
  Sn  Sn13  1  0.362309  0.861058  0.222335  1
  Sn  Sn14  1  0.751047  0.751047  0.000000  1
  Sn  Sn15  1  0.253241  0.253241  0.000000  1
  O  O16  1  0.750748  0.250748  0.500000  1
  O  O17  1  0.250748  0.750748  0.500000  1
