# generated using pymatgen
data_YbPa2Ni3Bi4
_symmetry_space_group_name_H-M   'P 1'
_cell_length_a   8.35582361
_cell_length_b   8.35582382
_cell_length_c   8.35582300
_cell_angle_alpha   109.43801142
_cell_angle_beta   109.48783623
_cell_angle_gamma   109.48782794
_symmetry_Int_Tables_number   1
_chemical_formula_structural   YbPa2Ni3Bi4
_chemical_formula_sum   'Yb2 Pa4 Ni6 Bi8'
_cell_volume   449.10275945
_cell_formula_units_Z   2
loop_
 _symmetry_equiv_pos_site_id
 _symmetry_equiv_pos_as_xyz
  1  'x, y, z'
loop_
 _atom_site_type_symbol
 _atom_site_label
 _atom_site_symmetry_multiplicity
 _atom_site_fract_x
 _atom_site_fract_y
 _atom_site_fract_z
 _atom_site_occupancy
  Yb  Yb0  1  0.250000  0.125000  0.875000  1
  Yb  Yb1  1  0.750000  0.375000  0.625000  1
  Pa  Pa2  1  0.129265  0.879265  0.250000  1
  Pa  Pa3  1  0.370735  0.620735  0.750000  1
  Pa  Pa4  1  0.870735  0.250000  0.120735  1
  Pa  Pa5  1  0.629265  0.750000  0.379265  1
  Ni  Ni6  1  0.631059  0.381059  0.250000  1
  Ni  Ni7  1  0.868941  0.118941  0.750000  1
  Ni  Ni8  1  0.368941  0.250000  0.618941  1
  Ni  Ni9  1  0.131059  0.750000  0.881059  1
  Ni  Ni10  1  0.250000  0.625000  0.375000  1
  Ni  Ni11  1  0.750000  0.875000  0.125000  1
  Bi  Bi12  1  0.336991  0.334933  0.333945  1
  Bi  Bi13  1  0.163009  0.496954  0.997942  1
  Bi  Bi14  1  0.999012  0.165067  0.502058  1
  Bi  Bi15  1  0.836991  0.833945  0.834933  1
  Bi  Bi16  1  0.500988  0.003046  0.166055  1
  Bi  Bi17  1  0.663009  0.497942  0.996954  1
  Bi  Bi18  1  0.499012  0.002058  0.665067  1
  Bi  Bi19  1  0.000988  0.666055  0.503046  1
