# generated using pymatgen
data_Sc4Co17SiTc3P11
_symmetry_space_group_name_H-M   'P 1'
_cell_length_a   3.63267400
_cell_length_b   10.20695617
_cell_length_c   11.66666630
_cell_angle_alpha   90.07660933
_cell_angle_beta   90.00000000
_cell_angle_gamma   90.00000000
_symmetry_Int_Tables_number   1
_chemical_formula_structural   Sc4Co17SiTc3P11
_chemical_formula_sum   'Sc4 Co17 Si1 Tc3 P11'
_cell_volume   432.58261649
_cell_formula_units_Z   1
loop_
 _symmetry_equiv_pos_site_id
 _symmetry_equiv_pos_as_xyz
  1  'x, y, z'
loop_
 _atom_site_type_symbol
 _atom_site_label
 _atom_site_symmetry_multiplicity
 _atom_site_fract_x
 _atom_site_fract_y
 _atom_site_fract_z
 _atom_site_occupancy
  Sc  Sc0  1  0.250000  0.581419  0.701205  1
  Sc  Sc1  1  0.250000  0.915804  0.205387  1
  Sc  Sc2  1  0.750000  0.414880  0.298375  1
  Sc  Sc3  1  0.750000  0.083281  0.794849  1
  Co  Co4  1  0.750000  0.217581  0.508734  1
  Co  Co5  1  0.250000  0.406916  0.486318  1
  Co  Co6  1  0.250000  0.091633  0.986184  1
  Co  Co7  1  0.750000  0.591112  0.512964  1
  Co  Co8  1  0.750000  0.908366  0.013667  1
  Co  Co9  1  0.250000  0.212733  0.178767  1
  Co  Co10  1  0.250000  0.278081  0.676375  1
  Co  Co11  1  0.750000  0.779057  0.822150  1
  Co  Co12  1  0.750000  0.721823  0.323413  1
  Co  Co13  1  0.250000  0.887135  0.702410  1
  Co  Co14  1  0.250000  0.616441  0.203089  1
  Co  Co15  1  0.750000  0.114879  0.301492  1
  Co  Co16  1  0.750000  0.386742  0.796271  1
  Co  Co17  1  0.250000  0.466499  0.928526  1
  Co  Co18  1  0.250000  0.036350  0.432219  1
  Co  Co19  1  0.750000  0.537937  0.066303  1
  Co  Co20  1  0.750000  0.966745  0.570302  1
  Si  Si21  1  0.250000  0.417157  0.117647  1
  Tc  Tc22  1  0.250000  0.712990  0.989309  1
  Tc  Tc23  1  0.250000  0.787382  0.490487  1
  Tc  Tc24  1  0.750000  0.288059  0.010634  1
  P  P25  1  0.250000  0.081909  0.614862  1
  P  P26  1  0.750000  0.579814  0.881612  1
  P  P27  1  0.750000  0.921261  0.385166  1
  P  P28  1  0.250000  0.265063  0.863899  1
  P  P29  1  0.250000  0.234498  0.368096  1
  P  P30  1  0.750000  0.735289  0.135899  1
  P  P31  1  0.750000  0.765856  0.634314  1
  P  P32  1  0.250000  0.592867  0.389246  1
  P  P33  1  0.250000  0.907032  0.888619  1
  P  P34  1  0.750000  0.401249  0.608224  1
  P  P35  1  0.750000  0.094162  0.112986  1
