# generated using pymatgen
data_Lu2Zn14Pd3
_symmetry_space_group_name_H-M   'P 1'
_cell_length_a   6.80784370
_cell_length_b   6.80784480
_cell_length_c   6.80784523
_cell_angle_alpha   82.73870642
_cell_angle_beta   82.73870123
_cell_angle_gamma   82.73872432
_symmetry_Int_Tables_number   1
_chemical_formula_structural   Lu2Zn14Pd3
_chemical_formula_sum   'Lu2 Zn14 Pd3'
_cell_volume   308.51993627
_cell_formula_units_Z   1
loop_
 _symmetry_equiv_pos_site_id
 _symmetry_equiv_pos_as_xyz
  1  'x, y, z'
loop_
 _atom_site_type_symbol
 _atom_site_label
 _atom_site_symmetry_multiplicity
 _atom_site_fract_x
 _atom_site_fract_y
 _atom_site_fract_z
 _atom_site_occupancy
  Lu  Lu0  1  0.662516  0.662516  0.662516  1
  Lu  Lu1  1  0.337484  0.337484  0.337484  1
  Zn  Zn2  1  0.352053  0.352053  0.838924  1
  Zn  Zn3  1  0.838924  0.352053  0.352053  1
  Zn  Zn4  1  0.103934  0.103934  0.103934  1
  Zn  Zn5  1  0.896066  0.896066  0.896066  1
  Zn  Zn6  1  0.300076  0.699924  0.000000  1
  Zn  Zn7  1  0.699924  0.000000  0.300076  1
  Zn  Zn8  1  0.000000  0.300076  0.699924  1
  Zn  Zn9  1  0.699924  0.300076  0.000000  1
  Zn  Zn10  1  0.300076  0.000000  0.699924  1
  Zn  Zn11  1  0.000000  0.699924  0.300076  1
  Zn  Zn12  1  0.161076  0.647947  0.647947  1
  Zn  Zn13  1  0.647947  0.647947  0.161076  1
  Zn  Zn14  1  0.647947  0.161076  0.647947  1
  Zn  Zn15  1  0.352053  0.838924  0.352053  1
  Pd  Pd16  1  0.000000  0.000000  0.500000  1
  Pd  Pd17  1  0.000000  0.500000  0.000000  1
  Pd  Pd18  1  0.500000  0.000000  0.000000  1
