# generated using pymatgen
data_TbDy2Co9(SiB2)2
_symmetry_space_group_name_H-M   'P 1'
_cell_length_a   5.12408120
_cell_length_b   5.12506289
_cell_length_c   9.34887700
_cell_angle_alpha   90.00001062
_cell_angle_beta   90.00007827
_cell_angle_gamma   120.00814433
_symmetry_Int_Tables_number   1
_chemical_formula_structural   TbDy2Co9(SiB2)2
_chemical_formula_sum   'Tb1 Dy2 Co9 Si2 B4'
_cell_volume   212.60311930
_cell_formula_units_Z   1
loop_
 _symmetry_equiv_pos_site_id
 _symmetry_equiv_pos_as_xyz
  1  'x, y, z'
loop_
 _atom_site_type_symbol
 _atom_site_label
 _atom_site_symmetry_multiplicity
 _atom_site_fract_x
 _atom_site_fract_y
 _atom_site_fract_z
 _atom_site_occupancy
  Tb  Tb0  1  0.999989  0.999999  0.000010  1
  Dy  Dy1  1  0.999994  0.000001  0.338683  1
  Dy  Dy2  1  0.999999  0.999999  0.661253  1
  Co  Co3  1  0.499996  0.000000  0.500003  1
  Co  Co4  1  0.499996  0.500001  0.500000  1
  Co  Co5  1  0.999996  0.500000  0.499990  1
  Co  Co6  1  0.499992  0.000000  0.196467  1
  Co  Co7  1  0.499992  0.500000  0.196453  1
  Co  Co8  1  0.999993  0.500001  0.196457  1
  Co  Co9  1  0.499997  0.000000  0.803525  1
  Co  Co10  1  0.499997  0.500000  0.803539  1
  Co  Co11  1  0.999995  0.499998  0.803544  1
  Si  Si12  1  0.333343  0.666690  0.000063  1
  Si  Si13  1  0.666641  0.333310  0.000063  1
  B  B14  1  0.333327  0.666672  0.345576  1
  B  B15  1  0.666660  0.333326  0.345575  1
  B  B16  1  0.666703  0.333368  0.654401  1
  B  B17  1  0.333289  0.666633  0.654401  1
