# generated using pymatgen
data_Hf12Mo5Ir6Os
_symmetry_space_group_name_H-M   'P 1'
_cell_length_a   4.63637200
_cell_length_b   6.54143400
_cell_length_c   13.91785600
_cell_angle_alpha   90.00000000
_cell_angle_beta   89.99974879
_cell_angle_gamma   90.00000000
_symmetry_Int_Tables_number   1
_chemical_formula_structural   Hf12Mo5Ir6Os
_chemical_formula_sum   'Hf12 Mo5 Ir6 Os1'
_cell_volume   422.10799406
_cell_formula_units_Z   1
loop_
 _symmetry_equiv_pos_site_id
 _symmetry_equiv_pos_as_xyz
  1  'x, y, z'
loop_
 _atom_site_type_symbol
 _atom_site_label
 _atom_site_symmetry_multiplicity
 _atom_site_fract_x
 _atom_site_fract_y
 _atom_site_fract_z
 _atom_site_occupancy
  Hf  Hf0  1  0.500001  0.248916  0.000000  1
  Hf  Hf1  1  0.500001  0.751084  0.000000  1
  Hf  Hf2  1  0.999988  0.249568  0.167378  1
  Hf  Hf3  1  0.999988  0.750432  0.167378  1
  Hf  Hf4  1  0.499989  0.249098  0.333777  1
  Hf  Hf5  1  0.499989  0.750902  0.333777  1
  Hf  Hf6  1  0.000000  0.249849  0.500000  1
  Hf  Hf7  1  0.000000  0.750151  0.500000  1
  Hf  Hf8  1  0.500010  0.249098  0.666223  1
  Hf  Hf9  1  0.500010  0.750902  0.666223  1
  Hf  Hf10  1  0.000012  0.249568  0.832622  1
  Hf  Hf11  1  0.000012  0.750432  0.832622  1
  Mo  Mo12  1  0.499988  0.000000  0.165677  1
  Mo  Mo13  1  0.999989  0.500000  0.332127  1
  Mo  Mo14  1  0.500000  0.000000  0.500000  1
  Mo  Mo15  1  0.000011  0.500000  0.667873  1
  Mo  Mo16  1  0.500013  0.000000  0.834323  1
  Ir  Ir17  1  0.000000  0.000000  0.000000  1
  Ir  Ir18  1  0.499986  0.500000  0.165457  1
  Ir  Ir19  1  0.999989  0.000000  0.332780  1
  Ir  Ir20  1  0.500000  0.500000  0.500000  1
  Ir  Ir21  1  0.000011  0.000000  0.667220  1
  Ir  Ir22  1  0.500015  0.500000  0.834543  1
  Os  Os23  1  0.000000  0.500000  0.000000  1
