# generated using pymatgen
data_Ta2AlGaOs4
_symmetry_space_group_name_H-M   'P 1'
_cell_length_a   4.40314400
_cell_length_b   6.24180800
_cell_length_c   13.24490300
_cell_angle_alpha   89.99998217
_cell_angle_beta   90.00135148
_cell_angle_gamma   90.00005356
_symmetry_Int_Tables_number   1
_chemical_formula_structural   Ta2AlGaOs4
_chemical_formula_sum   'Ta6 Al3 Ga3 Os12'
_cell_volume   364.01734378
_cell_formula_units_Z   3
loop_
 _symmetry_equiv_pos_site_id
 _symmetry_equiv_pos_as_xyz
  1  'x, y, z'
loop_
 _atom_site_type_symbol
 _atom_site_label
 _atom_site_symmetry_multiplicity
 _atom_site_fract_x
 _atom_site_fract_y
 _atom_site_fract_z
 _atom_site_occupancy
  Ta  Ta0  1  0.000011  0.000000  0.999918  1
  Ta  Ta1  1  0.499832  0.499999  0.166675  1
  Ta  Ta2  1  0.999874  0.000000  0.333411  1
  Ta  Ta3  1  0.500008  0.499999  0.500114  1
  Ta  Ta4  1  0.000112  0.999999  0.666672  1
  Ta  Ta5  1  0.500137  0.499999  0.833213  1
  Al  Al6  1  0.500001  0.000000  0.500398  1
  Al  Al7  1  0.000206  0.499999  0.666693  1
  Al  Al8  1  0.500219  0.000000  0.832901  1
  Ga  Ga9  1  0.999997  0.499999  0.999533  1
  Ga  Ga10  1  0.499771  0.000002  0.166666  1
  Ga  Ga11  1  0.999831  0.499999  0.333797  1
  Os  Os12  1  0.500008  0.249258  0.999015  1
  Os  Os13  1  0.500006  0.750742  0.999014  1
  Os  Os14  1  0.999809  0.249945  0.166669  1
  Os  Os15  1  0.999810  0.750056  0.166669  1
  Os  Os16  1  0.499833  0.249256  0.334322  1
  Os  Os17  1  0.499833  0.750744  0.334323  1
  Os  Os18  1  0.000000  0.248970  0.500913  1
  Os  Os19  1  0.000000  0.751029  0.500913  1
  Os  Os20  1  0.500160  0.250304  0.666669  1
  Os  Os21  1  0.500160  0.749694  0.666669  1
  Os  Os22  1  0.000187  0.248970  0.832418  1
  Os  Os23  1  0.000188  0.751029  0.832419  1
