# generated using pymatgen
data_Tb5Y11(HgRh)4
_symmetry_space_group_name_H-M   'P 1'
_cell_length_a   9.61555707
_cell_length_b   9.62253022
_cell_length_c   9.62253184
_cell_angle_alpha   60.01566226
_cell_angle_beta   60.02396987
_cell_angle_gamma   60.02397315
_symmetry_Int_Tables_number   1
_chemical_formula_structural   Tb5Y11(HgRh)4
_chemical_formula_sum   'Tb5 Y11 Hg4 Rh4'
_cell_volume   629.86397851
_cell_formula_units_Z   1
loop_
 _symmetry_equiv_pos_site_id
 _symmetry_equiv_pos_as_xyz
  1  'x, y, z'
loop_
 _atom_site_type_symbol
 _atom_site_label
 _atom_site_symmetry_multiplicity
 _atom_site_fract_x
 _atom_site_fract_y
 _atom_site_fract_z
 _atom_site_occupancy
  Tb  Tb0  1  0.600965  0.601580  0.601580  1
  Tb  Tb1  1  0.601422  0.601711  0.195446  1
  Tb  Tb2  1  0.601422  0.195446  0.601711  1
  Tb  Tb3  1  0.195875  0.601580  0.601580  1
  Tb  Tb4  1  0.060832  0.439168  0.439168  1
  Y  Y5  1  0.439111  0.060889  0.060889  1
  Y  Y6  1  0.439488  0.060395  0.439017  1
  Y  Y7  1  0.061100  0.439017  0.060395  1
  Y  Y8  1  0.439488  0.439017  0.060395  1
  Y  Y9  1  0.061100  0.060395  0.439017  1
  Y  Y10  1  0.186568  0.813432  0.813432  1
  Y  Y11  1  0.813476  0.186524  0.186524  1
  Y  Y12  1  0.813503  0.186734  0.813282  1
  Y  Y13  1  0.186481  0.813282  0.186734  1
  Y  Y14  1  0.813503  0.813282  0.186734  1
  Y  Y15  1  0.186481  0.186734  0.813282  1
  Hg  Hg16  1  0.834571  0.834586  0.834586  1
  Hg  Hg17  1  0.834563  0.834826  0.496047  1
  Hg  Hg18  1  0.834563  0.496047  0.834826  1
  Hg  Hg19  1  0.496256  0.834586  0.834586  1
  Rh  Rh20  1  0.392102  0.393697  0.393697  1
  Rh  Rh21  1  0.393313  0.393740  0.819634  1
  Rh  Rh22  1  0.393313  0.819634  0.393740  1
  Rh  Rh23  1  0.820505  0.393697  0.393697  1
