# generated using pymatgen
data_Ho5OsRuO12
_symmetry_space_group_name_H-M   'P 1'
_cell_length_a   6.84396627
_cell_length_b   6.84396704
_cell_length_c   7.43852622
_cell_angle_alpha   73.97872205
_cell_angle_beta   73.97872194
_cell_angle_gamma   48.94294981
_symmetry_Int_Tables_number   1
_chemical_formula_structural   Ho5OsRuO12
_chemical_formula_sum   'Ho5 Os1 Ru1 O12'
_cell_volume   250.35763037
_cell_formula_units_Z   1
loop_
 _symmetry_equiv_pos_site_id
 _symmetry_equiv_pos_as_xyz
  1  'x, y, z'
loop_
 _atom_site_type_symbol
 _atom_site_label
 _atom_site_symmetry_multiplicity
 _atom_site_fract_x
 _atom_site_fract_y
 _atom_site_fract_z
 _atom_site_occupancy
  Ho  Ho0  1  0.309153  0.314509  0.828700  1
  Ho  Ho1  1  0.685491  0.690847  0.171300  1
  Ho  Ho2  1  0.992576  0.007424  0.500000  1
  Ho  Ho3  1  0.690042  0.707659  0.641800  1
  Ho  Ho4  1  0.292341  0.309958  0.358200  1
  Os  Os5  1  0.785121  0.214879  0.000000  1
  Ru  Ru6  1  0.229015  0.770985  0.000000  1
  O  O7  1  0.509139  0.489302  0.176528  1
  O  O8  1  0.510698  0.490861  0.823472  1
  O  O9  1  0.003163  0.000207  0.201525  1
  O  O10  1  0.999793  0.996837  0.798475  1
  O  O11  1  0.914889  0.412387  0.913009  1
  O  O12  1  0.587613  0.085111  0.086991  1
  O  O13  1  0.087369  0.571713  0.086200  1
  O  O14  1  0.591225  0.106070  0.570187  1
  O  O15  1  0.893930  0.408775  0.429813  1
  O  O16  1  0.398877  0.908722  0.425637  1
  O  O17  1  0.091278  0.601123  0.574363  1
  O  O18  1  0.428287  0.912631  0.913800  1
