# generated using pymatgen
data_Li3Ho3Si4Ag
_symmetry_space_group_name_H-M   'P 1'
_cell_length_a   8.09866485
_cell_length_b   8.06272138
_cell_length_c   8.06272032
_cell_angle_alpha   149.35525978
_cell_angle_beta   131.04433746
_cell_angle_gamma   58.82814222
_symmetry_Int_Tables_number   1
_chemical_formula_structural   Li3Ho3Si4Ag
_chemical_formula_sum   'Li3 Ho3 Si4 Ag1'
_cell_volume   200.85060984
_cell_formula_units_Z   1
loop_
 _symmetry_equiv_pos_site_id
 _symmetry_equiv_pos_as_xyz
  1  'x, y, z'
loop_
 _atom_site_type_symbol
 _atom_site_label
 _atom_site_symmetry_multiplicity
 _atom_site_fract_x
 _atom_site_fract_y
 _atom_site_fract_z
 _atom_site_occupancy
  Li  Li0  1  0.517791  0.826455  0.691337  1
  Li  Li1  1  0.863186  0.169666  0.693520  1
  Li  Li2  1  0.140860  0.829469  0.311391  1
  Ho  Ho3  1  0.874687  0.372467  0.502220  1
  Ho  Ho4  1  0.118500  0.628414  0.490086  1
  Ho  Ho5  1  0.500122  0.501278  0.998844  1
  Si  Si6  1  0.817101  0.998543  0.818558  1
  Si  Si7  1  0.178666  0.999782  0.178884  1
  Si  Si8  1  0.280218  0.287186  0.993032  1
  Si  Si9  1  0.727093  0.714535  0.012558  1
  Ag  Ag10  1  0.481776  0.172206  0.309570  1
