# generated using pymatgen
data_Er16Sc4Ir7Pt5
_symmetry_space_group_name_H-M   'P 1'
_cell_length_a   10.79600628
_cell_length_b   10.79600628
_cell_length_c   6.21874726
_cell_angle_alpha   90.02317833
_cell_angle_beta   90.02317833
_cell_angle_gamma   89.84359658
_symmetry_Int_Tables_number   1
_chemical_formula_structural   Er16Sc4Ir7Pt5
_chemical_formula_sum   'Er16 Sc4 Ir7 Pt5'
_cell_volume   724.81550338
_cell_formula_units_Z   1
loop_
 _symmetry_equiv_pos_site_id
 _symmetry_equiv_pos_as_xyz
  1  'x, y, z'
loop_
 _atom_site_type_symbol
 _atom_site_label
 _atom_site_symmetry_multiplicity
 _atom_site_fract_x
 _atom_site_fract_y
 _atom_site_fract_z
 _atom_site_occupancy
  Er  Er0  1  0.292209  0.087858  0.374460  1
  Er  Er1  1  0.292320  0.911821  0.874100  1
  Er  Er2  1  0.708116  0.085025  0.874328  1
  Er  Er3  1  0.707644  0.911645  0.374441  1
  Er  Er4  1  0.583831  0.787147  0.878177  1
  Er  Er5  1  0.582689  0.210323  0.374806  1
  Er  Er6  1  0.415959  0.788232  0.377708  1
  Er  Er7  1  0.413257  0.210818  0.879603  1
  Er  Er8  1  0.212853  0.416169  0.621823  1
  Er  Er9  1  0.211768  0.584041  0.122292  1
  Er  Er10  1  0.789677  0.417311  0.125194  1
  Er  Er11  1  0.789182  0.586743  0.620397  1
  Er  Er12  1  0.912142  0.707791  0.125540  1
  Er  Er13  1  0.914975  0.291884  0.625672  1
  Er  Er14  1  0.088179  0.707680  0.625900  1
  Er  Er15  1  0.088355  0.292356  0.125559  1
  Sc  Sc16  1  0.999978  0.999879  0.499703  1
  Sc  Sc17  1  0.000121  0.000022  0.000297  1
  Sc  Sc18  1  0.497896  0.501655  0.001711  1
  Sc  Sc19  1  0.498345  0.502104  0.498289  1
  Ir  Ir20  1  0.649003  0.648084  0.249872  1
  Ir  Ir21  1  0.351916  0.350997  0.250128  1
  Ir  Ir22  1  0.350924  0.649076  0.750000  1
  Ir  Ir23  1  0.500249  0.000345  0.121258  1
  Ir  Ir24  1  0.500120  0.000562  0.622525  1
  Ir  Ir25  1  0.999438  0.499880  0.877475  1
  Ir  Ir26  1  0.999655  0.499751  0.378742  1
  Pt  Pt27  1  0.851508  0.148492  0.250000  1
  Pt  Pt28  1  0.851987  0.852028  0.749983  1
  Pt  Pt29  1  0.147972  0.148013  0.750017  1
  Pt  Pt30  1  0.148075  0.851925  0.250000  1
  Pt  Pt31  1  0.649659  0.350341  0.750000  1
