# generated using pymatgen
data_Nd5YNiBr10
_symmetry_space_group_name_H-M   'P 1'
_cell_length_a   7.52965999
_cell_length_b   9.50796940
_cell_length_c   9.52254405
_cell_angle_alpha   108.64947629
_cell_angle_beta   96.47166978
_cell_angle_gamma   105.65551016
_symmetry_Int_Tables_number   1
_chemical_formula_structural   Nd5YNiBr10
_chemical_formula_sum   'Nd5 Y1 Ni1 Br10'
_cell_volume   606.99964801
_cell_formula_units_Z   1
loop_
 _symmetry_equiv_pos_site_id
 _symmetry_equiv_pos_as_xyz
  1  'x, y, z'
loop_
 _atom_site_type_symbol
 _atom_site_label
 _atom_site_symmetry_multiplicity
 _atom_site_fract_x
 _atom_site_fract_y
 _atom_site_fract_z
 _atom_site_occupancy
  Nd  Nd0  1  0.875970  0.955975  0.246596  1
  Nd  Nd1  1  0.129970  0.047005  0.755222  1
  Nd  Nd2  1  0.031847  0.703036  0.905916  1
  Nd  Nd3  1  0.972595  0.298257  0.096808  1
  Nd  Nd4  1  0.640314  0.865186  0.821339  1
  Y  Y5  1  0.353097  0.131001  0.173870  1
  Ni  Ni6  1  0.000251  0.000362  0.999572  1
  Br  Br7  1  0.645525  0.545214  0.730545  1
  Br  Br8  1  0.360909  0.445217  0.271019  1
  Br  Br9  1  0.749863  0.918635  0.546045  1
  Br  Br10  1  0.258982  0.086468  0.449199  1
  Br  Br11  1  0.914536  0.634570  0.173780  1
  Br  Br12  1  0.086361  0.366455  0.828028  1
  Br  Br13  1  0.547685  0.177861  0.923210  1
  Br  Br14  1  0.450643  0.830335  0.087321  1
  Br  Br15  1  0.211739  0.742335  0.649520  1
  Br  Br16  1  0.769714  0.252087  0.342011  1
