# generated using pymatgen
data_Sc12Co5Si16Ni3
_symmetry_space_group_name_H-M   'P 1'
_cell_length_a   4.01455900
_cell_length_b   11.65065979
_cell_length_c   11.96879709
_cell_angle_alpha   89.85900163
_cell_angle_beta   90.00000000
_cell_angle_gamma   90.00000000
_symmetry_Int_Tables_number   1
_chemical_formula_structural   Sc12Co5Si16Ni3
_chemical_formula_sum   'Sc12 Co5 Si16 Ni3'
_cell_volume   559.80600768
_cell_formula_units_Z   1
loop_
 _symmetry_equiv_pos_site_id
 _symmetry_equiv_pos_as_xyz
  1  'x, y, z'
loop_
 _atom_site_type_symbol
 _atom_site_label
 _atom_site_symmetry_multiplicity
 _atom_site_fract_x
 _atom_site_fract_y
 _atom_site_fract_z
 _atom_site_occupancy
  Sc  Sc0  1  0.750000  0.980452  0.811003  1
  Sc  Sc1  1  0.250000  0.019139  0.188900  1
  Sc  Sc2  1  0.750000  0.481467  0.689775  1
  Sc  Sc3  1  0.250000  0.519525  0.311062  1
  Sc  Sc4  1  0.750000  0.752372  0.650374  1
  Sc  Sc5  1  0.250000  0.245903  0.349002  1
  Sc  Sc6  1  0.750000  0.253900  0.848223  1
  Sc  Sc7  1  0.250000  0.745361  0.151595  1
  Sc  Sc8  1  0.750000  0.696055  0.919540  1
  Sc  Sc9  1  0.250000  0.303997  0.080253  1
  Sc  Sc10  1  0.750000  0.196328  0.579764  1
  Sc  Sc11  1  0.250000  0.803907  0.418772  1
  Co  Co12  1  0.750000  0.551119  0.131175  1
  Co  Co13  1  0.250000  0.448477  0.868877  1
  Co  Co14  1  0.750000  0.049409  0.368342  1
  Co  Co15  1  0.250000  0.947609  0.630766  1
  Co  Co16  1  0.750000  0.591157  0.477015  1
  Si  Si17  1  0.750000  0.946552  0.535763  1
  Si  Si18  1  0.250000  0.055414  0.465391  1
  Si  Si19  1  0.750000  0.445727  0.965217  1
  Si  Si20  1  0.250000  0.555346  0.034715  1
  Si  Si21  1  0.750000  0.895234  0.063790  1
  Si  Si22  1  0.250000  0.105255  0.935742  1
  Si  Si23  1  0.750000  0.395186  0.434935  1
  Si  Si24  1  0.250000  0.606239  0.561886  1
  Si  Si25  1  0.750000  0.879571  0.269460  1
  Si  Si26  1  0.250000  0.119496  0.729752  1
  Si  Si27  1  0.750000  0.380399  0.229830  1
  Si  Si28  1  0.250000  0.620568  0.770558  1
  Si  Si29  1  0.750000  0.671544  0.299877  1
  Si  Si30  1  0.250000  0.327538  0.702702  1
  Si  Si31  1  0.750000  0.172496  0.203752  1
  Si  Si32  1  0.250000  0.827154  0.796294  1
  Ni  Ni33  1  0.250000  0.409498  0.525990  1
  Ni  Ni34  1  0.750000  0.094864  0.026566  1
  Ni  Ni35  1  0.250000  0.905744  0.973346  1
