# generated using pymatgen
data_Ho2Co6Si3Ge
_symmetry_space_group_name_H-M   'P 1'
_cell_length_a   6.29624977
_cell_length_b   6.28742064
_cell_length_c   6.29624994
_cell_angle_alpha   130.69290394
_cell_angle_beta   112.76451068
_cell_angle_gamma   87.81717491
_symmetry_Int_Tables_number   1
_chemical_formula_structural   Ho2Co6Si3Ge
_chemical_formula_sum   'Ho2 Co6 Si3 Ge1'
_cell_volume   165.88415558
_cell_formula_units_Z   1
loop_
 _symmetry_equiv_pos_site_id
 _symmetry_equiv_pos_as_xyz
  1  'x, y, z'
loop_
 _atom_site_type_symbol
 _atom_site_label
 _atom_site_symmetry_multiplicity
 _atom_site_fract_x
 _atom_site_fract_y
 _atom_site_fract_z
 _atom_site_occupancy
  Ho  Ho0  1  0.251542  0.533792  0.282250  1
  Ho  Ho1  1  0.748436  0.470546  0.722109  1
  Co  Co2  1  0.992032  0.999636  0.488209  1
  Co  Co3  1  0.511426  0.999636  0.007604  1
  Co  Co4  1  0.719376  0.001526  0.722593  1
  Co  Co5  1  0.229775  0.496117  0.727603  1
  Co  Co6  1  0.278933  0.001526  0.282150  1
  Co  Co7  1  0.768513  0.496117  0.266342  1
  Si  Si8  1  0.922585  0.134564  0.211977  1
  Si  Si9  1  0.578493  0.786322  0.207828  1
  Si  Si10  1  0.414776  0.205921  0.791147  1
  Ge  Ge11  1  0.084112  0.874298  0.790185  1
