# generated using pymatgen
data_Zr11Al8V(PtC)4
_symmetry_space_group_name_H-M   'P 1'
_cell_length_a   8.66753603
_cell_length_b   8.66753637
_cell_length_c   8.61321100
_cell_angle_alpha   60.20711378
_cell_angle_beta   60.20711251
_cell_angle_gamma   59.99083435
_symmetry_Int_Tables_number   1
_chemical_formula_structural   Zr11Al8V(PtC)4
_chemical_formula_sum   'Zr11 Al8 V1 Pt4 C4'
_cell_volume   458.94815966
_cell_formula_units_Z   1
loop_
 _symmetry_equiv_pos_site_id
 _symmetry_equiv_pos_as_xyz
  1  'x, y, z'
loop_
 _atom_site_type_symbol
 _atom_site_label
 _atom_site_symmetry_multiplicity
 _atom_site_fract_x
 _atom_site_fract_y
 _atom_site_fract_z
 _atom_site_occupancy
  Zr  Zr0  1  0.943198  0.943198  0.556802  1
  Zr  Zr1  1  0.689620  0.308377  0.304895  1
  Zr  Zr2  1  0.308377  0.689620  0.697108  1
  Zr  Zr3  1  0.687875  0.687875  0.312125  1
  Zr  Zr4  1  0.689620  0.308377  0.697108  1
  Zr  Zr5  1  0.308377  0.689620  0.304895  1
  Zr  Zr6  1  0.559111  0.938721  0.563027  1
  Zr  Zr7  1  0.559111  0.938721  0.939139  1
  Zr  Zr8  1  0.938721  0.559111  0.563027  1
  Zr  Zr9  1  0.938721  0.559111  0.939139  1
  Zr  Zr10  1  0.309339  0.309339  0.690661  1
  Al  Al11  1  0.912387  0.246748  0.920433  1
  Al  Al12  1  0.331090  0.331090  0.009291  1
  Al  Al13  1  0.007098  0.331139  0.330881  1
  Al  Al14  1  0.331090  0.331090  0.328529  1
  Al  Al15  1  0.246748  0.912387  0.920433  1
  Al  Al16  1  0.918909  0.918909  0.919485  1
  Al  Al17  1  0.918909  0.918909  0.242698  1
  Al  Al18  1  0.331139  0.007098  0.330881  1
  V  V19  1  0.574909  0.574909  0.925091  1
  Pt  Pt20  1  0.125477  0.624537  0.124993  1
  Pt  Pt21  1  0.124187  0.124187  0.627722  1
  Pt  Pt22  1  0.624537  0.125477  0.124993  1
  Pt  Pt23  1  0.124187  0.124187  0.123903  1
  C  C24  1  0.626458  0.126087  0.623728  1
  C  C25  1  0.622357  0.622357  0.116029  1
  C  C26  1  0.126087  0.626458  0.623728  1
  C  C27  1  0.622357  0.622357  0.639257  1
