# generated using pymatgen
data_Hf2Sc18N19
_symmetry_space_group_name_H-M   'P 1'
_cell_length_a   8.45570140
_cell_length_b   8.45726585
_cell_length_c   8.46368002
_cell_angle_alpha   106.59463527
_cell_angle_beta   106.61324534
_cell_angle_gamma   115.36518980
_symmetry_Int_Tables_number   1
_chemical_formula_structural   Hf2Sc18N19
_chemical_formula_sum   'Hf2 Sc18 N19'
_cell_volume   462.22436567
_cell_formula_units_Z   1
loop_
 _symmetry_equiv_pos_site_id
 _symmetry_equiv_pos_as_xyz
  1  'x, y, z'
loop_
 _atom_site_type_symbol
 _atom_site_label
 _atom_site_symmetry_multiplicity
 _atom_site_fract_x
 _atom_site_fract_y
 _atom_site_fract_z
 _atom_site_occupancy
  Hf  Hf0  1  0.045090  0.647990  0.198767  1
  Hf  Hf1  1  0.502127  0.001470  0.501178  1
  Sc  Sc2  1  0.397089  0.706943  0.101593  1
  Sc  Sc3  1  0.100285  0.799499  0.897686  1
  Sc  Sc4  1  0.757423  0.759191  0.998682  1
  Sc  Sc5  1  0.799983  0.899926  0.699745  1
  Sc  Sc6  1  0.449176  0.846357  0.800871  1
  Sc  Sc7  1  0.151659  0.953683  0.604299  1
  Sc  Sc8  1  0.200958  0.102008  0.300641  1
  Sc  Sc9  1  0.848626  0.047442  0.397076  1
  Sc  Sc10  1  0.899597  0.199357  0.100821  1
  Sc  Sc11  1  0.550604  0.153397  0.198892  1
  Sc  Sc12  1  0.602135  0.291386  0.896152  1
  Sc  Sc13  1  0.241314  0.241331  0.000063  1
  Sc  Sc14  1  0.292140  0.395637  0.687747  1
  Sc  Sc15  1  0.954690  0.350599  0.799786  1
  Sc  Sc16  1  0.999883  0.499396  0.501367  1
  Sc  Sc17  1  0.650342  0.451493  0.602938  1
  Sc  Sc18  1  0.706395  0.604346  0.313138  1
  Sc  Sc19  1  0.350755  0.548441  0.398176  1
  N  N20  1  0.898979  0.699322  0.598843  1
  N  N21  1  0.550053  0.649360  0.701878  1
  N  N22  1  0.598913  0.802121  0.400650  1
  N  N23  1  0.250320  0.751588  0.496060  1
  N  N24  1  0.300015  0.897303  0.202849  1
  N  N25  1  0.948996  0.845369  0.296844  1
  N  N26  1  0.000065  0.000409  0.000025  1
  N  N27  1  0.649666  0.948173  0.099434  1
  N  N28  1  0.696357  0.099397  0.796143  1
  N  N29  1  0.350412  0.052211  0.900813  1
  N  N30  1  0.052511  0.151826  0.701851  1
  N  N31  1  0.746525  0.246493  0.499862  1
  N  N32  1  0.401981  0.198337  0.599842  1
  N  N33  1  0.450190  0.350608  0.298271  1
  N  N34  1  0.100704  0.300079  0.401352  1
  N  N35  1  0.149563  0.452556  0.100945  1
  N  N36  1  0.200862  0.599794  0.800311  1
  N  N37  1  0.802295  0.403433  0.199487  1
  N  N38  1  0.851324  0.551728  0.904922  1
