# generated using pymatgen
data_LaPr(Tl2I5)2
_symmetry_space_group_name_H-M   'P 1'
_cell_length_a   9.28254500
_cell_length_b   9.88975600
_cell_length_c   14.56813600
_cell_angle_alpha   90.00000000
_cell_angle_beta   90.00000000
_cell_angle_gamma   90.00000000
_symmetry_Int_Tables_number   1
_chemical_formula_structural   LaPr(Tl2I5)2
_chemical_formula_sum   'La2 Pr2 Tl8 I20'
_cell_volume   1337.38555231
_cell_formula_units_Z   2
loop_
 _symmetry_equiv_pos_site_id
 _symmetry_equiv_pos_as_xyz
  1  'x, y, z'
loop_
 _atom_site_type_symbol
 _atom_site_label
 _atom_site_symmetry_multiplicity
 _atom_site_fract_x
 _atom_site_fract_y
 _atom_site_fract_z
 _atom_site_occupancy
  La  La0  1  0.920138  0.750000  0.506005  1
  La  La1  1  0.579862  0.750000  0.006005  1
  Pr  Pr2  1  0.080316  0.250000  0.494051  1
  Pr  Pr3  1  0.419684  0.250000  0.994051  1
  Tl  Tl4  1  0.435193  0.505005  0.672600  1
  Tl  Tl5  1  0.935010  0.495351  0.827400  1
  Tl  Tl6  1  0.564990  0.004649  0.327400  1
  Tl  Tl7  1  0.064807  0.994995  0.172600  1
  Tl  Tl8  1  0.564990  0.495351  0.327400  1
  Tl  Tl9  1  0.064807  0.505005  0.172600  1
  Tl  Tl10  1  0.435193  0.994995  0.672600  1
  Tl  Tl11  1  0.935010  0.004649  0.827400  1
  I  I12  1  0.567089  0.750000  0.505860  1
  I  I13  1  0.328219  0.954320  0.924711  1
  I  I14  1  0.828923  0.048218  0.575304  1
  I  I15  1  0.671077  0.451782  0.075304  1
  I  I16  1  0.068514  0.250000  0.994335  1
  I  I17  1  0.658476  0.750000  0.790882  1
  I  I18  1  0.932911  0.750000  0.005860  1
  I  I19  1  0.431486  0.250000  0.494335  1
  I  I20  1  0.122492  0.750000  0.686003  1
  I  I21  1  0.158128  0.250000  0.708072  1
  I  I22  1  0.341872  0.250000  0.208072  1
  I  I23  1  0.841524  0.750000  0.290882  1
  I  I24  1  0.671077  0.048218  0.075304  1
  I  I25  1  0.621781  0.250000  0.814768  1
  I  I26  1  0.878219  0.250000  0.314768  1
  I  I27  1  0.377508  0.750000  0.186003  1
  I  I28  1  0.828923  0.451782  0.575304  1
  I  I29  1  0.328219  0.545680  0.924711  1
  I  I30  1  0.171781  0.954320  0.424711  1
  I  I31  1  0.171781  0.545680  0.424711  1
