# generated using pymatgen
data_Tb3YbH10
_symmetry_space_group_name_H-M   'P 1'
_cell_length_a   6.39702852
_cell_length_b   6.39702907
_cell_length_c   6.39702905
_cell_angle_alpha   131.84330075
_cell_angle_beta   131.49183061
_cell_angle_gamma   70.75495877
_symmetry_Int_Tables_number   1
_chemical_formula_structural   Tb3YbH10
_chemical_formula_sum   'Tb3 Yb1 H10'
_cell_volume   143.08693468
_cell_formula_units_Z   1
loop_
 _symmetry_equiv_pos_site_id
 _symmetry_equiv_pos_as_xyz
  1  'x, y, z'
loop_
 _atom_site_type_symbol
 _atom_site_label
 _atom_site_symmetry_multiplicity
 _atom_site_fract_x
 _atom_site_fract_y
 _atom_site_fract_z
 _atom_site_occupancy
  Tb  Tb0  1  0.240370  0.240370  0.000000  1
  Tb  Tb1  1  0.991085  0.491085  0.500000  1
  Tb  Tb2  1  0.758294  0.758294  0.000000  1
  Yb  Yb3  1  0.507091  0.007091  0.500000  1
  H  H4  1  0.601861  0.618830  0.474490  1
  H  H5  1  0.144341  0.127370  0.525510  1
  H  H6  1  0.601861  0.127370  0.983029  1
  H  H7  1  0.144341  0.618830  0.016971  1
  H  H8  1  0.373394  0.403910  0.523932  1
  H  H9  1  0.879979  0.849463  0.476068  1
  H  H10  1  0.879979  0.403910  0.030516  1
  H  H11  1  0.373394  0.849463  0.969484  1
  H  H12  1  0.754762  0.254762  0.500000  1
  H  H13  1  0.999249  0.999249  0.000000  1
