# generated using pymatgen
data_Sc12GaNi4Ru
_symmetry_space_group_name_H-M   'P 1'
_cell_length_a   7.71009319
_cell_length_b   7.71009461
_cell_length_c   7.71009327
_cell_angle_alpha   111.29344548
_cell_angle_beta   110.38952603
_cell_angle_gamma   106.76545755
_symmetry_Int_Tables_number   1
_chemical_formula_structural   Sc12GaNi4Ru
_chemical_formula_sum   'Sc12 Ga1 Ni4 Ru1'
_cell_volume   352.21348530
_cell_formula_units_Z   1
loop_
 _symmetry_equiv_pos_site_id
 _symmetry_equiv_pos_as_xyz
  1  'x, y, z'
loop_
 _atom_site_type_symbol
 _atom_site_label
 _atom_site_symmetry_multiplicity
 _atom_site_fract_x
 _atom_site_fract_y
 _atom_site_fract_z
 _atom_site_occupancy
  Sc  Sc0  1  0.421844  0.231075  0.190770  1
  Sc  Sc1  1  0.578156  0.768925  0.809230  1
  Sc  Sc2  1  0.040305  0.231075  0.809230  1
  Sc  Sc3  1  0.959695  0.768925  0.190770  1
  Sc  Sc4  1  0.182626  0.278800  0.461426  1
  Sc  Sc5  1  0.817374  0.721200  0.538574  1
  Sc  Sc6  1  0.182626  0.721200  0.903826  1
  Sc  Sc7  1  0.817374  0.278800  0.096174  1
  Sc  Sc8  1  0.324015  0.623107  0.299093  1
  Sc  Sc9  1  0.675985  0.376893  0.700907  1
  Sc  Sc10  1  0.324015  0.024922  0.700907  1
  Sc  Sc11  1  0.675985  0.975078  0.299093  1
  Ga  Ga12  1  0.500000  0.500000  0.000000  1
  Ni  Ni13  1  0.352018  0.000000  0.352018  1
  Ni  Ni14  1  0.647982  0.000000  0.647982  1
  Ni  Ni15  1  0.126218  0.626218  0.500000  1
  Ni  Ni16  1  0.873782  0.373782  0.500000  1
  Ru  Ru17  1  0.000000  0.000000  0.000000  1
