# generated using pymatgen
data_Ti2Mn2GaC3
_symmetry_space_group_name_H-M   'P 1'
_cell_length_a   2.98753700
_cell_length_b   2.98753680
_cell_length_c   22.21626400
_cell_angle_alpha   90.00000000
_cell_angle_beta   90.00000000
_cell_angle_gamma   119.99999109
_symmetry_Int_Tables_number   1
_chemical_formula_structural   Ti2Mn2GaC3
_chemical_formula_sum   'Ti4 Mn4 Ga2 C6'
_cell_volume   171.72291624
_cell_formula_units_Z   2
loop_
 _symmetry_equiv_pos_site_id
 _symmetry_equiv_pos_as_xyz
  1  'x, y, z'
loop_
 _atom_site_type_symbol
 _atom_site_label
 _atom_site_symmetry_multiplicity
 _atom_site_fract_x
 _atom_site_fract_y
 _atom_site_fract_z
 _atom_site_occupancy
  Ti  Ti0  1  0.333333  0.666667  0.443992  1
  Ti  Ti1  1  0.666667  0.333333  0.556008  1
  Ti  Ti2  1  0.666667  0.333333  0.943992  1
  Ti  Ti3  1  0.333333  0.666667  0.056008  1
  Mn  Mn4  1  0.000000  0.000000  0.341952  1
  Mn  Mn5  1  0.000000  0.000000  0.658048  1
  Mn  Mn6  1  0.000000  0.000000  0.841952  1
  Mn  Mn7  1  0.000000  0.000000  0.158048  1
  Ga  Ga8  1  0.333333  0.666667  0.250000  1
  Ga  Ga9  1  0.666667  0.333333  0.750000  1
  C  C10  1  0.000000  0.000000  0.500000  1
  C  C11  1  0.000000  0.000000  0.000000  1
  C  C12  1  0.666667  0.333333  0.383229  1
  C  C13  1  0.333333  0.666667  0.616771  1
  C  C14  1  0.333333  0.666667  0.883229  1
  C  C15  1  0.666667  0.333333  0.116771  1
