# generated using pymatgen
data_LiTa3(TiRu3)2
_symmetry_space_group_name_H-M   'P 1'
_cell_length_a   4.40353400
_cell_length_b   6.23524600
_cell_length_c   13.21245200
_cell_angle_alpha   90.00000000
_cell_angle_beta   90.00000000
_cell_angle_gamma   90.00000000
_symmetry_Int_Tables_number   1
_chemical_formula_structural   LiTa3(TiRu3)2
_chemical_formula_sum   'Li2 Ta6 Ti4 Ru12'
_cell_volume   362.77585045
_cell_formula_units_Z   2
loop_
 _symmetry_equiv_pos_site_id
 _symmetry_equiv_pos_as_xyz
  1  'x, y, z'
loop_
 _atom_site_type_symbol
 _atom_site_label
 _atom_site_symmetry_multiplicity
 _atom_site_fract_x
 _atom_site_fract_y
 _atom_site_fract_z
 _atom_site_occupancy
  Li  Li0  1  0.000502  0.000000  0.667149  1
  Li  Li1  1  0.500501  0.500000  0.832851  1
  Ta  Ta2  1  0.999950  0.500000  0.991060  1
  Ta  Ta3  1  0.499719  0.000000  0.164786  1
  Ta  Ta4  1  0.999718  0.500000  0.335214  1
  Ta  Ta5  1  0.499951  0.000000  0.508940  1
  Ta  Ta6  1  0.000244  0.500000  0.674685  1
  Ta  Ta7  1  0.500242  0.000000  0.825314  1
  Ti  Ti8  1  0.999951  0.000000  0.993871  1
  Ti  Ti9  1  0.499716  0.500000  0.164675  1
  Ti  Ti10  1  0.999717  0.000000  0.335326  1
  Ti  Ti11  1  0.499952  0.500000  0.506129  1
  Ru  Ru12  1  0.499944  0.247400  0.001228  1
  Ru  Ru13  1  0.499944  0.752601  0.001228  1
  Ru  Ru14  1  0.999735  0.250292  0.166204  1
  Ru  Ru15  1  0.999735  0.749709  0.166204  1
  Ru  Ru16  1  0.499734  0.249708  0.333795  1
  Ru  Ru17  1  0.499734  0.750292  0.333795  1
  Ru  Ru18  1  0.999943  0.252599  0.498772  1
  Ru  Ru19  1  0.999943  0.747400  0.498772  1
  Ru  Ru20  1  0.500283  0.252763  0.665262  1
  Ru  Ru21  1  0.500283  0.747237  0.665262  1
  Ru  Ru22  1  0.000282  0.247237  0.834738  1
  Ru  Ru23  1  0.000282  0.752764  0.834738  1
