# generated using pymatgen
data_Lu6Mg2Co15P12Rh
_symmetry_space_group_name_H-M   'P 1'
_cell_length_a   3.69510300
_cell_length_b   10.63311100
_cell_length_c   12.23968900
_cell_angle_alpha   90.00000000
_cell_angle_beta   90.00000000
_cell_angle_gamma   90.00000000
_symmetry_Int_Tables_number   1
_chemical_formula_structural   Lu6Mg2Co15P12Rh
_chemical_formula_sum   'Lu6 Mg2 Co15 P12 Rh1'
_cell_volume   480.90277062
_cell_formula_units_Z   1
loop_
 _symmetry_equiv_pos_site_id
 _symmetry_equiv_pos_as_xyz
  1  'x, y, z'
loop_
 _atom_site_type_symbol
 _atom_site_label
 _atom_site_symmetry_multiplicity
 _atom_site_fract_x
 _atom_site_fract_y
 _atom_site_fract_z
 _atom_site_occupancy
  Lu  Lu0  1  0.000000  0.500000  0.522254  1
  Lu  Lu1  1  0.500000  0.000000  0.472751  1
  Lu  Lu2  1  0.500000  0.824231  0.206188  1
  Lu  Lu3  1  0.500000  0.175769  0.206188  1
  Lu  Lu4  1  0.000000  0.680625  0.795584  1
  Lu  Lu5  1  0.000000  0.319375  0.795584  1
  Mg  Mg6  1  0.500000  0.500000  0.157769  1
  Mg  Mg7  1  0.000000  0.000000  0.842735  1
  Co  Co8  1  0.000000  0.000000  0.294421  1
  Co  Co9  1  0.000000  0.500000  0.991645  1
  Co  Co10  1  0.500000  0.000000  0.011846  1
  Co  Co11  1  0.500000  0.330970  0.998608  1
  Co  Co12  1  0.500000  0.669030  0.998608  1
  Co  Co13  1  0.000000  0.167048  0.004330  1
  Co  Co14  1  0.000000  0.832952  0.004330  1
  Co  Co15  1  0.500000  0.294438  0.430416  1
  Co  Co16  1  0.500000  0.705562  0.430416  1
  Co  Co17  1  0.000000  0.199884  0.565516  1
  Co  Co18  1  0.000000  0.800116  0.565516  1
  Co  Co19  1  0.500000  0.878581  0.705969  1
  Co  Co20  1  0.500000  0.121419  0.705969  1
  Co  Co21  1  0.000000  0.624076  0.295111  1
  Co  Co22  1  0.000000  0.375924  0.295111  1
  P  P23  1  0.500000  0.500000  0.891337  1
  P  P24  1  0.000000  0.000000  0.115964  1
  P  P25  1  0.500000  0.500000  0.356686  1
  P  P26  1  0.000000  0.000000  0.642239  1
  P  P27  1  0.500000  0.302382  0.612799  1
  P  P28  1  0.500000  0.697618  0.612799  1
  P  P29  1  0.000000  0.186836  0.382429  1
  P  P30  1  0.000000  0.813164  0.382429  1
  P  P31  1  0.500000  0.838369  0.892339  1
  P  P32  1  0.500000  0.161631  0.892339  1
  P  P33  1  0.000000  0.663079  0.110061  1
  P  P34  1  0.000000  0.336921  0.110061  1
  Rh  Rh35  1  0.500000  0.500000  0.701651  1
