# generated using pymatgen
data_Y4ScZn2Bi
_symmetry_space_group_name_H-M   'P 1'
_cell_length_a   8.56085481
_cell_length_b   8.56085489
_cell_length_c   8.56085536
_cell_angle_alpha   123.77014215
_cell_angle_beta   123.77013876
_cell_angle_gamma   83.58523655
_symmetry_Int_Tables_number   1
_chemical_formula_structural   Y4ScZn2Bi
_chemical_formula_sum   'Y8 Sc2 Zn4 Bi2'
_cell_volume   415.51104973
_cell_formula_units_Z   2
loop_
 _symmetry_equiv_pos_site_id
 _symmetry_equiv_pos_as_xyz
  1  'x, y, z'
loop_
 _atom_site_type_symbol
 _atom_site_label
 _atom_site_symmetry_multiplicity
 _atom_site_fract_x
 _atom_site_fract_y
 _atom_site_fract_z
 _atom_site_occupancy
  Y  Y0  1  0.795634  0.295634  0.808476  1
  Y  Y1  1  0.204366  0.704366  0.191524  1
  Y  Y2  1  0.487156  0.987156  0.191524  1
  Y  Y3  1  0.295634  0.487156  0.500000  1
  Y  Y4  1  0.012844  0.204366  0.500000  1
  Y  Y5  1  0.512844  0.012844  0.808476  1
  Y  Y6  1  0.704366  0.512844  0.500000  1
  Y  Y7  1  0.987156  0.795634  0.500000  1
  Sc  Sc8  1  0.000000  0.000000  0.000000  1
  Sc  Sc9  1  0.500000  0.500000  0.000000  1
  Zn  Zn10  1  0.141049  0.641049  0.782097  1
  Zn  Zn11  1  0.858951  0.358951  0.217903  1
  Zn  Zn12  1  0.641049  0.858951  0.500000  1
  Zn  Zn13  1  0.358951  0.141049  0.500000  1
  Bi  Bi14  1  0.250000  0.250000  0.000000  1
  Bi  Bi15  1  0.750000  0.750000  0.000000  1
