# generated using pymatgen
data_Tb2Er6Re(B8Ir)3
_symmetry_space_group_name_H-M   'P 1'
_cell_length_a   3.64901600
_cell_length_b   9.15324461
_cell_length_c   11.49413202
_cell_angle_alpha   90.13611920
_cell_angle_beta   90.00000000
_cell_angle_gamma   90.00000000
_symmetry_Int_Tables_number   1
_chemical_formula_structural   Tb2Er6Re(B8Ir)3
_chemical_formula_sum   'Tb2 Er6 Re1 B24 Ir3'
_cell_volume   383.90678829
_cell_formula_units_Z   1
loop_
 _symmetry_equiv_pos_site_id
 _symmetry_equiv_pos_as_xyz
  1  'x, y, z'
loop_
 _atom_site_type_symbol
 _atom_site_label
 _atom_site_symmetry_multiplicity
 _atom_site_fract_x
 _atom_site_fract_y
 _atom_site_fract_z
 _atom_site_occupancy
  Tb  Tb0  1  0.000000  0.320900  0.413555  1
  Tb  Tb1  1  0.000000  0.682606  0.590455  1
  Er  Er2  1  0.000000  0.820542  0.082464  1
  Er  Er3  1  0.000000  0.175902  0.912222  1
  Er  Er4  1  0.000000  0.943805  0.372887  1
  Er  Er5  1  0.000000  0.053756  0.626553  1
  Er  Er6  1  0.000000  0.443522  0.125710  1
  Er  Er7  1  0.000000  0.557381  0.875348  1
  Re  Re8  1  0.000000  0.863008  0.821945  1
  B  B9  1  0.500000  0.553916  0.433587  1
  B  B10  1  0.500000  0.447247  0.567284  1
  B  B11  1  0.500000  0.053245  0.066051  1
  B  B12  1  0.500000  0.947044  0.933667  1
  B  B13  1  0.500000  0.750870  0.419890  1
  B  B14  1  0.500000  0.250001  0.579733  1
  B  B15  1  0.500000  0.248896  0.078603  1
  B  B16  1  0.500000  0.752113  0.920441  1
  B  B17  1  0.500000  0.792448  0.264691  1
  B  B18  1  0.500000  0.207483  0.733864  1
  B  B19  1  0.500000  0.292597  0.234134  1
  B  B20  1  0.500000  0.708389  0.766947  1
  B  B21  1  0.500000  0.631320  0.184053  1
  B  B22  1  0.500000  0.368027  0.816186  1
  B  B23  1  0.500000  0.131632  0.315126  1
  B  B24  1  0.500000  0.869330  0.685886  1
  B  B25  1  0.500000  0.981387  0.212530  1
  B  B26  1  0.500000  0.017729  0.786907  1
  B  B27  1  0.500000  0.481673  0.286617  1
  B  B28  1  0.500000  0.517699  0.715021  1
  B  B29  1  0.500000  0.609034  0.031275  1
  B  B30  1  0.500000  0.388543  0.970035  1
  B  B31  1  0.500000  0.108144  0.469546  1
  B  B32  1  0.500000  0.892736  0.528382  1
  Ir  Ir33  1  0.000000  0.637846  0.321462  1
  Ir  Ir34  1  0.000000  0.362064  0.679072  1
  Ir  Ir35  1  0.000000  0.137162  0.177874  1
