# generated using pymatgen
data_Ba6ScMn4O15
_symmetry_space_group_name_H-M   'P 1'
_cell_length_a   7.34427100
_cell_length_b   7.36214382
_cell_length_c   7.42238034
_cell_angle_alpha   87.64637023
_cell_angle_beta   88.29767446
_cell_angle_gamma   88.39341409
_symmetry_Int_Tables_number   1
_chemical_formula_structural   Ba6ScMn4O15
_chemical_formula_sum   'Ba6 Sc1 Mn4 O15'
_cell_volume   400.66493599
_cell_formula_units_Z   1
loop_
 _symmetry_equiv_pos_site_id
 _symmetry_equiv_pos_as_xyz
  1  'x, y, z'
loop_
 _atom_site_type_symbol
 _atom_site_label
 _atom_site_symmetry_multiplicity
 _atom_site_fract_x
 _atom_site_fract_y
 _atom_site_fract_z
 _atom_site_occupancy
  Ba  Ba0  1  0.333686  0.670217  0.999588  1
  Ba  Ba1  1  0.994313  0.332957  0.663705  1
  Ba  Ba2  1  0.669913  0.989216  0.327352  1
  Ba  Ba3  1  0.140964  0.853684  0.501118  1
  Ba  Ba4  1  0.498818  0.143428  0.855253  1
  Ba  Ba5  1  0.853560  0.496762  0.136617  1
  Sc  Sc6  1  0.507656  0.502156  0.496803  1
  Mn  Mn7  1  0.295416  0.294313  0.294692  1
  Mn  Mn8  1  0.705338  0.706963  0.706708  1
  Mn  Mn9  1  0.099231  0.098216  0.097001  1
  Mn  Mn10  1  0.899684  0.904937  0.909706  1
  O  O11  1  0.145678  0.003567  0.857520  1
  O  O12  1  0.858507  0.147353  0.000762  1
  O  O13  1  0.006525  0.857171  0.145951  1
  O  O14  1  0.039316  0.195536  0.331988  1
  O  O15  1  0.332770  0.040401  0.199653  1
  O  O16  1  0.199711  0.334091  0.040323  1
  O  O17  1  0.799877  0.965715  0.674607  1
  O  O18  1  0.667332  0.818696  0.993118  1
  O  O19  1  0.960324  0.670208  0.808586  1
  O  O20  1  0.374175  0.238361  0.531962  1
  O  O21  1  0.532221  0.370401  0.235242  1
  O  O22  1  0.241726  0.534357  0.370780  1
  O  O23  1  0.758999  0.613325  0.440886  1
  O  O24  1  0.459464  0.757989  0.621687  1
  O  O25  1  0.624796  0.459980  0.758391  1
