# generated using pymatgen
data_TbEr6Co4Sn23Os2
_symmetry_space_group_name_H-M   'P 1'
_cell_length_a   9.72297263
_cell_length_b   9.72297208
_cell_length_c   10.02339309
_cell_angle_alpha   90.46985821
_cell_angle_beta   89.53013478
_cell_angle_gamma   119.91331759
_symmetry_Int_Tables_number   1
_chemical_formula_structural   TbEr6Co4Sn23Os2
_chemical_formula_sum   'Tb1 Er6 Co4 Sn23 Os2'
_cell_volume   821.30163692
_cell_formula_units_Z   1
loop_
 _symmetry_equiv_pos_site_id
 _symmetry_equiv_pos_as_xyz
  1  'x, y, z'
loop_
 _atom_site_type_symbol
 _atom_site_label
 _atom_site_symmetry_multiplicity
 _atom_site_fract_x
 _atom_site_fract_y
 _atom_site_fract_z
 _atom_site_occupancy
  Tb  Tb0  1  0.000000  0.000000  0.000000  1
  Er  Er1  1  0.480368  0.519632  0.306778  1
  Er  Er2  1  0.519632  0.480368  0.693222  1
  Er  Er3  1  0.482078  0.960215  0.304870  1
  Er  Er4  1  0.517922  0.039785  0.695130  1
  Er  Er5  1  0.039785  0.517922  0.304870  1
  Er  Er6  1  0.960215  0.482078  0.695130  1
  Co  Co7  1  0.830307  0.662068  0.198334  1
  Co  Co8  1  0.169693  0.337932  0.801666  1
  Co  Co9  1  0.337932  0.169693  0.198334  1
  Co  Co10  1  0.662068  0.830307  0.801666  1
  Sn  Sn11  1  0.349989  0.003536  0.004345  1
  Sn  Sn12  1  0.650011  0.996464  0.995655  1
  Sn  Sn13  1  0.003536  0.349989  0.995655  1
  Sn  Sn14  1  0.996464  0.650011  0.004345  1
  Sn  Sn15  1  0.653914  0.653914  0.000000  1
  Sn  Sn16  1  0.346086  0.346086  0.000000  1
  Sn  Sn17  1  0.334625  0.665375  0.818675  1
  Sn  Sn18  1  0.665375  0.334625  0.181325  1
  Sn  Sn19  1  0.000000  0.000000  0.500000  1
  Sn  Sn20  1  0.780173  0.219827  0.458890  1
  Sn  Sn21  1  0.219827  0.780173  0.541110  1
  Sn  Sn22  1  0.782128  0.563979  0.451673  1
  Sn  Sn23  1  0.217872  0.436021  0.548327  1
  Sn  Sn24  1  0.436021  0.217872  0.451673  1
  Sn  Sn25  1  0.563979  0.782128  0.548327  1
  Sn  Sn26  1  0.333964  0.666036  0.118235  1
  Sn  Sn27  1  0.666036  0.333964  0.881765  1
  Sn  Sn28  1  0.117501  0.882499  0.271129  1
  Sn  Sn29  1  0.882499  0.117501  0.728871  1
  Sn  Sn30  1  0.124283  0.236871  0.276229  1
  Sn  Sn31  1  0.875717  0.763129  0.723771  1
  Sn  Sn32  1  0.763129  0.875717  0.276229  1
  Sn  Sn33  1  0.236871  0.124283  0.723771  1
  Os  Os34  1  0.831963  0.168037  0.199261  1
  Os  Os35  1  0.168037  0.831963  0.800739  1
