# generated using pymatgen
data_Tb2Dy4Co17TcP12
_symmetry_space_group_name_H-M   'P 1'
_cell_length_a   3.70248600
_cell_length_b   10.51571500
_cell_length_c   12.21895900
_cell_angle_alpha   90.00000000
_cell_angle_beta   90.00000000
_cell_angle_gamma   90.00000000
_symmetry_Int_Tables_number   1
_chemical_formula_structural   Tb2Dy4Co17TcP12
_chemical_formula_sum   'Tb2 Dy4 Co17 Tc1 P12'
_cell_volume   475.73646348
_cell_formula_units_Z   1
loop_
 _symmetry_equiv_pos_site_id
 _symmetry_equiv_pos_as_xyz
  1  'x, y, z'
loop_
 _atom_site_type_symbol
 _atom_site_label
 _atom_site_symmetry_multiplicity
 _atom_site_fract_x
 _atom_site_fract_y
 _atom_site_fract_z
 _atom_site_occupancy
  Tb  Tb0  1  0.000000  0.500000  0.523955  1
  Tb  Tb1  1  0.500000  0.000000  0.478171  1
  Dy  Dy2  1  0.500000  0.817556  0.206616  1
  Dy  Dy3  1  0.500000  0.182444  0.206616  1
  Dy  Dy4  1  0.000000  0.682916  0.795023  1
  Dy  Dy5  1  0.000000  0.317084  0.795023  1
  Co  Co6  1  0.000000  0.000000  0.840225  1
  Co  Co7  1  0.500000  0.500000  0.703679  1
  Co  Co8  1  0.000000  0.000000  0.295786  1
  Co  Co9  1  0.000000  0.500000  0.987515  1
  Co  Co10  1  0.500000  0.000000  0.014560  1
  Co  Co11  1  0.500000  0.331908  0.991241  1
  Co  Co12  1  0.500000  0.668092  0.991241  1
  Co  Co13  1  0.000000  0.166386  0.005565  1
  Co  Co14  1  0.000000  0.833614  0.005565  1
  Co  Co15  1  0.500000  0.296656  0.430534  1
  Co  Co16  1  0.500000  0.703344  0.430534  1
  Co  Co17  1  0.000000  0.203303  0.569188  1
  Co  Co18  1  0.000000  0.796697  0.569188  1
  Co  Co19  1  0.500000  0.879236  0.709394  1
  Co  Co20  1  0.500000  0.120764  0.709394  1
  Co  Co21  1  0.000000  0.620656  0.291480  1
  Co  Co22  1  0.000000  0.379344  0.291480  1
  Tc  Tc23  1  0.500000  0.500000  0.156505  1
  P  P24  1  0.500000  0.500000  0.881767  1
  P  P25  1  0.000000  0.000000  0.117050  1
  P  P26  1  0.500000  0.500000  0.348385  1
  P  P27  1  0.000000  0.000000  0.656406  1
  P  P28  1  0.500000  0.310527  0.616581  1
  P  P29  1  0.500000  0.689473  0.616581  1
  P  P30  1  0.000000  0.188919  0.384196  1
  P  P31  1  0.000000  0.811081  0.384196  1
  P  P32  1  0.500000  0.849536  0.892159  1
  P  P33  1  0.500000  0.150464  0.892159  1
  P  P34  1  0.000000  0.655720  0.106022  1
  P  P35  1  0.000000  0.344280  0.106022  1
