# generated using pymatgen
data_LaN7
_symmetry_space_group_name_H-M   'P 1'
_cell_length_a   3.99473529
_cell_length_b   6.88372735
_cell_length_c   15.68838925
_cell_angle_alpha   91.38689763
_cell_angle_beta   87.11609620
_cell_angle_gamma   149.89096719
_symmetry_Int_Tables_number   1
_chemical_formula_structural   LaN7
_chemical_formula_sum   'La1 N7'
_cell_volume   215.98064217
_cell_formula_units_Z   1
loop_
 _symmetry_equiv_pos_site_id
 _symmetry_equiv_pos_as_xyz
  1  'x, y, z'
loop_
 _atom_site_type_symbol
 _atom_site_label
 _atom_site_symmetry_multiplicity
 _atom_site_fract_x
 _atom_site_fract_y
 _atom_site_fract_z
 _atom_site_occupancy
  La  La0  1  0.580510  0.026224  0.461703  1
  N  N1  1  0.175017  0.680648  0.301526  1
  N  N2  1  0.978545  0.988494  0.854155  1
  N  N3  1  0.959639  0.229598  0.077257  1
  N  N4  1  0.841611  0.440354  0.255449  1
  N  N5  1  0.395321  0.423020  0.030984  1
  N  N6  1  0.394604  0.135504  0.811852  1
  N  N7  1  0.575492  0.691846  0.481120  1
