# generated using pymatgen
data_Al11ZnIr12
_symmetry_space_group_name_H-M   'P 1'
_cell_length_a   4.29800465
_cell_length_b   6.05369800
_cell_length_c   12.90170100
_cell_angle_alpha   90.00000000
_cell_angle_beta   90.08431725
_cell_angle_gamma   90.00000000
_symmetry_Int_Tables_number   1
_chemical_formula_structural   Al11ZnIr12
_chemical_formula_sum   'Al11 Zn1 Ir12'
_cell_volume   335.68670062
_cell_formula_units_Z   1
loop_
 _symmetry_equiv_pos_site_id
 _symmetry_equiv_pos_as_xyz
  1  'x, y, z'
loop_
 _atom_site_type_symbol
 _atom_site_label
 _atom_site_symmetry_multiplicity
 _atom_site_fract_x
 _atom_site_fract_y
 _atom_site_fract_z
 _atom_site_occupancy
  Al  Al0  1  0.000001  0.499999  0.999998  1
  Al  Al1  1  0.499840  0.000000  0.165248  1
  Al  Al2  1  0.999825  0.499999  0.332303  1
  Al  Al3  1  0.500001  0.000000  0.499999  1
  Al  Al4  1  0.000175  0.499999  0.667698  1
  Al  Al5  1  0.500157  0.000000  0.834750  1
  Al  Al6  1  0.499855  0.499999  0.166213  1
  Al  Al7  1  0.999833  0.000000  0.332724  1
  Al  Al8  1  0.500013  0.499999  0.500013  1
  Al  Al9  1  0.000165  0.000000  0.667274  1
  Al  Al10  1  0.500144  0.499999  0.833783  1
  Zn  Zn11  1  0.000000  0.000000  0.999997  1
  Ir  Ir12  1  0.499998  0.254264  0.999997  1
  Ir  Ir13  1  0.499998  0.745736  0.999997  1
  Ir  Ir14  1  0.999841  0.251601  0.169092  1
  Ir  Ir15  1  0.999841  0.748399  0.169092  1
  Ir  Ir16  1  0.499867  0.249700  0.334411  1
  Ir  Ir17  1  0.499867  0.750299  0.334411  1
  Ir  Ir18  1  0.000004  0.250086  0.500001  1
  Ir  Ir19  1  0.000004  0.749913  0.500001  1
  Ir  Ir20  1  0.500131  0.249692  0.665592  1
  Ir  Ir21  1  0.500131  0.750307  0.665592  1
  Ir  Ir22  1  0.000159  0.251598  0.830906  1
  Ir  Ir23  1  0.000159  0.748402  0.830906  1
