# generated using pymatgen
data_Sc4AlB12Rh
_symmetry_space_group_name_H-M   'P 1'
_cell_length_a   3.44141800
_cell_length_b   8.93240900
_cell_length_c   11.22233600
_cell_angle_alpha   90.00000000
_cell_angle_beta   90.00000000
_cell_angle_gamma   90.00000000
_symmetry_Int_Tables_number   1
_chemical_formula_structural   Sc4AlB12Rh
_chemical_formula_sum   'Sc8 Al2 B24 Rh2'
_cell_volume   344.97632696
_cell_formula_units_Z   2
loop_
 _symmetry_equiv_pos_site_id
 _symmetry_equiv_pos_as_xyz
  1  'x, y, z'
loop_
 _atom_site_type_symbol
 _atom_site_label
 _atom_site_symmetry_multiplicity
 _atom_site_fract_x
 _atom_site_fract_y
 _atom_site_fract_z
 _atom_site_occupancy
  Sc  Sc0  1  0.000000  0.943605  0.372413  1
  Sc  Sc1  1  0.000000  0.054357  0.628182  1
  Sc  Sc2  1  0.000000  0.556395  0.872413  1
  Sc  Sc3  1  0.000000  0.180407  0.913762  1
  Sc  Sc4  1  0.000000  0.822416  0.086444  1
  Sc  Sc5  1  0.000000  0.677584  0.586444  1
  Sc  Sc6  1  0.000000  0.319593  0.413762  1
  Sc  Sc7  1  0.000000  0.445643  0.128182  1
  Al  Al8  1  0.000000  0.139931  0.179340  1
  Al  Al9  1  0.000000  0.360069  0.679340  1
  B  B10  1  0.500000  0.367968  0.820215  1
  B  B11  1  0.500000  0.979018  0.212380  1
  B  B12  1  0.500000  0.552676  0.435818  1
  B  B13  1  0.500000  0.297841  0.237869  1
  B  B14  1  0.500000  0.202159  0.737869  1
  B  B15  1  0.500000  0.102041  0.472263  1
  B  B16  1  0.500000  0.796671  0.261793  1
  B  B17  1  0.500000  0.448054  0.563480  1
  B  B18  1  0.500000  0.246370  0.577481  1
  B  B19  1  0.500000  0.479488  0.288465  1
  B  B20  1  0.500000  0.703329  0.761793  1
  B  B21  1  0.500000  0.752833  0.421602  1
  B  B22  1  0.500000  0.520982  0.712380  1
  B  B23  1  0.500000  0.899505  0.527270  1
  B  B24  1  0.500000  0.051946  0.063480  1
  B  B25  1  0.500000  0.600495  0.027270  1
  B  B26  1  0.500000  0.747167  0.921602  1
  B  B27  1  0.500000  0.020512  0.788465  1
  B  B28  1  0.500000  0.397959  0.972263  1
  B  B29  1  0.500000  0.947324  0.935818  1
  B  B30  1  0.500000  0.632524  0.181557  1
  B  B31  1  0.500000  0.253630  0.077481  1
  B  B32  1  0.500000  0.867476  0.681557  1
  B  B33  1  0.500000  0.132032  0.320215  1
  Rh  Rh34  1  0.000000  0.858343  0.819666  1
  Rh  Rh35  1  0.000000  0.641657  0.319666  1
