# generated using pymatgen
data_Sc3Si3Pd
_symmetry_space_group_name_H-M   'P 1'
_cell_length_a   4.01883700
_cell_length_b   10.35913400
_cell_length_c   11.79274000
_cell_angle_alpha   90.00000000
_cell_angle_beta   90.00000000
_cell_angle_gamma   90.00000000
_symmetry_Int_Tables_number   1
_chemical_formula_structural   Sc3Si3Pd
_chemical_formula_sum   'Sc12 Si12 Pd4'
_cell_volume   490.95147195
_cell_formula_units_Z   4
loop_
 _symmetry_equiv_pos_site_id
 _symmetry_equiv_pos_as_xyz
  1  'x, y, z'
loop_
 _atom_site_type_symbol
 _atom_site_label
 _atom_site_symmetry_multiplicity
 _atom_site_fract_x
 _atom_site_fract_y
 _atom_site_fract_z
 _atom_site_occupancy
  Sc  Sc0  1  0.250000  0.875349  0.021597  1
  Sc  Sc1  1  0.250000  0.624651  0.521597  1
  Sc  Sc2  1  0.750000  0.124651  0.978403  1
  Sc  Sc3  1  0.750000  0.375349  0.478403  1
  Sc  Sc4  1  0.250000  0.921775  0.598945  1
  Sc  Sc5  1  0.250000  0.578225  0.098945  1
  Sc  Sc6  1  0.750000  0.078225  0.401055  1
  Sc  Sc7  1  0.750000  0.421775  0.901055  1
  Sc  Sc8  1  0.250000  0.658235  0.800183  1
  Sc  Sc9  1  0.250000  0.841765  0.300183  1
  Sc  Sc10  1  0.750000  0.341765  0.199817  1
  Sc  Sc11  1  0.750000  0.158235  0.699817  1
  Si  Si12  1  0.250000  0.019011  0.825290  1
  Si  Si13  1  0.250000  0.480989  0.325290  1
  Si  Si14  1  0.750000  0.980989  0.174710  1
  Si  Si15  1  0.750000  0.519011  0.674710  1
  Si  Si16  1  0.250000  0.247916  0.845010  1
  Si  Si17  1  0.250000  0.252084  0.345010  1
  Si  Si18  1  0.750000  0.752084  0.154990  1
  Si  Si19  1  0.750000  0.747916  0.654990  1
  Si  Si20  1  0.250000  0.189051  0.541561  1
  Si  Si21  1  0.250000  0.310949  0.041561  1
  Si  Si22  1  0.750000  0.810949  0.458439  1
  Si  Si23  1  0.750000  0.689051  0.958439  1
  Pd  Pd24  1  0.250000  0.386488  0.678931  1
  Pd  Pd25  1  0.250000  0.113512  0.178931  1
  Pd  Pd26  1  0.750000  0.613512  0.321069  1
  Pd  Pd27  1  0.750000  0.886488  0.821069  1
