# generated using pymatgen
data_ErPa5(Co3P2)6
_symmetry_space_group_name_H-M   'P 1'
_cell_length_a   3.76260200
_cell_length_b   10.38515159
_cell_length_c   12.25191951
_cell_angle_alpha   90.16612467
_cell_angle_beta   90.00000000
_cell_angle_gamma   90.00000000
_symmetry_Int_Tables_number   1
_chemical_formula_structural   ErPa5(Co3P2)6
_chemical_formula_sum   'Er1 Pa5 Co18 P12'
_cell_volume   478.74409675
_cell_formula_units_Z   1
loop_
 _symmetry_equiv_pos_site_id
 _symmetry_equiv_pos_as_xyz
  1  'x, y, z'
loop_
 _atom_site_type_symbol
 _atom_site_label
 _atom_site_symmetry_multiplicity
 _atom_site_fract_x
 _atom_site_fract_y
 _atom_site_fract_z
 _atom_site_occupancy
  Er  Er0  1  0.750000  0.437429  0.206381  1
  Pa  Pa1  1  0.750000  0.251356  0.474502  1
  Pa  Pa2  1  0.250000  0.749068  0.523210  1
  Pa  Pa3  1  0.250000  0.934324  0.792938  1
  Pa  Pa4  1  0.250000  0.565157  0.791210  1
  Pa  Pa5  1  0.750000  0.067793  0.208843  1
  Co  Co6  1  0.250000  0.249826  0.840270  1
  Co  Co7  1  0.750000  0.749559  0.158419  1
  Co  Co8  1  0.250000  0.244283  0.301508  1
  Co  Co9  1  0.750000  0.749275  0.701211  1
  Co  Co10  1  0.750000  0.250474  0.021481  1
  Co  Co11  1  0.250000  0.749283  0.980357  1
  Co  Co12  1  0.250000  0.416581  0.005692  1
  Co  Co13  1  0.250000  0.085495  0.007242  1
  Co  Co14  1  0.750000  0.583814  0.993016  1
  Co  Co15  1  0.750000  0.917479  0.994166  1
  Co  Co16  1  0.250000  0.447634  0.568152  1
  Co  Co17  1  0.250000  0.051694  0.571076  1
  Co  Co18  1  0.750000  0.551900  0.429381  1
  Co  Co19  1  0.750000  0.945593  0.429640  1
  Co  Co20  1  0.250000  0.872413  0.285821  1
  Co  Co21  1  0.250000  0.630543  0.287037  1
  Co  Co22  1  0.750000  0.127937  0.714469  1
  Co  Co23  1  0.750000  0.371926  0.713342  1
  P  P24  1  0.250000  0.253924  0.122105  1
  P  P25  1  0.750000  0.750103  0.881440  1
  P  P26  1  0.250000  0.249914  0.657908  1
  P  P27  1  0.750000  0.748291  0.340367  1
  P  P28  1  0.250000  0.441073  0.380999  1
  P  P29  1  0.250000  0.056182  0.388318  1
  P  P30  1  0.750000  0.558271  0.611848  1
  P  P31  1  0.750000  0.940488  0.613533  1
  P  P32  1  0.250000  0.900952  0.103173  1
  P  P33  1  0.250000  0.598323  0.105709  1
  P  P34  1  0.750000  0.101566  0.897867  1
  P  P35  1  0.750000  0.400082  0.897371  1
