# generated using pymatgen
data_LiSc2(AsRh)3
_symmetry_space_group_name_H-M   'P 1'
_cell_length_a   6.61055931
_cell_length_b   6.61055918
_cell_length_c   3.86264500
_cell_angle_alpha   90.00000000
_cell_angle_beta   90.00000000
_cell_angle_gamma   119.65928331
_symmetry_Int_Tables_number   1
_chemical_formula_structural   LiSc2(AsRh)3
_chemical_formula_sum   'Li1 Sc2 As3 Rh3'
_cell_volume   146.68059859
_cell_formula_units_Z   1
loop_
 _symmetry_equiv_pos_site_id
 _symmetry_equiv_pos_as_xyz
  1  'x, y, z'
loop_
 _atom_site_type_symbol
 _atom_site_label
 _atom_site_symmetry_multiplicity
 _atom_site_fract_x
 _atom_site_fract_y
 _atom_site_fract_z
 _atom_site_occupancy
  Li  Li0  1  0.416634  0.416634  0.500000  1
  Sc  Sc1  1  0.582548  0.999470  0.500000  1
  Sc  Sc2  1  0.999470  0.582548  0.500000  1
  As  As3  1  0.015042  0.015042  0.500000  1
  As  As4  1  0.657997  0.335641  0.000000  1
  As  As5  1  0.335641  0.657997  0.000000  1
  Rh  Rh6  1  0.758848  0.758848  0.000000  1
  Rh  Rh7  1  0.242958  0.990861  0.000000  1
  Rh  Rh8  1  0.990861  0.242958  0.000000  1
