# generated using pymatgen
data_Ho3Er5Mn2(B12Rh)2
_symmetry_space_group_name_H-M   'P 1'
_cell_length_a   3.59975800
_cell_length_b   9.08407534
_cell_length_c   11.45889907
_cell_angle_alpha   90.21583363
_cell_angle_beta   90.00000000
_cell_angle_gamma   90.00000000
_symmetry_Int_Tables_number   1
_chemical_formula_structural   Ho3Er5Mn2(B12Rh)2
_chemical_formula_sum   'Ho3 Er5 Mn2 B24 Rh2'
_cell_volume   374.70875959
_cell_formula_units_Z   1
loop_
 _symmetry_equiv_pos_site_id
 _symmetry_equiv_pos_as_xyz
  1  'x, y, z'
loop_
 _atom_site_type_symbol
 _atom_site_label
 _atom_site_symmetry_multiplicity
 _atom_site_fract_x
 _atom_site_fract_y
 _atom_site_fract_z
 _atom_site_occupancy
  Ho  Ho0  1  0.500000  0.318408  0.410402  1
  Ho  Ho1  1  0.500000  0.681563  0.589582  1
  Ho  Ho2  1  0.500000  0.171759  0.917503  1
  Er  Er3  1  0.500000  0.828164  0.082442  1
  Er  Er4  1  0.500000  0.439598  0.126581  1
  Er  Er5  1  0.500000  0.560576  0.873525  1
  Er  Er6  1  0.500000  0.052201  0.630025  1
  Er  Er7  1  0.500000  0.947693  0.369900  1
  Mn  Mn8  1  0.500000  0.139248  0.179731  1
  Mn  Mn9  1  0.500000  0.860573  0.820326  1
  B  B10  1  0.000000  0.107590  0.470802  1
  B  B11  1  0.000000  0.892359  0.529143  1
  B  B12  1  0.000000  0.392217  0.970292  1
  B  B13  1  0.000000  0.608164  0.029814  1
  B  B14  1  0.000000  0.132464  0.313229  1
  B  B15  1  0.000000  0.867433  0.686741  1
  B  B16  1  0.000000  0.367199  0.816935  1
  B  B17  1  0.000000  0.633082  0.182957  1
  B  B18  1  0.000000  0.053535  0.068069  1
  B  B19  1  0.000000  0.946148  0.932111  1
  B  B20  1  0.000000  0.446026  0.566181  1
  B  B21  1  0.000000  0.554029  0.433787  1
  B  B22  1  0.000000  0.482692  0.287081  1
  B  B23  1  0.000000  0.517423  0.712932  1
  B  B24  1  0.000000  0.013798  0.788279  1
  B  B25  1  0.000000  0.985890  0.211663  1
  B  B26  1  0.000000  0.246055  0.082095  1
  B  B27  1  0.000000  0.753942  0.918175  1
  B  B28  1  0.000000  0.250069  0.578989  1
  B  B29  1  0.000000  0.749897  0.420954  1
  B  B30  1  0.000000  0.290801  0.233546  1
  B  B31  1  0.000000  0.709214  0.766528  1
  B  B32  1  0.000000  0.207053  0.735485  1
  B  B33  1  0.000000  0.793061  0.264306  1
  Rh  Rh34  1  0.500000  0.361346  0.679082  1
  Rh  Rh35  1  0.500000  0.638731  0.320806  1
