# generated using pymatgen
data_Er5Tm(Cd3C)2
_symmetry_space_group_name_H-M   'P 1'
_cell_length_a   9.50096656
_cell_length_b   9.49606436
_cell_length_c   9.50098032
_cell_angle_alpha   119.98146362
_cell_angle_beta   90.06306715
_cell_angle_gamma   119.98144840
_symmetry_Int_Tables_number   1
_chemical_formula_structural   Er5Tm(Cd3C)2
_chemical_formula_sum   'Er10 Tm2 Cd12 C4'
_cell_volume   606.13448681
_cell_formula_units_Z   2
loop_
 _symmetry_equiv_pos_site_id
 _symmetry_equiv_pos_as_xyz
  1  'x, y, z'
loop_
 _atom_site_type_symbol
 _atom_site_label
 _atom_site_symmetry_multiplicity
 _atom_site_fract_x
 _atom_site_fract_y
 _atom_site_fract_z
 _atom_site_occupancy
  Er  Er0  1  0.936455  0.372667  0.186417  1
  Er  Er1  1  0.936491  0.750254  0.186457  1
  Er  Er2  1  0.686260  0.249757  0.436201  1
  Er  Er3  1  0.686276  0.872690  0.436214  1
  Er  Er4  1  0.313546  0.127295  0.563532  1
  Er  Er5  1  0.313562  0.749796  0.563528  1
  Er  Er6  1  0.936336  0.749996  0.563684  1
  Er  Er7  1  0.686314  0.250006  0.813697  1
  Er  Er8  1  0.063807  0.627372  0.813759  1
  Er  Er9  1  0.063763  0.250186  0.813720  1
  Tm  Tm10  1  0.313512  0.749990  0.186483  1
  Tm  Tm11  1  0.063504  0.249993  0.436487  1
  Cd  Cd12  1  0.000047  0.000071  0.000115  1
  Cd  Cd13  1  0.499959  0.999908  0.000030  1
  Cd  Cd14  1  0.499945  0.500094  0.000039  1
  Cd  Cd15  1  0.708880  0.917659  0.126486  1
  Cd  Cd16  1  0.291197  0.082289  0.208816  1
  Cd  Cd17  1  0.291187  0.417720  0.208809  1
  Cd  Cd18  1  0.626277  0.417528  0.208761  1
  Cd  Cd19  1  0.499881  0.499926  0.499963  1
  Cd  Cd20  1  0.373486  0.582290  0.791099  1
  Cd  Cd21  1  0.708762  0.582490  0.791252  1
  Cd  Cd22  1  0.708742  0.917531  0.791259  1
  Cd  Cd23  1  0.291226  0.082489  0.873749  1
  C  C24  1  0.000578  0.500426  0.000284  1
  C  C25  1  0.000142  0.000424  0.499855  1
  C  C26  1  0.499735  0.999592  0.499454  1
  C  C27  1  0.000136  0.499575  0.499856  1
