# generated using pymatgen
data_Rb6Co3RhBr18
_symmetry_space_group_name_H-M   'P 1'
_cell_length_a   7.49578400
_cell_length_b   7.49578455
_cell_length_c   18.91541300
_cell_angle_alpha   90.00000000
_cell_angle_beta   90.00000000
_cell_angle_gamma   119.99999757
_symmetry_Int_Tables_number   1
_chemical_formula_structural   Rb6Co3RhBr18
_chemical_formula_sum   'Rb6 Co3 Rh1 Br18'
_cell_volume   920.40851748
_cell_formula_units_Z   1
loop_
 _symmetry_equiv_pos_site_id
 _symmetry_equiv_pos_as_xyz
  1  'x, y, z'
loop_
 _atom_site_type_symbol
 _atom_site_label
 _atom_site_symmetry_multiplicity
 _atom_site_fract_x
 _atom_site_fract_y
 _atom_site_fract_z
 _atom_site_occupancy
  Rb  Rb0  1  0.666667  0.333333  0.565244  1
  Rb  Rb1  1  0.333333  0.666667  0.065992  1
  Rb  Rb2  1  0.333333  0.666667  0.434088  1
  Rb  Rb3  1  0.666667  0.333333  0.935494  1
  Rb  Rb4  1  0.000000  0.000000  0.250206  1
  Rb  Rb5  1  0.000000  0.000000  0.749100  1
  Co  Co6  1  0.666667  0.333333  0.332928  1
  Co  Co7  1  0.333333  0.666667  0.835447  1
  Co  Co8  1  0.666667  0.333333  0.166529  1
  Rh  Rh9  1  0.333333  0.666667  0.666101  1
  Br  Br10  1  0.819206  0.638411  0.403993  1
  Br  Br11  1  0.175807  0.824193  0.591410  1
  Br  Br12  1  0.648386  0.824193  0.591410  1
  Br  Br13  1  0.819206  0.180794  0.403993  1
  Br  Br14  1  0.361589  0.180794  0.403993  1
  Br  Br15  1  0.180568  0.361137  0.905932  1
  Br  Br16  1  0.035568  0.517784  0.753104  1
  Br  Br17  1  0.638863  0.819432  0.905932  1
  Br  Br18  1  0.819358  0.638714  0.095478  1
  Br  Br19  1  0.175807  0.351614  0.591410  1
  Br  Br20  1  0.482216  0.964432  0.753104  1
  Br  Br21  1  0.521077  0.478923  0.249707  1
  Br  Br22  1  0.482216  0.517784  0.753104  1
  Br  Br23  1  0.180568  0.819432  0.905932  1
  Br  Br24  1  0.361286  0.180642  0.095478  1
  Br  Br25  1  0.957847  0.478923  0.249707  1
  Br  Br26  1  0.521077  0.042153  0.249707  1
  Br  Br27  1  0.819358  0.180642  0.095478  1
