# generated using pymatgen
data_GdBi5(WO7)2
_symmetry_space_group_name_H-M   'P 1'
_cell_length_a   6.56825450
_cell_length_b   6.99907214
_cell_length_c   7.65715200
_cell_angle_alpha   106.05403565
_cell_angle_beta   89.57171619
_cell_angle_gamma   102.13760115
_symmetry_Int_Tables_number   1
_chemical_formula_structural   GdBi5(WO7)2
_chemical_formula_sum   'Gd1 Bi5 W2 O14'
_cell_volume   330.24064495
_cell_formula_units_Z   1
loop_
 _symmetry_equiv_pos_site_id
 _symmetry_equiv_pos_as_xyz
  1  'x, y, z'
loop_
 _atom_site_type_symbol
 _atom_site_label
 _atom_site_symmetry_multiplicity
 _atom_site_fract_x
 _atom_site_fract_y
 _atom_site_fract_z
 _atom_site_occupancy
  Gd  Gd0  1  0.540201  0.006122  0.746741  1
  Bi  Bi1  1  0.477652  0.992576  0.255988  1
  Bi  Bi2  1  0.268989  0.504721  0.875830  1
  Bi  Bi3  1  0.744153  0.491891  0.125766  1
  Bi  Bi4  1  0.747434  0.535054  0.633869  1
  Bi  Bi5  1  0.256962  0.463274  0.371346  1
  W  W6  1  0.003101  0.999848  0.500485  1
  W  W7  1  0.000831  0.002414  0.998746  1
  O  O8  1  0.470550  0.633352  0.182427  1
  O  O9  1  0.536377  0.351124  0.816627  1
  O  O10  1  0.269898  0.953971  0.935617  1
  O  O11  1  0.714626  0.051583  0.044112  1
  O  O12  1  0.275260  0.951690  0.527173  1
  O  O13  1  0.718992  0.049167  0.476852  1
  O  O14  1  0.534605  0.338500  0.359862  1
  O  O15  1  0.469926  0.657353  0.644316  1
  O  O16  1  0.890285  0.696531  0.959288  1
  O  O17  1  0.099461  0.309736  0.040793  1
  O  O18  1  0.098516  0.307439  0.616499  1
  O  O19  1  0.901417  0.692995  0.387678  1
  O  O20  1  0.891597  0.928250  0.730600  1
  O  O21  1  0.089167  0.082408  0.269385  1
