# generated using pymatgen
data_Li12Ca6InAu3N
_symmetry_space_group_name_H-M   'P 1'
_cell_length_a   8.63440746
_cell_length_b   8.59596250
_cell_length_c   8.59596141
_cell_angle_alpha   109.38043937
_cell_angle_beta   109.56184052
_cell_angle_gamma   109.56185615
_symmetry_Int_Tables_number   1
_chemical_formula_structural   Li12Ca6InAu3N
_chemical_formula_sum   'Li12 Ca6 In1 Au3 N1'
_cell_volume   490.58318699
_cell_formula_units_Z   1
loop_
 _symmetry_equiv_pos_site_id
 _symmetry_equiv_pos_as_xyz
  1  'x, y, z'
loop_
 _atom_site_type_symbol
 _atom_site_label
 _atom_site_symmetry_multiplicity
 _atom_site_fract_x
 _atom_site_fract_y
 _atom_site_fract_z
 _atom_site_occupancy
  Li  Li0  1  0.679877  0.346087  0.346087  1
  Li  Li1  1  0.333791  0.000000  0.653913  1
  Li  Li2  1  0.335437  0.670872  0.335437  1
  Li  Li3  1  0.335437  0.335437  0.670872  1
  Li  Li4  1  0.333791  0.653913  0.000000  1
  Li  Li5  1  0.000000  0.335437  0.664563  1
  Li  Li6  1  0.000000  0.664563  0.335437  1
  Li  Li7  1  0.664563  0.664563  0.329128  1
  Li  Li8  1  0.666209  0.000000  0.346087  1
  Li  Li9  1  0.666209  0.346087  0.000000  1
  Li  Li10  1  0.664563  0.329128  0.664563  1
  Li  Li11  1  0.320123  0.653913  0.653913  1
  Ca  Ca12  1  0.000633  0.245725  0.245725  1
  Ca  Ca13  1  0.245091  0.000000  0.245725  1
  Ca  Ca14  1  0.754909  0.000000  0.754275  1
  Ca  Ca15  1  0.754909  0.754275  0.000000  1
  Ca  Ca16  1  0.245091  0.245725  0.000000  1
  Ca  Ca17  1  0.999367  0.754275  0.754275  1
  In  In18  1  0.500000  0.000000  0.000000  1
  Au  Au19  1  0.500000  0.500000  0.500000  1
  Au  Au20  1  0.000000  0.500000  0.000000  1
  Au  Au21  1  0.000000  0.000000  0.500000  1
  N  N22  1  0.000000  0.000000  0.000000  1
