# generated using pymatgen
data_Er12Si12RuRh3
_symmetry_space_group_name_H-M   'P 1'
_cell_length_a   4.19097400
_cell_length_b   10.63220704
_cell_length_c   12.25919640
_cell_angle_alpha   90.02074070
_cell_angle_beta   90.00000000
_cell_angle_gamma   90.00000000
_symmetry_Int_Tables_number   1
_chemical_formula_structural   Er12Si12RuRh3
_chemical_formula_sum   'Er12 Si12 Ru1 Rh3'
_cell_volume   546.26121436
_cell_formula_units_Z   1
loop_
 _symmetry_equiv_pos_site_id
 _symmetry_equiv_pos_as_xyz
  1  'x, y, z'
loop_
 _atom_site_type_symbol
 _atom_site_label
 _atom_site_symmetry_multiplicity
 _atom_site_fract_x
 _atom_site_fract_y
 _atom_site_fract_z
 _atom_site_occupancy
  Er  Er0  1  0.250000  0.878135  0.019791  1
  Er  Er1  1  0.250000  0.620348  0.520657  1
  Er  Er2  1  0.750000  0.120978  0.980109  1
  Er  Er3  1  0.750000  0.378551  0.480573  1
  Er  Er4  1  0.250000  0.920866  0.603594  1
  Er  Er5  1  0.250000  0.579480  0.104446  1
  Er  Er6  1  0.750000  0.079370  0.396146  1
  Er  Er7  1  0.750000  0.420877  0.895971  1
  Er  Er8  1  0.250000  0.661008  0.799337  1
  Er  Er9  1  0.250000  0.839636  0.300285  1
  Er  Er10  1  0.750000  0.339818  0.199344  1
  Er  Er11  1  0.750000  0.159792  0.699727  1
  Si  Si12  1  0.250000  0.014417  0.822772  1
  Si  Si13  1  0.250000  0.485291  0.322511  1
  Si  Si14  1  0.750000  0.985636  0.177396  1
  Si  Si15  1  0.750000  0.512233  0.678979  1
  Si  Si16  1  0.250000  0.249242  0.840579  1
  Si  Si17  1  0.250000  0.251666  0.341642  1
  Si  Si18  1  0.750000  0.751902  0.158110  1
  Si  Si19  1  0.750000  0.749172  0.657727  1
  Si  Si20  1  0.250000  0.200064  0.543156  1
  Si  Si21  1  0.250000  0.301617  0.041606  1
  Si  Si22  1  0.750000  0.802188  0.458047  1
  Si  Si23  1  0.750000  0.696879  0.957581  1
  Ru  Ru24  1  0.250000  0.391303  0.680394  1
  Rh  Rh25  1  0.250000  0.109694  0.180725  1
  Rh  Rh26  1  0.750000  0.609826  0.319416  1
  Rh  Rh27  1  0.750000  0.890009  0.819377  1
