# generated using pymatgen
data_Y2Tc2Ge2C
_symmetry_space_group_name_H-M   'P 1'
_cell_length_a   5.86821256
_cell_length_b   5.86821235
_cell_length_c   7.02712826
_cell_angle_alpha   123.56272448
_cell_angle_beta   123.56272144
_cell_angle_gamma   40.32666598
_symmetry_Int_Tables_number   1
_chemical_formula_structural   Y2Tc2Ge2C
_chemical_formula_sum   'Y2 Tc2 Ge2 C1'
_cell_volume   126.55981855
_cell_formula_units_Z   1
loop_
 _symmetry_equiv_pos_site_id
 _symmetry_equiv_pos_as_xyz
  1  'x, y, z'
loop_
 _atom_site_type_symbol
 _atom_site_label
 _atom_site_symmetry_multiplicity
 _atom_site_fract_x
 _atom_site_fract_y
 _atom_site_fract_z
 _atom_site_occupancy
  Y  Y0  1  0.567229  0.567229  0.292773  1
  Y  Y1  1  0.432771  0.432771  0.707228  1
  Tc  Tc2  1  0.201532  0.201532  0.086922  1
  Tc  Tc3  1  0.798468  0.798468  0.913079  1
  Ge  Ge4  1  0.852322  0.852322  0.317250  1
  Ge  Ge5  1  0.147678  0.147678  0.682751  1
  C  C6  1  0.000000  0.000000  0.000000  1
