# generated using pymatgen
data_Ce2Fe2P2C
_symmetry_space_group_name_H-M   'P 1'
_cell_length_a   5.65425305
_cell_length_b   5.65425262
_cell_length_c   6.75124680
_cell_angle_alpha   124.44198959
_cell_angle_beta   124.44199070
_cell_angle_gamma   39.37506657
_symmetry_Int_Tables_number   1
_chemical_formula_structural   Ce2Fe2P2C
_chemical_formula_sum   'Ce2 Fe2 P2 C1'
_cell_volume   109.47230365
_cell_formula_units_Z   1
loop_
 _symmetry_equiv_pos_site_id
 _symmetry_equiv_pos_as_xyz
  1  'x, y, z'
loop_
 _atom_site_type_symbol
 _atom_site_label
 _atom_site_symmetry_multiplicity
 _atom_site_fract_x
 _atom_site_fract_y
 _atom_site_fract_z
 _atom_site_occupancy
  Ce  Ce0  1  0.559405  0.559405  0.308727  1
  Ce  Ce1  1  0.440595  0.440595  0.691273  1
  Fe  Fe2  1  0.192877  0.192877  0.072927  1
  Fe  Fe3  1  0.807123  0.807123  0.927074  1
  P  P4  1  0.813401  0.813401  0.268195  1
  P  P5  1  0.186601  0.186601  0.731806  1
  C  C6  1  0.000000  0.000000  0.000000  1
