# generated using pymatgen
data_DyTm3MnB12Os
_symmetry_space_group_name_H-M   'P 1'
_cell_length_a   3.57999700
_cell_length_b   9.05944072
_cell_length_c   11.43846911
_cell_angle_alpha   90.05056771
_cell_angle_beta   90.00000000
_cell_angle_gamma   90.00000000
_symmetry_Int_Tables_number   1
_chemical_formula_structural   DyTm3MnB12Os
_chemical_formula_sum   'Dy2 Tm6 Mn2 B24 Os2'
_cell_volume   370.98110011
_cell_formula_units_Z   2
loop_
 _symmetry_equiv_pos_site_id
 _symmetry_equiv_pos_as_xyz
  1  'x, y, z'
loop_
 _atom_site_type_symbol
 _atom_site_label
 _atom_site_symmetry_multiplicity
 _atom_site_fract_x
 _atom_site_fract_y
 _atom_site_fract_z
 _atom_site_occupancy
  Dy  Dy0  1  0.000000  0.326084  0.415777  1
  Dy  Dy1  1  0.000000  0.673916  0.584223  1
  Tm  Tm2  1  0.000000  0.820095  0.087595  1
  Tm  Tm3  1  0.000000  0.179905  0.912405  1
  Tm  Tm4  1  0.000000  0.939708  0.370956  1
  Tm  Tm5  1  0.000000  0.060292  0.629045  1
  Tm  Tm6  1  0.000000  0.445914  0.130951  1
  Tm  Tm7  1  0.000000  0.554086  0.869048  1
  Mn  Mn8  1  0.000000  0.638748  0.319565  1
  Mn  Mn9  1  0.000000  0.361252  0.680435  1
  B  B10  1  0.500000  0.554311  0.431841  1
  B  B11  1  0.500000  0.445689  0.568159  1
  B  B12  1  0.500000  0.053236  0.066539  1
  B  B13  1  0.500000  0.946764  0.933461  1
  B  B14  1  0.500000  0.746681  0.417401  1
  B  B15  1  0.500000  0.253319  0.582599  1
  B  B16  1  0.500000  0.249590  0.080695  1
  B  B17  1  0.500000  0.750410  0.919305  1
  B  B18  1  0.500000  0.789910  0.265765  1
  B  B19  1  0.500000  0.210090  0.734235  1
  B  B20  1  0.500000  0.292017  0.234737  1
  B  B21  1  0.500000  0.707982  0.765263  1
  B  B22  1  0.500000  0.631415  0.186226  1
  B  B23  1  0.500000  0.368585  0.813774  1
  B  B24  1  0.500000  0.130401  0.314793  1
  B  B25  1  0.500000  0.869599  0.685207  1
  B  B26  1  0.500000  0.981034  0.212484  1
  B  B27  1  0.500000  0.018966  0.787516  1
  B  B28  1  0.500000  0.485432  0.288177  1
  B  B29  1  0.500000  0.514568  0.711823  1
  B  B30  1  0.500000  0.603317  0.028562  1
  B  B31  1  0.500000  0.396683  0.971438  1
  B  B32  1  0.500000  0.102688  0.471605  1
  B  B33  1  0.500000  0.897312  0.528395  1
  Os  Os34  1  0.000000  0.137541  0.178439  1
  Os  Os35  1  0.000000  0.862459  0.821561  1
