# generated using pymatgen
data_LiY4CrC8
_symmetry_space_group_name_H-M   'P 1'
_cell_length_a   6.66631115
_cell_length_b   6.66631098
_cell_length_c   6.66630996
_cell_angle_alpha   134.09503688
_cell_angle_beta   109.02020756
_cell_angle_gamma   88.75359527
_symmetry_Int_Tables_number   1
_chemical_formula_structural   LiY4CrC8
_chemical_formula_sum   'Li1 Y4 Cr1 C8'
_cell_volume   191.75626769
_cell_formula_units_Z   1
loop_
 _symmetry_equiv_pos_site_id
 _symmetry_equiv_pos_as_xyz
  1  'x, y, z'
loop_
 _atom_site_type_symbol
 _atom_site_label
 _atom_site_symmetry_multiplicity
 _atom_site_fract_x
 _atom_site_fract_y
 _atom_site_fract_z
 _atom_site_occupancy
  Li  Li0  1  0.000000  0.250000  0.250000  1
  Y  Y1  1  0.201929  0.352035  0.844934  1
  Y  Y2  1  0.798071  0.643005  0.150106  1
  Y  Y3  1  0.507099  0.856995  0.655066  1
  Y  Y4  1  0.492901  0.147965  0.349894  1
  Cr  Cr5  1  0.000000  0.750000  0.750000  1
  C  C6  1  0.786420  0.129847  0.659735  1
  C  C7  1  0.213580  0.873313  0.343425  1
  C  C8  1  0.470111  0.626687  0.840265  1
  C  C9  1  0.529889  0.370153  0.156575  1
  C  C10  1  0.901284  0.022896  0.757722  1
  C  C11  1  0.098716  0.856437  0.121612  1
  C  C12  1  0.265175  0.643563  0.742278  1
  C  C13  1  0.734825  0.477104  0.378388  1
