# generated using pymatgen
data_NaEr4Bi3C
_symmetry_space_group_name_H-M   'P 1'
_cell_length_a   9.05255200
_cell_length_b   9.05255200
_cell_length_c   6.49291800
_cell_angle_alpha   90.00000000
_cell_angle_beta   90.00000000
_cell_angle_gamma   120.00000000
_symmetry_Int_Tables_number   1
_chemical_formula_structural   NaEr4Bi3C
_chemical_formula_sum   'Na2 Er8 Bi6 C2'
_cell_volume   460.80014402
_cell_formula_units_Z   2
loop_
 _symmetry_equiv_pos_site_id
 _symmetry_equiv_pos_as_xyz
  1  'x, y, z'
loop_
 _atom_site_type_symbol
 _atom_site_label
 _atom_site_symmetry_multiplicity
 _atom_site_fract_x
 _atom_site_fract_y
 _atom_site_fract_z
 _atom_site_occupancy
  Na  Na0  1  0.666667  0.333333  0.000000  1
  Na  Na1  1  0.333333  0.666667  0.000000  1
  Er  Er2  1  0.333333  0.666667  0.500000  1
  Er  Er3  1  0.666667  0.333333  0.500000  1
  Er  Er4  1  0.792702  0.792702  0.750167  1
  Er  Er5  1  0.207298  0.000000  0.750167  1
  Er  Er6  1  0.000000  0.207298  0.750167  1
  Er  Er7  1  0.207298  0.207298  0.249833  1
  Er  Er8  1  0.792702  0.000000  0.249833  1
  Er  Er9  1  0.000000  0.792702  0.249833  1
  Bi  Bi10  1  0.401586  0.401586  0.750018  1
  Bi  Bi11  1  0.598414  0.000000  0.750018  1
  Bi  Bi12  1  0.000000  0.598414  0.750018  1
  Bi  Bi13  1  0.598414  0.598414  0.249982  1
  Bi  Bi14  1  0.401586  0.000000  0.249982  1
  Bi  Bi15  1  0.000000  0.401586  0.249982  1
  C  C16  1  0.000000  0.000000  0.000000  1
  C  C17  1  0.000000  0.000000  0.500000  1
