# generated using pymatgen
data_La3Tb2(IrO6)2
_symmetry_space_group_name_H-M   'P 1'
_cell_length_a   7.09838984
_cell_length_b   7.09839130
_cell_length_c   7.53687797
_cell_angle_alpha   73.87515441
_cell_angle_beta   73.87515110
_cell_angle_gamma   51.39238936
_symmetry_Int_Tables_number   1
_chemical_formula_structural   La3Tb2(IrO6)2
_chemical_formula_sum   'La3 Tb2 Ir2 O12'
_cell_volume   282.31321035
_cell_formula_units_Z   1
loop_
 _symmetry_equiv_pos_site_id
 _symmetry_equiv_pos_as_xyz
  1  'x, y, z'
loop_
 _atom_site_type_symbol
 _atom_site_label
 _atom_site_symmetry_multiplicity
 _atom_site_fract_x
 _atom_site_fract_y
 _atom_site_fract_z
 _atom_site_occupancy
  La  La0  1  0.694832  0.694832  0.168449  1
  La  La1  1  0.305168  0.305168  0.831551  1
  La  La2  1  0.000000  0.000000  0.500000  1
  Tb  Tb3  1  0.302109  0.302109  0.360905  1
  Tb  Tb4  1  0.697891  0.697891  0.639095  1
  Ir  Ir5  1  0.751873  0.248127  0.000000  1
  Ir  Ir6  1  0.248127  0.751873  0.000000  1
  O  O7  1  0.090178  0.597015  0.567632  1
  O  O8  1  0.002113  0.002113  0.165130  1
  O  O9  1  0.402985  0.909822  0.432368  1
  O  O10  1  0.497736  0.497736  0.178938  1
  O  O11  1  0.108037  0.565883  0.090370  1
  O  O12  1  0.909822  0.402985  0.432368  1
  O  O13  1  0.997887  0.997887  0.834870  1
  O  O14  1  0.597015  0.090177  0.567632  1
  O  O15  1  0.502264  0.502264  0.821062  1
  O  O16  1  0.565883  0.108037  0.090370  1
  O  O17  1  0.434117  0.891963  0.909630  1
  O  O18  1  0.891963  0.434117  0.909630  1
