# generated using pymatgen
data_Pr5(Sn5Pd2)2
_symmetry_space_group_name_H-M   'P 1'
_cell_length_a   14.33375500
_cell_length_b   14.33375500
_cell_length_c   4.68798800
_cell_angle_alpha   90.00000000
_cell_angle_beta   90.00000000
_cell_angle_gamma   90.00000000
_symmetry_Int_Tables_number   1
_chemical_formula_structural   Pr5(Sn5Pd2)2
_chemical_formula_sum   'Pr10 Sn20 Pd8'
_cell_volume   963.17775841
_cell_formula_units_Z   2
loop_
 _symmetry_equiv_pos_site_id
 _symmetry_equiv_pos_as_xyz
  1  'x, y, z'
loop_
 _atom_site_type_symbol
 _atom_site_label
 _atom_site_symmetry_multiplicity
 _atom_site_fract_x
 _atom_site_fract_y
 _atom_site_fract_z
 _atom_site_occupancy
  Pr  Pr0  1  0.500000  0.500000  0.000000  1
  Pr  Pr1  1  0.000000  0.000000  0.000000  1
  Pr  Pr2  1  0.679036  0.179036  0.500000  1
  Pr  Pr3  1  0.320964  0.820964  0.500000  1
  Pr  Pr4  1  0.179036  0.320964  0.500000  1
  Pr  Pr5  1  0.820964  0.679036  0.500000  1
  Pr  Pr6  1  0.891220  0.391220  0.500000  1
  Pr  Pr7  1  0.108780  0.608780  0.500000  1
  Pr  Pr8  1  0.391220  0.108780  0.500000  1
  Pr  Pr9  1  0.608780  0.891220  0.500000  1
  Sn  Sn10  1  0.568880  0.068880  0.000000  1
  Sn  Sn11  1  0.431120  0.931120  0.000000  1
  Sn  Sn12  1  0.068880  0.431120  0.000000  1
  Sn  Sn13  1  0.931120  0.568880  0.000000  1
  Sn  Sn14  1  0.654127  0.699461  0.000000  1
  Sn  Sn15  1  0.345873  0.300539  0.000000  1
  Sn  Sn16  1  0.154127  0.800539  0.000000  1
  Sn  Sn17  1  0.845873  0.199461  0.000000  1
  Sn  Sn18  1  0.300539  0.654127  0.000000  1
  Sn  Sn19  1  0.699461  0.345873  0.000000  1
  Sn  Sn20  1  0.199461  0.154127  0.000000  1
  Sn  Sn21  1  0.800539  0.845873  0.000000  1
  Sn  Sn22  1  0.661869  0.502303  0.500000  1
  Sn  Sn23  1  0.338131  0.497697  0.500000  1
  Sn  Sn24  1  0.161869  0.997697  0.500000  1
  Sn  Sn25  1  0.838131  0.002303  0.500000  1
  Sn  Sn26  1  0.497697  0.661869  0.500000  1
  Sn  Sn27  1  0.502303  0.338131  0.500000  1
  Sn  Sn28  1  0.002303  0.161869  0.500000  1
  Sn  Sn29  1  0.997697  0.838131  0.500000  1
  Pd  Pd30  1  0.745682  0.528890  0.000000  1
  Pd  Pd31  1  0.254318  0.471110  0.000000  1
  Pd  Pd32  1  0.245682  0.971110  0.000000  1
  Pd  Pd33  1  0.754318  0.028890  0.000000  1
  Pd  Pd34  1  0.471110  0.745682  0.000000  1
  Pd  Pd35  1  0.528890  0.254318  0.000000  1
  Pd  Pd36  1  0.028890  0.245682  0.000000  1
  Pd  Pd37  1  0.971110  0.754318  0.000000  1
