# generated using pymatgen
data_Sr4LaSn3H
_symmetry_space_group_name_H-M   'P 1'
_cell_length_a   9.99509623
_cell_length_b   9.99509675
_cell_length_c   9.97872685
_cell_angle_alpha   128.93551171
_cell_angle_beta   128.93551403
_cell_angle_gamma   75.23636452
_symmetry_Int_Tables_number   1
_chemical_formula_structural   Sr4LaSn3H
_chemical_formula_sum   'Sr8 La2 Sn6 H2'
_cell_volume   586.78231931
_cell_formula_units_Z   2
loop_
 _symmetry_equiv_pos_site_id
 _symmetry_equiv_pos_as_xyz
  1  'x, y, z'
loop_
 _atom_site_type_symbol
 _atom_site_label
 _atom_site_symmetry_multiplicity
 _atom_site_fract_x
 _atom_site_fract_y
 _atom_site_fract_z
 _atom_site_occupancy
  Sr  Sr0  1  0.500771  0.500771  0.000000  1
  Sr  Sr1  1  0.000771  0.000771  0.000000  1
  Sr  Sr2  1  0.011731  0.185109  0.500000  1
  Sr  Sr3  1  0.685109  0.511731  0.500000  1
  Sr  Sr4  1  0.485902  0.985902  0.174078  1
  Sr  Sr5  1  0.811823  0.311823  0.825922  1
  Sr  Sr6  1  0.986446  0.812457  0.500000  1
  Sr  Sr7  1  0.312457  0.486446  0.500000  1
  La  La8  1  0.521967  0.021967  0.835952  1
  La  La9  1  0.186016  0.686016  0.164048  1
  Sn  Sn10  1  0.255764  0.255764  0.000000  1
  Sn  Sn11  1  0.755764  0.755764  0.000000  1
  Sn  Sn12  1  0.873355  0.373355  0.252130  1
  Sn  Sn13  1  0.121225  0.621225  0.747870  1
  Sn  Sn14  1  0.371497  0.113766  0.500000  1
  Sn  Sn15  1  0.613766  0.871497  0.500000  1
  H  H16  1  0.257814  0.757814  0.500000  1
  H  H17  1  0.747821  0.247821  0.500000  1
