# generated using pymatgen
data_Yb19In(IrPd2)4
_symmetry_space_group_name_H-M   'P 1'
_cell_length_a   6.23846200
_cell_length_b   11.08311800
_cell_length_c   11.08311800
_cell_angle_alpha   90.00000000
_cell_angle_beta   90.00000000
_cell_angle_gamma   90.00000000
_symmetry_Int_Tables_number   1
_chemical_formula_structural   Yb19In(IrPd2)4
_chemical_formula_sum   'Yb19 In1 Ir4 Pd8'
_cell_volume   766.30462771
_cell_formula_units_Z   1
loop_
 _symmetry_equiv_pos_site_id
 _symmetry_equiv_pos_as_xyz
  1  'x, y, z'
loop_
 _atom_site_type_symbol
 _atom_site_label
 _atom_site_symmetry_multiplicity
 _atom_site_fract_x
 _atom_site_fract_y
 _atom_site_fract_z
 _atom_site_occupancy
  Yb  Yb0  1  0.362586  0.832646  0.542224  1
  Yb  Yb1  1  0.861276  0.666636  0.546196  1
  Yb  Yb2  1  0.861276  0.833364  0.953804  1
  Yb  Yb3  1  0.362586  0.667354  0.957776  1
  Yb  Yb4  1  0.860526  0.546808  0.833082  1
  Yb  Yb5  1  0.359636  0.952643  0.832879  1
  Yb  Yb6  1  0.359636  0.547357  0.667121  1
  Yb  Yb7  1  0.860526  0.953192  0.666918  1
  Yb  Yb8  1  0.640364  0.167121  0.452644  1
  Yb  Yb9  1  0.139474  0.333082  0.453193  1
  Yb  Yb10  1  0.139474  0.166918  0.046808  1
  Yb  Yb11  1  0.640364  0.332879  0.047357  1
  Yb  Yb12  1  0.138724  0.453805  0.166636  1
  Yb  Yb13  1  0.637414  0.042224  0.167354  1
  Yb  Yb14  1  0.637414  0.457777  0.332646  1
  Yb  Yb15  1  0.138724  0.046196  0.333364  1
  Yb  Yb16  1  0.000000  0.750000  0.250000  1
  Yb  Yb17  1  0.000000  0.250000  0.750000  1
  Yb  Yb18  1  0.500000  0.250000  0.750000  1
  In  In19  1  0.500000  0.750000  0.250000  1
  Ir  Ir20  1  0.111934  0.750000  0.750000  1
  Ir  Ir21  1  0.610765  0.750000  0.750000  1
  Ir  Ir22  1  0.888066  0.250000  0.250000  1
  Ir  Ir23  1  0.389235  0.250000  0.250000  1
  Pd  Pd24  1  0.250755  0.902610  0.097630  1
  Pd  Pd25  1  0.749245  0.597630  0.097390  1
  Pd  Pd26  1  0.749245  0.902370  0.402610  1
  Pd  Pd27  1  0.250755  0.597390  0.402370  1
  Pd  Pd28  1  0.749666  0.096145  0.903754  1
  Pd  Pd29  1  0.250334  0.403754  0.903855  1
  Pd  Pd30  1  0.250334  0.096246  0.596145  1
  Pd  Pd31  1  0.749666  0.403855  0.596246  1
