# generated using pymatgen
data_Sm9EuC4Br15
_symmetry_space_group_name_H-M   'P 1'
_cell_length_a   9.06818715
_cell_length_b   10.23627085
_cell_length_c   11.05178500
_cell_angle_alpha   69.97394877
_cell_angle_beta   66.14923594
_cell_angle_gamma   70.09335658
_symmetry_Int_Tables_number   1
_chemical_formula_structural   Sm9EuC4Br15
_chemical_formula_sum   'Sm9 Eu1 C4 Br15'
_cell_volume   856.82965689
_cell_formula_units_Z   1
loop_
 _symmetry_equiv_pos_site_id
 _symmetry_equiv_pos_as_xyz
  1  'x, y, z'
loop_
 _atom_site_type_symbol
 _atom_site_label
 _atom_site_symmetry_multiplicity
 _atom_site_fract_x
 _atom_site_fract_y
 _atom_site_fract_z
 _atom_site_occupancy
  Sm  Sm0  1  0.667222  0.255100  0.169746  1
  Sm  Sm1  1  0.165123  0.431393  0.044751  1
  Sm  Sm2  1  0.828704  0.568267  0.955491  1
  Sm  Sm3  1  0.082358  0.191022  0.885130  1
  Sm  Sm4  1  0.915464  0.806919  0.115376  1
  Sm  Sm5  1  0.246158  0.545754  0.644426  1
  Sm  Sm6  1  0.749846  0.453332  0.356948  1
  Sm  Sm7  1  0.027727  0.111304  0.262440  1
  Sm  Sm8  1  0.975613  0.886961  0.738748  1
  Eu  Eu9  1  0.347347  0.746456  0.827467  1
  C  C10  1  0.878566  0.361894  0.171685  1
  C  C11  1  0.118898  0.637890  0.828467  1
  C  C12  1  0.956915  0.298095  0.059545  1
  C  C13  1  0.041292  0.701507  0.940537  1
  Br  Br14  1  0.503352  0.495972  0.003175  1
  Br  Br15  1  0.129903  0.815461  0.470440  1
  Br  Br16  1  0.870652  0.184458  0.529752  1
  Br  Br17  1  0.245079  0.030208  0.654429  1
  Br  Br18  1  0.750445  0.977782  0.344852  1
  Br  Br19  1  0.336933  0.170763  0.215527  1
  Br  Br20  1  0.668151  0.834747  0.781847  1
  Br  Br21  1  0.449266  0.369132  0.412980  1
  Br  Br22  1  0.555382  0.623450  0.579745  1
  Br  Br23  1  0.950968  0.444893  0.701716  1
  Br  Br24  1  0.047402  0.553544  0.297252  1
  Br  Br25  1  0.210454  0.917409  0.062936  1
  Br  Br26  1  0.784135  0.086501  0.943617  1
  Br  Br27  1  0.387430  0.275476  0.815427  1
  Br  Br28  1  0.609214  0.724314  0.185545  1
