# generated using pymatgen
data_Ag3PtF8
_symmetry_space_group_name_H-M   'P 1'
_cell_length_a   5.58814842
_cell_length_b   5.72747993
_cell_length_c   5.69476535
_cell_angle_alpha   83.38553719
_cell_angle_beta   93.98127239
_cell_angle_gamma   93.42355248
_symmetry_Int_Tables_number   1
_chemical_formula_structural   Ag3PtF8
_chemical_formula_sum   'Ag3 Pt1 F8'
_cell_volume   180.37040287
_cell_formula_units_Z   1
loop_
 _symmetry_equiv_pos_site_id
 _symmetry_equiv_pos_as_xyz
  1  'x, y, z'
loop_
 _atom_site_type_symbol
 _atom_site_label
 _atom_site_symmetry_multiplicity
 _atom_site_fract_x
 _atom_site_fract_y
 _atom_site_fract_z
 _atom_site_occupancy
  Ag  Ag0  1  0.000000  0.500000  0.500000  1
  Ag  Ag1  1  0.500000  0.500000  0.000000  1
  Ag  Ag2  1  0.000000  0.000000  0.000000  1
  Pt  Pt3  1  0.500000  0.000000  0.500000  1
  F  F4  1  0.643131  0.269612  0.660361  1
  F  F5  1  0.217114  0.175134  0.366901  1
  F  F6  1  0.338312  0.864058  0.788001  1
  F  F7  1  0.843376  0.650164  0.151039  1
  F  F8  1  0.156624  0.349836  0.848961  1
  F  F9  1  0.661688  0.135942  0.211999  1
  F  F10  1  0.782886  0.824866  0.633099  1
  F  F11  1  0.356869  0.730388  0.339639  1
