# generated using pymatgen
data_CaZnPRh2
_symmetry_space_group_name_H-M   'P 1'
_cell_length_a   5.84131771
_cell_length_b   5.84131734
_cell_length_c   5.84131781
_cell_angle_alpha   138.65359478
_cell_angle_beta   138.65359279
_cell_angle_gamma   59.90345824
_symmetry_Int_Tables_number   1
_chemical_formula_structural   CaZnPRh2
_chemical_formula_sum   'Ca1 Zn1 P1 Rh2'
_cell_volume   86.09448298
_cell_formula_units_Z   1
loop_
 _symmetry_equiv_pos_site_id
 _symmetry_equiv_pos_as_xyz
  1  'x, y, z'
loop_
 _atom_site_type_symbol
 _atom_site_label
 _atom_site_symmetry_multiplicity
 _atom_site_fract_x
 _atom_site_fract_y
 _atom_site_fract_z
 _atom_site_occupancy
  Ca  Ca0  1  0.998480  0.998480  0.000000  1
  Zn  Zn1  1  0.612712  0.612712  0.000000  1
  P  P2  1  0.365742  0.365742  0.000000  1
  Rh  Rh3  1  0.761533  0.261533  0.500000  1
  Rh  Rh4  1  0.261533  0.761533  0.500000  1
