# generated using pymatgen
data_YTm3(Si4Tc3)2
_symmetry_space_group_name_H-M   'P 1'
_cell_length_a   6.77478375
_cell_length_b   6.73661682
_cell_length_c   6.76610991
_cell_angle_alpha   69.92524423
_cell_angle_beta   90.07318059
_cell_angle_gamma   89.98948564
_symmetry_Int_Tables_number   1
_chemical_formula_structural   YTm3(Si4Tc3)2
_chemical_formula_sum   'Y1 Tm3 Si8 Tc6'
_cell_volume   290.03809179
_cell_formula_units_Z   1
loop_
 _symmetry_equiv_pos_site_id
 _symmetry_equiv_pos_as_xyz
  1  'x, y, z'
loop_
 _atom_site_type_symbol
 _atom_site_label
 _atom_site_symmetry_multiplicity
 _atom_site_fract_x
 _atom_site_fract_y
 _atom_site_fract_z
 _atom_site_occupancy
  Y  Y0  1  0.332541  0.557867  0.809240  1
  Tm  Tm1  1  0.831908  0.942532  0.191842  1
  Tm  Tm2  1  0.668429  0.442416  0.192207  1
  Tm  Tm3  1  0.167875  0.057501  0.808081  1
  Si  Si4  1  0.551092  0.877785  0.898371  1
  Si  Si5  1  0.049808  0.623253  0.102754  1
  Si  Si6  1  0.449722  0.122398  0.102516  1
  Si  Si7  1  0.948252  0.376258  0.898324  1
  Si  Si8  1  0.140796  0.869031  0.486500  1
  Si  Si9  1  0.642564  0.632365  0.511476  1
  Si  Si10  1  0.858468  0.132260  0.512204  1
  Si  Si11  1  0.358477  0.367180  0.486612  1
  Tc  Tc12  1  0.500392  0.000968  0.499428  1
  Tc  Tc13  1  0.999204  0.499797  0.499363  1
  Tc  Tc14  1  0.850330  0.757889  0.762587  1
  Tc  Tc15  1  0.350424  0.742301  0.238070  1
  Tc  Tc16  1  0.149063  0.241558  0.238140  1
  Tc  Tc17  1  0.650654  0.256641  0.762286  1
