# generated using pymatgen
data_K4TeMoO8
_symmetry_space_group_name_H-M   'P 1'
_cell_length_a   7.04671273
_cell_length_b   7.04671200
_cell_length_c   7.70519983
_cell_angle_alpha   67.05062560
_cell_angle_beta   67.05062416
_cell_angle_gamma   52.87253176
_symmetry_Int_Tables_number   1
_chemical_formula_structural   K4TeMoO8
_chemical_formula_sum   'K4 Te1 Mo1 O8'
_cell_volume   274.61257040
_cell_formula_units_Z   1
loop_
 _symmetry_equiv_pos_site_id
 _symmetry_equiv_pos_as_xyz
  1  'x, y, z'
loop_
 _atom_site_type_symbol
 _atom_site_label
 _atom_site_symmetry_multiplicity
 _atom_site_fract_x
 _atom_site_fract_y
 _atom_site_fract_z
 _atom_site_occupancy
  K  K0  1  0.844232  0.844232  0.748744  1
  K  K1  1  0.157236  0.157236  0.250101  1
  K  K2  1  0.507862  0.507862  0.766977  1
  K  K3  1  0.490558  0.490558  0.232547  1
  Te  Te4  1  0.175845  0.175845  0.769721  1
  Mo  Mo5  1  0.823619  0.823619  0.231083  1
  O  O6  1  0.900721  0.386834  0.920064  1
  O  O7  1  0.386834  0.900721  0.920064  1
  O  O8  1  0.090787  0.621328  0.082112  1
  O  O9  1  0.621328  0.090787  0.082112  1
  O  O10  1  0.335966  0.335966  0.610538  1
  O  O11  1  0.667950  0.667950  0.388261  1
  O  O12  1  0.084980  0.084980  0.635509  1
  O  O13  1  0.912081  0.912081  0.362168  1
