# generated using pymatgen
data_Er3Lu13In4Ir3Os
_symmetry_space_group_name_H-M   'P 1'
_cell_length_a   9.51785482
_cell_length_b   9.51542671
_cell_length_c   9.51770230
_cell_angle_alpha   59.67836628
_cell_angle_beta   59.68693636
_cell_angle_gamma   59.67795011
_symmetry_Int_Tables_number   1
_chemical_formula_structural   Er3Lu13In4Ir3Os
_chemical_formula_sum   'Er3 Lu13 In4 Ir3 Os1'
_cell_volume   605.09915719
_cell_formula_units_Z   1
loop_
 _symmetry_equiv_pos_site_id
 _symmetry_equiv_pos_as_xyz
  1  'x, y, z'
loop_
 _atom_site_type_symbol
 _atom_site_label
 _atom_site_symmetry_multiplicity
 _atom_site_fract_x
 _atom_site_fract_y
 _atom_site_fract_z
 _atom_site_occupancy
  Er  Er0  1  0.060183  0.439773  0.440654  1
  Er  Er1  1  0.440651  0.439764  0.060180  1
  Er  Er2  1  0.057152  0.444335  0.057174  1
  Lu  Lu3  1  0.057554  0.056430  0.444831  1
  Lu  Lu4  1  0.651203  0.045050  0.651216  1
  Lu  Lu5  1  0.192186  0.809770  0.192163  1
  Lu  Lu6  1  0.440489  0.059234  0.440488  1
  Lu  Lu7  1  0.192394  0.192058  0.808993  1
  Lu  Lu8  1  0.650957  0.651450  0.650933  1
  Lu  Lu9  1  0.045061  0.651635  0.650985  1
  Lu  Lu10  1  0.444840  0.056429  0.057541  1
  Lu  Lu11  1  0.650998  0.651638  0.045072  1
  Lu  Lu12  1  0.191408  0.809245  0.807845  1
  Lu  Lu13  1  0.808587  0.191166  0.808574  1
  Lu  Lu14  1  0.808992  0.192062  0.192409  1
  Lu  Lu15  1  0.807837  0.809253  0.191408  1
  In  In16  1  0.749709  0.416672  0.417012  1
  In  In17  1  0.417011  0.416720  0.749731  1
  In  In18  1  0.416681  0.750333  0.416685  1
  In  In19  1  0.416996  0.416863  0.416999  1
  Ir  Ir20  1  0.421473  0.859375  0.858872  1
  Ir  Ir21  1  0.858875  0.859374  0.421472  1
  Ir  Ir22  1  0.859117  0.421216  0.859123  1
  Os  Os23  1  0.859649  0.860158  0.859642  1
