# generated using pymatgen
data_Hf18Re5Si2MoW2
_symmetry_space_group_name_H-M   'P 1'
_cell_length_a   8.64829873
_cell_length_b   8.64829916
_cell_length_c   8.62518700
_cell_angle_alpha   90.00000000
_cell_angle_beta   90.00000000
_cell_angle_gamma   120.06278306
_symmetry_Int_Tables_number   1
_chemical_formula_structural   Hf18Re5Si2MoW2
_chemical_formula_sum   'Hf18 Re5 Si2 Mo1 W2'
_cell_volume   558.32289428
_cell_formula_units_Z   1
loop_
 _symmetry_equiv_pos_site_id
 _symmetry_equiv_pos_as_xyz
  1  'x, y, z'
loop_
 _atom_site_type_symbol
 _atom_site_label
 _atom_site_symmetry_multiplicity
 _atom_site_fract_x
 _atom_site_fract_y
 _atom_site_fract_z
 _atom_site_occupancy
  Hf  Hf0  1  0.195937  0.804063  0.452790  1
  Hf  Hf1  1  0.196206  0.392025  0.453459  1
  Hf  Hf2  1  0.607975  0.803794  0.453459  1
  Hf  Hf3  1  0.804221  0.195779  0.548932  1
  Hf  Hf4  1  0.804211  0.608847  0.548075  1
  Hf  Hf5  1  0.391153  0.195789  0.548075  1
  Hf  Hf6  1  0.804221  0.195779  0.951068  1
  Hf  Hf7  1  0.804211  0.608847  0.951925  1
  Hf  Hf8  1  0.391153  0.195789  0.951925  1
  Hf  Hf9  1  0.195937  0.804063  0.047210  1
  Hf  Hf10  1  0.196206  0.392025  0.046541  1
  Hf  Hf11  1  0.607975  0.803794  0.046541  1
  Hf  Hf12  1  0.538492  0.461508  0.250000  1
  Hf  Hf13  1  0.537365  0.076309  0.250000  1
  Hf  Hf14  1  0.923691  0.462635  0.250000  1
  Hf  Hf15  1  0.461199  0.538801  0.750000  1
  Hf  Hf16  1  0.461076  0.922734  0.750000  1
  Hf  Hf17  1  0.077266  0.538924  0.750000  1
  Re  Re18  1  0.889359  0.778530  0.250000  1
  Re  Re19  1  0.221470  0.110641  0.250000  1
  Re  Re20  1  0.110344  0.889656  0.750000  1
  Re  Re21  1  0.110728  0.220966  0.750000  1
  Re  Re22  1  0.779034  0.889272  0.750000  1
  Si  Si23  1  0.333076  0.666924  0.250000  1
  Si  Si24  1  0.666486  0.333514  0.750000  1
  Mo  Mo25  1  0.890205  0.109795  0.250000  1
  W  W26  1  0.000400  0.999600  0.500421  1
  W  W27  1  0.000400  0.999600  0.999579  1
