# generated using pymatgen
data_K5Lu2InCl12
_symmetry_space_group_name_H-M   'P 1'
_cell_length_a   7.91694868
_cell_length_b   7.43558869
_cell_length_c   12.96844100
_cell_angle_alpha   55.58624519
_cell_angle_beta   89.92559531
_cell_angle_gamma   90.17710456
_symmetry_Int_Tables_number   1
_chemical_formula_structural   K5Lu2InCl12
_chemical_formula_sum   'K5 Lu2 In1 Cl12'
_cell_volume   629.79355148
_cell_formula_units_Z   1
loop_
 _symmetry_equiv_pos_site_id
 _symmetry_equiv_pos_as_xyz
  1  'x, y, z'
loop_
 _atom_site_type_symbol
 _atom_site_label
 _atom_site_symmetry_multiplicity
 _atom_site_fract_x
 _atom_site_fract_y
 _atom_site_fract_z
 _atom_site_occupancy
  K  K0  1  0.500000  0.500000  0.000000  1
  K  K1  1  0.069967  0.723335  0.753638  1
  K  K2  1  0.930033  0.276665  0.246362  1
  K  K3  1  0.571116  0.278062  0.744226  1
  K  K4  1  0.428884  0.721938  0.255774  1
  Lu  Lu5  1  0.500000  0.000000  0.500000  1
  Lu  Lu6  1  0.000000  0.000000  0.000000  1
  In  In7  1  0.000000  0.500000  0.500000  1
  Cl  Cl8  1  0.773926  0.768600  0.569382  1
  Cl  Cl9  1  0.226074  0.231400  0.430618  1
  Cl  Cl10  1  0.276062  0.231405  0.930153  1
  Cl  Cl11  1  0.723938  0.768595  0.069847  1
  Cl  Cl12  1  0.448168  0.891539  0.725563  1
  Cl  Cl13  1  0.551832  0.108461  0.274437  1
  Cl  Cl14  1  0.948820  0.108240  0.774782  1
  Cl  Cl15  1  0.051180  0.891760  0.225218  1
  Cl  Cl16  1  0.327050  0.663892  0.551068  1
  Cl  Cl17  1  0.672950  0.336108  0.448932  1
  Cl  Cl18  1  0.828416  0.336308  0.949217  1
  Cl  Cl19  1  0.171584  0.663692  0.050783  1
