# generated using pymatgen
data_Tb4ThBi3C
_symmetry_space_group_name_H-M   'P 1'
_cell_length_a   9.24578560
_cell_length_b   9.28627657
_cell_length_c   6.47924400
_cell_angle_alpha   90.00000000
_cell_angle_beta   90.00000000
_cell_angle_gamma   120.14497698
_symmetry_Int_Tables_number   1
_chemical_formula_structural   Tb4ThBi3C
_chemical_formula_sum   'Tb8 Th2 Bi6 C2'
_cell_volume   481.06536401
_cell_formula_units_Z   2
loop_
 _symmetry_equiv_pos_site_id
 _symmetry_equiv_pos_as_xyz
  1  'x, y, z'
loop_
 _atom_site_type_symbol
 _atom_site_label
 _atom_site_symmetry_multiplicity
 _atom_site_fract_x
 _atom_site_fract_y
 _atom_site_fract_z
 _atom_site_occupancy
  Tb  Tb0  1  0.664440  0.334888  0.998252  1
  Tb  Tb1  1  0.335560  0.670449  0.998252  1
  Tb  Tb2  1  0.335560  0.670449  0.501748  1
  Tb  Tb3  1  0.664440  0.334888  0.501748  1
  Tb  Tb4  1  0.000000  0.214061  0.750000  1
  Tb  Tb5  1  0.210657  0.211227  0.250000  1
  Tb  Tb6  1  0.789343  0.000570  0.250000  1
  Tb  Tb7  1  0.000000  0.787146  0.250000  1
  Th  Th8  1  0.783738  0.784244  0.750000  1
  Th  Th9  1  0.216262  0.000507  0.750000  1
  Bi  Bi10  1  0.397379  0.403309  0.750000  1
  Bi  Bi11  1  0.602621  0.005930  0.750000  1
  Bi  Bi12  1  0.000000  0.592130  0.750000  1
  Bi  Bi13  1  0.598719  0.598820  0.250000  1
  Bi  Bi14  1  0.401281  0.000101  0.250000  1
  Bi  Bi15  1  0.000000  0.399906  0.250000  1
  C  C16  1  0.000000  0.995689  0.997567  1
  C  C17  1  0.000000  0.995689  0.502433  1
