# generated using pymatgen
data_Lu3GaSiAg3Ge
_symmetry_space_group_name_H-M   'P 1'
_cell_length_a   7.05360000
_cell_length_b   7.05360205
_cell_length_c   4.12924100
_cell_angle_alpha   90.00000000
_cell_angle_beta   90.00000000
_cell_angle_gamma   120.00000915
_symmetry_Int_Tables_number   1
_chemical_formula_structural   Lu3GaSiAg3Ge
_chemical_formula_sum   'Lu3 Ga1 Si1 Ag3 Ge1'
_cell_volume   177.91911281
_cell_formula_units_Z   1
loop_
 _symmetry_equiv_pos_site_id
 _symmetry_equiv_pos_as_xyz
  1  'x, y, z'
loop_
 _atom_site_type_symbol
 _atom_site_label
 _atom_site_symmetry_multiplicity
 _atom_site_fract_x
 _atom_site_fract_y
 _atom_site_fract_z
 _atom_site_occupancy
  Lu  Lu0  1  0.422418  0.424475  0.500000  1
  Lu  Lu1  1  0.575525  0.997943  0.500000  1
  Lu  Lu2  1  0.002057  0.577582  0.500000  1
  Ga  Ga3  1  0.000000  0.000000  0.500000  1
  Si  Si4  1  0.333333  0.666667  0.000000  1
  Ag  Ag5  1  0.745668  0.750623  0.000000  1
  Ag  Ag6  1  0.249377  0.995045  0.000000  1
  Ag  Ag7  1  0.004955  0.254332  0.000000  1
  Ge  Ge8  1  0.666667  0.333333  0.000000  1
