# generated using pymatgen
data_Tm9Lu3Ir3I16
_symmetry_space_group_name_H-M   'P 1'
_cell_length_a   9.52151397
_cell_length_b   12.15240229
_cell_length_c   12.84984308
_cell_angle_alpha   116.95484606
_cell_angle_beta   101.37598662
_cell_angle_gamma   100.97014748
_symmetry_Int_Tables_number   1
_chemical_formula_structural   Tm9Lu3Ir3I16
_chemical_formula_sum   'Tm9 Lu3 Ir3 I16'
_cell_volume   1230.92679348
_cell_formula_units_Z   1
loop_
 _symmetry_equiv_pos_site_id
 _symmetry_equiv_pos_as_xyz
  1  'x, y, z'
loop_
 _atom_site_type_symbol
 _atom_site_label
 _atom_site_symmetry_multiplicity
 _atom_site_fract_x
 _atom_site_fract_y
 _atom_site_fract_z
 _atom_site_occupancy
  Tm  Tm0  1  0.085271  0.267273  0.356210  1
  Tm  Tm1  1  0.914584  0.732793  0.643916  1
  Tm  Tm2  1  0.782229  0.534435  0.328273  1
  Tm  Tm3  1  0.218041  0.465658  0.671862  1
  Tm  Tm4  1  0.275855  0.733490  0.643420  1
  Tm  Tm5  1  0.724400  0.266564  0.356708  1
  Tm  Tm6  1  0.142241  0.534810  0.328063  1
  Tm  Tm7  1  0.857612  0.465282  0.672063  1
  Tm  Tm8  1  0.404521  0.356514  0.270992  1
  Lu  Lu9  1  0.594941  0.642701  0.727718  1
  Lu  Lu10  1  0.459128  0.311588  0.520570  1
  Lu  Lu11  1  0.541036  0.688664  0.479857  1
  Ir  Ir12  1  0.000018  0.500030  0.500048  1
  Ir  Ir13  1  0.341586  0.500364  0.499897  1
  Ir  Ir14  1  0.658608  0.499936  0.500576  1
  I  I15  1  0.396403  0.747260  0.894333  1
  I  I16  1  0.604178  0.252652  0.105524  1
  I  I17  1  0.192553  0.976267  0.788954  1
  I  I18  1  0.807443  0.023715  0.211031  1
  I  I19  1  0.333948  0.085760  0.246690  1
  I  I20  1  0.666006  0.913898  0.753418  1
  I  I21  1  0.559441  0.435918  0.805173  1
  I  I22  1  0.440684  0.564499  0.194845  1
  I  I23  1  0.306789  0.834701  0.461337  1
  I  I24  1  0.693215  0.165306  0.538683  1
  I  I25  1  0.161812  0.165341  0.535878  1
  I  I26  1  0.838197  0.834667  0.464133  1
  I  I27  1  0.925020  0.579038  0.153510  1
  I  I28  1  0.074975  0.420973  0.846480  1
  I  I29  1  0.931672  0.745954  0.894873  1
  I  I30  1  0.067593  0.253950  0.104967  1
