# generated using pymatgen
data_Zr6Al16IrPd6
_symmetry_space_group_name_H-M   'P 1'
_cell_length_a   8.79617611
_cell_length_b   8.79617704
_cell_length_c   8.79617700
_cell_angle_alpha   60.00000389
_cell_angle_beta   60.00000042
_cell_angle_gamma   60.00000593
_symmetry_Int_Tables_number   1
_chemical_formula_structural   Zr6Al16IrPd6
_chemical_formula_sum   'Zr6 Al16 Ir1 Pd6'
_cell_volume   481.24571218
_cell_formula_units_Z   1
loop_
 _symmetry_equiv_pos_site_id
 _symmetry_equiv_pos_as_xyz
  1  'x, y, z'
loop_
 _atom_site_type_symbol
 _atom_site_label
 _atom_site_symmetry_multiplicity
 _atom_site_fract_x
 _atom_site_fract_y
 _atom_site_fract_z
 _atom_site_occupancy
  Zr  Zr0  1  0.687693  0.687693  0.312307  1
  Zr  Zr1  1  0.312307  0.687693  0.312307  1
  Zr  Zr2  1  0.687693  0.312307  0.312307  1
  Zr  Zr3  1  0.312307  0.312307  0.687693  1
  Zr  Zr4  1  0.687693  0.312307  0.687693  1
  Zr  Zr5  1  0.312307  0.687693  0.687693  1
  Al  Al6  1  0.880946  0.880946  0.357165  1
  Al  Al7  1  0.880946  0.357165  0.880946  1
  Al  Al8  1  0.357165  0.880946  0.880946  1
  Al  Al9  1  0.880946  0.880946  0.880946  1
  Al  Al10  1  0.119054  0.119054  0.642835  1
  Al  Al11  1  0.119054  0.642835  0.119054  1
  Al  Al12  1  0.642835  0.119054  0.119054  1
  Al  Al13  1  0.119054  0.119054  0.119054  1
  Al  Al14  1  0.665358  0.665358  0.003926  1
  Al  Al15  1  0.665358  0.003926  0.665358  1
  Al  Al16  1  0.003926  0.665358  0.665358  1
  Al  Al17  1  0.665358  0.665358  0.665358  1
  Al  Al18  1  0.334642  0.334642  0.996074  1
  Al  Al19  1  0.334642  0.996074  0.334642  1
  Al  Al20  1  0.996074  0.334642  0.334642  1
  Al  Al21  1  0.334642  0.334642  0.334642  1
  Ir  Ir22  1  0.000000  0.000000  0.000000  1
  Pd  Pd23  1  0.000000  0.000000  0.500000  1
  Pd  Pd24  1  0.500000  0.000000  0.500000  1
  Pd  Pd25  1  0.000000  0.500000  0.500000  1
  Pd  Pd26  1  0.500000  0.500000  0.000000  1
  Pd  Pd27  1  0.000000  0.500000  0.000000  1
  Pd  Pd28  1  0.500000  0.000000  0.000000  1
