# generated using pymatgen
data_Ca7Pr8Ho5Sn16
_symmetry_space_group_name_H-M   'P 1'
_cell_length_a   8.01392067
_cell_length_b   8.45660799
_cell_length_c   15.89450892
_cell_angle_alpha   89.95557502
_cell_angle_beta   90.10493321
_cell_angle_gamma   89.87514570
_symmetry_Int_Tables_number   1
_chemical_formula_structural   Ca7Pr8Ho5Sn16
_chemical_formula_sum   'Ca7 Pr8 Ho5 Sn16'
_cell_volume   1077.17548530
_cell_formula_units_Z   1
loop_
 _symmetry_equiv_pos_site_id
 _symmetry_equiv_pos_as_xyz
  1  'x, y, z'
loop_
 _atom_site_type_symbol
 _atom_site_label
 _atom_site_symmetry_multiplicity
 _atom_site_fract_x
 _atom_site_fract_y
 _atom_site_fract_z
 _atom_site_occupancy
  Ca  Ca0  1  0.330556  0.830074  0.878829  1
  Ca  Ca1  1  0.831545  0.669900  0.622451  1
  Ca  Ca2  1  0.670306  0.168549  0.376521  1
  Ca  Ca3  1  0.163450  0.500839  0.750014  1
  Ca  Ca4  1  0.662970  0.000640  0.751220  1
  Ca  Ca5  1  0.835010  0.499563  0.249570  1
  Ca  Ca6  1  0.336758  0.997448  0.250827  1
  Pr  Pr7  1  0.492229  0.317895  0.906191  1
  Pr  Pr8  1  0.991897  0.183268  0.594741  1
  Pr  Pr9  1  0.508541  0.681194  0.404094  1
  Pr  Pr10  1  0.006731  0.819032  0.094349  1
  Pr  Pr11  1  0.506469  0.681753  0.095673  1
  Pr  Pr12  1  0.006081  0.818661  0.403429  1
  Pr  Pr13  1  0.493363  0.318314  0.595046  1
  Pr  Pr14  1  0.992971  0.182865  0.904962  1
  Ho  Ho15  1  0.167412  0.328541  0.124100  1
  Ho  Ho16  1  0.667689  0.170698  0.124158  1
  Ho  Ho17  1  0.167467  0.328456  0.374396  1
  Ho  Ho18  1  0.333603  0.828568  0.624500  1
  Ho  Ho19  1  0.832935  0.673057  0.876176  1
  Sn  Sn20  1  0.328951  0.040211  0.041490  1
  Sn  Sn21  1  0.835144  0.462960  0.459144  1
  Sn  Sn22  1  0.665676  0.963715  0.540992  1
  Sn  Sn23  1  0.168576  0.535014  0.962280  1
  Sn  Sn24  1  0.678167  0.961412  0.963853  1
  Sn  Sn25  1  0.178758  0.539786  0.535981  1
  Sn  Sn26  1  0.322144  0.038612  0.463272  1
  Sn  Sn27  1  0.825418  0.459817  0.037864  1
  Sn  Sn28  1  0.533404  0.611482  0.751746  1
  Sn  Sn29  1  0.033389  0.889357  0.748171  1
  Sn  Sn30  1  0.466027  0.387641  0.248590  1
  Sn  Sn31  1  0.969732  0.115224  0.247427  1
  Sn  Sn32  1  0.289105  0.138094  0.748909  1
  Sn  Sn33  1  0.789587  0.362781  0.751834  1
  Sn  Sn34  1  0.710107  0.860917  0.248013  1
  Sn  Sn35  1  0.207834  0.633658  0.249187  1
