# generated using pymatgen
data_DyEr(ZrRh)2
_symmetry_space_group_name_H-M   'P 1'
_cell_length_a   4.62288600
_cell_length_b   7.04170500
_cell_length_c   8.24957600
_cell_angle_alpha   90.00000000
_cell_angle_beta   90.00000000
_cell_angle_gamma   90.00000000
_symmetry_Int_Tables_number   1
_chemical_formula_structural   DyEr(ZrRh)2
_chemical_formula_sum   'Dy2 Er2 Zr4 Rh4'
_cell_volume   268.54844308
_cell_formula_units_Z   2
loop_
 _symmetry_equiv_pos_site_id
 _symmetry_equiv_pos_as_xyz
  1  'x, y, z'
loop_
 _atom_site_type_symbol
 _atom_site_label
 _atom_site_symmetry_multiplicity
 _atom_site_fract_x
 _atom_site_fract_y
 _atom_site_fract_z
 _atom_site_occupancy
  Dy  Dy0  1  0.250000  0.985016  0.323848  1
  Dy  Dy1  1  0.250000  0.485016  0.176152  1
  Er  Er2  1  0.750000  0.015657  0.676665  1
  Er  Er3  1  0.750000  0.515657  0.823335  1
  Zr  Zr4  1  0.250000  0.356934  0.579306  1
  Zr  Zr5  1  0.250000  0.856934  0.920694  1
  Zr  Zr6  1  0.750000  0.642605  0.423240  1
  Zr  Zr7  1  0.750000  0.142605  0.076760  1
  Rh  Rh8  1  0.250000  0.232796  0.911873  1
  Rh  Rh9  1  0.250000  0.732796  0.588127  1
  Rh  Rh10  1  0.750000  0.766993  0.085914  1
  Rh  Rh11  1  0.750000  0.266993  0.414086  1
