# generated using pymatgen
data_LuTaP7Ru12
_symmetry_space_group_name_H-M   'P 1'
_cell_length_a   9.37885100
_cell_length_b   9.37884969
_cell_length_c   3.88935200
_cell_angle_alpha   90.00000000
_cell_angle_beta   90.00000000
_cell_angle_gamma   120.00000109
_symmetry_Int_Tables_number   1
_chemical_formula_structural   LuTaP7Ru12
_chemical_formula_sum   'Lu1 Ta1 P7 Ru12'
_cell_volume   296.28324261
_cell_formula_units_Z   1
loop_
 _symmetry_equiv_pos_site_id
 _symmetry_equiv_pos_as_xyz
  1  'x, y, z'
loop_
 _atom_site_type_symbol
 _atom_site_label
 _atom_site_symmetry_multiplicity
 _atom_site_fract_x
 _atom_site_fract_y
 _atom_site_fract_z
 _atom_site_occupancy
  Lu  Lu0  1  0.333333  0.666667  0.000000  1
  Ta  Ta1  1  0.666667  0.333333  0.500000  1
  P  P2  1  0.596055  0.719435  0.500000  1
  P  P3  1  0.000000  0.000000  0.000000  1
  P  P4  1  0.280565  0.876621  0.500000  1
  P  P5  1  0.123379  0.403945  0.500000  1
  P  P6  1  0.886119  0.575151  0.000000  1
  P  P7  1  0.424849  0.310968  0.000000  1
  P  P8  1  0.689032  0.113881  0.000000  1
  Ru  Ru9  1  0.556420  0.954373  0.500000  1
  Ru  Ru10  1  0.397954  0.443580  0.500000  1
  Ru  Ru11  1  0.912742  0.125465  0.500000  1
  Ru  Ru12  1  0.212723  0.087258  0.500000  1
  Ru  Ru13  1  0.874535  0.787277  0.500000  1
  Ru  Ru14  1  0.725451  0.887656  0.000000  1
  Ru  Ru15  1  0.112344  0.837794  0.000000  1
  Ru  Ru16  1  0.162206  0.274549  0.000000  1
  Ru  Ru17  1  0.433507  0.079252  0.000000  1
  Ru  Ru18  1  0.920748  0.354256  0.000000  1
  Ru  Ru19  1  0.645744  0.566493  0.000000  1
  Ru  Ru20  1  0.045627  0.602046  0.500000  1
