# generated using pymatgen
data_SrOs6Pb3O19
_symmetry_space_group_name_H-M   'P 1'
_cell_length_a   8.04153617
_cell_length_b   8.04153741
_cell_length_c   8.05640200
_cell_angle_alpha   109.50867480
_cell_angle_beta   109.50867792
_cell_angle_gamma   109.43373784
_symmetry_Int_Tables_number   1
_chemical_formula_structural   SrOs6Pb3O19
_chemical_formula_sum   'Sr1 Os6 Pb3 O19'
_cell_volume   400.86338309
_cell_formula_units_Z   1
loop_
 _symmetry_equiv_pos_site_id
 _symmetry_equiv_pos_as_xyz
  1  'x, y, z'
loop_
 _atom_site_type_symbol
 _atom_site_label
 _atom_site_symmetry_multiplicity
 _atom_site_fract_x
 _atom_site_fract_y
 _atom_site_fract_z
 _atom_site_occupancy
  Sr  Sr0  1  0.000000  0.000000  0.311084  1
  Os  Os1  1  0.362890  0.501305  0.862808  1
  Os  Os2  1  0.861648  0.360960  0.498734  1
  Os  Os3  1  0.499311  0.138352  0.637086  1
  Os  Os4  1  0.138414  0.637110  0.499916  1
  Os  Os5  1  0.498695  0.861586  0.361502  1
  Os  Os6  1  0.639040  0.500689  0.137775  1
  Pb  Pb7  1  0.999748  0.293067  0.998425  1
  Pb  Pb8  1  0.706933  0.706680  0.705358  1
  Pb  Pb9  1  0.293320  0.000252  0.998677  1
  O  O10  1  0.329790  0.997218  0.331355  1
  O  O11  1  0.334031  0.334275  0.000912  1
  O  O12  1  0.000243  0.665969  0.666881  1
  O  O13  1  0.667427  0.670210  0.001563  1
  O  O14  1  0.002782  0.332573  0.334136  1
  O  O15  1  0.665725  0.999757  0.666637  1
  O  O16  1  0.000000  0.000000  0.992393  1
  O  O17  1  0.355470  0.290507  0.644434  1
  O  O18  1  0.065765  0.350334  0.706124  1
  O  O19  1  0.711770  0.353181  0.644466  1
  O  O20  1  0.354281  0.646573  0.712524  1
  O  O21  1  0.284568  0.934235  0.640358  1
  O  O22  1  0.646819  0.358589  0.291283  1
  O  O23  1  0.292292  0.645719  0.358244  1
  O  O24  1  0.709493  0.064962  0.353927  1
  O  O25  1  0.935038  0.644530  0.288965  1
  O  O26  1  0.649666  0.715432  0.355788  1
  O  O27  1  0.641411  0.288230  0.932696  1
  O  O28  1  0.353427  0.707708  0.065951  1
