# generated using pymatgen
data_Tb2DyY(Al3Rh)6
_symmetry_space_group_name_H-M   'P 1'
_cell_length_a   7.55198355
_cell_length_b   7.55282695
_cell_length_c   9.47854400
_cell_angle_alpha   90.00025688
_cell_angle_beta   89.99810246
_cell_angle_gamma   119.32624092
_symmetry_Int_Tables_number   1
_chemical_formula_structural   Tb2DyY(Al3Rh)6
_chemical_formula_sum   'Tb2 Dy1 Y1 Al18 Rh6'
_cell_volume   471.35867565
_cell_formula_units_Z   1
loop_
 _symmetry_equiv_pos_site_id
 _symmetry_equiv_pos_as_xyz
  1  'x, y, z'
loop_
 _atom_site_type_symbol
 _atom_site_label
 _atom_site_symmetry_multiplicity
 _atom_site_fract_x
 _atom_site_fract_y
 _atom_site_fract_z
 _atom_site_occupancy
  Tb  Tb0  1  0.994407  0.671109  0.750008  1
  Tb  Tb1  1  0.005487  0.328867  0.249995  1
  Dy  Dy2  1  0.328807  0.005429  0.249998  1
  Y  Y3  1  0.671055  0.994327  0.750001  1
  Al  Al4  1  0.128242  0.128170  0.749995  1
  Al  Al5  1  0.872154  0.871980  0.250007  1
  Al  Al6  1  0.001246  0.335372  0.574222  1
  Al  Al7  1  0.998980  0.664673  0.425218  1
  Al  Al8  1  0.998994  0.664659  0.074754  1
  Al  Al9  1  0.335519  0.001288  0.926022  1
  Al  Al10  1  0.001237  0.335393  0.925807  1
  Al  Al11  1  0.664330  0.998855  0.074704  1
  Al  Al12  1  0.664337  0.998841  0.425278  1
  Al  Al13  1  0.335518  0.001306  0.574001  1
  Al  Al14  1  0.333208  0.333080  0.050260  1
  Al  Al15  1  0.666817  0.666852  0.950481  1
  Al  Al16  1  0.666789  0.666825  0.549525  1
  Al  Al17  1  0.333235  0.333108  0.449736  1
  Al  Al18  1  0.339018  0.549057  0.750003  1
  Al  Al19  1  0.660441  0.450374  0.249999  1
  Al  Al20  1  0.549057  0.338928  0.750006  1
  Al  Al21  1  0.450653  0.661038  0.249994  1
  Rh  Rh22  1  0.672015  0.328113  0.499950  1
  Rh  Rh23  1  0.328064  0.672034  0.499988  1
  Rh  Rh24  1  0.328074  0.672020  0.000017  1
  Rh  Rh25  1  0.672005  0.328116  0.000063  1
  Rh  Rh26  1  0.000164  0.000100  0.499837  1
  Rh  Rh27  1  0.000145  0.000087  0.000132  1
