# generated using pymatgen
data_Lu2U(SnRu)3
_symmetry_space_group_name_H-M   'P 1'
_cell_length_a   7.80089500
_cell_length_b   7.39819860
_cell_length_c   3.77694700
_cell_angle_alpha   90.00000000
_cell_angle_beta   90.00000000
_cell_angle_gamma   121.81911436
_symmetry_Int_Tables_number   1
_chemical_formula_structural   Lu2U(SnRu)3
_chemical_formula_sum   'Lu2 U1 Sn3 Ru3'
_cell_volume   185.21900130
_cell_formula_units_Z   1
loop_
 _symmetry_equiv_pos_site_id
 _symmetry_equiv_pos_as_xyz
  1  'x, y, z'
loop_
 _atom_site_type_symbol
 _atom_site_label
 _atom_site_symmetry_multiplicity
 _atom_site_fract_x
 _atom_site_fract_y
 _atom_site_fract_z
 _atom_site_occupancy
  Lu  Lu0  1  0.002959  0.403596  0.500000  1
  Lu  Lu1  1  0.599396  0.596336  0.500000  1
  U  U2  1  0.415498  0.000056  0.500000  1
  Sn  Sn3  1  0.983329  0.720724  0.000000  1
  Sn  Sn4  1  0.262611  0.279389  0.000000  1
  Sn  Sn5  1  0.758030  0.999955  0.000000  1
  Ru  Ru6  1  0.339705  0.714142  0.000000  1
  Ru  Ru7  1  0.625553  0.285884  0.000000  1
  Ru  Ru8  1  0.012919  0.999918  0.500000  1
