# generated using pymatgen
data_YbDyAl7Si2Ir3
_symmetry_space_group_name_H-M   'P 1'
_cell_length_a   7.50643326
_cell_length_b   7.48396135
_cell_length_c   9.42198414
_cell_angle_alpha   89.95918425
_cell_angle_beta   90.01964823
_cell_angle_gamma   119.87171178
_symmetry_Int_Tables_number   1
_chemical_formula_structural   YbDyAl7Si2Ir3
_chemical_formula_sum   'Yb2 Dy2 Al14 Si4 Ir6'
_cell_volume   458.98450444
_cell_formula_units_Z   2
loop_
 _symmetry_equiv_pos_site_id
 _symmetry_equiv_pos_as_xyz
  1  'x, y, z'
loop_
 _atom_site_type_symbol
 _atom_site_label
 _atom_site_symmetry_multiplicity
 _atom_site_fract_x
 _atom_site_fract_y
 _atom_site_fract_z
 _atom_site_occupancy
  Yb  Yb0  1  0.670078  0.001031  0.249935  1
  Yb  Yb1  1  0.319516  0.990912  0.745336  1
  Dy  Dy2  1  0.000840  0.669152  0.249862  1
  Dy  Dy3  1  0.005597  0.341381  0.754460  1
  Al  Al4  1  0.130571  0.126848  0.250118  1
  Al  Al5  1  0.871988  0.871783  0.750008  1
  Al  Al6  1  0.000189  0.328048  0.428003  1
  Al  Al7  1  0.668742  0.000123  0.576155  1
  Al  Al8  1  0.662192  0.997631  0.923701  1
  Al  Al9  1  0.340580  0.004610  0.070692  1
  Al  Al10  1  0.332922  0.333776  0.557938  1
  Al  Al11  1  0.663498  0.668431  0.441537  1
  Al  Al12  1  0.662808  0.668144  0.058335  1
  Al  Al13  1  0.336767  0.332141  0.942215  1
  Al  Al14  1  0.337959  0.546870  0.250267  1
  Al  Al15  1  0.659605  0.450486  0.751375  1
  Al  Al16  1  0.548895  0.344849  0.249780  1
  Al  Al17  1  0.455367  0.659363  0.748862  1
  Si  Si18  1  0.000966  0.326961  0.076580  1
  Si  Si19  1  0.997591  0.672180  0.931131  1
  Si  Si20  1  0.991925  0.660077  0.568719  1
  Si  Si21  1  0.341159  0.007353  0.424584  1
  Ir  Ir22  1  0.689587  0.338506  0.002395  1
  Ir  Ir23  1  0.310351  0.661450  0.998301  1
  Ir  Ir24  1  0.318288  0.677484  0.499625  1
  Ir  Ir25  1  0.673167  0.329956  0.500067  1
  Ir  Ir26  1  0.001084  0.999376  0.000510  1
  Ir  Ir27  1  0.007769  0.991079  0.499507  1
