# generated using pymatgen
data_YbEu(Zn10Cu)2
_symmetry_space_group_name_H-M   'P 1'
_cell_length_a   8.27555216
_cell_length_b   8.27555073
_cell_length_c   8.26612940
_cell_angle_alpha   99.72135191
_cell_angle_beta   99.72135069
_cell_angle_gamma   131.58904507
_symmetry_Int_Tables_number   1
_chemical_formula_structural   YbEu(Zn10Cu)2
_chemical_formula_sum   'Yb1 Eu1 Zn20 Cu2'
_cell_volume   385.82968629
_cell_formula_units_Z   1
loop_
 _symmetry_equiv_pos_site_id
 _symmetry_equiv_pos_as_xyz
  1  'x, y, z'
loop_
 _atom_site_type_symbol
 _atom_site_label
 _atom_site_symmetry_multiplicity
 _atom_site_fract_x
 _atom_site_fract_y
 _atom_site_fract_z
 _atom_site_occupancy
  Yb  Yb0  1  0.750298  0.249702  0.500000  1
  Eu  Eu1  1  0.500560  0.499440  0.000000  1
  Zn  Zn2  1  0.404920  0.076941  0.086269  1
  Zn  Zn3  1  0.988064  0.313376  0.918740  1
  Zn  Zn4  1  0.262527  0.674261  0.827369  1
  Zn  Zn5  1  0.854765  0.431538  0.177197  1
  Zn  Zn6  1  0.923059  0.595080  0.913731  1
  Zn  Zn7  1  0.686624  0.011936  0.081260  1
  Zn  Zn8  1  0.325739  0.737473  0.172631  1
  Zn  Zn9  1  0.568462  0.145235  0.822803  1
  Zn  Zn10  1  0.844858  0.671860  0.414850  1
  Zn  Zn11  1  0.259657  0.435388  0.580442  1
  Zn  Zn12  1  0.985223  0.074686  0.671596  1
  Zn  Zn13  1  0.394595  0.317058  0.323836  1
  Zn  Zn14  1  0.328140  0.155142  0.585150  1
  Zn  Zn15  1  0.564612  0.740343  0.419558  1
  Zn  Zn16  1  0.925314  0.014777  0.328404  1
  Zn  Zn17  1  0.682942  0.605405  0.676164  1
  Zn  Zn18  1  0.254786  0.745214  0.500000  1
  Zn  Zn19  1  0.995243  0.004757  0.000000  1
  Zn  Zn20  1  0.125171  0.874661  0.749485  1
  Zn  Zn21  1  0.125339  0.874829  0.250515  1
  Cu  Cu22  1  0.124921  0.375818  0.250916  1
  Cu  Cu23  1  0.624182  0.875079  0.749084  1
