# generated using pymatgen
data_Hf4GaSi3MoW3
_symmetry_space_group_name_H-M   'P 1'
_cell_length_a   3.51153200
_cell_length_b   6.98399148
_cell_length_c   8.27979319
_cell_angle_alpha   89.50585176
_cell_angle_beta   90.00000000
_cell_angle_gamma   90.00000000
_symmetry_Int_Tables_number   1
_chemical_formula_structural   Hf4GaSi3MoW3
_chemical_formula_sum   'Hf4 Ga1 Si3 Mo1 W3'
_cell_volume   203.05031535
_cell_formula_units_Z   1
loop_
 _symmetry_equiv_pos_site_id
 _symmetry_equiv_pos_as_xyz
  1  'x, y, z'
loop_
 _atom_site_type_symbol
 _atom_site_label
 _atom_site_symmetry_multiplicity
 _atom_site_fract_x
 _atom_site_fract_y
 _atom_site_fract_z
 _atom_site_occupancy
  Hf  Hf0  1  0.250000  0.544115  0.169385  1
  Hf  Hf1  1  0.250000  0.043101  0.332182  1
  Hf  Hf2  1  0.750000  0.450552  0.833466  1
  Hf  Hf3  1  0.750000  0.957648  0.661364  1
  Ga  Ga4  1  0.250000  0.753687  0.859324  1
  Si  Si5  1  0.250000  0.256279  0.639643  1
  Si  Si6  1  0.750000  0.246688  0.140459  1
  Si  Si7  1  0.750000  0.742766  0.361215  1
  Mo  Mo8  1  0.250000  0.631191  0.557016  1
  W  W9  1  0.250000  0.134697  0.941048  1
  W  W10  1  0.750000  0.366160  0.437906  1
  W  W11  1  0.750000  0.873115  0.066992  1
