# generated using pymatgen
data_Pr2HoCd3AgSn2
_symmetry_space_group_name_H-M   'P 1'
_cell_length_a   7.55451600
_cell_length_b   7.55451442
_cell_length_c   4.66459300
_cell_angle_alpha   90.00000000
_cell_angle_beta   90.00000000
_cell_angle_gamma   119.40534977
_symmetry_Int_Tables_number   1
_chemical_formula_structural   Pr2HoCd3AgSn2
_chemical_formula_sum   'Pr2 Ho1 Cd3 Ag1 Sn2'
_cell_volume   231.91500900
_cell_formula_units_Z   1
loop_
 _symmetry_equiv_pos_site_id
 _symmetry_equiv_pos_as_xyz
  1  'x, y, z'
loop_
 _atom_site_type_symbol
 _atom_site_label
 _atom_site_symmetry_multiplicity
 _atom_site_fract_x
 _atom_site_fract_y
 _atom_site_fract_z
 _atom_site_occupancy
  Pr  Pr0  1  0.585953  0.998285  0.000000  1
  Pr  Pr1  1  0.998285  0.585953  0.000000  1
  Ho  Ho2  1  0.409876  0.409876  0.000000  1
  Cd  Cd3  1  0.236630  0.998620  0.500000  1
  Cd  Cd4  1  0.998620  0.236630  0.500000  1
  Cd  Cd5  1  0.765302  0.765302  0.500000  1
  Ag  Ag6  1  0.009684  0.009684  0.000000  1
  Sn  Sn7  1  0.335984  0.659664  0.500000  1
  Sn  Sn8  1  0.659664  0.335984  0.500000  1
