# generated using pymatgen
data_Ho3ThTlInPd4
_symmetry_space_group_name_H-M   'P 1'
_cell_length_a   7.83453822
_cell_length_b   7.83492659
_cell_length_c   3.72389600
_cell_angle_alpha   90.00000000
_cell_angle_beta   90.00000000
_cell_angle_gamma   90.84851460
_symmetry_Int_Tables_number   1
_chemical_formula_structural   Ho3ThTlInPd4
_chemical_formula_sum   'Ho3 Th1 Tl1 In1 Pd4'
_cell_volume   228.55896070
_cell_formula_units_Z   1
loop_
 _symmetry_equiv_pos_site_id
 _symmetry_equiv_pos_as_xyz
  1  'x, y, z'
loop_
 _atom_site_type_symbol
 _atom_site_label
 _atom_site_symmetry_multiplicity
 _atom_site_fract_x
 _atom_site_fract_y
 _atom_site_fract_z
 _atom_site_occupancy
  Ho  Ho0  1  0.825030  0.667300  0.500000  1
  Ho  Ho1  1  0.168483  0.326257  0.500000  1
  Ho  Ho2  1  0.675085  0.176079  0.500000  1
  Th  Th3  1  0.329908  0.828584  0.500000  1
  Tl  Tl4  1  0.993940  0.003131  0.000000  1
  In  In5  1  0.503102  0.493866  0.000000  1
  Pd  Pd6  1  0.374627  0.128546  0.000000  1
  Pd  Pd7  1  0.873277  0.376143  0.000000  1
  Pd  Pd8  1  0.130755  0.628133  0.000000  1
  Pd  Pd9  1  0.625794  0.871960  0.000000  1
