# generated using pymatgen
data_Yb3SnHg2Pd3
_symmetry_space_group_name_H-M   'P 1'
_cell_length_a   7.60755100
_cell_length_b   7.69618659
_cell_length_c   3.94974300
_cell_angle_alpha   90.00000000
_cell_angle_beta   90.00000000
_cell_angle_gamma   119.61975666
_symmetry_Int_Tables_number   1
_chemical_formula_structural   Yb3SnHg2Pd3
_chemical_formula_sum   'Yb3 Sn1 Hg2 Pd3'
_cell_volume   201.03480223
_cell_formula_units_Z   1
loop_
 _symmetry_equiv_pos_site_id
 _symmetry_equiv_pos_as_xyz
  1  'x, y, z'
loop_
 _atom_site_type_symbol
 _atom_site_label
 _atom_site_symmetry_multiplicity
 _atom_site_fract_x
 _atom_site_fract_y
 _atom_site_fract_z
 _atom_site_occupancy
  Yb  Yb0  1  0.994272  0.596294  0.000000  1
  Yb  Yb1  1  0.397978  0.403706  0.000000  1
  Yb  Yb2  1  0.611699  0.000000  0.000000  1
  Sn  Sn3  1  0.263200  0.000000  0.500000  1
  Hg  Hg4  1  0.731008  0.729059  0.500000  1
  Hg  Hg5  1  0.001949  0.270941  0.500000  1
  Pd  Pd6  1  0.329468  0.679913  0.500000  1
  Pd  Pd7  1  0.020872  0.000000  0.000000  1
  Pd  Pd8  1  0.649556  0.320087  0.500000  1
