# generated using pymatgen
data_Na4BeZnH8
_symmetry_space_group_name_H-M   'P 1'
_cell_length_a   5.11798500
_cell_length_b   5.20379467
_cell_length_c   6.96730728
_cell_angle_alpha   80.53505630
_cell_angle_beta   90.00000000
_cell_angle_gamma   90.00000000
_symmetry_Int_Tables_number   1
_chemical_formula_structural   Na4BeZnH8
_chemical_formula_sum   'Na4 Be1 Zn1 H8'
_cell_volume   183.03376014
_cell_formula_units_Z   1
loop_
 _symmetry_equiv_pos_site_id
 _symmetry_equiv_pos_as_xyz
  1  'x, y, z'
loop_
 _atom_site_type_symbol
 _atom_site_label
 _atom_site_symmetry_multiplicity
 _atom_site_fract_x
 _atom_site_fract_y
 _atom_site_fract_z
 _atom_site_occupancy
  Na  Na0  1  0.250000  0.273915  0.017704  1
  Na  Na1  1  0.750000  0.729923  0.967081  1
  Na  Na2  1  0.750000  0.740148  0.481789  1
  Na  Na3  1  0.250000  0.260582  0.537609  1
  Be  Be4  1  0.750000  0.277867  0.779490  1
  Zn  Zn5  1  0.250000  0.722894  0.220878  1
  H  H6  1  0.750000  0.067304  0.665609  1
  H  H7  1  0.750000  0.184183  0.985518  1
  H  H8  1  0.524533  0.445521  0.735272  1
  H  H9  1  0.250000  0.958941  0.348818  1
  H  H10  1  0.975467  0.445521  0.735272  1
  H  H11  1  0.995817  0.532143  0.270175  1
  H  H12  1  0.504183  0.532143  0.270175  1
  H  H13  1  0.250000  0.828914  0.984610  1
