# generated using pymatgen
data_Zr6TiZn22Ga
_symmetry_space_group_name_H-M   'P 1'
_cell_length_a   8.82853734
_cell_length_b   8.82853678
_cell_length_c   8.82853700
_cell_angle_alpha   60.00000293
_cell_angle_beta   60.00000502
_cell_angle_gamma   59.99999694
_symmetry_Int_Tables_number   1
_chemical_formula_structural   Zr6TiZn22Ga
_chemical_formula_sum   'Zr6 Ti1 Zn22 Ga1'
_cell_volume   486.57663271
_cell_formula_units_Z   1
loop_
 _symmetry_equiv_pos_site_id
 _symmetry_equiv_pos_as_xyz
  1  'x, y, z'
loop_
 _atom_site_type_symbol
 _atom_site_label
 _atom_site_symmetry_multiplicity
 _atom_site_fract_x
 _atom_site_fract_y
 _atom_site_fract_z
 _atom_site_occupancy
  Zr  Zr0  1  0.716408  0.283592  0.283592  1
  Zr  Zr1  1  0.283592  0.716408  0.716408  1
  Zr  Zr2  1  0.283592  0.716408  0.283592  1
  Zr  Zr3  1  0.716408  0.283592  0.716408  1
  Zr  Zr4  1  0.283592  0.283592  0.716408  1
  Zr  Zr5  1  0.716408  0.716408  0.283592  1
  Ti  Ti6  1  0.000000  0.000000  0.000000  1
  Zn  Zn7  1  0.123942  0.123942  0.123942  1
  Zn  Zn8  1  0.876058  0.876058  0.876058  1
  Zn  Zn9  1  0.123942  0.123942  0.628175  1
  Zn  Zn10  1  0.123942  0.628175  0.123942  1
  Zn  Zn11  1  0.876058  0.876058  0.371825  1
  Zn  Zn12  1  0.876058  0.371825  0.876058  1
  Zn  Zn13  1  0.628175  0.123942  0.123942  1
  Zn  Zn14  1  0.371825  0.876058  0.876058  1
  Zn  Zn15  1  0.500000  0.000000  0.000000  1
  Zn  Zn16  1  0.000000  0.500000  0.500000  1
  Zn  Zn17  1  0.000000  0.500000  0.000000  1
  Zn  Zn18  1  0.500000  0.000000  0.500000  1
  Zn  Zn19  1  0.000000  0.000000  0.500000  1
  Zn  Zn20  1  0.500000  0.500000  0.000000  1
  Zn  Zn21  1  0.339154  0.339154  0.339154  1
  Zn  Zn22  1  0.660846  0.660846  0.660846  1
  Zn  Zn23  1  0.339154  0.339154  0.982539  1
  Zn  Zn24  1  0.339154  0.982539  0.339154  1
  Zn  Zn25  1  0.660846  0.660846  0.017461  1
  Zn  Zn26  1  0.660846  0.017461  0.660846  1
  Zn  Zn27  1  0.982539  0.339154  0.339154  1
  Zn  Zn28  1  0.017461  0.660846  0.660846  1
  Ga  Ga29  1  0.500000  0.500000  0.500000  1
