# generated using pymatgen
data_Lu12GaNi4Ru
_symmetry_space_group_name_H-M   'P 1'
_cell_length_a   8.06248670
_cell_length_b   8.06248714
_cell_length_c   8.06248614
_cell_angle_alpha   111.32425631
_cell_angle_beta   109.96127137
_cell_angle_gamma   107.15570107
_symmetry_Int_Tables_number   1
_chemical_formula_structural   Lu12GaNi4Ru
_chemical_formula_sum   'Lu12 Ga1 Ni4 Ru1'
_cell_volume   402.89453543
_cell_formula_units_Z   1
loop_
 _symmetry_equiv_pos_site_id
 _symmetry_equiv_pos_as_xyz
  1  'x, y, z'
loop_
 _atom_site_type_symbol
 _atom_site_label
 _atom_site_symmetry_multiplicity
 _atom_site_fract_x
 _atom_site_fract_y
 _atom_site_fract_z
 _atom_site_occupancy
  Lu  Lu0  1  0.418462  0.229142  0.189321  1
  Lu  Lu1  1  0.581538  0.770858  0.810679  1
  Lu  Lu2  1  0.039821  0.229142  0.810679  1
  Lu  Lu3  1  0.960179  0.770858  0.189321  1
  Lu  Lu4  1  0.180931  0.279327  0.460258  1
  Lu  Lu5  1  0.819069  0.720673  0.539742  1
  Lu  Lu6  1  0.180931  0.720673  0.901604  1
  Lu  Lu7  1  0.819069  0.279327  0.098396  1
  Lu  Lu8  1  0.324069  0.627440  0.303371  1
  Lu  Lu9  1  0.675931  0.372560  0.696629  1
  Lu  Lu10  1  0.324069  0.020698  0.696629  1
  Lu  Lu11  1  0.675931  0.979302  0.303371  1
  Ga  Ga12  1  0.500000  0.500000  0.000000  1
  Ni  Ni13  1  0.354515  0.000000  0.354515  1
  Ni  Ni14  1  0.645485  0.000000  0.645485  1
  Ni  Ni15  1  0.120485  0.620485  0.500000  1
  Ni  Ni16  1  0.879515  0.379515  0.500000  1
  Ru  Ru17  1  0.000000  0.000000  0.000000  1
