# generated using pymatgen
data_La20GaBi8Ru3
_symmetry_space_group_name_H-M   'P 1'
_cell_length_a   8.54067905
_cell_length_b   9.40760800
_cell_length_c   13.03694400
_cell_angle_alpha   90.00000000
_cell_angle_beta   90.07362662
_cell_angle_gamma   90.00000000
_symmetry_Int_Tables_number   1
_chemical_formula_structural   La20GaBi8Ru3
_chemical_formula_sum   'La20 Ga1 Bi8 Ru3'
_cell_volume   1047.48317546
_cell_formula_units_Z   1
loop_
 _symmetry_equiv_pos_site_id
 _symmetry_equiv_pos_as_xyz
  1  'x, y, z'
loop_
 _atom_site_type_symbol
 _atom_site_label
 _atom_site_symmetry_multiplicity
 _atom_site_fract_x
 _atom_site_fract_y
 _atom_site_fract_z
 _atom_site_occupancy
  La  La0  1  0.333486  0.750000  0.716159  1
  La  La1  1  0.650456  0.250000  0.294104  1
  La  La2  1  0.849491  0.250000  0.798779  1
  La  La3  1  0.147056  0.750000  0.198979  1
  La  La4  1  0.877292  0.750000  0.804500  1
  La  La5  1  0.122239  0.250000  0.194621  1
  La  La6  1  0.374999  0.250000  0.698043  1
  La  La7  1  0.635521  0.750000  0.292232  1
  La  La8  1  0.684435  0.520440  0.561908  1
  La  La9  1  0.316421  0.448296  0.437787  1
  La  La10  1  0.180782  0.465738  0.939416  1
  La  La11  1  0.316421  0.051704  0.437787  1
  La  La12  1  0.819727  0.535640  0.061657  1
  La  La13  1  0.684435  0.979560  0.561908  1
  La  La14  1  0.819727  0.964360  0.061657  1
  La  La15  1  0.180782  0.034262  0.939416  1
  La  La16  1  0.045439  0.750000  0.498264  1
  La  La17  1  0.954959  0.250000  0.502741  1
  La  La18  1  0.552933  0.250000  0.004430  1
  La  La19  1  0.458879  0.750000  0.997109  1
  Ga  Ga20  1  0.430620  0.750000  0.486091  1
  Bi  Bi21  1  0.571865  0.506432  0.826293  1
  Bi  Bi22  1  0.422584  0.494411  0.175139  1
  Bi  Bi23  1  0.073300  0.492054  0.672536  1
  Bi  Bi24  1  0.422584  0.005589  0.175139  1
  Bi  Bi25  1  0.925224  0.506705  0.327004  1
  Bi  Bi26  1  0.571865  0.993568  0.826293  1
  Bi  Bi27  1  0.925224  0.993295  0.327004  1
  Bi  Bi28  1  0.073300  0.007946  0.672536  1
  Ru  Ru29  1  0.082510  0.750000  0.979949  1
  Ru  Ru30  1  0.914839  0.250000  0.015509  1
  Ru  Ru31  1  0.580605  0.250000  0.515012  1
