# generated using pymatgen
data_Tb5Pr6Tm5(CdIr)4
_symmetry_space_group_name_H-M   'P 1'
_cell_length_a   9.77027135
_cell_length_b   9.74997352
_cell_length_c   9.74997330
_cell_angle_alpha   59.86583117
_cell_angle_beta   59.93111265
_cell_angle_gamma   59.93110935
_symmetry_Int_Tables_number   1
_chemical_formula_structural   Tb5Pr6Tm5(CdIr)4
_chemical_formula_sum   'Tb5 Pr6 Tm5 Cd4 Ir4'
_cell_volume   655.39648449
_cell_formula_units_Z   1
loop_
 _symmetry_equiv_pos_site_id
 _symmetry_equiv_pos_as_xyz
  1  'x, y, z'
loop_
 _atom_site_type_symbol
 _atom_site_label
 _atom_site_symmetry_multiplicity
 _atom_site_fract_x
 _atom_site_fract_y
 _atom_site_fract_z
 _atom_site_occupancy
  Tb  Tb0  1  0.346221  0.348455  0.348455  1
  Tb  Tb1  1  0.347766  0.348440  0.956028  1
  Tb  Tb2  1  0.347766  0.956028  0.348440  1
  Tb  Tb3  1  0.956869  0.348455  0.348455  1
  Tb  Tb4  1  0.814174  0.185826  0.185826  1
  Pr  Pr5  1  0.940595  0.559405  0.559405  1
  Pr  Pr6  1  0.558558  0.941442  0.941442  1
  Pr  Pr7  1  0.558216  0.940550  0.559210  1
  Pr  Pr8  1  0.942024  0.559210  0.940550  1
  Pr  Pr9  1  0.558216  0.559210  0.940550  1
  Pr  Pr10  1  0.942024  0.940550  0.559210  1
  Tm  Tm11  1  0.185411  0.814589  0.814589  1
  Tm  Tm12  1  0.187349  0.813211  0.184893  1
  Tm  Tm13  1  0.814547  0.184893  0.813211  1
  Tm  Tm14  1  0.187349  0.184893  0.813211  1
  Tm  Tm15  1  0.814547  0.813211  0.184893  1
  Cd  Cd16  1  0.579198  0.579088  0.579088  1
  Cd  Cd17  1  0.579095  0.579590  0.262217  1
  Cd  Cd18  1  0.579095  0.262217  0.579590  1
  Cd  Cd19  1  0.262623  0.579088  0.579088  1
  Ir  Ir20  1  0.141228  0.140495  0.140495  1
  Ir  Ir21  1  0.139672  0.141200  0.579456  1
  Ir  Ir22  1  0.139672  0.579456  0.141200  1
  Ir  Ir23  1  0.577781  0.140495  0.140495  1
