# generated using pymatgen
data_Tb16Y4Ru5Pt7
_symmetry_space_group_name_H-M   'P 1'
_cell_length_a   11.08940965
_cell_length_b   11.08940995
_cell_length_c   6.34862200
_cell_angle_alpha   90.01960767
_cell_angle_beta   90.01960767
_cell_angle_gamma   90.13393006
_symmetry_Int_Tables_number   1
_chemical_formula_structural   Tb16Y4Ru5Pt7
_chemical_formula_sum   'Tb16 Y4 Ru5 Pt7'
_cell_volume   780.71962739
_cell_formula_units_Z   1
loop_
 _symmetry_equiv_pos_site_id
 _symmetry_equiv_pos_as_xyz
  1  'x, y, z'
loop_
 _atom_site_type_symbol
 _atom_site_label
 _atom_site_symmetry_multiplicity
 _atom_site_fract_x
 _atom_site_fract_y
 _atom_site_fract_z
 _atom_site_occupancy
  Tb  Tb0  1  0.297108  0.085213  0.373528  1
  Tb  Tb1  1  0.296562  0.909337  0.873093  1
  Tb  Tb2  1  0.702817  0.085782  0.872890  1
  Tb  Tb3  1  0.703049  0.913576  0.372413  1
  Tb  Tb4  1  0.582756  0.794804  0.872279  1
  Tb  Tb5  1  0.586173  0.203938  0.373910  1
  Tb  Tb6  1  0.411499  0.793505  0.377754  1
  Tb  Tb7  1  0.413257  0.202139  0.873462  1
  Tb  Tb8  1  0.205196  0.417244  0.627721  1
  Tb  Tb9  1  0.206495  0.588501  0.122246  1
  Tb  Tb10  1  0.796062  0.413827  0.126090  1
  Tb  Tb11  1  0.797861  0.586743  0.626538  1
  Tb  Tb12  1  0.914787  0.702892  0.126472  1
  Tb  Tb13  1  0.914218  0.297183  0.627110  1
  Tb  Tb14  1  0.090663  0.703438  0.626907  1
  Tb  Tb15  1  0.086424  0.296951  0.127587  1
  Y  Y16  1  0.999752  0.999692  0.500559  1
  Y  Y17  1  0.000308  0.000248  0.999441  1
  Y  Y18  1  0.497003  0.501682  0.999154  1
  Y  Y19  1  0.498318  0.502997  0.500846  1
  Ru  Ru20  1  0.347662  0.652338  0.750000  1
  Ru  Ru21  1  0.500514  0.000611  0.124198  1
  Ru  Ru22  1  0.500109  0.000540  0.622683  1
  Ru  Ru23  1  0.999460  0.499891  0.877317  1
  Ru  Ru24  1  0.999389  0.499486  0.375802  1
  Pt  Pt25  1  0.846391  0.153609  0.250000  1
  Pt  Pt26  1  0.845494  0.846597  0.750555  1
  Pt  Pt27  1  0.153403  0.154506  0.749445  1
  Pt  Pt28  1  0.152633  0.847367  0.250000  1
  Pt  Pt29  1  0.653551  0.346449  0.750000  1
  Pt  Pt30  1  0.655233  0.654147  0.249940  1
  Pt  Pt31  1  0.345853  0.344767  0.250060  1
