# generated using pymatgen
data_Yb11Er5(TmSn4)4
_symmetry_space_group_name_H-M   'P 1'
_cell_length_a   7.80821700
_cell_length_b   8.40027764
_cell_length_c   15.90871900
_cell_angle_alpha   90.00725040
_cell_angle_beta   89.99911212
_cell_angle_gamma   89.88282039
_symmetry_Int_Tables_number   1
_chemical_formula_structural   Yb11Er5(TmSn4)4
_chemical_formula_sum   'Yb11 Er5 Tm4 Sn16'
_cell_volume   1043.46963008
_cell_formula_units_Z   1
loop_
 _symmetry_equiv_pos_site_id
 _symmetry_equiv_pos_as_xyz
  1  'x, y, z'
loop_
 _atom_site_type_symbol
 _atom_site_label
 _atom_site_symmetry_multiplicity
 _atom_site_fract_x
 _atom_site_fract_y
 _atom_site_fract_z
 _atom_site_occupancy
  Yb  Yb0  1  0.503958  0.687295  0.593580  1
  Yb  Yb1  1  0.003933  0.815152  0.908306  1
  Yb  Yb2  1  0.494280  0.311942  0.092206  1
  Yb  Yb3  1  0.995765  0.187120  0.408160  1
  Yb  Yb4  1  0.494407  0.311959  0.407822  1
  Yb  Yb5  1  0.995925  0.187118  0.091781  1
  Yb  Yb6  1  0.503823  0.687258  0.906474  1
  Yb  Yb7  1  0.003846  0.815207  0.591718  1
  Yb  Yb8  1  0.336281  0.989833  0.750032  1
  Yb  Yb9  1  0.163604  0.488210  0.249911  1
  Yb  Yb10  1  0.663291  0.009566  0.249959  1
  Er  Er11  1  0.826305  0.664223  0.378263  1
  Er  Er12  1  0.326158  0.833297  0.377965  1
  Er  Er13  1  0.826344  0.664224  0.121723  1
  Er  Er14  1  0.674089  0.163917  0.877735  1
  Er  Er15  1  0.175469  0.334903  0.622918  1
  Tm  Tm16  1  0.674244  0.163830  0.622345  1
  Tm  Tm17  1  0.175389  0.335126  0.877106  1
  Tm  Tm18  1  0.326053  0.833445  0.122003  1
  Tm  Tm19  1  0.838100  0.509805  0.750006  1
  Sn  Sn20  1  0.672068  0.962899  0.459461  1
  Sn  Sn21  1  0.172069  0.536575  0.040010  1
  Sn  Sn22  1  0.328134  0.037139  0.959356  1
  Sn  Sn23  1  0.828185  0.465259  0.544094  1
  Sn  Sn24  1  0.329035  0.037128  0.540864  1
  Sn  Sn25  1  0.829034  0.465497  0.955948  1
  Sn  Sn26  1  0.671578  0.962597  0.040817  1
  Sn  Sn27  1  0.171601  0.536463  0.459863  1
  Sn  Sn28  1  0.476077  0.379349  0.750061  1
  Sn  Sn29  1  0.971760  0.133019  0.749972  1
  Sn  Sn30  1  0.527612  0.625303  0.249870  1
  Sn  Sn31  1  0.027495  0.871996  0.249813  1
  Sn  Sn32  1  0.721861  0.865212  0.749933  1
  Sn  Sn33  1  0.209718  0.631025  0.750121  1
  Sn  Sn34  1  0.280762  0.126252  0.249846  1
  Sn  Sn35  1  0.781750  0.370854  0.249958  1
