# generated using pymatgen
data_Dy5Er5(Si5Ir2)4
_symmetry_space_group_name_H-M   'P 1'
_cell_length_a   12.62321900
_cell_length_b   12.62321900
_cell_length_c   4.25372200
_cell_angle_alpha   90.00000000
_cell_angle_beta   90.00000000
_cell_angle_gamma   90.00000000
_symmetry_Int_Tables_number   1
_chemical_formula_structural   Dy5Er5(Si5Ir2)4
_chemical_formula_sum   'Dy5 Er5 Si20 Ir8'
_cell_volume   677.81213071
_cell_formula_units_Z   1
loop_
 _symmetry_equiv_pos_site_id
 _symmetry_equiv_pos_as_xyz
  1  'x, y, z'
loop_
 _atom_site_type_symbol
 _atom_site_label
 _atom_site_symmetry_multiplicity
 _atom_site_fract_x
 _atom_site_fract_y
 _atom_site_fract_z
 _atom_site_occupancy
  Dy  Dy0  1  0.000000  0.000000  0.000000  1
  Dy  Dy1  1  0.883678  0.383710  0.500000  1
  Dy  Dy2  1  0.116322  0.616290  0.500000  1
  Dy  Dy3  1  0.383710  0.116322  0.500000  1
  Dy  Dy4  1  0.616290  0.883678  0.500000  1
  Er  Er5  1  0.500000  0.500000  0.000000  1
  Er  Er6  1  0.675779  0.175838  0.500000  1
  Er  Er7  1  0.324221  0.824162  0.500000  1
  Er  Er8  1  0.175838  0.324221  0.500000  1
  Er  Er9  1  0.824162  0.675779  0.500000  1
  Si  Si10  1  0.566003  0.066048  0.000000  1
  Si  Si11  1  0.433997  0.933952  0.000000  1
  Si  Si12  1  0.066048  0.433997  0.000000  1
  Si  Si13  1  0.933952  0.566003  0.000000  1
  Si  Si14  1  0.663532  0.700755  0.000000  1
  Si  Si15  1  0.336468  0.299245  0.000000  1
  Si  Si16  1  0.163551  0.799191  0.000000  1
  Si  Si17  1  0.836449  0.200809  0.000000  1
  Si  Si18  1  0.299245  0.663532  0.000000  1
  Si  Si19  1  0.700755  0.336468  0.000000  1
  Si  Si20  1  0.200809  0.163551  0.000000  1
  Si  Si21  1  0.799191  0.836449  0.000000  1
  Si  Si22  1  0.656432  0.502955  0.500000  1
  Si  Si23  1  0.343568  0.497045  0.500000  1
  Si  Si24  1  0.157035  0.997035  0.500000  1
  Si  Si25  1  0.842965  0.002965  0.500000  1
  Si  Si26  1  0.497045  0.656432  0.500000  1
  Si  Si27  1  0.502955  0.343568  0.500000  1
  Si  Si28  1  0.002965  0.157035  0.500000  1
  Si  Si29  1  0.997035  0.842965  0.500000  1
  Ir  Ir30  1  0.745373  0.521254  0.000000  1
  Ir  Ir31  1  0.254627  0.478746  0.000000  1
  Ir  Ir32  1  0.245827  0.978692  0.000000  1
  Ir  Ir33  1  0.754173  0.021308  0.000000  1
  Ir  Ir34  1  0.478746  0.745373  0.000000  1
  Ir  Ir35  1  0.521254  0.254627  0.000000  1
  Ir  Ir36  1  0.021308  0.245827  0.000000  1
  Ir  Ir37  1  0.978692  0.754173  0.000000  1
