# generated using pymatgen
data_Pr4TmGa2Sn
_symmetry_space_group_name_H-M   'P 1'
_cell_length_a   8.02265400
_cell_length_b   8.02265400
_cell_length_c   14.58996100
_cell_angle_alpha   90.00000000
_cell_angle_beta   90.00000000
_cell_angle_gamma   90.00000000
_symmetry_Int_Tables_number   1
_chemical_formula_structural   Pr4TmGa2Sn
_chemical_formula_sum   'Pr16 Tm4 Ga8 Sn4'
_cell_volume   939.05332725
_cell_formula_units_Z   4
loop_
 _symmetry_equiv_pos_site_id
 _symmetry_equiv_pos_as_xyz
  1  'x, y, z'
loop_
 _atom_site_type_symbol
 _atom_site_label
 _atom_site_symmetry_multiplicity
 _atom_site_fract_x
 _atom_site_fract_y
 _atom_site_fract_z
 _atom_site_occupancy
  Pr  Pr0  1  0.825172  0.839307  0.606490  1
  Pr  Pr1  1  0.174828  0.839307  0.106490  1
  Pr  Pr2  1  0.160693  0.825172  0.393510  1
  Pr  Pr3  1  0.839307  0.174828  0.393510  1
  Pr  Pr4  1  0.674828  0.660693  0.393510  1
  Pr  Pr5  1  0.660693  0.325172  0.606490  1
  Pr  Pr6  1  0.339307  0.674828  0.606490  1
  Pr  Pr7  1  0.660693  0.674828  0.106490  1
  Pr  Pr8  1  0.674828  0.339307  0.893510  1
  Pr  Pr9  1  0.839307  0.825172  0.893510  1
  Pr  Pr10  1  0.325172  0.339307  0.393510  1
  Pr  Pr11  1  0.174828  0.160693  0.606490  1
  Pr  Pr12  1  0.825172  0.160693  0.106490  1
  Pr  Pr13  1  0.325172  0.660693  0.893510  1
  Pr  Pr14  1  0.339307  0.325172  0.106490  1
  Pr  Pr15  1  0.160693  0.174828  0.893510  1
  Tm  Tm16  1  0.000000  0.500000  0.732206  1
  Tm  Tm17  1  0.000000  0.500000  0.232206  1
  Tm  Tm18  1  0.500000  0.000000  0.267794  1
  Tm  Tm19  1  0.500000  0.000000  0.767794  1
  Ga  Ga20  1  0.626779  0.373221  0.250000  1
  Ga  Ga21  1  0.126779  0.873221  0.750000  1
  Ga  Ga22  1  0.373221  0.373221  0.750000  1
  Ga  Ga23  1  0.373221  0.626779  0.250000  1
  Ga  Ga24  1  0.873221  0.873221  0.250000  1
  Ga  Ga25  1  0.626779  0.626779  0.750000  1
  Ga  Ga26  1  0.873221  0.126779  0.750000  1
  Ga  Ga27  1  0.126779  0.126779  0.250000  1
  Sn  Sn28  1  0.000000  0.500000  0.508079  1
  Sn  Sn29  1  0.500000  0.000000  0.491921  1
  Sn  Sn30  1  0.500000  0.000000  0.991921  1
  Sn  Sn31  1  0.000000  0.500000  0.008079  1
