# generated using pymatgen
data_Nd6Dy10Cd4Os3Pd
_symmetry_space_group_name_H-M   'P 1'
_cell_length_a   9.68204583
_cell_length_b   9.85324239
_cell_length_c   9.85324200
_cell_angle_alpha   59.99938825
_cell_angle_beta   59.41274799
_cell_angle_gamma   59.41269975
_symmetry_Int_Tables_number   1
_chemical_formula_structural   Nd6Dy10Cd4Os3Pd
_chemical_formula_sum   'Nd6 Dy10 Cd4 Os3 Pd1'
_cell_volume   658.71235196
_cell_formula_units_Z   1
loop_
 _symmetry_equiv_pos_site_id
 _symmetry_equiv_pos_as_xyz
  1  'x, y, z'
loop_
 _atom_site_type_symbol
 _atom_site_label
 _atom_site_symmetry_multiplicity
 _atom_site_fract_x
 _atom_site_fract_y
 _atom_site_fract_z
 _atom_site_occupancy
  Nd  Nd0  1  0.936234  0.560690  0.560690  1
  Nd  Nd1  1  0.553136  0.941730  0.941730  1
  Nd  Nd2  1  0.553143  0.941724  0.563404  1
  Nd  Nd3  1  0.936254  0.560677  0.942391  1
  Nd  Nd4  1  0.553143  0.563404  0.941724  1
  Nd  Nd5  1  0.936254  0.942391  0.560677  1
  Dy  Dy6  1  0.343409  0.349975  0.349973  1
  Dy  Dy7  1  0.343416  0.349981  0.956640  1
  Dy  Dy8  1  0.343416  0.956640  0.349980  1
  Dy  Dy9  1  0.972156  0.342620  0.342618  1
  Dy  Dy10  1  0.818149  0.187727  0.187727  1
  Dy  Dy11  1  0.184265  0.813067  0.813070  1
  Dy  Dy12  1  0.184266  0.813055  0.189600  1
  Dy  Dy13  1  0.818160  0.187727  0.806386  1
  Dy  Dy14  1  0.184266  0.189600  0.813056  1
  Dy  Dy15  1  0.818162  0.806384  0.187728  1
  Cd  Cd16  1  0.579330  0.578228  0.578228  1
  Cd  Cd17  1  0.579327  0.578231  0.264212  1
  Cd  Cd18  1  0.579326  0.264212  0.578231  1
  Cd  Cd19  1  0.259795  0.580068  0.580068  1
  Os  Os20  1  0.148762  0.136402  0.136401  1
  Os  Os21  1  0.148756  0.136407  0.578431  1
  Os  Os22  1  0.148754  0.578431  0.136407  1
  Pd  Pd23  1  0.578123  0.140628  0.140628  1
