# generated using pymatgen
data_Ce2Ni3BRh3
_symmetry_space_group_name_H-M   'P 1'
_cell_length_a   5.81211591
_cell_length_b   5.81211521
_cell_length_c   5.62329844
_cell_angle_alpha   58.88289203
_cell_angle_beta   58.88289742
_cell_angle_gamma   59.99999894
_symmetry_Int_Tables_number   1
_chemical_formula_structural   Ce2Ni3BRh3
_chemical_formula_sum   'Ce2 Ni3 B1 Rh3'
_cell_volume   132.00833097
_cell_formula_units_Z   1
loop_
 _symmetry_equiv_pos_site_id
 _symmetry_equiv_pos_as_xyz
  1  'x, y, z'
loop_
 _atom_site_type_symbol
 _atom_site_label
 _atom_site_symmetry_multiplicity
 _atom_site_fract_x
 _atom_site_fract_y
 _atom_site_fract_z
 _atom_site_occupancy
  Ce  Ce0  1  0.250720  0.250720  0.247835  1
  Ce  Ce1  1  0.755282  0.755282  0.734151  1
  Ni  Ni2  1  0.738336  0.274576  0.248752  1
  Ni  Ni3  1  0.738336  0.738336  0.248752  1
  Ni  Ni4  1  0.274576  0.738336  0.248752  1
  B  B5  1  0.987176  0.987176  0.038472  1
  Rh  Rh6  1  0.254446  0.746680  0.744427  1
  Rh  Rh7  1  0.254446  0.254446  0.744427  1
  Rh  Rh8  1  0.746680  0.254446  0.744427  1
