# generated using pymatgen
data_Pr4Sn5AsRh7
_symmetry_space_group_name_H-M   'P 1'
_cell_length_a   7.71907060
_cell_length_b   7.71907127
_cell_length_c   7.71906971
_cell_angle_alpha   109.95382899
_cell_angle_beta   108.51026179
_cell_angle_gamma   109.95382686
_symmetry_Int_Tables_number   1
_chemical_formula_structural   Pr4Sn5AsRh7
_chemical_formula_sum   'Pr4 Sn5 As1 Rh7'
_cell_volume   353.98240155
_cell_formula_units_Z   1
loop_
 _symmetry_equiv_pos_site_id
 _symmetry_equiv_pos_as_xyz
  1  'x, y, z'
loop_
 _atom_site_type_symbol
 _atom_site_label
 _atom_site_symmetry_multiplicity
 _atom_site_fract_x
 _atom_site_fract_y
 _atom_site_fract_z
 _atom_site_occupancy
  Pr  Pr0  1  0.478825  0.471420  0.478825  1
  Pr  Pr1  1  0.007405  0.528580  0.007405  1
  Pr  Pr2  1  0.478825  0.000000  0.007405  1
  Pr  Pr3  1  0.007405  0.000000  0.478825  1
  Sn  Sn4  1  0.700914  0.000000  0.700914  1
  Sn  Sn5  1  0.665083  0.678031  0.987052  1
  Sn  Sn6  1  0.309021  0.321969  0.987052  1
  Sn  Sn7  1  0.987052  0.678031  0.665083  1
  Sn  Sn8  1  0.987052  0.321969  0.309021  1
  As  As9  1  0.352231  0.000000  0.352231  1
  Rh  Rh10  1  0.506741  0.755582  0.262324  1
  Rh  Rh11  1  0.751159  0.244418  0.506741  1
  Rh  Rh12  1  0.262324  0.755582  0.506741  1
  Rh  Rh13  1  0.240161  0.500000  0.740161  1
  Rh  Rh14  1  0.018899  0.000000  0.018899  1
  Rh  Rh15  1  0.506741  0.244418  0.751159  1
  Rh  Rh16  1  0.740161  0.500000  0.240161  1
