# generated using pymatgen
data_CsNdEr9(C2Br9)2
_symmetry_space_group_name_H-M   'P 1'
_cell_length_a   10.63116654
_cell_length_b   10.71621251
_cell_length_c   10.85946852
_cell_angle_alpha   113.33357317
_cell_angle_beta   87.64230243
_cell_angle_gamma   118.73293118
_symmetry_Int_Tables_number   1
_chemical_formula_structural   CsNdEr9(C2Br9)2
_chemical_formula_sum   'Cs1 Nd1 Er9 C4 Br18'
_cell_volume   978.84824248
_cell_formula_units_Z   1
loop_
 _symmetry_equiv_pos_site_id
 _symmetry_equiv_pos_as_xyz
  1  'x, y, z'
loop_
 _atom_site_type_symbol
 _atom_site_label
 _atom_site_symmetry_multiplicity
 _atom_site_fract_x
 _atom_site_fract_y
 _atom_site_fract_z
 _atom_site_occupancy
  Cs  Cs0  1  0.499836  0.999686  0.500415  1
  Nd  Nd1  1  0.882383  0.060059  0.999226  1
  Er  Er2  1  0.663740  0.716742  0.702622  1
  Er  Er3  1  0.282532  0.364657  0.013955  1
  Er  Er4  1  0.094154  0.406239  0.300616  1
  Er  Er5  1  0.962496  0.037437  0.333077  1
  Er  Er6  1  0.907168  0.591713  0.698339  1
  Er  Er7  1  0.109914  0.942711  0.000902  1
  Er  Er8  1  0.039164  0.961748  0.666931  1
  Er  Er9  1  0.339232  0.283864  0.298336  1
  Er  Er10  1  0.718841  0.634490  0.985889  1
  C  C11  1  0.161964  0.231072  0.126983  1
  C  C12  1  0.842596  0.766433  0.872879  1
  C  C13  1  0.921738  0.846235  0.792091  1
  C  C14  1  0.082942  0.151465  0.207958  1
  Br  Br15  1  0.452022  0.530817  0.833950  1
  Br  Br16  1  0.382100  0.039485  0.160054  1
  Br  Br17  1  0.778690  0.858226  0.501671  1
  Br  Br18  1  0.838602  0.325557  0.164525  1
  Br  Br19  1  0.549343  0.470043  0.166207  1
  Br  Br20  1  0.222298  0.141672  0.499093  1
  Br  Br21  1  0.312940  0.099401  0.830654  1
  Br  Br22  1  0.684373  0.896460  0.173664  1
  Br  Br23  1  0.975023  0.761630  0.171722  1
  Br  Br24  1  0.932778  0.301214  0.499613  1
  Br  Br25  1  0.030431  0.241973  0.823899  1
  Br  Br26  1  0.068183  0.698698  0.500173  1
  Br  Br27  1  0.259952  0.622421  0.187252  1
  Br  Br28  1  0.739678  0.376003  0.812207  1
  Br  Br29  1  0.638907  0.434262  0.500664  1
  Br  Br30  1  0.161489  0.690011  0.846395  1
  Br  Br31  1  0.603862  0.952339  0.828943  1
  Br  Br32  1  0.360624  0.565236  0.499094  1
