# generated using pymatgen
data_TbYb6Sm(Cu2Sn5)2
_symmetry_space_group_name_H-M   'P 1'
_cell_length_a   4.46131400
_cell_length_b   8.82046900
_cell_length_c   14.12543000
_cell_angle_alpha   90.00000000
_cell_angle_beta   90.00000000
_cell_angle_gamma   90.00000000
_symmetry_Int_Tables_number   1
_chemical_formula_structural   TbYb6Sm(Cu2Sn5)2
_chemical_formula_sum   'Tb1 Yb6 Sm1 Cu4 Sn10'
_cell_volume   555.84812682
_cell_formula_units_Z   1
loop_
 _symmetry_equiv_pos_site_id
 _symmetry_equiv_pos_as_xyz
  1  'x, y, z'
loop_
 _atom_site_type_symbol
 _atom_site_label
 _atom_site_symmetry_multiplicity
 _atom_site_fract_x
 _atom_site_fract_y
 _atom_site_fract_z
 _atom_site_occupancy
  Tb  Tb0  1  0.000000  0.300345  0.500000  1
  Yb  Yb1  1  0.500000  0.792750  0.742518  1
  Yb  Yb2  1  0.000000  0.207488  0.757152  1
  Yb  Yb3  1  0.000000  0.207488  0.242848  1
  Yb  Yb4  1  0.500000  0.138944  0.000000  1
  Yb  Yb5  1  0.000000  0.861869  0.500000  1
  Yb  Yb6  1  0.500000  0.792750  0.257482  1
  Sm  Sm7  1  0.500000  0.699980  0.000000  1
  Cu  Cu8  1  0.500000  0.377439  0.645217  1
  Cu  Cu9  1  0.000000  0.621678  0.853654  1
  Cu  Cu10  1  0.000000  0.621678  0.146346  1
  Cu  Cu11  1  0.500000  0.377439  0.354783  1
  Sn  Sn12  1  0.500000  0.085089  0.396293  1
  Sn  Sn13  1  0.000000  0.554523  0.663522  1
  Sn  Sn14  1  0.000000  0.406973  0.000000  1
  Sn  Sn15  1  0.500000  0.444662  0.164416  1
  Sn  Sn16  1  0.500000  0.592192  0.500000  1
  Sn  Sn17  1  0.500000  0.444662  0.835584  1
  Sn  Sn18  1  0.000000  0.916219  0.895674  1
  Sn  Sn19  1  0.000000  0.554523  0.336478  1
  Sn  Sn20  1  0.500000  0.085089  0.603707  1
  Sn  Sn21  1  0.000000  0.916219  0.104326  1
