# generated using pymatgen
data_Y3Zn3Ge2Pt
_symmetry_space_group_name_H-M   'P 1'
_cell_length_a   6.93976900
_cell_length_b   6.93976903
_cell_length_c   4.28149300
_cell_angle_alpha   90.00000000
_cell_angle_beta   90.00000000
_cell_angle_gamma   120.00000461
_symmetry_Int_Tables_number   1
_chemical_formula_structural   Y3Zn3Ge2Pt
_chemical_formula_sum   'Y3 Zn3 Ge2 Pt1'
_cell_volume   178.57303550
_cell_formula_units_Z   1
loop_
 _symmetry_equiv_pos_site_id
 _symmetry_equiv_pos_as_xyz
  1  'x, y, z'
loop_
 _atom_site_type_symbol
 _atom_site_label
 _atom_site_symmetry_multiplicity
 _atom_site_fract_x
 _atom_site_fract_y
 _atom_site_fract_z
 _atom_site_occupancy
  Y  Y0  1  0.414522  0.000000  0.000000  1
  Y  Y1  1  0.000000  0.414522  0.000000  1
  Y  Y2  1  0.585478  0.585478  0.000000  1
  Zn  Zn3  1  0.764919  0.000000  0.500001  1
  Zn  Zn4  1  0.235081  0.235080  0.500001  1
  Zn  Zn5  1  0.000000  0.764920  0.500001  1
  Ge  Ge6  1  0.666667  0.333334  0.500001  1
  Ge  Ge7  1  0.333333  0.666666  0.500001  1
  Pt  Pt8  1  0.000000  0.000000  0.000000  1
