# generated using pymatgen
data_Er18Th2Si15Ir
_symmetry_space_group_name_H-M   'P 1'
_cell_length_a   7.40755677
_cell_length_b   7.63770854
_cell_length_c   14.49609221
_cell_angle_alpha   90.08347235
_cell_angle_beta   90.64088476
_cell_angle_gamma   90.25934338
_symmetry_Int_Tables_number   1
_chemical_formula_structural   Er18Th2Si15Ir
_chemical_formula_sum   'Er18 Th2 Si15 Ir1'
_cell_volume   820.08128516
_cell_formula_units_Z   1
loop_
 _symmetry_equiv_pos_site_id
 _symmetry_equiv_pos_as_xyz
  1  'x, y, z'
loop_
 _atom_site_type_symbol
 _atom_site_label
 _atom_site_symmetry_multiplicity
 _atom_site_fract_x
 _atom_site_fract_y
 _atom_site_fract_z
 _atom_site_occupancy
  Er  Er0  1  0.321167  0.818386  0.122205  1
  Er  Er1  1  0.816291  0.678610  0.122404  1
  Er  Er2  1  0.852372  0.505859  0.750165  1
  Er  Er3  1  0.469091  0.315226  0.099566  1
  Er  Er4  1  0.028908  0.816367  0.900481  1
  Er  Er5  1  0.475546  0.314241  0.401960  1
  Er  Er6  1  0.651562  0.011725  0.257317  1
  Er  Er7  1  0.531246  0.682429  0.901322  1
  Er  Er8  1  0.681530  0.179766  0.878884  1
  Er  Er9  1  0.180117  0.324279  0.624941  1
  Er  Er10  1  0.185343  0.323419  0.877805  1
  Er  Er11  1  0.817282  0.686020  0.380127  1
  Er  Er12  1  0.324522  0.824780  0.376241  1
  Er  Er13  1  0.352926  0.991562  0.749506  1
  Er  Er14  1  0.680733  0.168570  0.619561  1
  Er  Er15  1  0.145776  0.488516  0.252695  1
  Er  Er16  1  0.971120  0.182141  0.098479  1
  Er  Er17  1  0.969647  0.173153  0.401273  1
  Th  Th18  1  0.024272  0.822237  0.598251  1
  Th  Th19  1  0.520056  0.682802  0.593655  1
  Si  Si20  1  0.232549  0.629145  0.752676  1
  Si  Si21  1  0.344154  0.035673  0.537914  1
  Si  Si22  1  0.026721  0.892910  0.244685  1
  Si  Si23  1  0.732062  0.869778  0.753816  1
  Si  Si24  1  0.264845  0.127136  0.245631  1
  Si  Si25  1  0.854915  0.469284  0.541995  1
  Si  Si26  1  0.481778  0.393097  0.750674  1
  Si  Si27  1  0.150675  0.528354  0.459935  1
  Si  Si28  1  0.145843  0.527132  0.041590  1
  Si  Si29  1  0.977808  0.106854  0.753292  1
  Si  Si30  1  0.766956  0.375698  0.247831  1
  Si  Si31  1  0.352302  0.029189  0.959993  1
  Si  Si32  1  0.856750  0.472046  0.958862  1
  Si  Si33  1  0.645836  0.971661  0.040759  1
  Si  Si34  1  0.520808  0.601710  0.246909  1
  Ir  Ir35  1  0.646489  0.980243  0.456599  1
