# generated using pymatgen
data_SmDyEr6(Si3Rh)4
_symmetry_space_group_name_H-M   'P 1'
_cell_length_a   8.16553800
_cell_length_b   8.16553770
_cell_length_c   7.87807200
_cell_angle_alpha   90.00000000
_cell_angle_beta   90.00000000
_cell_angle_gamma   120.00000121
_symmetry_Int_Tables_number   1
_chemical_formula_structural   SmDyEr6(Si3Rh)4
_chemical_formula_sum   'Sm1 Dy1 Er6 Si12 Rh4'
_cell_volume   454.90442847
_cell_formula_units_Z   1
loop_
 _symmetry_equiv_pos_site_id
 _symmetry_equiv_pos_as_xyz
  1  'x, y, z'
loop_
 _atom_site_type_symbol
 _atom_site_label
 _atom_site_symmetry_multiplicity
 _atom_site_fract_x
 _atom_site_fract_y
 _atom_site_fract_z
 _atom_site_occupancy
  Sm  Sm0  1  0.000000  0.000000  0.250000  1
  Dy  Dy1  1  0.000000  0.000000  0.750000  1
  Er  Er2  1  0.491997  0.508003  0.250000  1
  Er  Er3  1  0.491997  0.983994  0.250000  1
  Er  Er4  1  0.016006  0.508003  0.250000  1
  Er  Er5  1  0.508001  0.491999  0.750000  1
  Er  Er6  1  0.983998  0.491999  0.750000  1
  Er  Er7  1  0.508001  0.016002  0.750000  1
  Si  Si8  1  0.832591  0.167409  0.502020  1
  Si  Si9  1  0.832591  0.665183  0.502020  1
  Si  Si10  1  0.334817  0.167409  0.502020  1
  Si  Si11  1  0.832591  0.167409  0.997980  1
  Si  Si12  1  0.832591  0.665183  0.997980  1
  Si  Si13  1  0.334817  0.167409  0.997980  1
  Si  Si14  1  0.167473  0.832527  0.000345  1
  Si  Si15  1  0.665054  0.832527  0.000345  1
  Si  Si16  1  0.167473  0.334946  0.000345  1
  Si  Si17  1  0.167473  0.832527  0.499655  1
  Si  Si18  1  0.665054  0.832527  0.499655  1
  Si  Si19  1  0.167473  0.334946  0.499655  1
  Rh  Rh20  1  0.666667  0.333333  0.467267  1
  Rh  Rh21  1  0.666667  0.333333  0.032733  1
  Rh  Rh22  1  0.333333  0.666667  0.966245  1
  Rh  Rh23  1  0.333333  0.666667  0.533755  1
