# generated using pymatgen
data_NdScB6Ru
_symmetry_space_group_name_H-M   'P 1'
_cell_length_a   3.62508300
_cell_length_b   9.06556700
_cell_length_c   11.50087700
_cell_angle_alpha   90.00000000
_cell_angle_beta   90.00000000
_cell_angle_gamma   90.00000000
_symmetry_Int_Tables_number   1
_chemical_formula_structural   NdScB6Ru
_chemical_formula_sum   'Nd4 Sc4 B24 Ru4'
_cell_volume   377.95829863
_cell_formula_units_Z   4
loop_
 _symmetry_equiv_pos_site_id
 _symmetry_equiv_pos_as_xyz
  1  'x, y, z'
loop_
 _atom_site_type_symbol
 _atom_site_label
 _atom_site_symmetry_multiplicity
 _atom_site_fract_x
 _atom_site_fract_y
 _atom_site_fract_z
 _atom_site_occupancy
  Nd  Nd0  1  0.000000  0.821300  0.084818  1
  Nd  Nd1  1  0.000000  0.178700  0.915182  1
  Nd  Nd2  1  0.000000  0.321300  0.415182  1
  Nd  Nd3  1  0.000000  0.678700  0.584818  1
  Sc  Sc4  1  0.000000  0.445539  0.126711  1
  Sc  Sc5  1  0.000000  0.554461  0.873289  1
  Sc  Sc6  1  0.000000  0.945539  0.373289  1
  Sc  Sc7  1  0.000000  0.054461  0.626711  1
  B  B8  1  0.500000  0.057470  0.070340  1
  B  B9  1  0.500000  0.942530  0.929660  1
  B  B10  1  0.500000  0.557470  0.429660  1
  B  B11  1  0.500000  0.442530  0.570340  1
  B  B12  1  0.500000  0.254384  0.083980  1
  B  B13  1  0.500000  0.745616  0.916020  1
  B  B14  1  0.500000  0.754384  0.416020  1
  B  B15  1  0.500000  0.245616  0.583980  1
  B  B16  1  0.500000  0.293721  0.234459  1
  B  B17  1  0.500000  0.706279  0.765541  1
  B  B18  1  0.500000  0.793721  0.265541  1
  B  B19  1  0.500000  0.206279  0.734459  1
  B  B20  1  0.500000  0.128500  0.317349  1
  B  B21  1  0.500000  0.871500  0.682651  1
  B  B22  1  0.500000  0.628500  0.182651  1
  B  B23  1  0.500000  0.371500  0.817349  1
  B  B24  1  0.500000  0.484306  0.284231  1
  B  B25  1  0.500000  0.515694  0.715769  1
  B  B26  1  0.500000  0.984306  0.215769  1
  B  B27  1  0.500000  0.015694  0.784231  1
  B  B28  1  0.500000  0.097169  0.474221  1
  B  B29  1  0.500000  0.902831  0.525779  1
  B  B30  1  0.500000  0.597169  0.025779  1
  B  B31  1  0.500000  0.402831  0.974221  1
  Ru  Ru32  1  0.000000  0.141548  0.183090  1
  Ru  Ru33  1  0.000000  0.858452  0.816910  1
  Ru  Ru34  1  0.000000  0.641548  0.316910  1
  Ru  Ru35  1  0.000000  0.358452  0.683090  1
