# generated using pymatgen
data_YEr4(Cd2Pd)2
_symmetry_space_group_name_H-M   'P 1'
_cell_length_a   3.64082600
_cell_length_b   7.94598700
_cell_length_c   18.27763400
_cell_angle_alpha   90.00000000
_cell_angle_beta   90.00000000
_cell_angle_gamma   90.00000000
_symmetry_Int_Tables_number   1
_chemical_formula_structural   YEr4(Cd2Pd)2
_chemical_formula_sum   'Y2 Er8 Cd8 Pd4'
_cell_volume   528.77114860
_cell_formula_units_Z   2
loop_
 _symmetry_equiv_pos_site_id
 _symmetry_equiv_pos_as_xyz
  1  'x, y, z'
loop_
 _atom_site_type_symbol
 _atom_site_label
 _atom_site_symmetry_multiplicity
 _atom_site_fract_x
 _atom_site_fract_y
 _atom_site_fract_z
 _atom_site_occupancy
  Y  Y0  1  0.000000  0.500000  0.500000  1
  Y  Y1  1  0.000000  0.000000  0.000000  1
  Er  Er2  1  0.000000  0.739234  0.282002  1
  Er  Er3  1  0.000000  0.260766  0.717998  1
  Er  Er4  1  0.000000  0.760766  0.782002  1
  Er  Er5  1  0.000000  0.239234  0.217998  1
  Er  Er6  1  0.000000  0.614419  0.084778  1
  Er  Er7  1  0.000000  0.385581  0.915222  1
  Er  Er8  1  0.000000  0.885581  0.584778  1
  Er  Er9  1  0.000000  0.114419  0.415222  1
  Cd  Cd10  1  0.500000  0.710806  0.932859  1
  Cd  Cd11  1  0.500000  0.289194  0.067141  1
  Cd  Cd12  1  0.500000  0.789194  0.432859  1
  Cd  Cd13  1  0.500000  0.210806  0.567141  1
  Cd  Cd14  1  0.500000  0.577385  0.649048  1
  Cd  Cd15  1  0.500000  0.422615  0.350952  1
  Cd  Cd16  1  0.500000  0.922615  0.149048  1
  Cd  Cd17  1  0.500000  0.077385  0.850952  1
  Pd  Pd18  1  0.500000  0.525191  0.195357  1
  Pd  Pd19  1  0.500000  0.474809  0.804643  1
  Pd  Pd20  1  0.500000  0.974809  0.695357  1
  Pd  Pd21  1  0.500000  0.025191  0.304643  1
