# generated using pymatgen
data_Hf6Ti3Si6Mo
_symmetry_space_group_name_H-M   'P 1'
_cell_length_a   7.73621200
_cell_length_b   7.73621190
_cell_length_c   5.25044400
_cell_angle_alpha   90.00000000
_cell_angle_beta   90.00000000
_cell_angle_gamma   120.00000045
_symmetry_Int_Tables_number   1
_chemical_formula_structural   Hf6Ti3Si6Mo
_chemical_formula_sum   'Hf6 Ti3 Si6 Mo1'
_cell_volume   272.13435986
_cell_formula_units_Z   1
loop_
 _symmetry_equiv_pos_site_id
 _symmetry_equiv_pos_as_xyz
  1  'x, y, z'
loop_
 _atom_site_type_symbol
 _atom_site_label
 _atom_site_symmetry_multiplicity
 _atom_site_fract_x
 _atom_site_fract_y
 _atom_site_fract_z
 _atom_site_occupancy
  Hf  Hf0  1  0.251094  0.000166  0.248884  1
  Hf  Hf1  1  0.251094  0.250929  0.751116  1
  Hf  Hf2  1  0.999834  0.748906  0.751116  1
  Hf  Hf3  1  0.999834  0.250929  0.248884  1
  Hf  Hf4  1  0.749071  0.748906  0.248884  1
  Hf  Hf5  1  0.749071  0.000166  0.751116  1
  Ti  Ti6  1  0.666667  0.333333  0.500000  1
  Ti  Ti7  1  0.666667  0.333333  0.000000  1
  Ti  Ti8  1  0.333333  0.666667  0.500000  1
  Si  Si9  1  0.602340  0.999356  0.248836  1
  Si  Si10  1  0.602340  0.602984  0.751164  1
  Si  Si11  1  0.000644  0.397660  0.751164  1
  Si  Si12  1  0.000644  0.602984  0.248836  1
  Si  Si13  1  0.397016  0.397660  0.248836  1
  Si  Si14  1  0.397016  0.999356  0.751164  1
  Mo  Mo15  1  0.333333  0.666667  0.000000  1
