# generated using pymatgen
data_Ca2PrNi9
_symmetry_space_group_name_H-M   'P 1'
_cell_length_a   8.63997338
_cell_length_b   8.63997324
_cell_length_c   8.63997319
_cell_angle_alpha   33.79030832
_cell_angle_beta   33.79030871
_cell_angle_gamma   33.79030516
_symmetry_Int_Tables_number   1
_chemical_formula_structural   Ca2PrNi9
_chemical_formula_sum   'Ca2 Pr1 Ni9'
_cell_volume   177.76194871
_cell_formula_units_Z   1
loop_
 _symmetry_equiv_pos_site_id
 _symmetry_equiv_pos_as_xyz
  1  'x, y, z'
loop_
 _atom_site_type_symbol
 _atom_site_label
 _atom_site_symmetry_multiplicity
 _atom_site_fract_x
 _atom_site_fract_y
 _atom_site_fract_z
 _atom_site_occupancy
  Ca  Ca0  1  0.858252  0.858252  0.858252  1
  Ca  Ca1  1  0.141748  0.141748  0.141748  1
  Pr  Pr2  1  0.000000  0.000000  0.000000  1
  Ni  Ni3  1  0.083356  0.579764  0.579764  1
  Ni  Ni4  1  0.916644  0.420236  0.420236  1
  Ni  Ni5  1  0.667496  0.667496  0.667496  1
  Ni  Ni6  1  0.579764  0.579764  0.083356  1
  Ni  Ni7  1  0.420236  0.916644  0.420236  1
  Ni  Ni8  1  0.332504  0.332504  0.332504  1
  Ni  Ni9  1  0.500000  0.500000  0.500000  1
  Ni  Ni10  1  0.420236  0.420236  0.916644  1
  Ni  Ni11  1  0.579764  0.083356  0.579764  1
