# generated using pymatgen
data_DyHo7Si8(PdPt3)2
_symmetry_space_group_name_H-M   'P 1'
_cell_length_a   4.27067500
_cell_length_b   7.48732548
_cell_length_c   14.01166416
_cell_angle_alpha   89.93606967
_cell_angle_beta   90.00000000
_cell_angle_gamma   90.00000000
_symmetry_Int_Tables_number   1
_chemical_formula_structural   DyHo7Si8(PdPt3)2
_chemical_formula_sum   'Dy1 Ho7 Si8 Pd2 Pt6'
_cell_volume   448.03576611
_cell_formula_units_Z   1
loop_
 _symmetry_equiv_pos_site_id
 _symmetry_equiv_pos_as_xyz
  1  'x, y, z'
loop_
 _atom_site_type_symbol
 _atom_site_label
 _atom_site_symmetry_multiplicity
 _atom_site_fract_x
 _atom_site_fract_y
 _atom_site_fract_z
 _atom_site_occupancy
  Dy  Dy0  1  0.000000  0.299574  0.999974  1
  Ho  Ho1  1  0.500000  0.795429  0.749906  1
  Ho  Ho2  1  0.000000  0.204382  0.749624  1
  Ho  Ho3  1  0.500000  0.795377  0.250770  1
  Ho  Ho4  1  0.000000  0.204381  0.249700  1
  Ho  Ho5  1  0.500000  0.706897  0.000306  1
  Ho  Ho6  1  0.000000  0.293422  0.499685  1
  Ho  Ho7  1  0.500000  0.700671  0.499991  1
  Si  Si8  1  0.500000  0.404211  0.642545  1
  Si  Si9  1  0.000000  0.595986  0.856976  1
  Si  Si10  1  0.500000  0.407155  0.352144  1
  Si  Si11  1  0.000000  0.592963  0.148146  1
  Si  Si12  1  0.500000  0.092797  0.092743  1
  Si  Si13  1  0.000000  0.906898  0.407653  1
  Si  Si14  1  0.500000  0.091682  0.907742  1
  Si  Si15  1  0.000000  0.907858  0.591923  1
  Pd  Pd16  1  0.500000  0.421300  0.840054  1
  Pd  Pd17  1  0.000000  0.579137  0.659047  1
  Pt  Pt18  1  0.500000  0.074865  0.608787  1
  Pt  Pt19  1  0.000000  0.924857  0.890963  1
  Pt  Pt20  1  0.500000  0.076544  0.391434  1
  Pt  Pt21  1  0.000000  0.923198  0.108839  1
  Pt  Pt22  1  0.500000  0.420267  0.154269  1
  Pt  Pt23  1  0.000000  0.580147  0.346777  1
