# generated using pymatgen
data_NaV3Fe2NiO12
_symmetry_space_group_name_H-M   'P 1'
_cell_length_a   6.80490367
_cell_length_b   8.30944373
_cell_length_c   9.95644888
_cell_angle_alpha   106.68566755
_cell_angle_beta   104.39127699
_cell_angle_gamma   102.31754954
_symmetry_Int_Tables_number   1
_chemical_formula_structural   NaV3Fe2NiO12
_chemical_formula_sum   'Na2 V6 Fe4 Ni2 O24'
_cell_volume   497.16300692
_cell_formula_units_Z   2
loop_
 _symmetry_equiv_pos_site_id
 _symmetry_equiv_pos_as_xyz
  1  'x, y, z'
loop_
 _atom_site_type_symbol
 _atom_site_label
 _atom_site_symmetry_multiplicity
 _atom_site_fract_x
 _atom_site_fract_y
 _atom_site_fract_z
 _atom_site_occupancy
  Na  Na0  1  0.552776  0.014468  0.541733  1
  Na  Na1  1  0.022204  0.964065  0.430890  1
  V  V2  1  0.612568  0.591464  0.330913  1
  V  V3  1  0.385816  0.406093  0.666241  1
  V  V4  1  0.725870  0.165586  0.260909  1
  V  V5  1  0.269938  0.834505  0.737635  1
  V  V6  1  0.908748  0.228300  0.876132  1
  V  V7  1  0.086846  0.771677  0.123084  1
  Fe  Fe8  1  0.880248  0.449306  0.607514  1
  Fe  Fe9  1  0.117548  0.550397  0.391751  1
  Fe  Fe10  1  0.544129  0.707352  0.016526  1
  Fe  Fe11  1  0.454181  0.292428  0.981902  1
  Ni  Ni12  1  0.225488  0.225399  0.203875  1
  Ni  Ni13  1  0.769636  0.774452  0.793797  1
  O  O14  1  0.679101  0.807331  0.418970  1
  O  O15  1  0.333827  0.191911  0.577211  1
  O  O16  1  0.580317  0.554229  0.141048  1
  O  O17  1  0.416243  0.443573  0.856020  1
  O  O18  1  0.628541  0.515791  0.651376  1
  O  O19  1  0.367525  0.487037  0.345851  1
  O  O20  1  0.691471  0.945911  0.179504  1
  O  O21  1  0.314126  0.053966  0.822336  1
  O  O22  1  0.927440  0.339152  0.753487  1
  O  O23  1  0.058479  0.666297  0.248802  1
  O  O24  1  0.485209  0.775544  0.834334  1
  O  O25  1  0.507997  0.221020  0.163830  1
  O  O26  1  0.804079  0.006026  0.769551  1
  O  O27  1  0.174321  0.994190  0.228483  1
  O  O28  1  0.975552  0.282530  0.260933  1
  O  O29  1  0.020935  0.718349  0.737880  1
  O  O30  1  0.741155  0.203729  0.445560  1
  O  O31  1  0.258318  0.797418  0.552469  1
  O  O32  1  0.732146  0.286374  0.963513  1
  O  O33  1  0.270053  0.718140  0.041170  1
  O  O34  1  0.834615  0.725241  0.985945  1
  O  O35  1  0.161961  0.271112  0.010636  1
  O  O36  1  0.828471  0.525927  0.420964  1
  O  O37  1  0.168121  0.470308  0.576325  1
