# generated using pymatgen
data_Hf2CuSn2Ir
_symmetry_space_group_name_H-M   'P 1'
_cell_length_a   4.46074100
_cell_length_b   4.46074073
_cell_length_c   6.81057700
_cell_angle_alpha   90.00000000
_cell_angle_beta   90.00000000
_cell_angle_gamma   119.99999460
_symmetry_Int_Tables_number   1
_chemical_formula_structural   Hf2CuSn2Ir
_chemical_formula_sum   'Hf2 Cu1 Sn2 Ir1'
_cell_volume   117.36228381
_cell_formula_units_Z   1
loop_
 _symmetry_equiv_pos_site_id
 _symmetry_equiv_pos_as_xyz
  1  'x, y, z'
loop_
 _atom_site_type_symbol
 _atom_site_label
 _atom_site_symmetry_multiplicity
 _atom_site_fract_x
 _atom_site_fract_y
 _atom_site_fract_z
 _atom_site_occupancy
  Hf  Hf0  1  0.000000  0.000000  0.506326  1
  Hf  Hf1  1  0.000000  0.000000  0.019933  1
  Cu  Cu2  1  0.333333  0.666667  0.671184  1
  Sn  Sn3  1  0.666667  0.333333  0.764838  1
  Sn  Sn4  1  0.333333  0.666667  0.275613  1
  Ir  Ir5  1  0.666667  0.333333  0.165708  1
