# generated using pymatgen
data_CrRe4AgO16
_symmetry_space_group_name_H-M   'P 1'
_cell_length_a   5.73648158
_cell_length_b   9.86194282
_cell_length_c   6.56754300
_cell_angle_alpha   90.50247742
_cell_angle_beta   88.76267458
_cell_angle_gamma   90.92854173
_symmetry_Int_Tables_number   1
_chemical_formula_structural   CrRe4AgO16
_chemical_formula_sum   'Cr1 Re4 Ag1 O16'
_cell_volume   371.39606005
_cell_formula_units_Z   1
loop_
 _symmetry_equiv_pos_site_id
 _symmetry_equiv_pos_as_xyz
  1  'x, y, z'
loop_
 _atom_site_type_symbol
 _atom_site_label
 _atom_site_symmetry_multiplicity
 _atom_site_fract_x
 _atom_site_fract_y
 _atom_site_fract_z
 _atom_site_occupancy
  Cr  Cr0  1  0.500081  0.500005  0.999906  1
  Re  Re1  1  0.989882  0.356828  0.287013  1
  Re  Re2  1  0.501050  0.820685  0.304844  1
  Re  Re3  1  0.498975  0.179244  0.695214  1
  Re  Re4  1  0.010002  0.643215  0.712881  1
  Ag  Ag5  1  0.999974  0.999956  0.000194  1
  O  O6  1  0.519557  0.220553  0.438298  1
  O  O7  1  0.011774  0.640321  0.448129  1
  O  O8  1  0.988057  0.359917  0.551795  1
  O  O9  1  0.480199  0.779258  0.561698  1
  O  O10  1  0.722716  0.069811  0.754027  1
  O  O11  1  0.251892  0.558235  0.813057  1
  O  O12  1  0.980164  0.189100  0.209573  1
  O  O13  1  0.485332  0.673391  0.145087  1
  O  O14  1  0.254309  0.428022  0.189715  1
  O  O15  1  0.765838  0.905410  0.261135  1
  O  O16  1  0.748108  0.441721  0.186810  1
  O  O17  1  0.277608  0.930270  0.246025  1
  O  O18  1  0.514680  0.326681  0.854736  1
  O  O19  1  0.019723  0.810875  0.790613  1
  O  O20  1  0.234394  0.094474  0.739185  1
  O  O21  1  0.745683  0.572027  0.810067  1
