# generated using pymatgen
data_Er16In4Co3Ru
_symmetry_space_group_name_H-M   'P 1'
_cell_length_a   9.46198802
_cell_length_b   9.48182721
_cell_length_c   9.46198800
_cell_angle_alpha   60.06918995
_cell_angle_beta   60.00000007
_cell_angle_gamma   60.06918791
_symmetry_Int_Tables_number   1
_chemical_formula_structural   Er16In4Co3Ru
_chemical_formula_sum   'Er16 In4 Co3 Ru1'
_cell_volume   600.89033117
_cell_formula_units_Z   1
loop_
 _symmetry_equiv_pos_site_id
 _symmetry_equiv_pos_as_xyz
  1  'x, y, z'
loop_
 _atom_site_type_symbol
 _atom_site_label
 _atom_site_symmetry_multiplicity
 _atom_site_fract_x
 _atom_site_fract_y
 _atom_site_fract_z
 _atom_site_occupancy
  Er  Er0  1  0.061080  0.061723  0.438598  1
  Er  Er1  1  0.653248  0.040256  0.653248  1
  Er  Er2  1  0.188443  0.811253  0.188443  1
  Er  Er3  1  0.438598  0.061723  0.438598  1
  Er  Er4  1  0.191526  0.185713  0.811380  1
  Er  Er5  1  0.649342  0.656486  0.649342  1
  Er  Er6  1  0.044830  0.656486  0.649342  1
  Er  Er7  1  0.438598  0.061723  0.061080  1
  Er  Er8  1  0.649342  0.656486  0.044830  1
  Er  Er9  1  0.188443  0.811253  0.811862  1
  Er  Er10  1  0.811380  0.185713  0.811380  1
  Er  Er11  1  0.811380  0.185713  0.191526  1
  Er  Er12  1  0.811862  0.811253  0.188443  1
  Er  Er13  1  0.059635  0.438412  0.442318  1
  Er  Er14  1  0.442318  0.438412  0.059635  1
  Er  Er15  1  0.059635  0.438412  0.059635  1
  In  In16  1  0.749155  0.415849  0.417498  1
  In  In17  1  0.417498  0.415849  0.749155  1
  In  In18  1  0.416917  0.749247  0.416917  1
  In  In19  1  0.417498  0.415849  0.417498  1
  Co  Co20  1  0.859130  0.859066  0.859130  1
  Co  Co21  1  0.422674  0.859066  0.859130  1
  Co  Co22  1  0.859130  0.859066  0.422674  1
  Ru  Ru23  1  0.858339  0.424984  0.858339  1
