# generated using pymatgen
data_Dy2Ho2Ga18Ir5Pt
_symmetry_space_group_name_H-M   'P 1'
_cell_length_a   7.61593084
_cell_length_b   7.61566674
_cell_length_c   9.49396709
_cell_angle_alpha   90.04145958
_cell_angle_beta   90.04272985
_cell_angle_gamma   119.96601722
_symmetry_Int_Tables_number   1
_chemical_formula_structural   Dy2Ho2Ga18Ir5Pt
_chemical_formula_sum   'Dy2 Ho2 Ga18 Ir5 Pt1'
_cell_volume   477.04288491
_cell_formula_units_Z   1
loop_
 _symmetry_equiv_pos_site_id
 _symmetry_equiv_pos_as_xyz
  1  'x, y, z'
loop_
 _atom_site_type_symbol
 _atom_site_label
 _atom_site_symmetry_multiplicity
 _atom_site_fract_x
 _atom_site_fract_y
 _atom_site_fract_z
 _atom_site_occupancy
  Dy  Dy0  1  0.667996  0.996960  0.251111  1
  Dy  Dy1  1  0.332004  0.003040  0.748889  1
  Ho  Ho2  1  0.997006  0.668027  0.251126  1
  Ho  Ho3  1  0.002994  0.331973  0.748874  1
  Ga  Ga4  1  0.127698  0.127657  0.251788  1
  Ga  Ga5  1  0.872302  0.872343  0.748212  1
  Ga  Ga6  1  0.998689  0.337049  0.082262  1
  Ga  Ga7  1  0.001311  0.662951  0.917738  1
  Ga  Ga8  1  0.001471  0.666116  0.580092  1
  Ga  Ga9  1  0.333674  0.998415  0.419813  1
  Ga  Ga10  1  0.998529  0.333884  0.419908  1
  Ga  Ga11  1  0.666326  0.001585  0.580187  1
  Ga  Ga12  1  0.663169  0.001423  0.917664  1
  Ga  Ga13  1  0.336831  0.998577  0.082336  1
  Ga  Ga14  1  0.332075  0.332224  0.565027  1
  Ga  Ga15  1  0.667925  0.667776  0.434973  1
  Ga  Ga16  1  0.664498  0.664376  0.067402  1
  Ga  Ga17  1  0.335502  0.335624  0.932598  1
  Ga  Ga18  1  0.338299  0.546170  0.250357  1
  Ga  Ga19  1  0.661701  0.453830  0.749643  1
  Ga  Ga20  1  0.546276  0.338462  0.250362  1
  Ga  Ga21  1  0.453724  0.661538  0.749638  1
  Ir  Ir22  1  0.671441  0.328633  0.999997  1
  Ir  Ir23  1  0.328559  0.671367  0.000003  1
  Ir  Ir24  1  0.328545  0.671442  0.499997  1
  Ir  Ir25  1  0.671455  0.328558  0.500003  1
  Ir  Ir26  1  0.000000  0.000000  0.500000  1
  Pt  Pt27  1  0.000000  0.000000  0.000000  1
