# generated using pymatgen
data_Al11ZnCr3
_symmetry_space_group_name_H-M   'P 1'
_cell_length_a   5.10075580
_cell_length_b   5.13129999
_cell_length_c   9.04225514
_cell_angle_alpha   105.73394210
_cell_angle_beta   86.99650705
_cell_angle_gamma   100.16116836
_symmetry_Int_Tables_number   1
_chemical_formula_structural   Al11ZnCr3
_chemical_formula_sum   'Al11 Zn1 Cr3'
_cell_volume   224.22436288
_cell_formula_units_Z   1
loop_
 _symmetry_equiv_pos_site_id
 _symmetry_equiv_pos_as_xyz
  1  'x, y, z'
loop_
 _atom_site_type_symbol
 _atom_site_label
 _atom_site_symmetry_multiplicity
 _atom_site_fract_x
 _atom_site_fract_y
 _atom_site_fract_z
 _atom_site_occupancy
  Al  Al0  1  0.883975  0.311084  0.606899  1
  Al  Al1  1  0.150295  0.703388  0.377749  1
  Al  Al2  1  0.153503  0.467280  0.887129  1
  Al  Al3  1  0.838811  0.539450  0.132116  1
  Al  Al4  1  0.017754  0.986263  0.981579  1
  Al  Al5  1  0.552702  0.110691  0.894449  1
  Al  Al6  1  0.478296  0.890828  0.131941  1
  Al  Al7  1  0.545974  0.332822  0.368479  1
  Al  Al8  1  0.409605  0.670315  0.636712  1
  Al  Al9  1  0.916477  0.843311  0.665083  1
  Al  Al10  1  0.015463  0.134621  0.288172  1
  Zn  Zn11  1  0.376023  0.162690  0.628081  1
  Cr  Cr12  1  0.667168  0.858805  0.405120  1
  Cr  Cr13  1  0.669203  0.604096  0.863218  1
  Cr  Cr14  1  0.324752  0.384356  0.133274  1
