# generated using pymatgen
data_Ho2V2Fe3(PIr)7
_symmetry_space_group_name_H-M   'P 1'
_cell_length_a   9.38210729
_cell_length_b   9.40697138
_cell_length_c   3.84234800
_cell_angle_alpha   90.00000000
_cell_angle_beta   90.00000000
_cell_angle_gamma   120.19216712
_symmetry_Int_Tables_number   1
_chemical_formula_structural   Ho2V2Fe3(PIr)7
_chemical_formula_sum   'Ho2 V2 Fe3 P7 Ir7'
_cell_volume   293.11180870
_cell_formula_units_Z   1
loop_
 _symmetry_equiv_pos_site_id
 _symmetry_equiv_pos_as_xyz
  1  'x, y, z'
loop_
 _atom_site_type_symbol
 _atom_site_label
 _atom_site_symmetry_multiplicity
 _atom_site_fract_x
 _atom_site_fract_y
 _atom_site_fract_z
 _atom_site_occupancy
  Ho  Ho0  1  0.997891  0.999037  0.000000  1
  Ho  Ho1  1  0.331458  0.662710  0.500000  1
  V  V2  1  0.572013  0.448370  0.500000  1
  V  V3  1  0.879307  0.428174  0.500000  1
  Fe  Fe4  1  0.770791  0.174355  0.000000  1
  Fe  Fe5  1  0.399911  0.222643  0.000000  1
  Fe  Fe6  1  0.830650  0.606199  0.000000  1
  P  P7  1  0.558479  0.920513  0.000000  1
  P  P8  1  0.371485  0.442236  0.000000  1
  P  P9  1  0.073988  0.628043  0.000000  1
  P  P10  1  0.944588  0.216086  0.500000  1
  P  P11  1  0.263615  0.055440  0.500000  1
  P  P12  1  0.784332  0.726754  0.500000  1
  P  P13  1  0.671124  0.341893  0.000000  1
  Ir  Ir14  1  0.307804  0.905402  0.000000  1
  Ir  Ir15  1  0.601130  0.694905  0.000000  1
  Ir  Ir16  1  0.096653  0.397704  0.000000  1
  Ir  Ir17  1  0.721590  0.948861  0.500000  1
  Ir  Ir18  1  0.226189  0.277345  0.500000  1
  Ir  Ir19  1  0.057251  0.777802  0.500000  1
  Ir  Ir20  1  0.539751  0.125528  0.500000  1
