# generated using pymatgen
data_Pr5Nd(Ir5Rh)3
_symmetry_space_group_name_H-M   'P 1'
_cell_length_a   5.39258000
_cell_length_b   5.39266368
_cell_length_c   17.69465300
_cell_angle_alpha   89.99955497
_cell_angle_beta   90.00030093
_cell_angle_gamma   119.99557448
_symmetry_Int_Tables_number   1
_chemical_formula_structural   Pr5Nd(Ir5Rh)3
_chemical_formula_sum   'Pr5 Nd1 Ir15 Rh3'
_cell_volume   445.64801890
_cell_formula_units_Z   1
loop_
 _symmetry_equiv_pos_site_id
 _symmetry_equiv_pos_as_xyz
  1  'x, y, z'
loop_
 _atom_site_type_symbol
 _atom_site_label
 _atom_site_symmetry_multiplicity
 _atom_site_fract_x
 _atom_site_fract_y
 _atom_site_fract_z
 _atom_site_occupancy
  Pr  Pr0  1  0.333334  0.666663  0.540882  1
  Pr  Pr1  1  0.666659  0.333332  0.040867  1
  Pr  Pr2  1  0.666663  0.333329  0.459001  1
  Pr  Pr3  1  0.333313  0.666644  0.750089  1
  Pr  Pr4  1  0.666682  0.333345  0.249987  1
  Nd  Nd5  1  0.333333  0.666665  0.958912  1
  Ir  Ir6  1  0.166747  0.333488  0.128088  1
  Ir  Ir7  1  0.833185  0.666393  0.627622  1
  Ir  Ir8  1  0.666505  0.833254  0.128091  1
  Ir  Ir9  1  0.166751  0.833255  0.128085  1
  Ir  Ir10  1  0.833188  0.166805  0.627617  1
  Ir  Ir11  1  0.333606  0.166804  0.627626  1
  Ir  Ir12  1  0.833161  0.666336  0.872618  1
  Ir  Ir13  1  0.833160  0.166837  0.872622  1
  Ir  Ir14  1  0.333664  0.166835  0.872615  1
  Ir  Ir15  1  0.666659  0.833328  0.371782  1
  Ir  Ir16  1  0.166671  0.833326  0.371790  1
  Ir  Ir17  1  0.166670  0.333334  0.371787  1
  Ir  Ir18  1  0.000013  0.999998  0.249899  1
  Ir  Ir19  1  0.999998  0.999994  0.999871  1
  Ir  Ir20  1  0.000003  0.000003  0.500037  1
  Rh  Rh21  1  0.000019  0.000020  0.750064  1
  Rh  Rh22  1  0.333322  0.666682  0.249982  1
  Rh  Rh23  1  0.666696  0.333334  0.750066  1
