# generated using pymatgen
data_Ho10In8Ni2AgAu
_symmetry_space_group_name_H-M   'P 1'
_cell_length_a   8.12465706
_cell_length_b   18.23202992
_cell_length_c   3.58273800
_cell_angle_alpha   90.00000000
_cell_angle_beta   90.00000000
_cell_angle_gamma   89.98899842
_symmetry_Int_Tables_number   1
_chemical_formula_structural   Ho10In8Ni2AgAu
_chemical_formula_sum   'Ho10 In8 Ni2 Ag1 Au1'
_cell_volume   530.70735351
_cell_formula_units_Z   1
loop_
 _symmetry_equiv_pos_site_id
 _symmetry_equiv_pos_as_xyz
  1  'x, y, z'
loop_
 _atom_site_type_symbol
 _atom_site_label
 _atom_site_symmetry_multiplicity
 _atom_site_fract_x
 _atom_site_fract_y
 _atom_site_fract_z
 _atom_site_occupancy
  Ho  Ho0  1  0.500090  0.499897  0.000000  1
  Ho  Ho1  1  0.001503  0.000129  0.000000  1
  Ho  Ho2  1  0.765708  0.286444  0.000000  1
  Ho  Ho3  1  0.237553  0.715957  0.000000  1
  Ho  Ho4  1  0.773994  0.774531  0.000000  1
  Ho  Ho5  1  0.218880  0.224689  0.000000  1
  Ho  Ho6  1  0.622149  0.077072  0.000000  1
  Ho  Ho7  1  0.379645  0.919587  0.000000  1
  Ho  Ho8  1  0.884849  0.585864  0.000000  1
  Ho  Ho9  1  0.117526  0.414938  0.000000  1
  In  In10  1  0.712491  0.929506  0.500000  1
  In  In11  1  0.290799  0.070503  0.500000  1
  In  In12  1  0.795846  0.434514  0.500000  1
  In  In13  1  0.206251  0.567007  0.500000  1
  In  In14  1  0.577412  0.647084  0.500000  1
  In  In15  1  0.423057  0.351340  0.500000  1
  In  In16  1  0.918739  0.151262  0.500000  1
  In  In17  1  0.074344  0.849088  0.500000  1
  Ni  Ni18  1  0.972677  0.694174  0.500000  1
  Ni  Ni19  1  0.027508  0.306538  0.500000  1
  Ag  Ag20  1  0.528935  0.199273  0.500000  1
  Au  Au21  1  0.470041  0.800603  0.500000  1
