# generated using pymatgen
data_LiTiF5
_symmetry_space_group_name_H-M   'P 1'
_cell_length_a   3.94542068
_cell_length_b   5.23183969
_cell_length_c   5.30878716
_cell_angle_alpha   81.88858464
_cell_angle_beta   68.02944558
_cell_angle_gamma   68.02719933
_symmetry_Int_Tables_number   1
_chemical_formula_structural   LiTiF5
_chemical_formula_sum   'Li1 Ti1 F5'
_cell_volume   94.24270998
_cell_formula_units_Z   1
loop_
 _symmetry_equiv_pos_site_id
 _symmetry_equiv_pos_as_xyz
  1  'x, y, z'
loop_
 _atom_site_type_symbol
 _atom_site_label
 _atom_site_symmetry_multiplicity
 _atom_site_fract_x
 _atom_site_fract_y
 _atom_site_fract_z
 _atom_site_occupancy
  Li  Li0  1  0.651386  0.187581  0.865090  1
  Ti  Ti1  1  0.901116  0.688440  0.364087  1
  F  F2  1  0.185020  0.473322  0.052151  1
  F  F3  1  0.828053  0.004665  0.150873  1
  F  F4  1  0.656549  0.904156  0.675751  1
  F  F5  1  0.928315  0.372585  0.577477  1
  F  F6  1  0.399795  0.688151  0.364332  1
