# generated using pymatgen
data_Ho2LuIn3Hg2Ir
_symmetry_space_group_name_H-M   'P 1'
_cell_length_a   7.92611516
_cell_length_b   7.94437398
_cell_length_c   3.87507800
_cell_angle_alpha   90.00000000
_cell_angle_beta   90.00000000
_cell_angle_gamma   119.86224558
_symmetry_Int_Tables_number   1
_chemical_formula_structural   Ho2LuIn3Hg2Ir
_chemical_formula_sum   'Ho2 Lu1 In3 Hg2 Ir1'
_cell_volume   211.60811224
_cell_formula_units_Z   1
loop_
 _symmetry_equiv_pos_site_id
 _symmetry_equiv_pos_as_xyz
  1  'x, y, z'
loop_
 _atom_site_type_symbol
 _atom_site_label
 _atom_site_symmetry_multiplicity
 _atom_site_fract_x
 _atom_site_fract_y
 _atom_site_fract_z
 _atom_site_occupancy
  Ho  Ho0  1  0.384252  0.966259  0.000000  1
  Ho  Ho1  1  0.033923  0.416957  0.000000  1
  Lu  Lu2  1  0.579157  0.617967  0.000000  1
  In  In3  1  0.000638  0.725105  0.500000  1
  In  In4  1  0.275292  0.275800  0.500000  1
  In  In5  1  0.724477  0.998477  0.500000  1
  Hg  Hg6  1  0.999231  0.998807  0.000000  1
  Hg  Hg7  1  0.666365  0.335093  0.500000  1
  Ir  Ir8  1  0.336665  0.665535  0.500000  1
