# generated using pymatgen
data_DyHo5(BBr3)2
_symmetry_space_group_name_H-M   'P 1'
_cell_length_a   9.71580381
_cell_length_b   9.71581171
_cell_length_c   9.71587418
_cell_angle_alpha   109.48431936
_cell_angle_beta   109.47742247
_cell_angle_gamma   109.45136487
_symmetry_Int_Tables_number   1
_chemical_formula_structural   DyHo5(BBr3)2
_chemical_formula_sum   'Dy2 Ho10 B4 Br12'
_cell_volume   706.02611205
_cell_formula_units_Z   2
loop_
 _symmetry_equiv_pos_site_id
 _symmetry_equiv_pos_as_xyz
  1  'x, y, z'
loop_
 _atom_site_type_symbol
 _atom_site_label
 _atom_site_symmetry_multiplicity
 _atom_site_fract_x
 _atom_site_fract_y
 _atom_site_fract_z
 _atom_site_occupancy
  Dy  Dy0  1  0.269981  0.020084  0.040171  1
  Dy  Dy1  1  0.229986  0.270211  0.750093  1
  Ho  Ho2  1  0.458218  0.479025  0.229295  1
  Ho  Ho3  1  0.749667  0.229179  0.270793  1
  Ho  Ho4  1  0.750408  0.021171  0.479551  1
  Ho  Ho5  1  0.229147  0.458431  0.479509  1
  Ho  Ho6  1  0.270815  0.750302  0.229254  1
  Ho  Ho7  1  0.041790  0.271101  0.020789  1
  Ho  Ho8  1  0.021146  0.041853  0.270785  1
  Ho  Ho9  1  0.478817  0.749593  0.020679  1
  Ho  Ho10  1  0.479113  0.229308  0.458448  1
  Ho  Ho11  1  0.020901  0.479295  0.750172  1
  B  B12  1  0.249876  0.250561  0.250399  1
  B  B13  1  0.500543  0.999922  0.250430  1
  B  B14  1  0.999412  0.249854  0.499329  1
  B  B15  1  0.250162  0.500577  0.000750  1
  Br  Br16  1  0.250100  0.756971  0.741665  1
  Br  Br17  1  0.516331  0.509006  0.757525  1
  Br  Br18  1  0.983650  0.741181  0.992656  1
  Br  Br19  1  0.742283  0.250020  0.757623  1
  Br  Br20  1  0.990174  0.983692  0.741740  1
  Br  Br21  1  0.249902  0.991516  0.506900  1
  Br  Br22  1  0.757751  0.515401  0.507772  1
  Br  Br23  1  0.509845  0.251568  0.993501  1
  Br  Br24  1  0.757640  0.742462  0.250051  1
  Br  Br25  1  0.742312  0.992367  0.984747  1
  Br  Br26  1  0.992422  0.507646  0.250096  1
  Br  Br27  1  0.507611  0.757702  0.515275  1
