# generated using pymatgen
data_ErU3Ge6Ru7
_symmetry_space_group_name_H-M   'P 1'
_cell_length_a   7.21016444
_cell_length_b   7.14065419
_cell_length_c   7.21016400
_cell_angle_alpha   109.27605269
_cell_angle_beta   109.66568232
_cell_angle_gamma   109.27604648
_symmetry_Int_Tables_number   1
_chemical_formula_structural   ErU3Ge6Ru7
_chemical_formula_sum   'Er1 U3 Ge6 Ru7'
_cell_volume   286.44869248
_cell_formula_units_Z   1
loop_
 _symmetry_equiv_pos_site_id
 _symmetry_equiv_pos_as_xyz
  1  'x, y, z'
loop_
 _atom_site_type_symbol
 _atom_site_label
 _atom_site_symmetry_multiplicity
 _atom_site_fract_x
 _atom_site_fract_y
 _atom_site_fract_z
 _atom_site_occupancy
  Er  Er0  1  0.000000  0.500000  0.000000  1
  U  U1  1  0.000000  0.000000  0.500000  1
  U  U2  1  0.500000  0.000000  0.000000  1
  U  U3  1  0.500000  0.500000  0.500000  1
  Ge  Ge4  1  0.691837  0.688316  0.000000  1
  Ge  Ge5  1  0.308163  0.996480  0.308163  1
  Ge  Ge6  1  0.000000  0.311684  0.308163  1
  Ge  Ge7  1  0.308163  0.311684  0.000000  1
  Ge  Ge8  1  0.691837  0.003520  0.691837  1
  Ge  Ge9  1  0.000000  0.688316  0.691837  1
  Ru  Ru10  1  0.745354  0.245354  0.490709  1
  Ru  Ru11  1  0.745354  0.500000  0.254646  1
  Ru  Ru12  1  0.490709  0.245354  0.745354  1
  Ru  Ru13  1  0.254646  0.500000  0.745354  1
  Ru  Ru14  1  0.254646  0.754646  0.509291  1
  Ru  Ru15  1  0.509291  0.754646  0.254646  1
  Ru  Ru16  1  0.000000  0.000000  0.000000  1
