# generated using pymatgen
data_Tb10Si16Ni
_symmetry_space_group_name_H-M   'P 1'
_cell_length_a   11.12812771
_cell_length_b   11.11956308
_cell_length_c   11.12813178
_cell_angle_alpha   144.72075093
_cell_angle_beta   136.53357396
_cell_angle_gamma   57.18606919
_symmetry_Int_Tables_number   1
_chemical_formula_structural   Tb10Si16Ni
_chemical_formula_sum   'Tb10 Si16 Ni1'
_cell_volume   542.65970971
_cell_formula_units_Z   1
loop_
 _symmetry_equiv_pos_site_id
 _symmetry_equiv_pos_as_xyz
  1  'x, y, z'
loop_
 _atom_site_type_symbol
 _atom_site_label
 _atom_site_symmetry_multiplicity
 _atom_site_fract_x
 _atom_site_fract_y
 _atom_site_fract_z
 _atom_site_occupancy
  Tb  Tb0  1  0.049987  0.564041  0.011788  1
  Tb  Tb1  1  0.351419  0.370376  0.521774  1
  Tb  Tb2  1  0.147115  0.165690  0.516241  1
  Tb  Tb3  1  0.452810  0.964687  0.016772  1
  Tb  Tb4  1  0.649449  0.165690  0.018575  1
  Tb  Tb5  1  0.947915  0.964687  0.511877  1
  Tb  Tb6  1  0.848603  0.370376  0.018958  1
  Tb  Tb7  1  0.552254  0.564041  0.514054  1
  Tb  Tb8  1  0.246035  0.761319  0.008139  1
  Tb  Tb9  1  0.753180  0.761319  0.515284  1
  Si  Si10  1  0.116347  0.071381  0.955034  1
  Si  Si11  1  0.800951  0.213334  0.412382  1
  Si  Si12  1  0.300156  0.898809  0.598653  1
  Si  Si13  1  0.399836  0.500820  0.100984  1
  Si  Si14  1  0.892377  0.830993  0.938616  1
  Si  Si15  1  0.102590  0.704685  0.602095  1
  Si  Si16  1  0.200156  0.589043  0.388888  1
  Si  Si17  1  0.697768  0.295458  0.597689  1
  Si  Si18  1  0.995580  0.434112  0.438532  1
  Si  Si19  1  0.710891  0.661691  0.950801  1
  Si  Si20  1  0.599713  0.701636  0.101923  1
  Si  Si21  1  0.001852  0.092748  0.090896  1
  Si  Si22  1  0.499960  0.394392  0.894431  1
  Si  Si23  1  0.287638  0.240502  0.952864  1
  Si  Si24  1  0.584192  0.038458  0.454266  1
  Si  Si25  1  0.413435  0.867984  0.454548  1
  Ni  Ni26  1  0.897790  0.500648  0.602857  1
