# generated using pymatgen
data_Li3Yb3HoAlPt4
_symmetry_space_group_name_H-M   'P 1'
_cell_length_a   4.05187400
_cell_length_b   7.13404576
_cell_length_c   8.28034719
_cell_angle_alpha   90.79988262
_cell_angle_beta   90.00000000
_cell_angle_gamma   90.00000000
_symmetry_Int_Tables_number   1
_chemical_formula_structural   Li3Yb3HoAlPt4
_chemical_formula_sum   'Li3 Yb3 Ho1 Al1 Pt4'
_cell_volume   239.33049922
_cell_formula_units_Z   1
loop_
 _symmetry_equiv_pos_site_id
 _symmetry_equiv_pos_as_xyz
  1  'x, y, z'
loop_
 _atom_site_type_symbol
 _atom_site_label
 _atom_site_symmetry_multiplicity
 _atom_site_fract_x
 _atom_site_fract_y
 _atom_site_fract_z
 _atom_site_occupancy
  Li  Li0  1  0.250000  0.131507  0.060703  1
  Li  Li1  1  0.250000  0.630789  0.436654  1
  Li  Li2  1  0.750000  0.873773  0.943394  1
  Yb  Yb3  1  0.250000  0.032694  0.681165  1
  Yb  Yb4  1  0.750000  0.958029  0.322693  1
  Yb  Yb5  1  0.750000  0.462325  0.178031  1
  Ho  Ho6  1  0.250000  0.542164  0.822854  1
  Al  Al7  1  0.750000  0.370099  0.558451  1
  Pt  Pt8  1  0.250000  0.265330  0.393897  1
  Pt  Pt9  1  0.250000  0.753954  0.118046  1
  Pt  Pt10  1  0.750000  0.722209  0.626485  1
  Pt  Pt11  1  0.750000  0.257126  0.857628  1
