# generated using pymatgen
data_Cs5RbNa4(SnP3)2
_symmetry_space_group_name_H-M   'P 1'
_cell_length_a   10.83364771
_cell_length_b   10.83364736
_cell_length_c   16.49913100
_cell_angle_alpha   90.00000000
_cell_angle_beta   90.00000000
_cell_angle_gamma   142.92059605
_symmetry_Int_Tables_number   1
_chemical_formula_structural   Cs5RbNa4(SnP3)2
_chemical_formula_sum   'Cs10 Rb2 Na8 Sn4 P12'
_cell_volume   1167.53809541
_cell_formula_units_Z   2
loop_
 _symmetry_equiv_pos_site_id
 _symmetry_equiv_pos_as_xyz
  1  'x, y, z'
loop_
 _atom_site_type_symbol
 _atom_site_label
 _atom_site_symmetry_multiplicity
 _atom_site_fract_x
 _atom_site_fract_y
 _atom_site_fract_z
 _atom_site_occupancy
  Cs  Cs0  1  0.727200  0.727200  0.679964  1
  Cs  Cs1  1  0.772800  0.772800  0.179964  1
  Cs  Cs2  1  0.391745  0.058409  0.173301  1
  Cs  Cs3  1  0.108255  0.441591  0.673301  1
  Cs  Cs4  1  0.941277  0.608147  0.826236  1
  Cs  Cs5  1  0.558722  0.891852  0.326236  1
  Cs  Cs6  1  0.608147  0.941277  0.826236  1
  Cs  Cs7  1  0.891852  0.558722  0.326236  1
  Cs  Cs8  1  0.058409  0.391745  0.173301  1
  Cs  Cs9  1  0.441591  0.108255  0.673301  1
  Rb  Rb10  1  0.237809  0.237809  0.827946  1
  Rb  Rb11  1  0.262191  0.262191  0.327946  1
  Na  Na12  1  0.244824  0.753095  0.999039  1
  Na  Na13  1  0.255176  0.746905  0.499039  1
  Na  Na14  1  0.753095  0.244824  0.999039  1
  Na  Na15  1  0.746905  0.255176  0.499039  1
  Na  Na16  1  0.079891  0.919180  0.999529  1
  Na  Na17  1  0.420109  0.580820  0.499529  1
  Na  Na18  1  0.919180  0.079891  0.999529  1
  Na  Na19  1  0.580820  0.420109  0.499529  1
  Sn  Sn20  1  0.412328  0.586808  0.000131  1
  Sn  Sn21  1  0.087673  0.913193  0.500131  1
  Sn  Sn22  1  0.586808  0.412328  0.000131  1
  Sn  Sn23  1  0.913193  0.087673  0.500131  1
  P  P24  1  0.624878  0.940268  0.591715  1
  P  P25  1  0.875122  0.559733  0.091715  1
  P  P26  1  0.063847  0.373941  0.405492  1
  P  P27  1  0.436154  0.126059  0.905492  1
  P  P28  1  0.373941  0.063847  0.405492  1
  P  P29  1  0.126059  0.436154  0.905492  1
  P  P30  1  0.940268  0.624878  0.591715  1
  P  P31  1  0.559733  0.875122  0.091715  1
  P  P32  1  0.199723  0.199723  0.585434  1
  P  P33  1  0.300277  0.300277  0.085434  1
  P  P34  1  0.801444  0.801444  0.415770  1
  P  P35  1  0.698555  0.698555  0.915771  1
