# generated using pymatgen
data_Th2Al5Cu4Rh
_symmetry_space_group_name_H-M   'P 1'
_cell_length_a   4.16671900
_cell_length_b   5.40842419
_cell_length_c   9.20650833
_cell_angle_alpha   89.96935246
_cell_angle_beta   90.00000000
_cell_angle_gamma   90.00000000
_symmetry_Int_Tables_number   1
_chemical_formula_structural   Th2Al5Cu4Rh
_chemical_formula_sum   'Th2 Al5 Cu4 Rh1'
_cell_volume   207.47216941
_cell_formula_units_Z   1
loop_
 _symmetry_equiv_pos_site_id
 _symmetry_equiv_pos_as_xyz
  1  'x, y, z'
loop_
 _atom_site_type_symbol
 _atom_site_label
 _atom_site_symmetry_multiplicity
 _atom_site_fract_x
 _atom_site_fract_y
 _atom_site_fract_z
 _atom_site_occupancy
  Th  Th0  1  0.000000  0.999370  0.003294  1
  Th  Th1  1  0.000000  0.500930  0.497992  1
  Al  Al2  1  0.500000  0.499735  0.000064  1
  Al  Al3  1  0.500000  0.751624  0.258348  1
  Al  Al4  1  0.500000  0.247315  0.741400  1
  Al  Al5  1  0.500000  0.248507  0.258581  1
  Al  Al6  1  0.500000  0.752680  0.741570  1
  Cu  Cu7  1  0.000000  0.001235  0.338816  1
  Cu  Cu8  1  0.000000  0.498924  0.165025  1
  Cu  Cu9  1  0.000000  0.001077  0.663351  1
  Cu  Cu10  1  0.500000  0.999626  0.498983  1
  Rh  Rh11  1  0.000000  0.499179  0.832576  1
