# generated using pymatgen
data_Y2Ni7P4
_symmetry_space_group_name_H-M   'P 1'
_cell_length_a   3.69900100
_cell_length_b   9.15480100
_cell_length_c   10.26497200
_cell_angle_alpha   90.00000000
_cell_angle_beta   90.00000000
_cell_angle_gamma   90.00000000
_symmetry_Int_Tables_number   1
_chemical_formula_structural   Y2Ni7P4
_chemical_formula_sum   'Y4 Ni14 P8'
_cell_volume   347.60909114
_cell_formula_units_Z   2
loop_
 _symmetry_equiv_pos_site_id
 _symmetry_equiv_pos_as_xyz
  1  'x, y, z'
loop_
 _atom_site_type_symbol
 _atom_site_label
 _atom_site_symmetry_multiplicity
 _atom_site_fract_x
 _atom_site_fract_y
 _atom_site_fract_z
 _atom_site_occupancy
  Y  Y0  1  0.000000  0.058616  0.395465  1
  Y  Y1  1  0.500000  0.941384  0.895465  1
  Y  Y2  1  0.000000  0.435618  0.178403  1
  Y  Y3  1  0.500000  0.564382  0.678403  1
  Ni  Ni4  1  0.000000  0.056950  0.699339  1
  Ni  Ni5  1  0.500000  0.943050  0.199339  1
  Ni  Ni6  1  0.000000  0.726273  0.509821  1
  Ni  Ni7  1  0.500000  0.273727  0.009821  1
  Ni  Ni8  1  0.000000  0.096052  0.093907  1
  Ni  Ni9  1  0.500000  0.903948  0.593907  1
  Ni  Ni10  1  0.000000  0.746185  0.273855  1
  Ni  Ni11  1  0.500000  0.253815  0.773855  1
  Ni  Ni12  1  0.000000  0.306249  0.602466  1
  Ni  Ni13  1  0.500000  0.693751  0.102466  1
  Ni  Ni14  1  0.000000  0.685259  0.911493  1
  Ni  Ni15  1  0.500000  0.314741  0.411493  1
  Ni  Ni16  1  0.000000  0.416600  0.870667  1
  Ni  Ni17  1  0.500000  0.583400  0.370667  1
  P  P18  1  0.000000  0.180028  0.889723  1
  P  P19  1  0.500000  0.819972  0.389723  1
  P  P20  1  0.000000  0.844678  0.083866  1
  P  P21  1  0.500000  0.155322  0.583866  1
  P  P22  1  0.000000  0.809841  0.714058  1
  P  P23  1  0.500000  0.190159  0.214058  1
  P  P24  1  0.000000  0.480530  0.461035  1
  P  P25  1  0.500000  0.519470  0.961035  1
