# generated using pymatgen
data_Dy8Y4Co4SnIr
_symmetry_space_group_name_H-M   'P 1'
_cell_length_a   8.31522049
_cell_length_b   8.31521999
_cell_length_c   8.31521993
_cell_angle_alpha   106.92592824
_cell_angle_beta   110.44812527
_cell_angle_gamma   111.06984501
_symmetry_Int_Tables_number   1
_chemical_formula_structural   Dy8Y4Co4SnIr
_chemical_formula_sum   'Dy8 Y4 Co4 Sn1 Ir1'
_cell_volume   441.92263038
_cell_formula_units_Z   1
loop_
 _symmetry_equiv_pos_site_id
 _symmetry_equiv_pos_as_xyz
  1  'x, y, z'
loop_
 _atom_site_type_symbol
 _atom_site_label
 _atom_site_symmetry_multiplicity
 _atom_site_fract_x
 _atom_site_fract_y
 _atom_site_fract_z
 _atom_site_occupancy
  Dy  Dy0  1  0.305994  0.620089  0.314094  1
  Dy  Dy1  1  0.305994  0.991901  0.685906  1
  Dy  Dy2  1  0.694006  0.379911  0.685906  1
  Dy  Dy3  1  0.694006  0.008099  0.314094  1
  Dy  Dy4  1  0.195773  0.212579  0.408352  1
  Dy  Dy5  1  0.804227  0.787421  0.591648  1
  Dy  Dy6  1  0.195773  0.787421  0.983192  1
  Dy  Dy7  1  0.804227  0.212579  0.016808  1
  Y  Y8  1  0.473839  0.288759  0.185080  1
  Y  Y9  1  0.103679  0.288759  0.814920  1
  Y  Y10  1  0.896321  0.711241  0.185080  1
  Y  Y11  1  0.526161  0.711241  0.814920  1
  Co  Co12  1  0.500000  0.611707  0.111707  1
  Co  Co13  1  0.500000  0.388293  0.888293  1
  Co  Co14  1  0.379185  0.000000  0.379185  1
  Co  Co15  1  0.620815  0.000000  0.620815  1
  Sn  Sn16  1  0.000000  0.500000  0.500000  1
  Ir  Ir17  1  0.000000  0.000000  0.000000  1
