# generated using pymatgen
data_Ho3Mg2Au3O14
_symmetry_space_group_name_H-M   'P 1'
_cell_length_a   7.25489104
_cell_length_b   7.25485432
_cell_length_c   7.25488385
_cell_angle_alpha   120.11592484
_cell_angle_beta   59.88457737
_cell_angle_gamma   120.11589877
_symmetry_Int_Tables_number   1
_chemical_formula_structural   Ho3Mg2Au3O14
_chemical_formula_sum   'Ho3 Mg2 Au3 O14'
_cell_volume   269.29792304
_cell_formula_units_Z   1
loop_
 _symmetry_equiv_pos_site_id
 _symmetry_equiv_pos_as_xyz
  1  'x, y, z'
loop_
 _atom_site_type_symbol
 _atom_site_label
 _atom_site_symmetry_multiplicity
 _atom_site_fract_x
 _atom_site_fract_y
 _atom_site_fract_z
 _atom_site_occupancy
  Ho  Ho0  1  0.000040  0.500055  0.000069  1
  Ho  Ho1  1  0.499924  0.000061  0.999882  1
  Ho  Ho2  1  0.500064  0.500115  0.500011  1
  Mg  Mg3  1  0.500105  0.499813  0.000082  1
  Mg  Mg4  1  0.999631  0.999709  0.499937  1
  Au  Au5  1  0.500085  0.000046  0.499954  1
  Au  Au6  1  0.000056  0.500048  0.500051  1
  Au  Au7  1  0.999991  0.000012  0.000041  1
  O  O8  1  0.616039  0.384045  0.116003  1
  O  O9  1  0.383973  0.616117  0.883937  1
  O  O10  1  0.100021  0.339468  0.160607  1
  O  O11  1  0.660430  0.899800  0.160400  1
  O  O12  1  0.660574  0.339530  0.600086  1
  O  O13  1  0.899789  0.660455  0.839623  1
  O  O14  1  0.339420  0.099996  0.839393  1
  O  O15  1  0.339593  0.660510  0.399851  1
  O  O16  1  0.648000  0.903248  0.596731  1
  O  O17  1  0.096885  0.352150  0.596901  1
  O  O18  1  0.096774  0.903185  0.147937  1
  O  O19  1  0.352246  0.096895  0.403077  1
  O  O20  1  0.903241  0.647909  0.403251  1
  O  O21  1  0.903122  0.096835  0.852178  1
