# generated using pymatgen
data_Nd4Al24IrPt8
_symmetry_space_group_name_H-M   'P 1'
_cell_length_a   7.54618906
_cell_length_b   7.60163057
_cell_length_c   13.34589241
_cell_angle_alpha   84.59599392
_cell_angle_beta   79.19944711
_cell_angle_gamma   59.95854863
_symmetry_Int_Tables_number   1
_chemical_formula_structural   Nd4Al24IrPt8
_chemical_formula_sum   'Nd4 Al24 Ir1 Pt8'
_cell_volume   650.98174084
_cell_formula_units_Z   1
loop_
 _symmetry_equiv_pos_site_id
 _symmetry_equiv_pos_as_xyz
  1  'x, y, z'
loop_
 _atom_site_type_symbol
 _atom_site_label
 _atom_site_symmetry_multiplicity
 _atom_site_fract_x
 _atom_site_fract_y
 _atom_site_fract_z
 _atom_site_occupancy
  Nd  Nd0  1  0.393937  0.168179  0.808505  1
  Nd  Nd1  1  0.606063  0.831821  0.191495  1
  Nd  Nd2  1  0.733340  0.498156  0.808951  1
  Nd  Nd3  1  0.266660  0.501844  0.191049  1
  Al  Al4  1  0.688480  0.830953  0.947113  1
  Al  Al5  1  0.311520  0.169047  0.052887  1
  Al  Al6  1  0.146864  0.831554  0.559413  1
  Al  Al7  1  0.853136  0.168446  0.440587  1
  Al  Al8  1  0.479674  0.166195  0.557503  1
  Al  Al9  1  0.520326  0.833805  0.442497  1
  Al  Al10  1  0.214788  0.165542  0.330316  1
  Al  Al11  1  0.785212  0.834458  0.669684  1
  Al  Al12  1  0.436096  0.508016  0.669368  1
  Al  Al13  1  0.563904  0.491984  0.330632  1
  Al  Al14  1  0.110042  0.159116  0.666762  1
  Al  Al15  1  0.889958  0.840884  0.333238  1
  Al  Al16  1  0.347852  0.500855  0.947601  1
  Al  Al17  1  0.652148  0.499145  0.052399  1
  Al  Al18  1  0.014492  0.169788  0.957832  1
  Al  Al19  1  0.985508  0.830212  0.042168  1
  Al  Al20  1  0.186055  0.499246  0.442227  1
  Al  Al21  1  0.813945  0.500754  0.557773  1
  Al  Al22  1  0.735770  0.163705  0.183405  1
  Al  Al23  1  0.264230  0.836295  0.816595  1
  Al  Al24  1  0.061319  0.630918  0.817610  1
  Al  Al25  1  0.938681  0.369082  0.182390  1
  Al  Al26  1  0.858309  0.038990  0.816138  1
  Al  Al27  1  0.141691  0.961010  0.183863  1
  Ir  Ir28  1  0.000000  0.500000  0.000000  1
  Pt  Pt29  1  0.120502  0.494763  0.636680  1
  Pt  Pt30  1  0.879498  0.505237  0.363320  1
  Pt  Pt31  1  0.658495  0.170483  0.999824  1
  Pt  Pt32  1  0.341505  0.829517  0.000176  1
  Pt  Pt33  1  0.539140  0.167146  0.363327  1
  Pt  Pt34  1  0.460860  0.832854  0.636673  1
  Pt  Pt35  1  0.781022  0.172377  0.634839  1
  Pt  Pt36  1  0.218978  0.827623  0.365161  1
