# generated using pymatgen
data_YLu4SiBi2
_symmetry_space_group_name_H-M   'P 1'
_cell_length_a   11.93844300
_cell_length_b   9.03694500
_cell_length_c   7.92404300
_cell_angle_alpha   90.00000000
_cell_angle_beta   90.00000000
_cell_angle_gamma   90.00000000
_symmetry_Int_Tables_number   1
_chemical_formula_structural   YLu4SiBi2
_chemical_formula_sum   'Y4 Lu16 Si4 Bi8'
_cell_volume   854.90164535
_cell_formula_units_Z   4
loop_
 _symmetry_equiv_pos_site_id
 _symmetry_equiv_pos_as_xyz
  1  'x, y, z'
loop_
 _atom_site_type_symbol
 _atom_site_label
 _atom_site_symmetry_multiplicity
 _atom_site_fract_x
 _atom_site_fract_y
 _atom_site_fract_z
 _atom_site_occupancy
  Y  Y0  1  0.795163  0.250000  0.135826  1
  Y  Y1  1  0.295163  0.250000  0.364174  1
  Y  Y2  1  0.204837  0.750000  0.864174  1
  Y  Y3  1  0.704837  0.750000  0.635826  1
  Lu  Lu4  1  0.563833  0.053107  0.319647  1
  Lu  Lu5  1  0.063833  0.446893  0.180353  1
  Lu  Lu6  1  0.436167  0.553107  0.680353  1
  Lu  Lu7  1  0.936167  0.946893  0.819647  1
  Lu  Lu8  1  0.436167  0.946893  0.680353  1
  Lu  Lu9  1  0.936167  0.553107  0.819647  1
  Lu  Lu10  1  0.563833  0.446893  0.319647  1
  Lu  Lu11  1  0.063833  0.053107  0.180353  1
  Lu  Lu12  1  0.711217  0.250000  0.661348  1
  Lu  Lu13  1  0.211217  0.250000  0.838652  1
  Lu  Lu14  1  0.288783  0.750000  0.338652  1
  Lu  Lu15  1  0.788783  0.750000  0.161348  1
  Lu  Lu16  1  0.500965  0.250000  0.959076  1
  Lu  Lu17  1  0.000965  0.250000  0.540924  1
  Lu  Lu18  1  0.499035  0.750000  0.040924  1
  Lu  Lu19  1  0.999035  0.750000  0.459076  1
  Si  Si20  1  0.982147  0.250000  0.913239  1
  Si  Si21  1  0.482147  0.250000  0.586761  1
  Si  Si22  1  0.017853  0.750000  0.086761  1
  Si  Si23  1  0.517853  0.750000  0.413239  1
  Bi  Bi24  1  0.827196  0.010622  0.430928  1
  Bi  Bi25  1  0.327196  0.489378  0.069072  1
  Bi  Bi26  1  0.172804  0.510622  0.569072  1
  Bi  Bi27  1  0.672804  0.989378  0.930928  1
  Bi  Bi28  1  0.172804  0.989378  0.569072  1
  Bi  Bi29  1  0.672804  0.510622  0.930928  1
  Bi  Bi30  1  0.827196  0.489378  0.430928  1
  Bi  Bi31  1  0.327196  0.010622  0.069072  1
