# generated using pymatgen
data_TbY6(HoPb2)3
_symmetry_space_group_name_H-M   'P 1'
_cell_length_a   9.06296300
_cell_length_b   9.06296395
_cell_length_c   6.65088500
_cell_angle_alpha   90.00000000
_cell_angle_beta   90.00000000
_cell_angle_gamma   120.00000018
_symmetry_Int_Tables_number   1
_chemical_formula_structural   TbY6(HoPb2)3
_chemical_formula_sum   'Tb1 Y6 Ho3 Pb6'
_cell_volume   473.09736471
_cell_formula_units_Z   1
loop_
 _symmetry_equiv_pos_site_id
 _symmetry_equiv_pos_as_xyz
  1  'x, y, z'
loop_
 _atom_site_type_symbol
 _atom_site_label
 _atom_site_symmetry_multiplicity
 _atom_site_fract_x
 _atom_site_fract_y
 _atom_site_fract_z
 _atom_site_occupancy
  Tb  Tb0  1  0.333333  0.666667  0.000000  1
  Y  Y1  1  0.237878  0.000020  0.250024  1
  Y  Y2  1  0.237878  0.237858  0.749976  1
  Y  Y3  1  0.999980  0.762122  0.749976  1
  Y  Y4  1  0.999980  0.237858  0.250024  1
  Y  Y5  1  0.762142  0.762122  0.250024  1
  Y  Y6  1  0.762142  0.000020  0.749976  1
  Ho  Ho7  1  0.666667  0.333333  0.500000  1
  Ho  Ho8  1  0.666667  0.333333  0.000000  1
  Ho  Ho9  1  0.333333  0.666667  0.500000  1
  Pb  Pb10  1  0.604800  0.000088  0.250073  1
  Pb  Pb11  1  0.604800  0.604712  0.749927  1
  Pb  Pb12  1  0.999912  0.395200  0.749927  1
  Pb  Pb13  1  0.999912  0.604712  0.250073  1
  Pb  Pb14  1  0.395288  0.395200  0.250073  1
  Pb  Pb15  1  0.395288  0.000088  0.749927  1
