# generated using pymatgen
data_Ce7NdSi15Ag
_symmetry_space_group_name_H-M   'P 1'
_cell_length_a   8.15975700
_cell_length_b   8.17278960
_cell_length_c   8.30835100
_cell_angle_alpha   89.91524939
_cell_angle_beta   90.00000000
_cell_angle_gamma   119.94726800
_symmetry_Int_Tables_number   1
_chemical_formula_structural   Ce7NdSi15Ag
_chemical_formula_sum   'Ce7 Nd1 Si15 Ag1'
_cell_volume   480.09026709
_cell_formula_units_Z   1
loop_
 _symmetry_equiv_pos_site_id
 _symmetry_equiv_pos_as_xyz
  1  'x, y, z'
loop_
 _atom_site_type_symbol
 _atom_site_label
 _atom_site_symmetry_multiplicity
 _atom_site_fract_x
 _atom_site_fract_y
 _atom_site_fract_z
 _atom_site_occupancy
  Ce  Ce0  1  0.000060  0.000120  0.748227  1
  Ce  Ce1  1  0.999900  0.999801  0.252321  1
  Ce  Ce2  1  0.503823  0.496750  0.744014  1
  Ce  Ce3  1  0.503203  0.006406  0.744701  1
  Ce  Ce4  1  0.992925  0.496750  0.744014  1
  Ce  Ce5  1  0.504090  0.496158  0.256298  1
  Ce  Ce6  1  0.992069  0.496158  0.256298  1
  Nd  Nd7  1  0.503282  0.006563  0.255138  1
  Si  Si8  1  0.667457  0.334913  0.998336  1
  Si  Si9  1  0.667096  0.334190  0.502037  1
  Si  Si10  1  0.332636  0.665272  0.500464  1
  Si  Si11  1  0.833397  0.168094  0.998009  1
  Si  Si12  1  0.832747  0.665493  0.000621  1
  Si  Si13  1  0.334696  0.168094  0.998009  1
  Si  Si14  1  0.834211  0.166989  0.501354  1
  Si  Si15  1  0.833029  0.666060  0.499253  1
  Si  Si16  1  0.332777  0.166989  0.501354  1
  Si  Si17  1  0.164814  0.833115  0.501095  1
  Si  Si18  1  0.668300  0.833115  0.501095  1
  Si  Si19  1  0.166228  0.332456  0.498753  1
  Si  Si20  1  0.161445  0.837917  0.998773  1
  Si  Si21  1  0.676472  0.837917  0.998773  1
  Si  Si22  1  0.162047  0.324092  0.001729  1
  Ag  Ag23  1  0.333294  0.666588  0.999333  1
