# generated using pymatgen
data_Tm4MgNb3(Co4P3)4
_symmetry_space_group_name_H-M   'P 1'
_cell_length_a   12.12430845
_cell_length_b   12.12430838
_cell_length_c   3.67385400
_cell_angle_alpha   90.00000000
_cell_angle_beta   90.00000000
_cell_angle_gamma   120.06461485
_symmetry_Int_Tables_number   1
_chemical_formula_structural   Tm4MgNb3(Co4P3)4
_chemical_formula_sum   'Tm4 Mg1 Nb3 Co16 P12'
_cell_volume   467.39421962
_cell_formula_units_Z   1
loop_
 _symmetry_equiv_pos_site_id
 _symmetry_equiv_pos_as_xyz
  1  'x, y, z'
loop_
 _atom_site_type_symbol
 _atom_site_label
 _atom_site_symmetry_multiplicity
 _atom_site_fract_x
 _atom_site_fract_y
 _atom_site_fract_z
 _atom_site_occupancy
  Tm  Tm0  1  0.818405  0.999930  0.500000  1
  Tm  Tm1  1  0.999930  0.818405  0.500000  1
  Tm  Tm2  1  0.333052  0.667386  0.000000  1
  Tm  Tm3  1  0.667386  0.333052  0.000000  1
  Mg  Mg4  1  0.182950  0.182950  0.500000  1
  Nb  Nb5  1  0.445263  0.000890  0.000000  1
  Nb  Nb6  1  0.000890  0.445263  0.000000  1
  Nb  Nb7  1  0.552909  0.552909  0.000000  1
  Co  Co8  1  0.277033  0.001453  0.500000  1
  Co  Co9  1  0.001453  0.277033  0.500000  1
  Co  Co10  1  0.720914  0.720914  0.500000  1
  Co  Co11  1  0.626775  0.803614  0.000000  1
  Co  Co12  1  0.195807  0.824241  0.000000  1
  Co  Co13  1  0.178617  0.372241  0.000000  1
  Co  Co14  1  0.372241  0.178617  0.000000  1
  Co  Co15  1  0.803614  0.626775  0.000000  1
  Co  Co16  1  0.824241  0.195807  0.000000  1
  Co  Co17  1  0.518481  0.871865  0.500000  1
  Co  Co18  1  0.127023  0.647351  0.500000  1
  Co  Co19  1  0.352887  0.480254  0.500000  1
  Co  Co20  1  0.480254  0.352887  0.500000  1
  Co  Co21  1  0.871865  0.518481  0.500000  1
  Co  Co22  1  0.647351  0.127023  0.500000  1
  Co  Co23  1  0.001862  0.001862  0.000000  1
  P  P24  1  0.178268  0.003039  0.000000  1
  P  P25  1  0.003039  0.178268  0.000000  1
  P  P26  1  0.822744  0.822744  0.000000  1
  P  P27  1  0.519169  0.687265  0.500000  1
  P  P28  1  0.311097  0.832950  0.500000  1
  P  P29  1  0.168590  0.479966  0.500000  1
  P  P30  1  0.479966  0.168590  0.500000  1
  P  P31  1  0.687265  0.519169  0.500000  1
  P  P32  1  0.832950  0.311097  0.500000  1
  P  P33  1  0.645431  0.999805  0.000000  1
  P  P34  1  0.999805  0.645431  0.000000  1
  P  P35  1  0.350476  0.350476  0.000000  1
