# generated using pymatgen
data_Dy7Y(LuSn4)2
_symmetry_space_group_name_H-M   'P 1'
_cell_length_a   7.99566700
_cell_length_b   8.15054904
_cell_length_c   15.43805100
_cell_angle_alpha   90.00567998
_cell_angle_beta   90.00000000
_cell_angle_gamma   90.00000000
_symmetry_Int_Tables_number   1
_chemical_formula_structural   Dy7Y(LuSn4)2
_chemical_formula_sum   'Dy14 Y2 Lu4 Sn16'
_cell_volume   1006.08351383
_cell_formula_units_Z   2
loop_
 _symmetry_equiv_pos_site_id
 _symmetry_equiv_pos_as_xyz
  1  'x, y, z'
loop_
 _atom_site_type_symbol
 _atom_site_label
 _atom_site_symmetry_multiplicity
 _atom_site_fract_x
 _atom_site_fract_y
 _atom_site_fract_z
 _atom_site_occupancy
  Dy  Dy0  1  0.366102  0.837790  0.877445  1
  Dy  Dy1  1  0.866102  0.662210  0.622555  1
  Dy  Dy2  1  0.633806  0.162155  0.377323  1
  Dy  Dy3  1  0.133806  0.337845  0.122677  1
  Dy  Dy4  1  0.633788  0.162349  0.122587  1
  Dy  Dy5  1  0.133788  0.337651  0.377413  1
  Dy  Dy6  1  0.366426  0.837665  0.622541  1
  Dy  Dy7  1  0.866426  0.662335  0.877459  1
  Dy  Dy8  1  0.519881  0.320711  0.903374  1
  Dy  Dy9  1  0.019881  0.179289  0.596626  1
  Dy  Dy10  1  0.480176  0.679424  0.403280  1
  Dy  Dy11  1  0.980176  0.820576  0.096720  1
  Dy  Dy12  1  0.480071  0.679354  0.096719  1
  Dy  Dy13  1  0.980071  0.820646  0.403281  1
  Y  Y14  1  0.519882  0.320865  0.596518  1
  Y  Y15  1  0.019882  0.179135  0.903482  1
  Lu  Lu16  1  0.197290  0.503504  0.749961  1
  Lu  Lu17  1  0.697290  0.996496  0.750039  1
  Lu  Lu18  1  0.802726  0.496565  0.249985  1
  Lu  Lu19  1  0.302726  0.003435  0.250015  1
  Sn  Sn20  1  0.293820  0.036564  0.042564  1
  Sn  Sn21  1  0.793820  0.463436  0.457436  1
  Sn  Sn22  1  0.706351  0.963103  0.542311  1
  Sn  Sn23  1  0.206351  0.536897  0.957689  1
  Sn  Sn24  1  0.705825  0.962928  0.957712  1
  Sn  Sn25  1  0.205825  0.537072  0.542288  1
  Sn  Sn26  1  0.293725  0.036447  0.457485  1
  Sn  Sn27  1  0.793725  0.463553  0.042515  1
  Sn  Sn28  1  0.562470  0.617743  0.750176  1
  Sn  Sn29  1  0.062470  0.882257  0.749824  1
  Sn  Sn30  1  0.437583  0.382423  0.249977  1
  Sn  Sn31  1  0.937583  0.117577  0.250023  1
  Sn  Sn32  1  0.329494  0.150092  0.750045  1
  Sn  Sn33  1  0.829494  0.349908  0.749955  1
  Sn  Sn34  1  0.670581  0.849617  0.249927  1
  Sn  Sn35  1  0.170581  0.650383  0.250073  1
