# generated using pymatgen
data_Pu3S4
_symmetry_space_group_name_H-M   'P 1'
_cell_length_a   7.24395379
_cell_length_b   7.24337066
_cell_length_c   7.24460505
_cell_angle_alpha   109.46587757
_cell_angle_beta   109.48662791
_cell_angle_gamma   109.45461673
_symmetry_Int_Tables_number   1
_chemical_formula_structural   Pu3S4
_chemical_formula_sum   'Pu6 S8'
_cell_volume   292.64709969
_cell_formula_units_Z   2
loop_
 _symmetry_equiv_pos_site_id
 _symmetry_equiv_pos_as_xyz
  1  'x, y, z'
loop_
 _atom_site_type_symbol
 _atom_site_label
 _atom_site_symmetry_multiplicity
 _atom_site_fract_x
 _atom_site_fract_y
 _atom_site_fract_z
 _atom_site_occupancy
  Pu  Pu0  1  0.875027  0.249923  0.125038  1
  Pu  Pu1  1  0.124945  0.874953  0.249995  1
  Pu  Pu2  1  0.375066  0.625083  0.749991  1
  Pu  Pu3  1  0.250020  0.125023  0.874961  1
  Pu  Pu4  1  0.750052  0.375057  0.625053  1
  Pu  Pu5  1  0.624884  0.749985  0.374938  1
  S  S6  1  0.500004  0.000000  0.646589  1
  S  S7  1  0.146575  0.500006  0.000010  1
  S  S8  1  0.353395  0.353416  0.353473  1
  S  S9  1  0.000027  0.146593  0.500002  1
  S  S10  1  0.853438  0.853445  0.853440  1
  S  S11  1  0.000016  0.646565  0.499989  1
  S  S12  1  0.499969  0.999944  0.146524  1
  S  S13  1  0.646581  0.500006  0.999998  1
