# generated using pymatgen
data_YbEr2Th5(Pt2Pb)4
_symmetry_space_group_name_H-M   'P 1'
_cell_length_a   8.08458807
_cell_length_b   8.08458798
_cell_length_c   7.35998700
_cell_angle_alpha   90.00000000
_cell_angle_beta   90.00000000
_cell_angle_gamma   89.85033468
_symmetry_Int_Tables_number   1
_chemical_formula_structural   YbEr2Th5(Pt2Pb)4
_chemical_formula_sum   'Yb1 Er2 Th5 Pt8 Pb4'
_cell_volume   481.05125644
_cell_formula_units_Z   1
loop_
 _symmetry_equiv_pos_site_id
 _symmetry_equiv_pos_as_xyz
  1  'x, y, z'
loop_
 _atom_site_type_symbol
 _atom_site_label
 _atom_site_symmetry_multiplicity
 _atom_site_fract_x
 _atom_site_fract_y
 _atom_site_fract_z
 _atom_site_occupancy
  Yb  Yb0  1  0.663039  0.663039  0.500000  1
  Er  Er1  1  0.840398  0.158119  0.000000  1
  Er  Er2  1  0.158119  0.840398  0.000000  1
  Th  Th3  1  0.676596  0.676596  0.000000  1
  Th  Th4  1  0.341610  0.341610  0.500000  1
  Th  Th5  1  0.824110  0.174237  0.500000  1
  Th  Th6  1  0.325633  0.325633  0.000000  1
  Th  Th7  1  0.174237  0.824110  0.500000  1
  Pt  Pt8  1  0.874576  0.874576  0.738050  1
  Pt  Pt9  1  0.130290  0.130290  0.737835  1
  Pt  Pt10  1  0.628509  0.368423  0.768462  1
  Pt  Pt11  1  0.628509  0.368423  0.231538  1
  Pt  Pt12  1  0.368423  0.628509  0.231538  1
  Pt  Pt13  1  0.130290  0.130290  0.262165  1
  Pt  Pt14  1  0.874576  0.874576  0.261950  1
  Pt  Pt15  1  0.368423  0.628509  0.768462  1
  Pb  Pb16  1  0.502113  0.994219  0.751904  1
  Pb  Pb17  1  0.502113  0.994219  0.248096  1
  Pb  Pb18  1  0.994219  0.502113  0.751904  1
  Pb  Pb19  1  0.994219  0.502113  0.248096  1
