# generated using pymatgen
data_Pr3Tm2Ga4P8Ir19
_symmetry_space_group_name_H-M   'P 1'
_cell_length_a   12.96241953
_cell_length_b   12.93075544
_cell_length_c   3.99142800
_cell_angle_alpha   90.00000000
_cell_angle_beta   90.00000000
_cell_angle_gamma   119.95270320
_symmetry_Int_Tables_number   1
_chemical_formula_structural   Pr3Tm2Ga4P8Ir19
_chemical_formula_sum   'Pr3 Tm2 Ga4 P8 Ir19'
_cell_volume   579.66314337
_cell_formula_units_Z   1
loop_
 _symmetry_equiv_pos_site_id
 _symmetry_equiv_pos_as_xyz
  1  'x, y, z'
loop_
 _atom_site_type_symbol
 _atom_site_label
 _atom_site_symmetry_multiplicity
 _atom_site_fract_x
 _atom_site_fract_y
 _atom_site_fract_z
 _atom_site_occupancy
  Pr  Pr0  1  0.336635  0.670116  0.500000  1
  Pr  Pr1  1  0.182618  0.183857  0.000000  1
  Pr  Pr2  1  0.817405  0.998871  0.000000  1
  Tm  Tm3  1  0.665480  0.331374  0.500000  1
  Tm  Tm4  1  0.003538  0.815998  0.000000  1
  Ga  Ga5  1  0.317626  0.835932  0.000000  1
  Ga  Ga6  1  0.360606  0.361602  0.500000  1
  Ga  Ga7  1  0.638261  0.001588  0.500000  1
  Ga  Ga8  1  0.996515  0.638064  0.500000  1
  P  P9  1  0.172010  0.483564  0.000000  1
  P  P10  1  0.523927  0.690622  0.000000  1
  P  P11  1  0.819187  0.304282  0.000000  1
  P  P12  1  0.482862  0.177876  0.000000  1
  P  P13  1  0.693627  0.513313  0.000000  1
  P  P14  1  0.823276  0.814967  0.500000  1
  P  P15  1  0.179588  0.999892  0.500000  1
  P  P16  1  0.998964  0.181312  0.500000  1
  Ir  Ir17  1  0.189062  0.825289  0.500000  1
  Ir  Ir18  1  0.173102  0.382245  0.500000  1
  Ir  Ir19  1  0.626307  0.794059  0.500000  1
  Ir  Ir20  1  0.824445  0.208622  0.500000  1
  Ir  Ir21  1  0.387984  0.178701  0.500000  1
  Ir  Ir22  1  0.790659  0.613050  0.500000  1
  Ir  Ir23  1  0.125705  0.633705  0.000000  1
  Ir  Ir24  1  0.363367  0.495376  0.000000  1
  Ir  Ir25  1  0.523596  0.872719  0.000000  1
  Ir  Ir26  1  0.630934  0.132083  0.000000  1
  Ir  Ir27  1  0.499465  0.367717  0.000000  1
  Ir  Ir28  1  0.866129  0.499053  0.000000  1
  Ir  Ir29  1  0.549552  0.551881  0.500000  1
  Ir  Ir30  1  0.441449  0.991371  0.500000  1
  Ir  Ir31  1  0.998339  0.447755  0.500000  1
  Ir  Ir32  1  0.718416  0.712029  0.000000  1
  Ir  Ir33  1  0.282004  0.008119  0.000000  1
  Ir  Ir34  1  0.998625  0.286483  0.000000  1
  Ir  Ir35  1  0.998736  0.996513  0.500000  1
