# generated using pymatgen
data_KV(SeO3)2
_symmetry_space_group_name_H-M   'P 1'
_cell_length_a   5.51282900
_cell_length_b   8.34410004
_cell_length_c   13.21201200
_cell_angle_alpha   89.99419084
_cell_angle_beta   90.00047809
_cell_angle_gamma   89.99967045
_symmetry_Int_Tables_number   1
_chemical_formula_structural   KV(SeO3)2
_chemical_formula_sum   'K4 V4 Se8 O24'
_cell_volume   607.74722041
_cell_formula_units_Z   4
loop_
 _symmetry_equiv_pos_site_id
 _symmetry_equiv_pos_as_xyz
  1  'x, y, z'
loop_
 _atom_site_type_symbol
 _atom_site_label
 _atom_site_symmetry_multiplicity
 _atom_site_fract_x
 _atom_site_fract_y
 _atom_site_fract_z
 _atom_site_occupancy
  K  K0  1  0.249995  0.511018  0.878809  1
  K  K1  1  0.250004  0.989037  0.378789  1
  K  K2  1  0.750003  0.489041  0.121223  1
  K  K3  1  0.749994  0.010969  0.621211  1
  V  V4  1  0.250074  0.807560  0.105984  1
  V  V5  1  0.750019  0.307569  0.393907  1
  V  V6  1  0.249942  0.692439  0.605945  1
  V  V7  1  0.749922  0.192471  0.894080  1
  Se  Se8  1  0.750006  0.015107  0.204062  1
  Se  Se9  1  0.249999  0.984835  0.795954  1
  Se  Se10  1  0.249999  0.515123  0.295925  1
  Se  Se11  1  0.749994  0.794575  0.939445  1
  Se  Se12  1  0.750000  0.705501  0.439381  1
  Se  Se13  1  0.250002  0.205492  0.060630  1
  Se  Se14  1  0.750000  0.484808  0.704055  1
  Se  Se15  1  0.250003  0.294505  0.560552  1
  O  O16  1  0.505623  0.614488  0.710690  1
  O  O17  1  0.005651  0.385441  0.289220  1
  O  O18  1  0.249995  0.006247  0.023922  1
  O  O19  1  0.492241  0.216299  0.494111  1
  O  O20  1  0.250011  0.581537  0.170289  1
  O  O21  1  0.007760  0.216294  0.494108  1
  O  O22  1  0.994362  0.885431  0.210763  1
  O  O23  1  0.250024  0.493776  0.523826  1
  O  O24  1  0.994387  0.614497  0.710704  1
  O  O25  1  0.507758  0.783729  0.505827  1
  O  O26  1  0.750014  0.506196  0.476044  1
  O  O27  1  0.992216  0.716294  0.005867  1
  O  O28  1  0.005606  0.114518  0.789329  1
  O  O29  1  0.249998  0.918469  0.670338  1
  O  O30  1  0.505625  0.885410  0.210773  1
  O  O31  1  0.494348  0.385444  0.289226  1
  O  O32  1  0.992254  0.783743  0.505836  1
  O  O33  1  0.494390  0.114526  0.789315  1
  O  O34  1  0.507766  0.716286  0.005882  1
  O  O35  1  0.750017  0.993806  0.976204  1
  O  O36  1  0.007735  0.283778  0.994201  1
  O  O37  1  0.492265  0.283791  0.994186  1
  O  O38  1  0.749997  0.418468  0.829709  1
  O  O39  1  0.749997  0.081483  0.329682  1
