# generated using pymatgen
data_Er2PaIn3PtRh2
_symmetry_space_group_name_H-M   'P 1'
_cell_length_a   7.57084613
_cell_length_b   7.82941146
_cell_length_c   3.82205400
_cell_angle_alpha   90.00000000
_cell_angle_beta   90.00000000
_cell_angle_gamma   121.13633523
_symmetry_Int_Tables_number   1
_chemical_formula_structural   Er2PaIn3PtRh2
_chemical_formula_sum   'Er2 Pa1 In3 Pt1 Rh2'
_cell_volume   193.91586637
_cell_formula_units_Z   1
loop_
 _symmetry_equiv_pos_site_id
 _symmetry_equiv_pos_as_xyz
  1  'x, y, z'
loop_
 _atom_site_type_symbol
 _atom_site_label
 _atom_site_symmetry_multiplicity
 _atom_site_fract_x
 _atom_site_fract_y
 _atom_site_fract_z
 _atom_site_occupancy
  Er  Er0  1  0.403541  0.405702  0.500000  1
  Er  Er1  1  0.596459  0.002161  0.500000  1
  Pa  Pa2  1  0.000000  0.581472  0.500000  1
  In  In3  1  0.279045  0.015686  0.000000  1
  In  In4  1  0.720955  0.736641  0.000000  1
  In  In5  1  0.000000  0.245039  0.000000  1
  Pt  Pt6  1  0.000000  0.984999  0.500000  1
  Rh  Rh7  1  0.703260  0.365780  0.000000  1
  Rh  Rh8  1  0.296740  0.662521  0.000000  1
