# generated using pymatgen
data_U2MoWC4
_symmetry_space_group_name_H-M   'P 1'
_cell_length_a   3.22680700
_cell_length_b   5.63179500
_cell_length_c   11.09024300
_cell_angle_alpha   90.00000000
_cell_angle_beta   90.00000000
_cell_angle_gamma   90.00000000
_symmetry_Int_Tables_number   1
_chemical_formula_structural   U2MoWC4
_chemical_formula_sum   'U4 Mo2 W2 C8'
_cell_volume   201.53983118
_cell_formula_units_Z   2
loop_
 _symmetry_equiv_pos_site_id
 _symmetry_equiv_pos_as_xyz
  1  'x, y, z'
loop_
 _atom_site_type_symbol
 _atom_site_label
 _atom_site_symmetry_multiplicity
 _atom_site_fract_x
 _atom_site_fract_y
 _atom_site_fract_z
 _atom_site_occupancy
  U  U0  1  0.250000  0.080260  0.858421  1
  U  U1  1  0.250000  0.580260  0.641579  1
  U  U2  1  0.750000  0.920755  0.142154  1
  U  U3  1  0.750000  0.420755  0.357846  1
  Mo  Mo4  1  0.250000  0.421154  0.101491  1
  Mo  Mo5  1  0.250000  0.921154  0.398509  1
  W  W6  1  0.750000  0.578658  0.898091  1
  W  W7  1  0.750000  0.078658  0.601909  1
  C  C8  1  0.250000  0.162360  0.244740  1
  C  C9  1  0.250000  0.662360  0.255260  1
  C  C10  1  0.750000  0.836566  0.755763  1
  C  C11  1  0.750000  0.336566  0.744237  1
  C  C12  1  0.250000  0.750239  0.991809  1
  C  C13  1  0.250000  0.250239  0.508191  1
  C  C14  1  0.750000  0.250009  0.006834  1
  C  C15  1  0.750000  0.750009  0.493166  1
