# generated using pymatgen
data_Ba8Fe(CoO4)3
_symmetry_space_group_name_H-M   'P 1'
_cell_length_a   6.54246945
_cell_length_b   6.50584306
_cell_length_c   12.78194147
_cell_angle_alpha   88.17346311
_cell_angle_beta   88.34986208
_cell_angle_gamma   126.38366339
_symmetry_Int_Tables_number   1
_chemical_formula_structural   Ba8Fe(CoO4)3
_chemical_formula_sum   'Ba8 Fe1 Co3 O12'
_cell_volume   437.00529496
_cell_formula_units_Z   1
loop_
 _symmetry_equiv_pos_site_id
 _symmetry_equiv_pos_as_xyz
  1  'x, y, z'
loop_
 _atom_site_type_symbol
 _atom_site_label
 _atom_site_symmetry_multiplicity
 _atom_site_fract_x
 _atom_site_fract_y
 _atom_site_fract_z
 _atom_site_occupancy
  Ba  Ba0  1  0.437351  0.028541  0.151433  1
  Ba  Ba1  1  0.029384  0.438194  0.650987  1
  Ba  Ba2  1  0.559079  0.970188  0.848173  1
  Ba  Ba3  1  0.974844  0.563630  0.350092  1
  Ba  Ba4  1  0.864667  0.655396  0.922428  1
  Ba  Ba5  1  0.345258  0.138250  0.573922  1
  Ba  Ba6  1  0.134240  0.341450  0.074113  1
  Ba  Ba7  1  0.657880  0.864887  0.426311  1
  Fe  Fe8  1  0.728688  0.720499  0.163636  1
  Co  Co9  1  0.727623  0.733198  0.664817  1
  Co  Co10  1  0.274867  0.270418  0.335434  1
  Co  Co11  1  0.267058  0.273464  0.835128  1
  O  O12  1  0.328342  0.134763  0.963448  1
  O  O13  1  0.865477  0.670456  0.537195  1
  O  O14  1  0.660673  0.856612  0.034609  1
  O  O15  1  0.138433  0.332419  0.464850  1
  O  O16  1  0.990928  0.008604  0.750182  1
  O  O17  1  0.011359  0.987168  0.254015  1
  O  O18  1  0.592971  0.403809  0.750084  1
  O  O19  1  0.489617  0.150749  0.367812  1
  O  O20  1  0.141246  0.482625  0.867399  1
  O  O21  1  0.515928  0.855814  0.632574  1
  O  O22  1  0.863449  0.517209  0.130000  1
  O  O23  1  0.400637  0.601657  0.251361  1
