# generated using pymatgen
data_Lu10Cu4BiSb
_symmetry_space_group_name_H-M   'P 1'
_cell_length_a   8.40178547
_cell_length_b   8.40178546
_cell_length_c   8.40178582
_cell_angle_alpha   125.02129791
_cell_angle_beta   125.02129803
_cell_angle_gamma   81.50275421
_symmetry_Int_Tables_number   1
_chemical_formula_structural   Lu10Cu4BiSb
_chemical_formula_sum   'Lu10 Cu4 Bi1 Sb1'
_cell_volume   382.90116288
_cell_formula_units_Z   1
loop_
 _symmetry_equiv_pos_site_id
 _symmetry_equiv_pos_as_xyz
  1  'x, y, z'
loop_
 _atom_site_type_symbol
 _atom_site_label
 _atom_site_symmetry_multiplicity
 _atom_site_fract_x
 _atom_site_fract_y
 _atom_site_fract_z
 _atom_site_occupancy
  Lu  Lu0  1  0.001840  0.001840  0.000000  1
  Lu  Lu1  1  0.498160  0.498160  0.000000  1
  Lu  Lu2  1  0.795045  0.291871  0.806845  1
  Lu  Lu3  1  0.208129  0.704955  0.193155  1
  Lu  Lu4  1  0.485026  0.988200  0.193155  1
  Lu  Lu5  1  0.291871  0.485026  0.496826  1
  Lu  Lu6  1  0.014974  0.208129  0.503174  1
  Lu  Lu7  1  0.511800  0.014974  0.806845  1
  Lu  Lu8  1  0.704955  0.511800  0.496826  1
  Lu  Lu9  1  0.988200  0.795045  0.503174  1
  Cu  Cu10  1  0.132996  0.632996  0.765994  1
  Cu  Cu11  1  0.867004  0.367004  0.234006  1
  Cu  Cu12  1  0.632996  0.867004  0.500000  1
  Cu  Cu13  1  0.367004  0.132996  0.500000  1
  Bi  Bi14  1  0.750000  0.750000  0.000000  1
  Sb  Sb15  1  0.250000  0.250000  0.000000  1
