# generated using pymatgen
data_PrGa4Co
_symmetry_space_group_name_H-M   'P 1'
_cell_length_a   8.24840576
_cell_length_b   8.24840637
_cell_length_c   6.47908100
_cell_angle_alpha   90.00000000
_cell_angle_beta   90.00000000
_cell_angle_gamma   150.20250047
_symmetry_Int_Tables_number   1
_chemical_formula_structural   PrGa4Co
_chemical_formula_sum   'Pr2 Ga8 Co2'
_cell_volume   219.05542521
_cell_formula_units_Z   2
loop_
 _symmetry_equiv_pos_site_id
 _symmetry_equiv_pos_as_xyz
  1  'x, y, z'
loop_
 _atom_site_type_symbol
 _atom_site_label
 _atom_site_symmetry_multiplicity
 _atom_site_fract_x
 _atom_site_fract_y
 _atom_site_fract_z
 _atom_site_occupancy
  Pr  Pr0  1  0.884126  0.115874  0.750000  1
  Pr  Pr1  1  0.115874  0.884126  0.250000  1
  Ga  Ga2  1  0.500000  0.500000  0.000000  1
  Ga  Ga3  1  0.500000  0.500000  0.500000  1
  Ga  Ga4  1  0.077116  0.922884  0.750000  1
  Ga  Ga5  1  0.922884  0.077116  0.250000  1
  Ga  Ga6  1  0.691029  0.308971  0.946779  1
  Ga  Ga7  1  0.308971  0.691029  0.053221  1
  Ga  Ga8  1  0.691029  0.308971  0.553221  1
  Ga  Ga9  1  0.308971  0.691029  0.446779  1
  Co  Co10  1  0.222800  0.777200  0.750000  1
  Co  Co11  1  0.777200  0.222800  0.250000  1
