# generated using pymatgen
data_DyHfMn6Co6P7
_symmetry_space_group_name_H-M   'P 1'
_cell_length_a   9.05232500
_cell_length_b   9.05232403
_cell_length_c   3.61149400
_cell_angle_alpha   90.00000000
_cell_angle_beta   90.00000000
_cell_angle_gamma   120.00001354
_symmetry_Int_Tables_number   1
_chemical_formula_structural   DyHfMn6Co6P7
_chemical_formula_sum   'Dy1 Hf1 Mn6 Co6 P7'
_cell_volume   256.29356313
_cell_formula_units_Z   1
loop_
 _symmetry_equiv_pos_site_id
 _symmetry_equiv_pos_as_xyz
  1  'x, y, z'
loop_
 _atom_site_type_symbol
 _atom_site_label
 _atom_site_symmetry_multiplicity
 _atom_site_fract_x
 _atom_site_fract_y
 _atom_site_fract_z
 _atom_site_occupancy
  Dy  Dy0  1  0.333333  0.666667  0.500000  1
  Hf  Hf1  1  0.666667  0.333333  0.000000  1
  Mn  Mn2  1  0.878467  0.719682  0.000000  1
  Mn  Mn3  1  0.280318  0.158785  0.000000  1
  Mn  Mn4  1  0.841215  0.121533  0.000000  1
  Mn  Mn5  1  0.123547  0.894513  0.500000  1
  Mn  Mn6  1  0.105487  0.229034  0.500000  1
  Mn  Mn7  1  0.770966  0.876453  0.500000  1
  Co  Co8  1  0.372205  0.941450  0.000000  1
  Co  Co9  1  0.058550  0.430754  0.000000  1
  Co  Co10  1  0.569246  0.627795  0.000000  1
  Co  Co11  1  0.943639  0.556097  0.500000  1
  Co  Co12  1  0.443903  0.387543  0.500000  1
  Co  Co13  1  0.612457  0.056361  0.500000  1
  P  P14  1  0.112689  0.700202  0.000000  1
  P  P15  1  0.299798  0.412487  0.000000  1
  P  P16  1  0.587513  0.887311  0.000000  1
  P  P17  1  0.712591  0.588668  0.500000  1
  P  P18  1  0.411332  0.123924  0.500000  1
  P  P19  1  0.876076  0.287409  0.500000  1
  P  P20  1  0.000000  0.000000  0.000000  1
