# generated using pymatgen
data_Ca2Pr2TiV3O12
_symmetry_space_group_name_H-M   'P 1'
_cell_length_a   5.48173097
_cell_length_b   5.59563887
_cell_length_c   7.79725326
_cell_angle_alpha   90.23174619
_cell_angle_beta   89.91857709
_cell_angle_gamma   89.26798504
_symmetry_Int_Tables_number   1
_chemical_formula_structural   Ca2Pr2TiV3O12
_chemical_formula_sum   'Ca2 Pr2 Ti1 V3 O12'
_cell_volume   239.14954964
_cell_formula_units_Z   1
loop_
 _symmetry_equiv_pos_site_id
 _symmetry_equiv_pos_as_xyz
  1  'x, y, z'
loop_
 _atom_site_type_symbol
 _atom_site_label
 _atom_site_symmetry_multiplicity
 _atom_site_fract_x
 _atom_site_fract_y
 _atom_site_fract_z
 _atom_site_occupancy
  Ca  Ca0  1  0.010712  0.455254  0.249160  1
  Ca  Ca1  1  0.989288  0.544746  0.750840  1
  Pr  Pr2  1  0.509078  0.047345  0.750838  1
  Pr  Pr3  1  0.490922  0.952655  0.249162  1
  Ti  Ti4  1  0.000000  0.000000  0.000000  1
  V  V5  1  0.500000  0.500000  0.000000  1
  V  V6  1  0.000000  0.000000  0.500000  1
  V  V7  1  0.500000  0.500000  0.500000  1
  O  O8  1  0.288025  0.197260  0.037232  1
  O  O9  1  0.711975  0.802740  0.962768  1
  O  O10  1  0.793673  0.285158  0.951422  1
  O  O11  1  0.706038  0.794530  0.538470  1
  O  O12  1  0.206327  0.714842  0.048578  1
  O  O13  1  0.293962  0.205470  0.461530  1
  O  O14  1  0.197075  0.726556  0.452502  1
  O  O15  1  0.802925  0.273444  0.547498  1
  O  O16  1  0.582828  0.516596  0.250633  1
  O  O17  1  0.417172  0.483404  0.749367  1
  O  O18  1  0.079213  0.969352  0.751397  1
  O  O19  1  0.920787  0.030648  0.248603  1
