# generated using pymatgen
data_TbTmMoRuC3
_symmetry_space_group_name_H-M   'P 1'
_cell_length_a   6.01155563
_cell_length_b   6.01155567
_cell_length_c   5.68889255
_cell_angle_alpha   67.77508977
_cell_angle_beta   67.77509071
_cell_angle_gamma   32.45599816
_symmetry_Int_Tables_number   1
_chemical_formula_structural   TbTmMoRuC3
_chemical_formula_sum   'Tb1 Tm1 Mo1 Ru1 C3'
_cell_volume   101.40843829
_cell_formula_units_Z   1
loop_
 _symmetry_equiv_pos_site_id
 _symmetry_equiv_pos_as_xyz
  1  'x, y, z'
loop_
 _atom_site_type_symbol
 _atom_site_label
 _atom_site_symmetry_multiplicity
 _atom_site_fract_x
 _atom_site_fract_y
 _atom_site_fract_z
 _atom_site_occupancy
  Tb  Tb0  1  0.608110  0.608110  0.181456  1
  Tm  Tm1  1  0.390321  0.390321  0.833905  1
  Mo  Mo2  1  0.158591  0.158591  0.675180  1
  Ru  Ru3  1  0.841162  0.841162  0.319559  1
  C  C4  1  0.755767  0.755767  0.728538  1
  C  C5  1  0.248615  0.248615  0.268653  1
  C  C6  1  0.997433  0.997433  0.992707  1
