# generated using pymatgen
data_Sc22Fe2IrRu5
_symmetry_space_group_name_H-M   'P 1'
_cell_length_a   9.36202707
_cell_length_b   9.44715530
_cell_length_c   9.44715425
_cell_angle_alpha   60.29451464
_cell_angle_beta   60.29763273
_cell_angle_gamma   60.29762745
_symmetry_Int_Tables_number   1
_chemical_formula_structural   Sc22Fe2IrRu5
_chemical_formula_sum   'Sc22 Fe2 Ir1 Ru5'
_cell_volume   594.78787575
_cell_formula_units_Z   1
loop_
 _symmetry_equiv_pos_site_id
 _symmetry_equiv_pos_as_xyz
  1  'x, y, z'
loop_
 _atom_site_type_symbol
 _atom_site_label
 _atom_site_symmetry_multiplicity
 _atom_site_fract_x
 _atom_site_fract_y
 _atom_site_fract_z
 _atom_site_occupancy
  Sc  Sc0  1  0.806514  0.807354  0.192646  1
  Sc  Sc1  1  0.193486  0.807354  0.192646  1
  Sc  Sc2  1  0.806642  0.193358  0.193358  1
  Sc  Sc3  1  0.193486  0.192646  0.807354  1
  Sc  Sc4  1  0.806514  0.192646  0.807354  1
  Sc  Sc5  1  0.193358  0.806642  0.806642  1
  Sc  Sc6  1  0.614898  0.612602  0.157601  1
  Sc  Sc7  1  0.614898  0.157601  0.612602  1
  Sc  Sc8  1  0.154934  0.613722  0.613722  1
  Sc  Sc9  1  0.617623  0.613722  0.613722  1
  Sc  Sc10  1  0.385102  0.387398  0.842399  1
  Sc  Sc11  1  0.385102  0.842399  0.387398  1
  Sc  Sc12  1  0.845066  0.386278  0.386278  1
  Sc  Sc13  1  0.382377  0.386278  0.386278  1
  Sc  Sc14  1  0.842517  0.845186  0.469780  1
  Sc  Sc15  1  0.842517  0.469780  0.845186  1
  Sc  Sc16  1  0.473831  0.841968  0.841968  1
  Sc  Sc17  1  0.842233  0.841968  0.841968  1
  Sc  Sc18  1  0.157483  0.154814  0.530220  1
  Sc  Sc19  1  0.157483  0.530220  0.154814  1
  Sc  Sc20  1  0.526169  0.158032  0.158032  1
  Sc  Sc21  1  0.157767  0.158032  0.158032  1
  Fe  Fe22  1  0.000000  0.000000  0.000000  1
  Fe  Fe23  1  0.500000  0.500000  0.500000  1
  Ir  Ir24  1  0.500000  0.000000  0.000000  1
  Ru  Ru25  1  0.000000  0.000000  0.500000  1
  Ru  Ru26  1  0.500000  0.000000  0.500000  1
  Ru  Ru27  1  0.000000  0.500000  0.500000  1
  Ru  Ru28  1  0.500000  0.500000  0.000000  1
  Ru  Ru29  1  0.000000  0.500000  0.000000  1
