# generated using pymatgen
data_La5Pr3GePd24
_symmetry_space_group_name_H-M   'P 1'
_cell_length_a   8.54624452
_cell_length_b   8.54624452
_cell_length_c   8.54600312
_cell_angle_alpha   90.01383540
_cell_angle_beta   89.98616460
_cell_angle_gamma   89.96229638
_symmetry_Int_Tables_number   1
_chemical_formula_structural   La5Pr3GePd24
_chemical_formula_sum   'La5 Pr3 Ge1 Pd24'
_cell_volume   624.18532982
_cell_formula_units_Z   1
loop_
 _symmetry_equiv_pos_site_id
 _symmetry_equiv_pos_as_xyz
  1  'x, y, z'
loop_
 _atom_site_type_symbol
 _atom_site_label
 _atom_site_symmetry_multiplicity
 _atom_site_fract_x
 _atom_site_fract_y
 _atom_site_fract_z
 _atom_site_occupancy
  La  La0  1  0.253083  0.253063  0.252956  1
  La  La1  1  0.746948  0.747038  0.747101  1
  La  La2  1  0.746937  0.746917  0.252956  1
  La  La3  1  0.747022  0.252978  0.747027  1
  La  La4  1  0.252962  0.253052  0.747101  1
  Pr  Pr5  1  0.252702  0.747298  0.252723  1
  Pr  Pr6  1  0.252747  0.747253  0.747245  1
  Pr  Pr7  1  0.747319  0.252681  0.252650  1
  Ge  Ge8  1  0.000017  0.999983  0.000016  1
  Pd  Pd9  1  0.260722  0.500004  0.000012  1
  Pd  Pd10  1  0.739284  0.500005  0.999969  1
  Pd  Pd11  1  0.000056  0.260694  0.500011  1
  Pd  Pd12  1  0.499995  0.260716  0.999969  1
  Pd  Pd13  1  0.999932  0.739302  0.500005  1
  Pd  Pd14  1  0.499996  0.739278  0.000012  1
  Pd  Pd15  1  0.499997  0.999983  0.260693  1
  Pd  Pd16  1  0.260698  0.000068  0.500005  1
  Pd  Pd17  1  0.499997  0.000028  0.739304  1
  Pd  Pd18  1  0.739306  0.999944  0.500011  1
  Pd  Pd19  1  0.000017  0.500003  0.260693  1
  Pd  Pd20  1  0.999972  0.500003  0.739304  1
  Pd  Pd21  1  0.253395  0.499938  0.499993  1
  Pd  Pd22  1  0.746610  0.500038  0.500030  1
  Pd  Pd23  1  0.499962  0.253390  0.500030  1
  Pd  Pd24  1  0.500062  0.746605  0.499993  1
  Pd  Pd25  1  0.499993  0.500007  0.253359  1
  Pd  Pd26  1  0.500033  0.499967  0.746648  1
  Pd  Pd27  1  0.291776  0.999792  0.000003  1
  Pd  Pd28  1  0.708180  0.000068  0.000108  1
  Pd  Pd29  1  0.999932  0.291820  0.000108  1
  Pd  Pd30  1  0.000208  0.708224  0.000003  1
  Pd  Pd31  1  0.000018  0.999982  0.291769  1
  Pd  Pd32  1  0.000122  0.999878  0.708193  1
