# generated using pymatgen
data_Yb12Si3Ge5Pd8
_symmetry_space_group_name_H-M   'P 1'
_cell_length_a   5.56889500
_cell_length_b   8.09876284
_cell_length_c   13.35291699
_cell_angle_alpha   89.87467140
_cell_angle_beta   90.00000000
_cell_angle_gamma   90.00000000
_symmetry_Int_Tables_number   1
_chemical_formula_structural   Yb12Si3Ge5Pd8
_chemical_formula_sum   'Yb12 Si3 Ge5 Pd8'
_cell_volume   602.23060347
_cell_formula_units_Z   1
loop_
 _symmetry_equiv_pos_site_id
 _symmetry_equiv_pos_as_xyz
  1  'x, y, z'
loop_
 _atom_site_type_symbol
 _atom_site_label
 _atom_site_symmetry_multiplicity
 _atom_site_fract_x
 _atom_site_fract_y
 _atom_site_fract_z
 _atom_site_occupancy
  Yb  Yb0  1  0.647177  0.249403  0.250319  1
  Yb  Yb1  1  0.352372  0.750206  0.749425  1
  Yb  Yb2  1  0.352372  0.749794  0.250575  1
  Yb  Yb3  1  0.647177  0.250597  0.749681  1
  Yb  Yb4  1  0.141253  0.389828  0.103056  1
  Yb  Yb5  1  0.860048  0.609337  0.896335  1
  Yb  Yb6  1  0.861001  0.610100  0.603141  1
  Yb  Yb7  1  0.861001  0.889900  0.396859  1
  Yb  Yb8  1  0.139052  0.389691  0.396761  1
  Yb  Yb9  1  0.139052  0.110309  0.603239  1
  Yb  Yb10  1  0.141253  0.110172  0.896944  1
  Yb  Yb11  1  0.860048  0.890663  0.103665  1
  Si  Si12  1  0.375744  0.750000  0.000000  1
  Si  Si13  1  0.378935  0.750000  0.500000  1
  Si  Si14  1  0.621119  0.250000  0.500000  1
  Ge  Ge15  1  0.148788  0.103472  0.250283  1
  Ge  Ge16  1  0.850992  0.897020  0.749510  1
  Ge  Ge17  1  0.850992  0.602980  0.250490  1
  Ge  Ge18  1  0.148788  0.396528  0.749717  1
  Ge  Ge19  1  0.637807  0.250000  0.000000  1
  Pd  Pd20  1  0.370302  0.021890  0.088467  1
  Pd  Pd21  1  0.622213  0.963545  0.910548  1
  Pd  Pd22  1  0.625085  0.971974  0.587765  1
  Pd  Pd23  1  0.625085  0.528026  0.412235  1
  Pd  Pd24  1  0.374915  0.027970  0.412273  1
  Pd  Pd25  1  0.374915  0.472030  0.587727  1
  Pd  Pd26  1  0.370302  0.478110  0.911533  1
  Pd  Pd27  1  0.622213  0.536455  0.089452  1
