# generated using pymatgen
data_Yb3LuSc4(ReB6)4
_symmetry_space_group_name_H-M   'P 1'
_cell_length_a   3.54660300
_cell_length_b   9.04154101
_cell_length_c   11.37138901
_cell_angle_alpha   90.00532060
_cell_angle_beta   90.00000000
_cell_angle_gamma   90.00000000
_symmetry_Int_Tables_number   1
_chemical_formula_structural   Yb3LuSc4(ReB6)4
_chemical_formula_sum   'Yb3 Lu1 Sc4 Re4 B24'
_cell_volume   364.64356061
_cell_formula_units_Z   1
loop_
 _symmetry_equiv_pos_site_id
 _symmetry_equiv_pos_as_xyz
  1  'x, y, z'
loop_
 _atom_site_type_symbol
 _atom_site_label
 _atom_site_symmetry_multiplicity
 _atom_site_fract_x
 _atom_site_fract_y
 _atom_site_fract_z
 _atom_site_occupancy
  Yb  Yb0  1  0.000000  0.677295  0.585235  1
  Yb  Yb1  1  0.000000  0.823415  0.085496  1
  Yb  Yb2  1  0.000000  0.176793  0.914730  1
  Lu  Lu3  1  0.000000  0.324115  0.414853  1
  Sc  Sc4  1  0.000000  0.943839  0.368468  1
  Sc  Sc5  1  0.000000  0.055638  0.631644  1
  Sc  Sc6  1  0.000000  0.443971  0.131998  1
  Sc  Sc7  1  0.000000  0.556118  0.867093  1
  Re  Re8  1  0.000000  0.641512  0.317988  1
  Re  Re9  1  0.000000  0.356971  0.681423  1
  Re  Re10  1  0.000000  0.144371  0.183350  1
  Re  Re11  1  0.000000  0.856928  0.818103  1
  B  B12  1  0.500000  0.553898  0.433230  1
  B  B13  1  0.500000  0.445206  0.566184  1
  B  B14  1  0.500000  0.054815  0.067907  1
  B  B15  1  0.500000  0.946001  0.932959  1
  B  B16  1  0.500000  0.754495  0.418697  1
  B  B17  1  0.500000  0.244905  0.580135  1
  B  B18  1  0.500000  0.255064  0.081674  1
  B  B19  1  0.500000  0.744724  0.918628  1
  B  B20  1  0.500000  0.796208  0.263927  1
  B  B21  1  0.500000  0.203265  0.735915  1
  B  B22  1  0.500000  0.297020  0.237422  1
  B  B23  1  0.500000  0.703209  0.763197  1
  B  B24  1  0.500000  0.629824  0.182053  1
  B  B25  1  0.500000  0.369682  0.817470  1
  B  B26  1  0.500000  0.130698  0.318911  1
  B  B27  1  0.500000  0.869823  0.681754  1
  B  B28  1  0.500000  0.982234  0.213553  1
  B  B29  1  0.500000  0.018193  0.786777  1
  B  B30  1  0.500000  0.481378  0.287268  1
  B  B31  1  0.500000  0.517861  0.712526  1
  B  B32  1  0.500000  0.592145  0.024838  1
  B  B33  1  0.500000  0.407666  0.974858  1
  B  B34  1  0.500000  0.094052  0.474530  1
  B  B35  1  0.500000  0.906670  0.525207  1
