# generated using pymatgen
data_Ta4Mn(FeSe6)2
_symmetry_space_group_name_H-M   'P 1'
_cell_length_a   7.31305114
_cell_length_b   7.31305193
_cell_length_c   19.35575900
_cell_angle_alpha   69.06741074
_cell_angle_beta   69.06740837
_cell_angle_gamma   27.05170783
_symmetry_Int_Tables_number   1
_chemical_formula_structural   Ta4Mn(FeSe6)2
_chemical_formula_sum   'Ta4 Mn1 Fe2 Se12'
_cell_volume   437.84835629
_cell_formula_units_Z   1
loop_
 _symmetry_equiv_pos_site_id
 _symmetry_equiv_pos_as_xyz
  1  'x, y, z'
loop_
 _atom_site_type_symbol
 _atom_site_label
 _atom_site_symmetry_multiplicity
 _atom_site_fract_x
 _atom_site_fract_y
 _atom_site_fract_z
 _atom_site_occupancy
  Ta  Ta0  1  0.621242  0.621242  0.851489  1
  Ta  Ta1  1  0.378758  0.378758  0.148511  1
  Ta  Ta2  1  0.745566  0.745566  0.591766  1
  Ta  Ta3  1  0.254434  0.254434  0.408234  1
  Mn  Mn4  1  0.000000  0.000000  0.000000  1
  Fe  Fe5  1  0.227882  0.227882  0.716427  1
  Fe  Fe6  1  0.772118  0.772118  0.283573  1
  Se  Se7  1  0.970998  0.970998  0.884928  1
  Se  Se8  1  0.029002  0.029002  0.115072  1
  Se  Se9  1  0.626400  0.626400  0.396300  1
  Se  Se10  1  0.373600  0.373600  0.603700  1
  Se  Se11  1  0.133983  0.133983  0.551750  1
  Se  Se12  1  0.866017  0.866017  0.448250  1
  Se  Se13  1  0.806379  0.806379  0.766371  1
  Se  Se14  1  0.193621  0.193621  0.233629  1
  Se  Se15  1  0.180607  0.180607  0.929831  1
  Se  Se16  1  0.819393  0.819393  0.070169  1
  Se  Se17  1  0.602978  0.602978  0.721364  1
  Se  Se18  1  0.397022  0.397022  0.278636  1
