# generated using pymatgen
data_Er3NiPdPtPb3
_symmetry_space_group_name_H-M   'P 1'
_cell_length_a   7.80064100
_cell_length_b   7.80063965
_cell_length_c   3.77072700
_cell_angle_alpha   90.00000000
_cell_angle_beta   90.00000000
_cell_angle_gamma   120.00000149
_symmetry_Int_Tables_number   1
_chemical_formula_structural   Er3NiPdPtPb3
_chemical_formula_sum   'Er3 Ni1 Pd1 Pt1 Pb3'
_cell_volume   198.70839856
_cell_formula_units_Z   1
loop_
 _symmetry_equiv_pos_site_id
 _symmetry_equiv_pos_as_xyz
  1  'x, y, z'
loop_
 _atom_site_type_symbol
 _atom_site_label
 _atom_site_symmetry_multiplicity
 _atom_site_fract_x
 _atom_site_fract_y
 _atom_site_fract_z
 _atom_site_occupancy
  Er  Er0  1  0.403798  0.396732  0.500000  1
  Er  Er1  1  0.603268  0.007066  0.500000  1
  Er  Er2  1  0.992934  0.596202  0.500000  1
  Ni  Ni3  1  0.000000  0.000000  0.500000  1
  Pd  Pd4  1  0.333333  0.666667  0.000000  1
  Pt  Pt5  1  0.666667  0.333333  0.000000  1
  Pb  Pb6  1  0.740956  0.746849  0.000000  1
  Pb  Pb7  1  0.253151  0.994107  0.000000  1
  Pb  Pb8  1  0.005893  0.259044  0.000000  1
