# generated using pymatgen
data_Na4CdTeO6
_symmetry_space_group_name_H-M   'P 1'
_cell_length_a   5.74291180
_cell_length_b   5.74291187
_cell_length_c   5.81225592
_cell_angle_alpha   100.19767965
_cell_angle_beta   100.19768223
_cell_angle_gamma   119.43027701
_symmetry_Int_Tables_number   1
_chemical_formula_structural   Na4CdTeO6
_chemical_formula_sum   'Na4 Cd1 Te1 O6'
_cell_volume   156.32990655
_cell_formula_units_Z   1
loop_
 _symmetry_equiv_pos_site_id
 _symmetry_equiv_pos_as_xyz
  1  'x, y, z'
loop_
 _atom_site_type_symbol
 _atom_site_label
 _atom_site_symmetry_multiplicity
 _atom_site_fract_x
 _atom_site_fract_y
 _atom_site_fract_z
 _atom_site_occupancy
  Na  Na0  1  0.500261  0.499739  0.000000  1
  Na  Na1  1  0.999459  0.000541  0.500000  1
  Na  Na2  1  0.663273  0.336728  0.500000  1
  Na  Na3  1  0.337043  0.662957  0.500000  1
  Cd  Cd4  1  0.832733  0.167268  0.000000  1
  Te  Te5  1  0.167429  0.832571  0.000000  1
  O  O6  1  0.960781  0.620565  0.204425  1
  O  O7  1  0.230180  0.183559  0.215108  1
  O  O8  1  0.524118  0.911182  0.215663  1
  O  O9  1  0.088818  0.475882  0.784337  1
  O  O10  1  0.816441  0.769820  0.784892  1
  O  O11  1  0.379436  0.039219  0.795575  1
