# generated using pymatgen
data_DyEr5B14OsW
_symmetry_space_group_name_H-M   'P 1'
_cell_length_a   8.04916923
_cell_length_b   8.04916965
_cell_length_c   9.35901000
_cell_angle_alpha   90.00000000
_cell_angle_beta   90.00000000
_cell_angle_gamma   155.02773463
_symmetry_Int_Tables_number   1
_chemical_formula_structural   DyEr5B14OsW
_chemical_formula_sum   'Dy1 Er5 B14 Os1 W1'
_cell_volume   255.99365224
_cell_formula_units_Z   1
loop_
 _symmetry_equiv_pos_site_id
 _symmetry_equiv_pos_as_xyz
  1  'x, y, z'
loop_
 _atom_site_type_symbol
 _atom_site_label
 _atom_site_symmetry_multiplicity
 _atom_site_fract_x
 _atom_site_fract_y
 _atom_site_fract_z
 _atom_site_occupancy
  Dy  Dy0  1  0.753930  0.246070  0.750000  1
  Er  Er1  1  0.893850  0.106150  0.437863  1
  Er  Er2  1  0.107156  0.892844  0.557582  1
  Er  Er3  1  0.893850  0.106150  0.062137  1
  Er  Er4  1  0.107156  0.892844  0.942418  1
  Er  Er5  1  0.243684  0.756316  0.250000  1
  B  B6  1  0.726789  0.273211  0.463900  1
  B  B7  1  0.271846  0.728154  0.530651  1
  B  B8  1  0.726789  0.273211  0.036100  1
  B  B9  1  0.271846  0.728154  0.969349  1
  B  B10  1  0.631961  0.368039  0.151176  1
  B  B11  1  0.365224  0.634776  0.853406  1
  B  B12  1  0.631961  0.368039  0.348824  1
  B  B13  1  0.365224  0.634776  0.646594  1
  B  B14  1  0.520670  0.479330  0.096263  1
  B  B15  1  0.480959  0.519041  0.909557  1
  B  B16  1  0.520670  0.479330  0.403737  1
  B  B17  1  0.480959  0.519041  0.590443  1
  B  B18  1  0.456377  0.543623  0.250000  1
  B  B19  1  0.547425  0.452575  0.750000  1
  Os  Os20  1  0.053644  0.946356  0.250000  1
  W  W21  1  0.948031  0.051969  0.750000  1
