# generated using pymatgen
data_La5Pr3(RuO6)4
_symmetry_space_group_name_H-M   'P 1'
_cell_length_a   10.27526964
_cell_length_b   10.27476663
_cell_length_c   5.69157485
_cell_angle_alpha   75.15143138
_cell_angle_beta   75.09944740
_cell_angle_gamma   69.56158291
_symmetry_Int_Tables_number   1
_chemical_formula_structural   La5Pr3(RuO6)4
_chemical_formula_sum   'La5 Pr3 Ru4 O24'
_cell_volume   534.85863315
_cell_formula_units_Z   1
loop_
 _symmetry_equiv_pos_site_id
 _symmetry_equiv_pos_as_xyz
  1  'x, y, z'
loop_
 _atom_site_type_symbol
 _atom_site_label
 _atom_site_symmetry_multiplicity
 _atom_site_fract_x
 _atom_site_fract_y
 _atom_site_fract_z
 _atom_site_occupancy
  La  La0  1  0.712125  0.932338  0.877150  1
  La  La1  1  0.932300  0.712090  0.377399  1
  La  La2  1  0.287099  0.068729  0.123061  1
  La  La3  1  0.633354  0.366911  0.749899  1
  La  La4  1  0.367136  0.632980  0.249992  1
  Pr  Pr5  1  0.109085  0.891443  0.749772  1
  Pr  Pr6  1  0.891066  0.109501  0.249802  1
  Pr  Pr7  1  0.067919  0.288245  0.624389  1
  Ru  Ru8  1  0.500621  0.798807  0.548921  1
  Ru  Ru9  1  0.200986  0.499082  0.951621  1
  Ru  Ru10  1  0.499032  0.201298  0.451234  1
  Ru  Ru11  1  0.799227  0.500485  0.048546  1
  O  O12  1  0.614214  0.169690  0.155332  1
  O  O13  1  0.830415  0.385490  0.344477  1
  O  O14  1  0.385486  0.830371  0.844718  1
  O  O15  1  0.169379  0.614323  0.656127  1
  O  O16  1  0.472652  0.072283  0.732100  1
  O  O17  1  0.928362  0.526259  0.766701  1
  O  O18  1  0.527280  0.927744  0.268076  1
  O  O19  1  0.072659  0.471577  0.233948  1
  O  O20  1  0.326762  0.215504  0.372869  1
  O  O21  1  0.785163  0.672061  0.128317  1
  O  O22  1  0.672247  0.784918  0.628916  1
  O  O23  1  0.214044  0.328008  0.869241  1
  O  O24  1  0.891172  0.922499  0.070850  1
  O  O25  1  0.077042  0.109618  0.428802  1
  O  O26  1  0.109234  0.077899  0.928497  1
  O  O27  1  0.922619  0.891102  0.570775  1
  O  O28  1  0.164010  0.687696  0.087525  1
  O  O29  1  0.312006  0.835952  0.412438  1
  O  O30  1  0.837180  0.311736  0.910675  1
  O  O31  1  0.687867  0.164062  0.587372  1
  O  O32  1  0.382384  0.457681  0.983424  1
  O  O33  1  0.542230  0.617370  0.516491  1
  O  O34  1  0.617718  0.541616  0.016926  1
  O  O35  1  0.457926  0.382633  0.483618  1
