# generated using pymatgen
data_BaNdFeO4
_symmetry_space_group_name_H-M   'P 1'
_cell_length_a   10.23304800
_cell_length_b   7.00937100
_cell_length_c   5.85335200
_cell_angle_alpha   90.00000000
_cell_angle_beta   90.00000000
_cell_angle_gamma   90.00000000
_symmetry_Int_Tables_number   1
_chemical_formula_structural   BaNdFeO4
_chemical_formula_sum   'Ba4 Nd4 Fe4 O16'
_cell_volume   419.84472455
_cell_formula_units_Z   4
loop_
 _symmetry_equiv_pos_site_id
 _symmetry_equiv_pos_as_xyz
  1  'x, y, z'
loop_
 _atom_site_type_symbol
 _atom_site_label
 _atom_site_symmetry_multiplicity
 _atom_site_fract_x
 _atom_site_fract_y
 _atom_site_fract_z
 _atom_site_occupancy
  Ba  Ba0  1  0.670994  0.329299  0.249964  1
  Ba  Ba1  1  0.829006  0.670701  0.749963  1
  Ba  Ba2  1  0.170995  0.170703  0.750037  1
  Ba  Ba3  1  0.329005  0.829299  0.250035  1
  Nd  Nd4  1  0.044120  0.498639  0.248998  1
  Nd  Nd5  1  0.455881  0.501362  0.749000  1
  Nd  Nd6  1  0.544121  0.001362  0.751001  1
  Nd  Nd7  1  0.955880  0.998638  0.251002  1
  Fe  Fe8  1  0.325039  0.310768  0.250112  1
  Fe  Fe9  1  0.174960  0.689231  0.750113  1
  Fe  Fe10  1  0.825040  0.189231  0.749888  1
  Fe  Fe11  1  0.674960  0.810770  0.249887  1
  O  O12  1  0.443358  0.222418  0.010001  1
  O  O13  1  0.056641  0.777581  0.510002  1
  O  O14  1  0.943359  0.277583  0.989998  1
  O  O15  1  0.556641  0.722418  0.489999  1
  O  O16  1  0.251563  0.501010  0.496019  1
  O  O17  1  0.248437  0.498991  0.996018  1
  O  O18  1  0.751564  0.998991  0.503983  1
  O  O19  1  0.748437  0.001009  0.003982  1
  O  O20  1  0.443675  0.219784  0.489276  1
  O  O21  1  0.056324  0.780216  0.989275  1
  O  O22  1  0.943676  0.280218  0.510722  1
  O  O23  1  0.556324  0.719784  0.010723  1
  O  O24  1  0.175483  0.149461  0.250679  1
  O  O25  1  0.324518  0.850539  0.750678  1
  O  O26  1  0.675482  0.350539  0.749322  1
  O  O27  1  0.824517  0.649461  0.249321  1
