# generated using pymatgen
data_SrLiAs2Pd
_symmetry_space_group_name_H-M   'P 1'
_cell_length_a   6.18271710
_cell_length_b   6.18271675
_cell_length_c   6.18271716
_cell_angle_alpha   139.05494307
_cell_angle_beta   139.05493711
_cell_angle_gamma   59.29109472
_symmetry_Int_Tables_number   1
_chemical_formula_structural   SrLiAs2Pd
_chemical_formula_sum   'Sr1 Li1 As2 Pd1'
_cell_volume   100.50896556
_cell_formula_units_Z   1
loop_
 _symmetry_equiv_pos_site_id
 _symmetry_equiv_pos_as_xyz
  1  'x, y, z'
loop_
 _atom_site_type_symbol
 _atom_site_label
 _atom_site_symmetry_multiplicity
 _atom_site_fract_x
 _atom_site_fract_y
 _atom_site_fract_z
 _atom_site_occupancy
  Sr  Sr0  1  0.000000  0.000000  0.000000  1
  Li  Li1  1  0.750000  0.250000  0.500000  1
  As  As2  1  0.619937  0.619937  0.000000  1
  As  As3  1  0.380063  0.380063  0.000000  1
  Pd  Pd4  1  0.250000  0.750000  0.500000  1
