# generated using pymatgen
data_Y3Lu17Cd3Hg3Ru2
_symmetry_space_group_name_H-M   'P 1'
_cell_length_a   9.42570778
_cell_length_b   9.40476170
_cell_length_c   9.58601300
_cell_angle_alpha   90.00000000
_cell_angle_beta   90.00000000
_cell_angle_gamma   119.81573180
_symmetry_Int_Tables_number   1
_chemical_formula_structural   Y3Lu17Cd3Hg3Ru2
_chemical_formula_sum   'Y3 Lu17 Cd3 Hg3 Ru2'
_cell_volume   737.28232620
_cell_formula_units_Z   1
loop_
 _symmetry_equiv_pos_site_id
 _symmetry_equiv_pos_as_xyz
  1  'x, y, z'
loop_
 _atom_site_type_symbol
 _atom_site_label
 _atom_site_symmetry_multiplicity
 _atom_site_fract_x
 _atom_site_fract_y
 _atom_site_fract_z
 _atom_site_occupancy
  Y  Y0  1  0.917360  0.458283  0.250000  1
  Y  Y1  1  0.458778  0.917631  0.750000  1
  Y  Y2  1  0.079667  0.539542  0.750000  1
  Lu  Lu3  1  0.001484  0.001448  0.489158  1
  Lu  Lu4  1  0.001484  0.001448  0.010842  1
  Lu  Lu5  1  0.211191  0.791193  0.439653  1
  Lu  Lu6  1  0.212842  0.420855  0.440478  1
  Lu  Lu7  1  0.581039  0.789136  0.440648  1
  Lu  Lu8  1  0.788449  0.208749  0.558283  1
  Lu  Lu9  1  0.787814  0.580570  0.558408  1
  Lu  Lu10  1  0.420760  0.211107  0.557830  1
  Lu  Lu11  1  0.788449  0.208749  0.941717  1
  Lu  Lu12  1  0.787814  0.580570  0.941592  1
  Lu  Lu13  1  0.420760  0.211107  0.942170  1
  Lu  Lu14  1  0.211191  0.791193  0.060347  1
  Lu  Lu15  1  0.212842  0.420855  0.059522  1
  Lu  Lu16  1  0.581039  0.789136  0.059352  1
  Lu  Lu17  1  0.539306  0.459353  0.250000  1
  Lu  Lu18  1  0.538895  0.077763  0.250000  1
  Lu  Lu19  1  0.460182  0.538326  0.750000  1
  Cd  Cd20  1  0.111714  0.890607  0.750000  1
  Cd  Cd21  1  0.114258  0.223587  0.750000  1
  Cd  Cd22  1  0.776520  0.886832  0.750000  1
  Hg  Hg23  1  0.875986  0.116386  0.250000  1
  Hg  Hg24  1  0.875248  0.759769  0.250000  1
  Hg  Hg25  1  0.242833  0.122011  0.250000  1
  Ru  Ru26  1  0.335057  0.668171  0.250000  1
  Ru  Ru27  1  0.667034  0.335629  0.750000  1
