# generated using pymatgen
data_V(CrTe2)4
_symmetry_space_group_name_H-M   'P 1'
_cell_length_a   7.92139500
_cell_length_b   7.92139499
_cell_length_c   6.03650700
_cell_angle_alpha   90.00000000
_cell_angle_beta   90.00000000
_cell_angle_gamma   120.00000423
_symmetry_Int_Tables_number   1
_chemical_formula_structural   V(CrTe2)4
_chemical_formula_sum   'V1 Cr4 Te8'
_cell_volume   328.03460514
_cell_formula_units_Z   1
loop_
 _symmetry_equiv_pos_site_id
 _symmetry_equiv_pos_as_xyz
  1  'x, y, z'
loop_
 _atom_site_type_symbol
 _atom_site_label
 _atom_site_symmetry_multiplicity
 _atom_site_fract_x
 _atom_site_fract_y
 _atom_site_fract_z
 _atom_site_occupancy
  V  V0  1  0.000000  0.000000  0.500000  1
  Cr  Cr1  1  0.500000  0.500000  0.000000  1
  Cr  Cr2  1  0.500000  0.000000  0.000000  1
  Cr  Cr3  1  0.000000  0.500000  0.000000  1
  Cr  Cr4  1  0.000000  0.000000  0.000000  1
  Te  Te5  1  0.666667  0.333333  0.243644  1
  Te  Te6  1  0.333333  0.666667  0.756356  1
  Te  Te7  1  0.166164  0.332326  0.247161  1
  Te  Te8  1  0.833836  0.667674  0.752839  1
  Te  Te9  1  0.667674  0.833836  0.247161  1
  Te  Te10  1  0.833836  0.166164  0.752839  1
  Te  Te11  1  0.332326  0.166164  0.752839  1
  Te  Te12  1  0.166164  0.833836  0.247161  1
