# generated using pymatgen
data_Hf4NiOs
_symmetry_space_group_name_H-M   'P 1'
_cell_length_a   8.61437064
_cell_length_b   8.61437045
_cell_length_c   8.61437000
_cell_angle_alpha   60.00000174
_cell_angle_beta   60.00000247
_cell_angle_gamma   59.99999870
_symmetry_Int_Tables_number   1
_chemical_formula_structural   Hf4NiOs
_chemical_formula_sum   'Hf16 Ni4 Os4'
_cell_volume   452.01789776
_cell_formula_units_Z   4
loop_
 _symmetry_equiv_pos_site_id
 _symmetry_equiv_pos_as_xyz
  1  'x, y, z'
loop_
 _atom_site_type_symbol
 _atom_site_label
 _atom_site_symmetry_multiplicity
 _atom_site_fract_x
 _atom_site_fract_y
 _atom_site_fract_z
 _atom_site_occupancy
  Hf  Hf0  1  0.180559  0.606480  0.606480  1
  Hf  Hf1  1  0.606480  0.180559  0.606480  1
  Hf  Hf2  1  0.606480  0.606480  0.180559  1
  Hf  Hf3  1  0.606480  0.606480  0.606480  1
  Hf  Hf4  1  0.815307  0.815307  0.184693  1
  Hf  Hf5  1  0.184693  0.184693  0.815307  1
  Hf  Hf6  1  0.815307  0.184693  0.815307  1
  Hf  Hf7  1  0.184693  0.815307  0.184693  1
  Hf  Hf8  1  0.184693  0.815307  0.815307  1
  Hf  Hf9  1  0.815307  0.184693  0.184693  1
  Hf  Hf10  1  0.451988  0.451988  0.048012  1
  Hf  Hf11  1  0.048012  0.048012  0.451988  1
  Hf  Hf12  1  0.451988  0.048012  0.451988  1
  Hf  Hf13  1  0.048012  0.451988  0.048012  1
  Hf  Hf14  1  0.048012  0.451988  0.451988  1
  Hf  Hf15  1  0.451988  0.048012  0.048012  1
  Ni  Ni16  1  0.821140  0.392953  0.392953  1
  Ni  Ni17  1  0.392953  0.821140  0.392953  1
  Ni  Ni18  1  0.392953  0.392953  0.821140  1
  Ni  Ni19  1  0.392953  0.392953  0.392953  1
  Os  Os20  1  0.498289  0.833904  0.833904  1
  Os  Os21  1  0.833904  0.498289  0.833904  1
  Os  Os22  1  0.833904  0.833904  0.498289  1
  Os  Os23  1  0.833904  0.833904  0.833904  1
