# generated using pymatgen
data_Zr10ZnSiBi5Pb
_symmetry_space_group_name_H-M   'P 1'
_cell_length_a   8.84012716
_cell_length_b   8.83722272
_cell_length_c   5.96280100
_cell_angle_alpha   90.00426592
_cell_angle_beta   89.99787083
_cell_angle_gamma   119.98913563
_symmetry_Int_Tables_number   1
_chemical_formula_structural   Zr10ZnSiBi5Pb
_chemical_formula_sum   'Zr10 Zn1 Si1 Bi5 Pb1'
_cell_volume   403.46214560
_cell_formula_units_Z   1
loop_
 _symmetry_equiv_pos_site_id
 _symmetry_equiv_pos_as_xyz
  1  'x, y, z'
loop_
 _atom_site_type_symbol
 _atom_site_label
 _atom_site_symmetry_multiplicity
 _atom_site_fract_x
 _atom_site_fract_y
 _atom_site_fract_z
 _atom_site_occupancy
  Zr  Zr0  1  0.666455  0.333298  0.500723  1
  Zr  Zr1  1  0.333545  0.666844  0.500723  1
  Zr  Zr2  1  0.332868  0.666309  0.999233  1
  Zr  Zr3  1  0.667132  0.333440  0.999233  1
  Zr  Zr4  1  0.740267  0.740333  0.242384  1
  Zr  Zr5  1  0.259733  0.000066  0.242384  1
  Zr  Zr6  1  0.000000  0.259549  0.242181  1
  Zr  Zr7  1  0.259806  0.260240  0.757776  1
  Zr  Zr8  1  0.740194  0.000434  0.757776  1
  Zr  Zr9  1  0.000000  0.740369  0.757799  1
  Zn  Zn10  1  0.000000  0.000227  0.499977  1
  Si  Si11  1  0.000000  0.000190  0.000144  1
  Bi  Bi12  1  0.389605  0.390030  0.252812  1
  Bi  Bi13  1  0.610395  0.000425  0.252812  1
  Bi  Bi14  1  0.000000  0.608871  0.253099  1
  Bi  Bi15  1  0.610147  0.610253  0.747037  1
  Bi  Bi16  1  0.389853  0.000106  0.747037  1
  Pb  Pb17  1  0.000000  0.389014  0.746870  1
