# generated using pymatgen
data_PaBC
_symmetry_space_group_name_H-M   'P 1'
_cell_length_a   6.37988276
_cell_length_b   6.37988193
_cell_length_c   3.39917000
_cell_angle_alpha   90.00000000
_cell_angle_beta   90.00000000
_cell_angle_gamma   146.37916282
_symmetry_Int_Tables_number   1
_chemical_formula_structural   PaBC
_chemical_formula_sum   'Pa2 B2 C2'
_cell_volume   76.60698621
_cell_formula_units_Z   2
loop_
 _symmetry_equiv_pos_site_id
 _symmetry_equiv_pos_as_xyz
  1  'x, y, z'
loop_
 _atom_site_type_symbol
 _atom_site_label
 _atom_site_symmetry_multiplicity
 _atom_site_fract_x
 _atom_site_fract_y
 _atom_site_fract_z
 _atom_site_occupancy
  Pa  Pa0  1  0.860539  0.139461  0.750000  1
  Pa  Pa1  1  0.139461  0.860539  0.250000  1
  B  B2  1  0.534548  0.465452  0.750000  1
  B  B3  1  0.465452  0.534548  0.250000  1
  C  C4  1  0.664480  0.335520  0.750000  1
  C  C5  1  0.335520  0.664480  0.250000  1
