# generated using pymatgen
data_CrNF10
_symmetry_space_group_name_H-M   'P 1'
_cell_length_a   5.31993381
_cell_length_b   5.31993590
_cell_length_c   6.32168160
_cell_angle_alpha   90.53051379
_cell_angle_beta   89.46948853
_cell_angle_gamma   100.37914762
_symmetry_Int_Tables_number   1
_chemical_formula_structural   CrNF10
_chemical_formula_sum   'Cr1 N1 F10'
_cell_volume   175.97403739
_cell_formula_units_Z   1
loop_
 _symmetry_equiv_pos_site_id
 _symmetry_equiv_pos_as_xyz
  1  'x, y, z'
loop_
 _atom_site_type_symbol
 _atom_site_label
 _atom_site_symmetry_multiplicity
 _atom_site_fract_x
 _atom_site_fract_y
 _atom_site_fract_z
 _atom_site_occupancy
  Cr  Cr0  1  0.315324  0.684677  0.239719  1
  N  N1  1  0.756723  0.243278  0.739666  1
  F  F2  1  0.152355  0.847646  0.047879  1
  F  F3  1  0.054827  0.424200  0.242592  1
  F  F4  1  0.575801  0.945174  0.242592  1
  F  F5  1  0.168204  0.831797  0.457928  1
  F  F6  1  0.480243  0.519758  0.429444  1
  F  F7  1  0.865887  0.134114  0.578806  1
  F  F8  1  0.503297  0.173060  0.728203  1
  F  F9  1  0.826941  0.496704  0.728203  1
  F  F10  1  0.837584  0.162417  0.922681  1
  F  F11  1  0.462819  0.537182  0.022283  1
