# generated using pymatgen
data_Cr2Cu(SeO3)4
_symmetry_space_group_name_H-M   'P 1'
_cell_length_a   8.05223300
_cell_length_b   8.16540470
_cell_length_c   8.19667319
_cell_angle_alpha   88.16765064
_cell_angle_beta   90.00000000
_cell_angle_gamma   90.00000000
_symmetry_Int_Tables_number   1
_chemical_formula_structural   Cr2Cu(SeO3)4
_chemical_formula_sum   'Cr4 Cu2 Se8 O24'
_cell_volume   538.65356801
_cell_formula_units_Z   2
loop_
 _symmetry_equiv_pos_site_id
 _symmetry_equiv_pos_as_xyz
  1  'x, y, z'
loop_
 _atom_site_type_symbol
 _atom_site_label
 _atom_site_symmetry_multiplicity
 _atom_site_fract_x
 _atom_site_fract_y
 _atom_site_fract_z
 _atom_site_occupancy
  Cr  Cr0  1  0.757541  0.752028  0.006065  1
  Cr  Cr1  1  0.741838  0.242489  0.501055  1
  Cr  Cr2  1  0.242459  0.252028  0.006065  1
  Cr  Cr3  1  0.258162  0.742489  0.501055  1
  Cu  Cu4  1  0.579965  0.363153  0.159749  1
  Cu  Cu5  1  0.420035  0.863153  0.159749  1
  Se  Se6  1  0.091032  0.553728  0.185273  1
  Se  Se7  1  0.908968  0.053728  0.185273  1
  Se  Se8  1  0.573654  0.453007  0.820359  1
  Se  Se9  1  0.319966  0.159405  0.420549  1
  Se  Se10  1  0.059517  0.415227  0.685308  1
  Se  Se11  1  0.426346  0.953007  0.820359  1
  Se  Se12  1  0.680034  0.659405  0.420549  1
  Se  Se13  1  0.940483  0.915227  0.685308  1
  O  O14  1  0.978572  0.715984  0.103295  1
  O  O15  1  0.303862  0.009669  0.990961  1
  O  O16  1  0.171153  0.251121  0.774691  1
  O  O17  1  0.668019  0.451529  0.361503  1
  O  O18  1  0.748146  0.165309  0.271515  1
  O  O19  1  0.197555  0.490213  0.014659  1
  O  O20  1  0.223798  0.514014  0.588264  1
  O  O21  1  0.635468  0.757870  0.231949  1
  O  O22  1  0.720657  0.349110  0.719594  1
  O  O23  1  0.331981  0.951529  0.361503  1
  O  O24  1  0.978507  0.313756  0.516796  1
  O  O25  1  0.487908  0.293639  0.947832  1
  O  O26  1  0.828847  0.751121  0.774691  1
  O  O27  1  0.504390  0.689449  0.526483  1
  O  O28  1  0.279343  0.849110  0.719594  1
  O  O29  1  0.251854  0.665309  0.271515  1
  O  O30  1  0.364532  0.257870  0.231949  1
  O  O31  1  0.021428  0.215984  0.103295  1
  O  O32  1  0.021493  0.813756  0.516796  1
  O  O33  1  0.512092  0.793639  0.947832  1
  O  O34  1  0.696138  0.509668  0.990961  1
  O  O35  1  0.776202  0.014014  0.588264  1
  O  O36  1  0.495610  0.189449  0.526483  1
  O  O37  1  0.802445  0.990213  0.014659  1
