# generated using pymatgen
data_Nd2(In3Rh)3
_symmetry_space_group_name_H-M   'P 1'
_cell_length_a   8.26713788
_cell_length_b   8.26713816
_cell_length_c   10.40573000
_cell_angle_alpha   90.00000000
_cell_angle_beta   90.00000000
_cell_angle_gamma   119.71286212
_symmetry_Int_Tables_number   1
_chemical_formula_structural   Nd2(In3Rh)3
_chemical_formula_sum   'Nd4 In18 Rh6'
_cell_volume   617.67907301
_cell_formula_units_Z   2
loop_
 _symmetry_equiv_pos_site_id
 _symmetry_equiv_pos_as_xyz
  1  'x, y, z'
loop_
 _atom_site_type_symbol
 _atom_site_label
 _atom_site_symmetry_multiplicity
 _atom_site_fract_x
 _atom_site_fract_y
 _atom_site_fract_z
 _atom_site_occupancy
  Nd  Nd0  1  0.997451  0.669127  0.250000  1
  Nd  Nd1  1  0.002549  0.330873  0.750000  1
  Nd  Nd2  1  0.669127  0.997451  0.250000  1
  Nd  Nd3  1  0.330873  0.002549  0.750000  1
  In  In4  1  0.114364  0.114364  0.250000  1
  In  In5  1  0.885636  0.885636  0.750000  1
  In  In6  1  0.996101  0.334805  0.075569  1
  In  In7  1  0.003899  0.665195  0.924431  1
  In  In8  1  0.003899  0.665195  0.575569  1
  In  In9  1  0.334805  0.996101  0.424431  1
  In  In10  1  0.996101  0.334805  0.424431  1
  In  In11  1  0.665195  0.003899  0.575569  1
  In  In12  1  0.665195  0.003899  0.924431  1
  In  In13  1  0.334805  0.996101  0.075569  1
  In  In14  1  0.328670  0.328670  0.561334  1
  In  In15  1  0.671330  0.671330  0.438666  1
  In  In16  1  0.671330  0.671330  0.061334  1
  In  In17  1  0.328670  0.328670  0.938666  1
  In  In18  1  0.338564  0.558616  0.250000  1
  In  In19  1  0.661436  0.441384  0.750000  1
  In  In20  1  0.558616  0.338564  0.250000  1
  In  In21  1  0.441384  0.661436  0.750000  1
  Rh  Rh22  1  0.670742  0.329258  0.000000  1
  Rh  Rh23  1  0.329258  0.670742  0.000000  1
  Rh  Rh24  1  0.329258  0.670742  0.500000  1
  Rh  Rh25  1  0.670742  0.329258  0.500000  1
  Rh  Rh26  1  0.000000  0.000000  0.000000  1
  Rh  Rh27  1  0.000000  0.000000  0.500000  1
