# generated using pymatgen
data_Nd3Tc4(P2O)2
_symmetry_space_group_name_H-M   'P 1'
_cell_length_a   4.15450046
_cell_length_b   4.15450757
_cell_length_c   13.38073020
_cell_angle_alpha   98.93059226
_cell_angle_beta   98.93031131
_cell_angle_gamma   89.95064254
_symmetry_Int_Tables_number   1
_chemical_formula_structural   Nd3Tc4(P2O)2
_chemical_formula_sum   'Nd3 Tc4 P4 O2'
_cell_volume   225.32076894
_cell_formula_units_Z   1
loop_
 _symmetry_equiv_pos_site_id
 _symmetry_equiv_pos_as_xyz
  1  'x, y, z'
loop_
 _atom_site_type_symbol
 _atom_site_label
 _atom_site_symmetry_multiplicity
 _atom_site_fract_x
 _atom_site_fract_y
 _atom_site_fract_z
 _atom_site_occupancy
  Nd  Nd0  1  0.000057  0.000057  0.000061  1
  Nd  Nd1  1  0.706828  0.706829  0.413229  1
  Nd  Nd2  1  0.293162  0.293162  0.586760  1
  Tc  Tc3  1  0.593173  0.093045  0.186158  1
  Tc  Tc4  1  0.093045  0.593174  0.186158  1
  Tc  Tc5  1  0.906957  0.406825  0.813844  1
  Tc  Tc6  1  0.406828  0.906956  0.813844  1
  P  P7  1  0.549326  0.549327  0.098703  1
  P  P8  1  0.135431  0.135430  0.270705  1
  P  P9  1  0.864521  0.864519  0.729196  1
  P  P10  1  0.450698  0.450698  0.901349  1
  O  O11  1  0.750130  0.249855  0.499997  1
  O  O12  1  0.249852  0.750130  0.499995  1
