# generated using pymatgen
data_TaAs2Se2Br5
_symmetry_space_group_name_H-M   'P 1'
_cell_length_a   7.26503829
_cell_length_b   14.77344600
_cell_length_c   28.98246900
_cell_angle_alpha   90.00000000
_cell_angle_beta   93.95783605
_cell_angle_gamma   90.00000000
_symmetry_Int_Tables_number   1
_chemical_formula_structural   TaAs2Se2Br5
_chemical_formula_sum   'Ta8 As16 Se16 Br40'
_cell_volume   3103.25966509
_cell_formula_units_Z   8
loop_
 _symmetry_equiv_pos_site_id
 _symmetry_equiv_pos_as_xyz
  1  'x, y, z'
loop_
 _atom_site_type_symbol
 _atom_site_label
 _atom_site_symmetry_multiplicity
 _atom_site_fract_x
 _atom_site_fract_y
 _atom_site_fract_z
 _atom_site_occupancy
  Ta  Ta0  1  0.287674  0.209304  0.028144  1
  Ta  Ta1  1  0.787674  0.290696  0.528144  1
  Ta  Ta2  1  0.666211  0.611220  0.700332  1
  Ta  Ta3  1  0.333789  0.388780  0.299668  1
  Ta  Ta4  1  0.833789  0.111220  0.799668  1
  Ta  Ta5  1  0.212326  0.709304  0.471856  1
  Ta  Ta6  1  0.166211  0.888780  0.200332  1
  Ta  Ta7  1  0.712326  0.790696  0.971856  1
  As  As8  1  0.430692  0.336253  0.098007  1
  As  As9  1  0.590786  0.577670  0.117636  1
  As  As10  1  0.569308  0.663747  0.901993  1
  As  As11  1  0.450833  0.408743  0.206915  1
  As  As12  1  0.296797  0.925551  0.358083  1
  As  As13  1  0.950833  0.091257  0.706915  1
  As  As14  1  0.069308  0.836253  0.401993  1
  As  As15  1  0.796797  0.574449  0.858083  1
  As  As16  1  0.703203  0.074449  0.641917  1
  As  As17  1  0.409214  0.422330  0.882364  1
  As  As18  1  0.930692  0.163747  0.598007  1
  As  As19  1  0.203203  0.425551  0.141917  1
  As  As20  1  0.090786  0.922330  0.617636  1
  As  As21  1  0.549167  0.591257  0.793085  1
  As  As22  1  0.909214  0.077670  0.382364  1
  As  As23  1  0.049167  0.908743  0.293085  1
  Se  Se24  1  0.640912  0.446074  0.070795  1
  Se  Se25  1  0.243709  0.073545  0.383338  1
  Se  Se26  1  0.256291  0.573545  0.116662  1
  Se  Se27  1  0.059228  0.226796  0.670291  1
  Se  Se28  1  0.334957  0.470898  0.803637  1
  Se  Se29  1  0.859088  0.946074  0.429205  1
  Se  Se30  1  0.165043  0.970898  0.696363  1
  Se  Se31  1  0.140912  0.053926  0.570795  1
  Se  Se32  1  0.665043  0.529102  0.196363  1
  Se  Se33  1  0.834957  0.029102  0.303637  1
  Se  Se34  1  0.440772  0.726796  0.829709  1
  Se  Se35  1  0.359088  0.553926  0.929205  1
  Se  Se36  1  0.559228  0.273204  0.170291  1
  Se  Se37  1  0.743709  0.426455  0.883338  1
  Se  Se38  1  0.756291  0.926455  0.616662  1
  Se  Se39  1  0.940772  0.773204  0.329709  1
  Br  Br40  1  0.609013  0.483950  0.322350  1
  Br  Br41  1  0.285768  0.868977  0.124648  1
  Br  Br42  1  0.552497  0.308953  0.586527  1
  Br  Br43  1  0.052497  0.191047  0.086527  1
  Br  Br44  1  0.938789  0.760841  0.513035  1
  Br  Br45  1  0.373053  0.853716  0.497294  1
  Br  Br46  1  0.493842  0.103053  0.074315  1
  Br  Br47  1  0.955891  0.754081  0.201606  1
  Br  Br48  1  0.438789  0.739159  0.013035  1
  Br  Br49  1  0.506158  0.896947  0.925685  1
  Br  Br50  1  0.714232  0.131023  0.875352  1
  Br  Br51  1  0.214232  0.368977  0.375352  1
  Br  Br52  1  0.907215  0.701836  0.746011  1
  Br  Br53  1  0.390987  0.516051  0.677650  1
  Br  Br54  1  0.455891  0.745919  0.701606  1
  Br  Br55  1  0.785768  0.631023  0.624648  1
  Br  Br56  1  0.561211  0.260841  0.986965  1
  Br  Br57  1  0.167591  0.529667  0.273268  1
  Br  Br58  1  0.832409  0.470333  0.726732  1
  Br  Br59  1  0.890987  0.983949  0.177650  1
  Br  Br60  1  0.844423  0.893556  0.030512  1
  Br  Br61  1  0.947503  0.808953  0.913473  1
  Br  Br62  1  0.447503  0.691047  0.413473  1
  Br  Br63  1  0.109013  0.016051  0.822350  1
  Br  Br64  1  0.407215  0.798164  0.246011  1
  Br  Br65  1  0.667591  0.970333  0.773268  1
  Br  Br66  1  0.655577  0.393556  0.469488  1
  Br  Br67  1  0.592785  0.201836  0.753989  1
  Br  Br68  1  0.006158  0.603053  0.425685  1
  Br  Br69  1  0.092785  0.298164  0.253989  1
  Br  Br70  1  0.873053  0.646284  0.997294  1
  Br  Br71  1  0.993842  0.396947  0.574315  1
  Br  Br72  1  0.626947  0.146284  0.502706  1
  Br  Br73  1  0.044109  0.245919  0.798394  1
  Br  Br74  1  0.061211  0.239159  0.486965  1
  Br  Br75  1  0.332409  0.029667  0.226732  1
  Br  Br76  1  0.544109  0.254081  0.298394  1
  Br  Br77  1  0.344423  0.606444  0.530512  1
  Br  Br78  1  0.126947  0.353716  0.002706  1
  Br  Br79  1  0.155577  0.106444  0.969488  1
