# generated using pymatgen
data_Ho2Tm2Co17(TcP4)3
_symmetry_space_group_name_H-M   'P 1'
_cell_length_a   3.68395700
_cell_length_b   10.31035408
_cell_length_c   11.76171530
_cell_angle_alpha   89.98679788
_cell_angle_beta   90.00000000
_cell_angle_gamma   90.00000000
_symmetry_Int_Tables_number   1
_chemical_formula_structural   Ho2Tm2Co17(TcP4)3
_chemical_formula_sum   'Ho2 Tm2 Co17 Tc3 P12'
_cell_volume   446.74405709
_cell_formula_units_Z   1
loop_
 _symmetry_equiv_pos_site_id
 _symmetry_equiv_pos_as_xyz
  1  'x, y, z'
loop_
 _atom_site_type_symbol
 _atom_site_label
 _atom_site_symmetry_multiplicity
 _atom_site_fract_x
 _atom_site_fract_y
 _atom_site_fract_z
 _atom_site_occupancy
  Ho  Ho0  1  0.250000  0.581845  0.702670  1
  Ho  Ho1  1  0.750000  0.414727  0.295804  1
  Tm  Tm2  1  0.250000  0.915482  0.205005  1
  Tm  Tm3  1  0.750000  0.083679  0.795121  1
  Co  Co4  1  0.750000  0.216051  0.509220  1
  Co  Co5  1  0.250000  0.405995  0.488125  1
  Co  Co6  1  0.250000  0.092637  0.987945  1
  Co  Co7  1  0.750000  0.592287  0.510587  1
  Co  Co8  1  0.750000  0.907615  0.012122  1
  Co  Co9  1  0.250000  0.219836  0.177229  1
  Co  Co10  1  0.250000  0.277233  0.676370  1
  Co  Co11  1  0.750000  0.778802  0.822662  1
  Co  Co12  1  0.750000  0.722210  0.323018  1
  Co  Co13  1  0.250000  0.886778  0.701719  1
  Co  Co14  1  0.250000  0.614182  0.202518  1
  Co  Co15  1  0.750000  0.115453  0.300815  1
  Co  Co16  1  0.750000  0.385162  0.797443  1
  Co  Co17  1  0.250000  0.464108  0.931731  1
  Co  Co18  1  0.250000  0.035524  0.432044  1
  Co  Co19  1  0.750000  0.536302  0.068804  1
  Co  Co20  1  0.750000  0.967193  0.568836  1
  Tc  Tc21  1  0.250000  0.711767  0.989414  1
  Tc  Tc22  1  0.250000  0.789264  0.489709  1
  Tc  Tc23  1  0.750000  0.288147  0.010661  1
  P  P24  1  0.250000  0.419460  0.113838  1
  P  P25  1  0.250000  0.081771  0.612477  1
  P  P26  1  0.750000  0.579247  0.886034  1
  P  P27  1  0.750000  0.921122  0.386549  1
  P  P28  1  0.250000  0.268441  0.864652  1
  P  P29  1  0.250000  0.230668  0.369297  1
  P  P30  1  0.750000  0.731649  0.134811  1
  P  P31  1  0.750000  0.770211  0.633181  1
  P  P32  1  0.250000  0.595572  0.391319  1
  P  P33  1  0.250000  0.904698  0.890126  1
  P  P34  1  0.750000  0.398643  0.606900  1
  P  P35  1  0.750000  0.096238  0.111245  1
