# generated using pymatgen
data_Y9Ho(SiHg)4
_symmetry_space_group_name_H-M   'P 1'
_cell_length_a   8.79490046
_cell_length_b   8.79490051
_cell_length_c   7.58425004
_cell_angle_alpha   90.00502157
_cell_angle_beta   90.00502020
_cell_angle_gamma   129.08753690
_symmetry_Int_Tables_number   1
_chemical_formula_structural   Y9Ho(SiHg)4
_chemical_formula_sum   'Y9 Ho1 Si4 Hg4'
_cell_volume   455.34328969
_cell_formula_units_Z   1
loop_
 _symmetry_equiv_pos_site_id
 _symmetry_equiv_pos_as_xyz
  1  'x, y, z'
loop_
 _atom_site_type_symbol
 _atom_site_label
 _atom_site_symmetry_multiplicity
 _atom_site_fract_x
 _atom_site_fract_y
 _atom_site_fract_z
 _atom_site_occupancy
  Y  Y0  1  0.053956  0.308744  0.324481  1
  Y  Y1  1  0.946044  0.691256  0.675519  1
  Y  Y2  1  0.446343  0.191538  0.824221  1
  Y  Y3  1  0.808462  0.553657  0.175779  1
  Y  Y4  1  0.553657  0.808462  0.175779  1
  Y  Y5  1  0.191538  0.446343  0.824221  1
  Y  Y6  1  0.691256  0.946044  0.675519  1
  Y  Y7  1  0.308744  0.053956  0.324481  1
  Y  Y8  1  0.000000  0.000000  0.000000  1
  Ho  Ho9  1  0.500000  0.500000  0.500000  1
  Si  Si10  1  0.380217  0.380217  0.122474  1
  Si  Si11  1  0.619783  0.619783  0.877526  1
  Si  Si12  1  0.120154  0.120154  0.622066  1
  Si  Si13  1  0.879846  0.879846  0.377934  1
  Hg  Hg14  1  0.782718  0.217282  0.000000  1
  Hg  Hg15  1  0.217282  0.782718  0.000000  1
  Hg  Hg16  1  0.717257  0.282743  0.500000  1
  Hg  Hg17  1  0.282743  0.717257  0.500000  1
