# generated using pymatgen
data_Dy4GaTc6Ru
_symmetry_space_group_name_H-M   'P 1'
_cell_length_a   5.28740600
_cell_length_b   5.28740557
_cell_length_c   9.14389700
_cell_angle_alpha   90.00000000
_cell_angle_beta   90.00000000
_cell_angle_gamma   119.99999016
_symmetry_Int_Tables_number   1
_chemical_formula_structural   Dy4GaTc6Ru
_chemical_formula_sum   'Dy4 Ga1 Tc6 Ru1'
_cell_volume   221.38453728
_cell_formula_units_Z   1
loop_
 _symmetry_equiv_pos_site_id
 _symmetry_equiv_pos_as_xyz
  1  'x, y, z'
loop_
 _atom_site_type_symbol
 _atom_site_label
 _atom_site_symmetry_multiplicity
 _atom_site_fract_x
 _atom_site_fract_y
 _atom_site_fract_z
 _atom_site_occupancy
  Dy  Dy0  1  0.333333  0.666667  0.431250  1
  Dy  Dy1  1  0.666667  0.333333  0.568750  1
  Dy  Dy2  1  0.666667  0.333333  0.935556  1
  Dy  Dy3  1  0.333333  0.666667  0.064444  1
  Ga  Ga4  1  0.000000  0.000000  0.500000  1
  Tc  Tc5  1  0.830043  0.169957  0.251573  1
  Tc  Tc6  1  0.830043  0.660086  0.251573  1
  Tc  Tc7  1  0.339914  0.169957  0.251573  1
  Tc  Tc8  1  0.169957  0.830043  0.748427  1
  Tc  Tc9  1  0.169957  0.339914  0.748427  1
  Tc  Tc10  1  0.660086  0.830043  0.748427  1
  Ru  Ru11  1  0.000000  0.000000  0.000000  1
