# generated using pymatgen
data_La6Y3PtRh5
_symmetry_space_group_name_H-M   'P 1'
_cell_length_a   7.68462539
_cell_length_b   7.68227276
_cell_length_c   7.69179580
_cell_angle_alpha   70.68647160
_cell_angle_beta   70.98804808
_cell_angle_gamma   70.78129345
_symmetry_Int_Tables_number   1
_chemical_formula_structural   La6Y3PtRh5
_chemical_formula_sum   'La6 Y3 Pt1 Rh5'
_cell_volume   392.48193904
_cell_formula_units_Z   1
loop_
 _symmetry_equiv_pos_site_id
 _symmetry_equiv_pos_as_xyz
  1  'x, y, z'
loop_
 _atom_site_type_symbol
 _atom_site_label
 _atom_site_symmetry_multiplicity
 _atom_site_fract_x
 _atom_site_fract_y
 _atom_site_fract_z
 _atom_site_occupancy
  La  La0  1  0.162234  0.392140  0.672869  1
  La  La1  1  0.668406  0.160063  0.387336  1
  La  La2  1  0.389633  0.672117  0.160721  1
  La  La3  1  0.840699  0.611140  0.327751  1
  La  La4  1  0.331504  0.837920  0.611171  1
  La  La5  1  0.605824  0.330104  0.845943  1
  Y  Y6  1  0.000096  0.000128  0.001119  1
  Y  Y7  1  0.801270  0.801230  0.802469  1
  Y  Y8  1  0.198315  0.197495  0.194951  1
  Pt  Pt9  1  0.959960  0.157200  0.590158  1
  Rh  Rh10  1  0.593661  0.957532  0.158955  1
  Rh  Rh11  1  0.160213  0.592769  0.957183  1
  Rh  Rh12  1  0.043135  0.838937  0.406605  1
  Rh  Rh13  1  0.405742  0.044112  0.839789  1
  Rh  Rh14  1  0.839308  0.407112  0.042981  1
