# generated using pymatgen
data_LaY(NbSe2)6
_symmetry_space_group_name_H-M   'P 1'
_cell_length_a   6.07869900
_cell_length_b   6.07869810
_cell_length_c   14.86734200
_cell_angle_alpha   90.00000000
_cell_angle_beta   90.00000000
_cell_angle_gamma   119.99999948
_symmetry_Int_Tables_number   1
_chemical_formula_structural   LaY(NbSe2)6
_chemical_formula_sum   'La1 Y1 Nb6 Se12'
_cell_volume   475.75699118
_cell_formula_units_Z   1
loop_
 _symmetry_equiv_pos_site_id
 _symmetry_equiv_pos_as_xyz
  1  'x, y, z'
loop_
 _atom_site_type_symbol
 _atom_site_label
 _atom_site_symmetry_multiplicity
 _atom_site_fract_x
 _atom_site_fract_y
 _atom_site_fract_z
 _atom_site_occupancy
  La  La0  1  0.666667  0.333333  0.750000  1
  Y  Y1  1  0.333333  0.666667  0.250000  1
  Nb  Nb2  1  0.333333  0.666667  0.008016  1
  Nb  Nb3  1  0.000000  0.000000  0.006314  1
  Nb  Nb4  1  0.666667  0.333333  0.004556  1
  Nb  Nb5  1  0.333333  0.666667  0.491984  1
  Nb  Nb6  1  0.000000  0.000000  0.493686  1
  Nb  Nb7  1  0.666667  0.333333  0.495444  1
  Se  Se8  1  0.673705  0.665942  0.380766  1
  Se  Se9  1  0.665303  0.673499  0.606398  1
  Se  Se10  1  0.008198  0.673499  0.893602  1
  Se  Se11  1  0.665303  0.991802  0.893602  1
  Se  Se12  1  0.673705  0.007764  0.119234  1
  Se  Se13  1  0.334058  0.007764  0.380766  1
  Se  Se14  1  0.008198  0.334697  0.606398  1
  Se  Se15  1  0.326501  0.991802  0.606398  1
  Se  Se16  1  0.992236  0.665942  0.119234  1
  Se  Se17  1  0.326501  0.334697  0.893602  1
  Se  Se18  1  0.992236  0.326295  0.380766  1
  Se  Se19  1  0.334058  0.326295  0.119234  1
