# generated using pymatgen
data_Tb4Y12Cd4Ir3Pt
_symmetry_space_group_name_H-M   'P 1'
_cell_length_a   9.67970199
_cell_length_b   9.67970178
_cell_length_c   9.67970206
_cell_angle_alpha   60.08573980
_cell_angle_beta   60.08573813
_cell_angle_gamma   60.08574297
_symmetry_Int_Tables_number   1
_chemical_formula_structural   Tb4Y12Cd4Ir3Pt
_chemical_formula_sum   'Tb4 Y12 Cd4 Ir3 Pt1'
_cell_volume   642.56035389
_cell_formula_units_Z   1
loop_
 _symmetry_equiv_pos_site_id
 _symmetry_equiv_pos_as_xyz
  1  'x, y, z'
loop_
 _atom_site_type_symbol
 _atom_site_label
 _atom_site_symmetry_multiplicity
 _atom_site_fract_x
 _atom_site_fract_y
 _atom_site_fract_z
 _atom_site_occupancy
  Tb  Tb0  1  0.348144  0.348144  0.348144  1
  Tb  Tb1  1  0.352359  0.352359  0.948954  1
  Tb  Tb2  1  0.352359  0.948954  0.352359  1
  Tb  Tb3  1  0.948954  0.352359  0.352359  1
  Y  Y4  1  0.805401  0.190964  0.190964  1
  Y  Y5  1  0.187775  0.810151  0.810151  1
  Y  Y6  1  0.190964  0.805401  0.190964  1
  Y  Y7  1  0.810151  0.187775  0.810151  1
  Y  Y8  1  0.190964  0.190964  0.805401  1
  Y  Y9  1  0.810151  0.810151  0.187775  1
  Y  Y10  1  0.939168  0.562331  0.562331  1
  Y  Y11  1  0.563475  0.937681  0.937681  1
  Y  Y12  1  0.562331  0.939168  0.562331  1
  Y  Y13  1  0.937681  0.563475  0.937681  1
  Y  Y14  1  0.562331  0.562331  0.939168  1
  Y  Y15  1  0.937681  0.937681  0.563475  1
  Cd  Cd16  1  0.580649  0.580649  0.580649  1
  Cd  Cd17  1  0.581080  0.581080  0.256123  1
  Cd  Cd18  1  0.581080  0.256123  0.581080  1
  Cd  Cd19  1  0.256123  0.581080  0.581080  1
  Ir  Ir20  1  0.142569  0.142569  0.573204  1
  Ir  Ir21  1  0.142569  0.573204  0.142569  1
  Ir  Ir22  1  0.573204  0.142569  0.142569  1
  Pt  Pt23  1  0.142838  0.142838  0.142838  1
