# generated using pymatgen
data_TmLu3(ZrPt)4
_symmetry_space_group_name_H-M   'P 1'
_cell_length_a   4.68584100
_cell_length_b   6.98702942
_cell_length_c   8.22484407
_cell_angle_alpha   89.96059475
_cell_angle_beta   90.00000000
_cell_angle_gamma   90.00000000
_symmetry_Int_Tables_number   1
_chemical_formula_structural   TmLu3(ZrPt)4
_chemical_formula_sum   'Tm1 Lu3 Zr4 Pt4'
_cell_volume   269.28222720
_cell_formula_units_Z   1
loop_
 _symmetry_equiv_pos_site_id
 _symmetry_equiv_pos_as_xyz
  1  'x, y, z'
loop_
 _atom_site_type_symbol
 _atom_site_label
 _atom_site_symmetry_multiplicity
 _atom_site_fract_x
 _atom_site_fract_y
 _atom_site_fract_z
 _atom_site_occupancy
  Tm  Tm0  1  0.250000  0.516037  0.177964  1
  Lu  Lu1  1  0.750000  0.483274  0.821815  1
  Lu  Lu2  1  0.750000  0.983196  0.677985  1
  Lu  Lu3  1  0.250000  0.016695  0.322475  1
  Zr  Zr4  1  0.250000  0.649746  0.580383  1
  Zr  Zr5  1  0.750000  0.350126  0.420506  1
  Zr  Zr6  1  0.750000  0.850770  0.080160  1
  Zr  Zr7  1  0.250000  0.149324  0.919417  1
  Pt  Pt8  1  0.250000  0.765332  0.904220  1
  Pt  Pt9  1  0.750000  0.234862  0.094593  1
  Pt  Pt10  1  0.750000  0.735887  0.405631  1
  Pt  Pt11  1  0.250000  0.264751  0.594851  1
