# generated using pymatgen
data_La2PrNd3Ta2O14
_symmetry_space_group_name_H-M   'P 1'
_cell_length_a   6.70726464
_cell_length_b   6.70929839
_cell_length_c   7.78098200
_cell_angle_alpha   90.00000000
_cell_angle_beta   90.00000000
_cell_angle_gamma   109.28588756
_symmetry_Int_Tables_number   1
_chemical_formula_structural   La2PrNd3Ta2O14
_chemical_formula_sum   'La2 Pr1 Nd3 Ta2 O14'
_cell_volume   330.50255141
_cell_formula_units_Z   1
loop_
 _symmetry_equiv_pos_site_id
 _symmetry_equiv_pos_as_xyz
  1  'x, y, z'
loop_
 _atom_site_type_symbol
 _atom_site_label
 _atom_site_symmetry_multiplicity
 _atom_site_fract_x
 _atom_site_fract_y
 _atom_site_fract_z
 _atom_site_occupancy
  La  La0  1  0.498701  0.498993  0.500497  1
  La  La1  1  0.498701  0.498993  0.999503  1
  Pr  Pr2  1  0.999010  0.533168  0.250000  1
  Nd  Nd3  1  0.000609  0.464398  0.750000  1
  Nd  Nd4  1  0.535091  0.999404  0.750000  1
  Nd  Nd5  1  0.464399  0.000016  0.250000  1
  Ta  Ta6  1  0.999798  0.999488  0.500624  1
  Ta  Ta7  1  0.999798  0.999488  0.999376  1
  O  O8  1  0.941952  0.056298  0.750000  1
  O  O9  1  0.055651  0.945863  0.250000  1
  O  O10  1  0.365357  0.636427  0.250000  1
  O  O11  1  0.636075  0.363009  0.750000  1
  O  O12  1  0.369712  0.631143  0.750000  1
  O  O13  1  0.627936  0.367743  0.250000  1
  O  O14  1  0.311808  0.064314  0.970422  1
  O  O15  1  0.688810  0.935989  0.469855  1
  O  O16  1  0.311808  0.064314  0.529578  1
  O  O17  1  0.688810  0.935989  0.030145  1
  O  O18  1  0.068789  0.313224  0.473281  1
  O  O19  1  0.934200  0.689257  0.968798  1
  O  O20  1  0.934200  0.689257  0.531202  1
  O  O21  1  0.068789  0.313224  0.026719  1
