# generated using pymatgen
data_Ba3Sn5Hg6
_symmetry_space_group_name_H-M   'P 1'
_cell_length_a   9.64086982
_cell_length_b   9.64067088
_cell_length_c   9.64081762
_cell_angle_alpha   149.52276161
_cell_angle_beta   106.39658253
_cell_angle_gamma   81.71209392
_symmetry_Int_Tables_number   1
_chemical_formula_structural   Ba3Sn5Hg6
_chemical_formula_sum   'Ba3 Sn5 Hg6'
_cell_volume   426.85001920
_cell_formula_units_Z   1
loop_
 _symmetry_equiv_pos_site_id
 _symmetry_equiv_pos_as_xyz
  1  'x, y, z'
loop_
 _atom_site_type_symbol
 _atom_site_label
 _atom_site_symmetry_multiplicity
 _atom_site_fract_x
 _atom_site_fract_y
 _atom_site_fract_z
 _atom_site_occupancy
  Ba  Ba0  1  0.000000  0.000000  0.000000  1
  Ba  Ba1  1  0.688668  0.688718  0.000041  1
  Ba  Ba2  1  0.311332  0.311282  0.999959  1
  Sn  Sn3  1  0.500000  0.000000  0.500000  1
  Sn  Sn4  1  0.132737  0.861679  0.271041  1
  Sn  Sn5  1  0.867263  0.138321  0.728959  1
  Sn  Sn6  1  0.409365  0.138303  0.271043  1
  Sn  Sn7  1  0.590635  0.861697  0.728957  1
  Hg  Hg8  1  0.038481  0.666813  0.371665  1
  Hg  Hg9  1  0.961519  0.333187  0.628335  1
  Hg  Hg10  1  0.704859  0.333203  0.371683  1
  Hg  Hg11  1  0.295141  0.666797  0.628317  1
  Hg  Hg12  1  0.695576  0.500003  0.195573  1
  Hg  Hg13  1  0.304424  0.499997  0.804427  1
