# generated using pymatgen
data_Tb5Ho11(In3Pt)2
_symmetry_space_group_name_H-M   'P 1'
_cell_length_a   10.46856216
_cell_length_b   10.46856235
_cell_length_c   7.00958710
_cell_angle_alpha   89.98314872
_cell_angle_beta   90.01685384
_cell_angle_gamma   120.01124570
_symmetry_Int_Tables_number   1
_chemical_formula_structural   Tb5Ho11(In3Pt)2
_chemical_formula_sum   'Tb5 Ho11 In6 Pt2'
_cell_volume   665.19334923
_cell_formula_units_Z   1
loop_
 _symmetry_equiv_pos_site_id
 _symmetry_equiv_pos_as_xyz
  1  'x, y, z'
loop_
 _atom_site_type_symbol
 _atom_site_label
 _atom_site_symmetry_multiplicity
 _atom_site_fract_x
 _atom_site_fract_y
 _atom_site_fract_z
 _atom_site_occupancy
  Tb  Tb0  1  0.530606  0.061313  0.508426  1
  Tb  Tb1  1  0.938687  0.469394  0.508426  1
  Tb  Tb2  1  0.530553  0.469447  0.508615  1
  Tb  Tb3  1  0.469346  0.938651  0.008357  1
  Tb  Tb4  1  0.061349  0.530654  0.008357  1
  Ho  Ho5  1  0.469015  0.530985  0.008551  1
  Ho  Ho6  1  0.175268  0.350229  0.715757  1
  Ho  Ho7  1  0.649771  0.824732  0.715757  1
  Ho  Ho8  1  0.175011  0.824989  0.715467  1
  Ho  Ho9  1  0.824560  0.649799  0.215258  1
  Ho  Ho10  1  0.350201  0.175440  0.215258  1
  Ho  Ho11  1  0.825025  0.174975  0.215413  1
  Ho  Ho12  1  0.666494  0.333506  0.883647  1
  Ho  Ho13  1  0.333497  0.666503  0.383390  1
  Ho  Ho14  1  0.000053  0.999947  0.489306  1
  Ho  Ho15  1  0.999977  0.000023  0.989521  1
  In  In16  1  0.837348  0.674809  0.751563  1
  In  In17  1  0.325191  0.162652  0.751563  1
  In  In18  1  0.837383  0.162617  0.751450  1
  In  In19  1  0.162950  0.325429  0.251188  1
  In  In20  1  0.674571  0.837050  0.251188  1
  In  In21  1  0.162567  0.837433  0.251528  1
  Pt  Pt22  1  0.666741  0.333259  0.279637  1
  Pt  Pt23  1  0.333835  0.666165  0.780423  1
