# generated using pymatgen
data_Nd5HfIrO12
_symmetry_space_group_name_H-M   'P 1'
_cell_length_a   7.11391430
_cell_length_b   7.11391585
_cell_length_c   7.71144280
_cell_angle_alpha   74.30556665
_cell_angle_beta   74.30555729
_cell_angle_gamma   50.52272583
_symmetry_Int_Tables_number   1
_chemical_formula_structural   Nd5HfIrO12
_chemical_formula_sum   'Nd5 Hf1 Ir1 O12'
_cell_volume   287.44103767
_cell_formula_units_Z   1
loop_
 _symmetry_equiv_pos_site_id
 _symmetry_equiv_pos_as_xyz
  1  'x, y, z'
loop_
 _atom_site_type_symbol
 _atom_site_label
 _atom_site_symmetry_multiplicity
 _atom_site_fract_x
 _atom_site_fract_y
 _atom_site_fract_z
 _atom_site_occupancy
  Nd  Nd0  1  0.303859  0.304420  0.360084  1
  Nd  Nd1  1  0.695580  0.696141  0.639916  1
  Nd  Nd2  1  0.684084  0.699112  0.170269  1
  Nd  Nd3  1  0.300888  0.315916  0.829731  1
  Nd  Nd4  1  0.005432  0.994568  0.500000  1
  Hf  Hf5  1  0.775726  0.224274  0.000000  1
  Ir  Ir6  1  0.249840  0.750160  0.000000  1
  O  O7  1  0.093704  0.597115  0.574155  1
  O  O8  1  0.014163  0.985325  0.189371  1
  O  O9  1  0.402885  0.906296  0.425845  1
  O  O10  1  0.497771  0.503239  0.179731  1
  O  O11  1  0.097218  0.588739  0.080608  1
  O  O12  1  0.902879  0.408394  0.420622  1
  O  O13  1  0.014675  0.985837  0.810629  1
  O  O14  1  0.591606  0.097120  0.579378  1
  O  O15  1  0.496761  0.502229  0.820269  1
  O  O16  1  0.564776  0.103106  0.081233  1
  O  O17  1  0.411261  0.902782  0.919392  1
  O  O18  1  0.896894  0.435224  0.918767  1
