# generated using pymatgen
data_Na8Ca4SiGeAs8
_symmetry_space_group_name_H-M   'P 1'
_cell_length_a   9.48465180
_cell_length_b   9.48626403
_cell_length_c   7.16982773
_cell_angle_alpha   89.02427426
_cell_angle_beta   88.95989532
_cell_angle_gamma   119.66439707
_symmetry_Int_Tables_number   1
_chemical_formula_structural   Na8Ca4SiGeAs8
_chemical_formula_sum   'Na8 Ca4 Si1 Ge1 As8'
_cell_volume   560.20683636
_cell_formula_units_Z   1
loop_
 _symmetry_equiv_pos_site_id
 _symmetry_equiv_pos_as_xyz
  1  'x, y, z'
loop_
 _atom_site_type_symbol
 _atom_site_label
 _atom_site_symmetry_multiplicity
 _atom_site_fract_x
 _atom_site_fract_y
 _atom_site_fract_z
 _atom_site_occupancy
  Na  Na0  1  0.474663  0.945432  0.385106  1
  Na  Na1  1  0.947148  0.475460  0.885045  1
  Na  Na2  1  0.859951  0.713800  0.178934  1
  Na  Na3  1  0.292122  0.138871  0.212051  1
  Na  Na4  1  0.848606  0.142155  0.197277  1
  Na  Na5  1  0.139655  0.293779  0.714240  1
  Na  Na6  1  0.712775  0.859235  0.681621  1
  Na  Na7  1  0.142876  0.847937  0.698554  1
  Ca  Ca8  1  0.050697  0.526702  0.385092  1
  Ca  Ca9  1  0.479827  0.528301  0.381972  1
  Ca  Ca10  1  0.524953  0.047635  0.884254  1
  Ca  Ca11  1  0.526453  0.481041  0.880857  1
  Si  Si12  1  0.330194  0.662951  0.998996  1
  Ge  Ge13  1  0.663144  0.329820  0.498980  1
  As  As14  1  0.200551  0.389257  0.123098  1
  As  As15  1  0.610062  0.802237  0.090429  1
  As  As16  1  0.199588  0.807293  0.104194  1
  As  As17  1  0.806785  0.619132  0.591660  1
  As  As18  1  0.380407  0.196373  0.626734  1
  As  As19  1  0.812271  0.195495  0.606820  1
  As  As20  1  0.661531  0.335623  0.151741  1
  As  As21  1  0.335588  0.661317  0.662303  1
