# generated using pymatgen
data_LiHo2Si3Ag
_symmetry_space_group_name_H-M   'P 1'
_cell_length_a   9.24875054
_cell_length_b   9.24875076
_cell_length_c   6.77008934
_cell_angle_alpha   89.73679700
_cell_angle_beta   90.26320249
_cell_angle_gamma   153.39820314
_symmetry_Int_Tables_number   1
_chemical_formula_structural   LiHo2Si3Ag
_chemical_formula_sum   'Li2 Ho4 Si6 Ag2'
_cell_volume   259.31480317
_cell_formula_units_Z   2
loop_
 _symmetry_equiv_pos_site_id
 _symmetry_equiv_pos_as_xyz
  1  'x, y, z'
loop_
 _atom_site_type_symbol
 _atom_site_label
 _atom_site_symmetry_multiplicity
 _atom_site_fract_x
 _atom_site_fract_y
 _atom_site_fract_z
 _atom_site_occupancy
  Li  Li0  1  0.188885  0.811115  0.056975  1
  Li  Li1  1  0.811115  0.188885  0.943025  1
  Ho  Ho2  1  0.551853  0.448147  0.250006  1
  Ho  Ho3  1  0.448147  0.551853  0.749994  1
  Ho  Ho4  1  0.346714  0.653286  0.240670  1
  Ho  Ho5  1  0.653286  0.346714  0.759330  1
  Si  Si6  1  0.940359  0.059641  0.069796  1
  Si  Si7  1  0.059641  0.940359  0.930204  1
  Si  Si8  1  0.058114  0.941886  0.578594  1
  Si  Si9  1  0.941886  0.058114  0.421406  1
  Si  Si10  1  0.721190  0.278810  0.236080  1
  Si  Si11  1  0.278810  0.721190  0.763920  1
  Ag  Ag12  1  0.812889  0.187111  0.565272  1
  Ag  Ag13  1  0.187111  0.812889  0.434728  1
