# generated using pymatgen
data_HfZr(As2O7)2
_symmetry_space_group_name_H-M   'P 1'
_cell_length_a   5.56281822
_cell_length_b   5.56046632
_cell_length_c   9.92168623
_cell_angle_alpha   81.38065915
_cell_angle_beta   81.40564749
_cell_angle_gamma   98.62290820
_symmetry_Int_Tables_number   1
_chemical_formula_structural   HfZr(As2O7)2
_chemical_formula_sum   'Hf1 Zr1 As4 O14'
_cell_volume   295.32487477
_cell_formula_units_Z   1
loop_
 _symmetry_equiv_pos_site_id
 _symmetry_equiv_pos_as_xyz
  1  'x, y, z'
loop_
 _atom_site_type_symbol
 _atom_site_label
 _atom_site_symmetry_multiplicity
 _atom_site_fract_x
 _atom_site_fract_y
 _atom_site_fract_z
 _atom_site_occupancy
  Hf  Hf0  1  0.000000  0.000000  0.000000  1
  Zr  Zr1  1  0.000000  0.000000  0.500000  1
  As  As2  1  0.173221  0.447387  0.198759  1
  As  As3  1  0.446710  0.175841  0.701639  1
  As  As4  1  0.553290  0.824159  0.298361  1
  As  As5  1  0.826779  0.552613  0.801241  1
  O  O6  1  0.086716  0.710397  0.127664  1
  O  O7  1  0.777982  0.743520  0.916514  1
  O  O8  1  0.299823  0.985505  0.850790  1
  O  O9  1  0.017977  0.696281  0.651641  1
  O  O10  1  0.465597  0.531564  0.249145  1
  O  O11  1  0.707389  0.084613  0.631314  1
  O  O12  1  0.741074  0.773705  0.415146  1
  O  O13  1  0.258926  0.226295  0.584854  1
  O  O14  1  0.222018  0.256480  0.083486  1
  O  O15  1  0.700177  0.014495  0.149210  1
  O  O16  1  0.913284  0.289603  0.872336  1
  O  O17  1  0.982023  0.303719  0.348359  1
  O  O18  1  0.292611  0.915387  0.368686  1
  O  O19  1  0.534403  0.468436  0.750855  1
