# generated using pymatgen
data_LiEr10In7
_symmetry_space_group_name_H-M   'P 1'
_cell_length_a   9.19150300
_cell_length_b   9.19150353
_cell_length_c   6.61140400
_cell_angle_alpha   90.00000000
_cell_angle_beta   90.00000000
_cell_angle_gamma   119.99999449
_symmetry_Int_Tables_number   1
_chemical_formula_structural   LiEr10In7
_chemical_formula_sum   'Li1 Er10 In7'
_cell_volume   483.72378644
_cell_formula_units_Z   1
loop_
 _symmetry_equiv_pos_site_id
 _symmetry_equiv_pos_as_xyz
  1  'x, y, z'
loop_
 _atom_site_type_symbol
 _atom_site_label
 _atom_site_symmetry_multiplicity
 _atom_site_fract_x
 _atom_site_fract_y
 _atom_site_fract_z
 _atom_site_occupancy
  Li  Li0  1  0.000000  0.000000  0.500000  1
  Er  Er1  1  0.333333  0.666667  0.500000  1
  Er  Er2  1  0.666667  0.333333  0.500000  1
  Er  Er3  1  0.666667  0.333333  0.000000  1
  Er  Er4  1  0.333333  0.666667  0.000000  1
  Er  Er5  1  0.293404  0.000000  0.749887  1
  Er  Er6  1  0.706596  0.000000  0.250113  1
  Er  Er7  1  0.000000  0.293404  0.749887  1
  Er  Er8  1  0.000000  0.706596  0.250113  1
  Er  Er9  1  0.706596  0.706596  0.749887  1
  Er  Er10  1  0.293404  0.293404  0.250113  1
  In  In11  1  0.000000  0.000000  0.000000  1
  In  In12  1  0.632950  0.000000  0.746893  1
  In  In13  1  0.367050  0.000000  0.253107  1
  In  In14  1  0.000000  0.632950  0.746893  1
  In  In15  1  0.000000  0.367050  0.253107  1
  In  In16  1  0.367050  0.367050  0.746893  1
  In  In17  1  0.632950  0.632950  0.253107  1
