# generated using pymatgen
data_Ta4Ti7NbP4
_symmetry_space_group_name_H-M   'P 1'
_cell_length_a   9.99797031
_cell_length_b   9.99589907
_cell_length_c   5.05473367
_cell_angle_alpha   90.01292164
_cell_angle_beta   89.94201059
_cell_angle_gamma   89.99469591
_symmetry_Int_Tables_number   1
_chemical_formula_structural   Ta4Ti7NbP4
_chemical_formula_sum   'Ta8 Ti14 Nb2 P8'
_cell_volume   505.16324902
_cell_formula_units_Z   2
loop_
 _symmetry_equiv_pos_site_id
 _symmetry_equiv_pos_as_xyz
  1  'x, y, z'
loop_
 _atom_site_type_symbol
 _atom_site_label
 _atom_site_symmetry_multiplicity
 _atom_site_fract_x
 _atom_site_fract_y
 _atom_site_fract_z
 _atom_site_occupancy
  Ta  Ta0  1  0.393827  0.912971  0.466365  1
  Ta  Ta1  1  0.412753  0.105076  0.966403  1
  Ta  Ta2  1  0.585239  0.896808  0.966089  1
  Ta  Ta3  1  0.602071  0.085402  0.465707  1
  Ta  Ta4  1  0.106455  0.587098  0.033075  1
  Ta  Ta5  1  0.088384  0.395213  0.534843  1
  Ta  Ta6  1  0.914203  0.603996  0.536495  1
  Ta  Ta7  1  0.897356  0.413016  0.037558  1
  Ti  Ti8  1  0.025188  0.858126  0.269597  1
  Ti  Ti9  1  0.358837  0.474352  0.774206  1
  Ti  Ti10  1  0.642656  0.524650  0.772185  1
  Ti  Ti11  1  0.974626  0.141908  0.276214  1
  Ti  Ti12  1  0.474853  0.640999  0.225214  1
  Ti  Ti13  1  0.141553  0.026534  0.726231  1
  Ti  Ti14  1  0.858614  0.976994  0.724521  1
  Ti  Ti15  1  0.524834  0.357913  0.225171  1
  Ti  Ti16  1  0.282868  0.817444  0.986628  1
  Ti  Ti17  1  0.316726  0.216702  0.486581  1
  Ti  Ti18  1  0.681228  0.784581  0.485013  1
  Ti  Ti19  1  0.715065  0.181746  0.984614  1
  Ti  Ti20  1  0.217157  0.682214  0.512335  1
  Ti  Ti21  1  0.183388  0.283979  0.014228  1
  Nb  Nb22  1  0.816231  0.716352  0.013651  1
  Nb  Nb23  1  0.784592  0.315201  0.515525  1
  P  P24  1  0.038971  0.797652  0.776143  1
  P  P25  1  0.297265  0.462952  0.280639  1
  P  P26  1  0.701929  0.535478  0.281184  1
  P  P27  1  0.966426  0.202771  0.785954  1
  P  P28  1  0.462192  0.703461  0.718929  1
  P  P29  1  0.203201  0.037634  0.219692  1
  P  P30  1  0.796133  0.964534  0.219299  1
  P  P31  1  0.535179  0.296243  0.719711  1
