# generated using pymatgen
data_Li3Yb2Er2AlPt4
_symmetry_space_group_name_H-M   'P 1'
_cell_length_a   4.06524300
_cell_length_b   7.01069219
_cell_length_c   8.32620377
_cell_angle_alpha   90.56248011
_cell_angle_beta   90.00000000
_cell_angle_gamma   90.00000000
_symmetry_Int_Tables_number   1
_chemical_formula_structural   Li3Yb2Er2AlPt4
_chemical_formula_sum   'Li3 Yb2 Er2 Al1 Pt4'
_cell_volume   237.28676582
_cell_formula_units_Z   1
loop_
 _symmetry_equiv_pos_site_id
 _symmetry_equiv_pos_as_xyz
  1  'x, y, z'
loop_
 _atom_site_type_symbol
 _atom_site_label
 _atom_site_symmetry_multiplicity
 _atom_site_fract_x
 _atom_site_fract_y
 _atom_site_fract_z
 _atom_site_occupancy
  Li  Li0  1  0.250000  0.872392  0.944009  1
  Li  Li1  1  0.750000  0.131221  0.060451  1
  Li  Li2  1  0.750000  0.633565  0.436895  1
  Yb  Yb3  1  0.250000  0.461316  0.179013  1
  Yb  Yb4  1  0.250000  0.958014  0.319819  1
  Er  Er5  1  0.750000  0.543510  0.821600  1
  Er  Er6  1  0.750000  0.037650  0.679841  1
  Al  Al7  1  0.250000  0.370147  0.557621  1
  Pt  Pt8  1  0.250000  0.732603  0.628358  1
  Pt  Pt9  1  0.750000  0.259698  0.398844  1
  Pt  Pt10  1  0.750000  0.750154  0.117092  1
  Pt  Pt11  1  0.250000  0.249730  0.856457  1
