# generated using pymatgen
data_Ac11DyGa12
_symmetry_space_group_name_H-M   'P 1'
_cell_length_a   4.27447100
_cell_length_b   14.18243453
_cell_length_c   11.99290543
_cell_angle_alpha   90.03098005
_cell_angle_beta   90.00000000
_cell_angle_gamma   90.00000000
_symmetry_Int_Tables_number   1
_chemical_formula_structural   Ac11DyGa12
_chemical_formula_sum   'Ac11 Dy1 Ga12'
_cell_volume   727.03866503
_cell_formula_units_Z   1
loop_
 _symmetry_equiv_pos_site_id
 _symmetry_equiv_pos_as_xyz
  1  'x, y, z'
loop_
 _atom_site_type_symbol
 _atom_site_label
 _atom_site_symmetry_multiplicity
 _atom_site_fract_x
 _atom_site_fract_y
 _atom_site_fract_z
 _atom_site_occupancy
  Ac  Ac0  1  0.250000  0.662819  0.854004  1
  Ac  Ac1  1  0.250000  0.829278  0.359136  1
  Ac  Ac2  1  0.750000  0.333690  0.142208  1
  Ac  Ac3  1  0.750000  0.167909  0.643081  1
  Ac  Ac4  1  0.250000  0.336477  0.855356  1
  Ac  Ac5  1  0.250000  0.171220  0.360212  1
  Ac  Ac6  1  0.750000  0.666415  0.141080  1
  Ac  Ac7  1  0.750000  0.832001  0.642095  1
  Ac  Ac8  1  0.250000  0.000215  0.858796  1
  Ac  Ac9  1  0.250000  0.499816  0.356757  1
  Ac  Ac10  1  0.750000  0.999559  0.143326  1
  Dy  Dy11  1  0.750000  0.500393  0.625330  1
  Ga  Ga12  1  0.250000  0.345188  0.574697  1
  Ga  Ga13  1  0.250000  0.166695  0.066088  1
  Ga  Ga14  1  0.750000  0.662115  0.441214  1
  Ga  Ga15  1  0.750000  0.831459  0.932491  1
  Ga  Ga16  1  0.250000  0.655373  0.572697  1
  Ga  Ga17  1  0.250000  0.832821  0.063876  1
  Ga  Ga18  1  0.750000  0.338157  0.443172  1
  Ga  Ga19  1  0.750000  0.168292  0.934703  1
  Ga  Ga20  1  0.250000  0.000048  0.564252  1
  Ga  Ga21  1  0.250000  0.499979  0.061963  1
  Ga  Ga22  1  0.750000  0.000248  0.433482  1
  Ga  Ga23  1  0.750000  0.499836  0.929983  1
