# generated using pymatgen
data_Zr2P2IrOs
_symmetry_space_group_name_H-M   'P 1'
_cell_length_a   3.87953900
_cell_length_b   6.54315800
_cell_length_c   7.38119800
_cell_angle_alpha   90.00000000
_cell_angle_beta   90.00000000
_cell_angle_gamma   90.00000000
_symmetry_Int_Tables_number   1
_chemical_formula_structural   Zr2P2IrOs
_chemical_formula_sum   'Zr4 P4 Ir2 Os2'
_cell_volume   187.36755299
_cell_formula_units_Z   2
loop_
 _symmetry_equiv_pos_site_id
 _symmetry_equiv_pos_as_xyz
  1  'x, y, z'
loop_
 _atom_site_type_symbol
 _atom_site_label
 _atom_site_symmetry_multiplicity
 _atom_site_fract_x
 _atom_site_fract_y
 _atom_site_fract_z
 _atom_site_occupancy
  Zr  Zr0  1  0.250000  0.020172  0.822518  1
  Zr  Zr1  1  0.250000  0.520172  0.677482  1
  Zr  Zr2  1  0.750000  0.976785  0.176393  1
  Zr  Zr3  1  0.750000  0.476785  0.323607  1
  P  P4  1  0.250000  0.768560  0.383744  1
  P  P5  1  0.250000  0.268560  0.116256  1
  P  P6  1  0.750000  0.226419  0.627512  1
  P  P7  1  0.750000  0.726419  0.872488  1
  Ir  Ir8  1  0.250000  0.152162  0.437111  1
  Ir  Ir9  1  0.250000  0.652162  0.062889  1
  Os  Os10  1  0.750000  0.855902  0.557411  1
  Os  Os11  1  0.750000  0.355902  0.942589  1
