# generated using pymatgen
data_CePr7(ZnRh)8
_symmetry_space_group_name_H-M   'P 1'
_cell_length_a   4.03121700
_cell_length_b   7.37185666
_cell_length_c   16.65177785
_cell_angle_alpha   89.61837026
_cell_angle_beta   90.00000000
_cell_angle_gamma   90.00000000
_symmetry_Int_Tables_number   1
_chemical_formula_structural   CePr7(ZnRh)8
_chemical_formula_sum   'Ce1 Pr7 Zn8 Rh8'
_cell_volume   494.83912854
_cell_formula_units_Z   1
loop_
 _symmetry_equiv_pos_site_id
 _symmetry_equiv_pos_as_xyz
  1  'x, y, z'
loop_
 _atom_site_type_symbol
 _atom_site_label
 _atom_site_symmetry_multiplicity
 _atom_site_fract_x
 _atom_site_fract_y
 _atom_site_fract_z
 _atom_site_occupancy
  Ce  Ce0  1  0.750000  0.449212  0.216242  1
  Pr  Pr1  1  0.750000  0.951475  0.282226  1
  Pr  Pr2  1  0.750000  0.827046  0.060555  1
  Pr  Pr3  1  0.250000  0.046833  0.716517  1
  Pr  Pr4  1  0.250000  0.169570  0.940605  1
  Pr  Pr5  1  0.250000  0.547031  0.783520  1
  Pr  Pr6  1  0.750000  0.332941  0.439013  1
  Pr  Pr7  1  0.250000  0.669445  0.560214  1
  Zn  Zn8  1  0.250000  0.001515  0.439049  1
  Zn  Zn9  1  0.750000  0.501275  0.940219  1
  Zn  Zn10  1  0.750000  0.002547  0.559960  1
  Zn  Zn11  1  0.250000  0.626068  0.349978  1
  Zn  Zn12  1  0.750000  0.374050  0.650582  1
  Zn  Zn13  1  0.750000  0.875981  0.849705  1
  Zn  Zn14  1  0.250000  0.498083  0.059352  1
  Zn  Zn15  1  0.250000  0.124146  0.151476  1
  Rh  Rh16  1  0.250000  0.244400  0.564788  1
  Rh  Rh17  1  0.750000  0.263598  0.071502  1
  Rh  Rh18  1  0.250000  0.259047  0.305098  1
  Rh  Rh19  1  0.750000  0.253839  0.814937  1
  Rh  Rh20  1  0.250000  0.746666  0.934913  1
  Rh  Rh21  1  0.750000  0.753732  0.686209  1
  Rh  Rh22  1  0.750000  0.761757  0.434484  1
  Rh  Rh23  1  0.250000  0.719743  0.188856  1
