# generated using pymatgen
data_Dy5P12Ir5Ru13Pt
_symmetry_space_group_name_H-M   'P 1'
_cell_length_a   12.57704291
_cell_length_b   12.55771391
_cell_length_c   3.96574600
_cell_angle_alpha   90.00000000
_cell_angle_beta   90.00000000
_cell_angle_gamma   119.55527001
_symmetry_Int_Tables_number   1
_chemical_formula_structural   Dy5P12Ir5Ru13Pt
_chemical_formula_sum   'Dy5 P12 Ir5 Ru13 Pt1'
_cell_volume   544.84567322
_cell_formula_units_Z   1
loop_
 _symmetry_equiv_pos_site_id
 _symmetry_equiv_pos_as_xyz
  1  'x, y, z'
loop_
 _atom_site_type_symbol
 _atom_site_label
 _atom_site_symmetry_multiplicity
 _atom_site_fract_x
 _atom_site_fract_y
 _atom_site_fract_z
 _atom_site_occupancy
  Dy  Dy0  1  0.666466  0.333580  0.000000  1
  Dy  Dy1  1  0.332163  0.665679  0.000000  1
  Dy  Dy2  1  0.816723  0.004431  0.500000  1
  Dy  Dy3  1  0.185739  0.186559  0.500000  1
  Dy  Dy4  1  0.000956  0.813055  0.500000  1
  P  P5  1  0.632199  0.009272  0.000000  1
  P  P6  1  0.371299  0.370046  0.000000  1
  P  P7  1  0.999709  0.628476  0.000000  1
  P  P8  1  0.688095  0.517520  0.500000  1
  P  P9  1  0.827706  0.308258  0.500000  1
  P  P10  1  0.312778  0.829999  0.500000  1
  P  P11  1  0.513807  0.679966  0.500000  1
  P  P12  1  0.182370  0.000849  0.000000  1
  P  P13  1  0.822208  0.818332  0.000000  1
  P  P14  1  0.998100  0.184109  0.000000  1
  P  P15  1  0.481819  0.169263  0.500000  1
  P  P16  1  0.168388  0.482211  0.500000  1
  Ir  Ir17  1  0.183521  0.374247  0.000000  1
  Ir  Ir18  1  0.375891  0.181970  0.000000  1
  Ir  Ir19  1  0.191105  0.817610  0.000000  1
  Ir  Ir20  1  0.806326  0.624434  0.000000  1
  Ir  Ir21  1  0.000344  0.001666  0.000000  1
  Ru  Ru22  1  0.872243  0.509200  0.500000  1
  Ru  Ru23  1  0.490222  0.361787  0.500000  1
  Ru  Ru24  1  0.635638  0.122768  0.500000  1
  Ru  Ru25  1  0.128178  0.640098  0.500000  1
  Ru  Ru26  1  0.358553  0.485633  0.500000  1
  Ru  Ru27  1  0.509392  0.867459  0.500000  1
  Ru  Ru28  1  0.714811  0.716679  0.500000  1
  Ru  Ru29  1  0.001596  0.286530  0.500000  1
  Ru  Ru30  1  0.444697  0.994386  0.000000  1
  Ru  Ru31  1  0.550138  0.552244  0.000000  1
  Ru  Ru32  1  0.004013  0.449937  0.000000  1
  Ru  Ru33  1  0.819072  0.197944  0.000000  1
  Ru  Ru34  1  0.284641  0.000003  0.500000  1
  Pt  Pt35  1  0.629097  0.813800  0.000000  1
