# generated using pymatgen
data_DyY7Ho2Cd3Ru
_symmetry_space_group_name_H-M   'P 1'
_cell_length_a   9.62721600
_cell_length_b   9.62721571
_cell_length_c   9.86512000
_cell_angle_alpha   90.00048669
_cell_angle_beta   89.99951206
_cell_angle_gamma   119.99800471
_symmetry_Int_Tables_number   1
_chemical_formula_structural   DyY7Ho2Cd3Ru
_chemical_formula_sum   'Dy2 Y14 Ho4 Cd6 Ru2'
_cell_volume   791.85042533
_cell_formula_units_Z   2
loop_
 _symmetry_equiv_pos_site_id
 _symmetry_equiv_pos_as_xyz
  1  'x, y, z'
loop_
 _atom_site_type_symbol
 _atom_site_label
 _atom_site_symmetry_multiplicity
 _atom_site_fract_x
 _atom_site_fract_y
 _atom_site_fract_z
 _atom_site_occupancy
  Dy  Dy0  1  0.789876  0.579695  0.560186  1
  Dy  Dy1  1  0.420305  0.210124  0.560186  1
  Y  Y2  1  0.999977  0.000023  0.499985  1
  Y  Y3  1  0.000000  0.000000  0.999984  1
  Y  Y4  1  0.790231  0.209769  0.940103  1
  Y  Y5  1  0.790258  0.580491  0.940152  1
  Y  Y6  1  0.419509  0.209742  0.940152  1
  Y  Y7  1  0.209772  0.790228  0.059893  1
  Y  Y8  1  0.209768  0.419542  0.059893  1
  Y  Y9  1  0.580458  0.790232  0.059893  1
  Y  Y10  1  0.541267  0.458733  0.250487  1
  Y  Y11  1  0.541298  0.082554  0.250515  1
  Y  Y12  1  0.917446  0.458702  0.250515  1
  Y  Y13  1  0.458677  0.541323  0.749496  1
  Y  Y14  1  0.458730  0.917410  0.749474  1
  Y  Y15  1  0.082590  0.541270  0.749474  1
  Ho  Ho16  1  0.210228  0.789772  0.439776  1
  Ho  Ho17  1  0.210199  0.420442  0.439789  1
  Ho  Ho18  1  0.579558  0.789801  0.439789  1
  Ho  Ho19  1  0.789857  0.210143  0.560173  1
  Cd  Cd20  1  0.885244  0.114756  0.249903  1
  Cd  Cd21  1  0.885254  0.770508  0.249883  1
  Cd  Cd22  1  0.229492  0.114746  0.249883  1
  Cd  Cd23  1  0.114755  0.885245  0.750112  1
  Cd  Cd24  1  0.114741  0.229505  0.750105  1
  Cd  Cd25  1  0.770495  0.885259  0.750105  1
  Ru  Ru26  1  0.333332  0.666668  0.252183  1
  Ru  Ru27  1  0.666684  0.333316  0.747911  1
