# generated using pymatgen
data_Li8Pr8Bi7Au
_symmetry_space_group_name_H-M   'P 1'
_cell_length_a   9.90009200
_cell_length_b   9.90009185
_cell_length_c   7.46046500
_cell_angle_alpha   90.00000000
_cell_angle_beta   90.00000000
_cell_angle_gamma   120.00000050
_symmetry_Int_Tables_number   1
_chemical_formula_structural   Li8Pr8Bi7Au
_chemical_formula_sum   'Li8 Pr8 Bi7 Au1'
_cell_volume   633.24968313
_cell_formula_units_Z   1
loop_
 _symmetry_equiv_pos_site_id
 _symmetry_equiv_pos_as_xyz
  1  'x, y, z'
loop_
 _atom_site_type_symbol
 _atom_site_label
 _atom_site_symmetry_multiplicity
 _atom_site_fract_x
 _atom_site_fract_y
 _atom_site_fract_z
 _atom_site_occupancy
  Li  Li0  1  0.167898  0.335795  0.277662  1
  Li  Li1  1  0.167898  0.832102  0.277662  1
  Li  Li2  1  0.664205  0.832102  0.277662  1
  Li  Li3  1  0.829828  0.659654  0.776042  1
  Li  Li4  1  0.829828  0.170172  0.776042  1
  Li  Li5  1  0.340346  0.170172  0.776042  1
  Li  Li6  1  0.333333  0.666667  0.680473  1
  Li  Li7  1  0.666667  0.333333  0.183327  1
  Pr  Pr8  1  0.517722  0.035445  0.505004  1
  Pr  Pr9  1  0.517722  0.482278  0.505004  1
  Pr  Pr10  1  0.964555  0.482278  0.505004  1
  Pr  Pr11  1  0.496729  0.993458  0.987313  1
  Pr  Pr12  1  0.496729  0.503271  0.987313  1
  Pr  Pr13  1  0.006542  0.503271  0.987313  1
  Pr  Pr14  1  0.000000  0.000000  0.501681  1
  Pr  Pr15  1  0.000000  0.000000  0.000820  1
  Bi  Bi16  1  0.165940  0.331880  0.736196  1
  Bi  Bi17  1  0.165940  0.834060  0.736196  1
  Bi  Bi18  1  0.668120  0.834060  0.736196  1
  Bi  Bi19  1  0.833618  0.667237  0.235415  1
  Bi  Bi20  1  0.833618  0.166382  0.235415  1
  Bi  Bi21  1  0.332763  0.166382  0.235415  1
  Bi  Bi22  1  0.333333  0.666667  0.260302  1
  Au  Au23  1  0.666667  0.333333  0.762474  1
