# generated using pymatgen
data_ErTm9Zn3Ru
_symmetry_space_group_name_H-M   'P 1'
_cell_length_a   9.28336804
_cell_length_b   9.28336829
_cell_length_c   9.51220600
_cell_angle_alpha   90.00000000
_cell_angle_beta   90.00000000
_cell_angle_gamma   119.98991812
_symmetry_Int_Tables_number   1
_chemical_formula_structural   ErTm9Zn3Ru
_chemical_formula_sum   'Er2 Tm18 Zn6 Ru2'
_cell_volume   710.01437041
_cell_formula_units_Z   2
loop_
 _symmetry_equiv_pos_site_id
 _symmetry_equiv_pos_as_xyz
  1  'x, y, z'
loop_
 _atom_site_type_symbol
 _atom_site_label
 _atom_site_symmetry_multiplicity
 _atom_site_fract_x
 _atom_site_fract_y
 _atom_site_fract_z
 _atom_site_occupancy
  Er  Er0  1  0.458958  0.917715  0.750000  1
  Er  Er1  1  0.082285  0.541042  0.750000  1
  Tm  Tm2  1  0.999996  0.000004  0.499994  1
  Tm  Tm3  1  0.999996  0.000004  0.000006  1
  Tm  Tm4  1  0.207794  0.792206  0.442085  1
  Tm  Tm5  1  0.207868  0.415621  0.442130  1
  Tm  Tm6  1  0.584379  0.792132  0.442130  1
  Tm  Tm7  1  0.792175  0.207825  0.557699  1
  Tm  Tm8  1  0.792068  0.584341  0.557747  1
  Tm  Tm9  1  0.415659  0.207932  0.557747  1
  Tm  Tm10  1  0.792175  0.207825  0.942301  1
  Tm  Tm11  1  0.792068  0.584341  0.942253  1
  Tm  Tm12  1  0.415659  0.207932  0.942253  1
  Tm  Tm13  1  0.207794  0.792206  0.057915  1
  Tm  Tm14  1  0.207868  0.415621  0.057870  1
  Tm  Tm15  1  0.584379  0.792132  0.057870  1
  Tm  Tm16  1  0.541158  0.458842  0.250000  1
  Tm  Tm17  1  0.541149  0.082280  0.250000  1
  Tm  Tm18  1  0.917720  0.458851  0.250000  1
  Tm  Tm19  1  0.458985  0.541015  0.750000  1
  Zn  Zn20  1  0.885784  0.114216  0.250000  1
  Zn  Zn21  1  0.885757  0.771599  0.250000  1
  Zn  Zn22  1  0.228401  0.114243  0.250000  1
  Zn  Zn23  1  0.114116  0.885884  0.750000  1
  Zn  Zn24  1  0.114230  0.228350  0.750000  1
  Zn  Zn25  1  0.771650  0.885770  0.750000  1
  Ru  Ru26  1  0.333307  0.666693  0.250000  1
  Ru  Ru27  1  0.666620  0.333380  0.750000  1
