# generated using pymatgen
data_CeDyLu14(AlCo)4
_symmetry_space_group_name_H-M   'P 1'
_cell_length_a   9.20143743
_cell_length_b   9.26100040
_cell_length_c   9.19740700
_cell_angle_alpha   60.22689656
_cell_angle_beta   60.01449218
_cell_angle_gamma   60.25248137
_symmetry_Int_Tables_number   1
_chemical_formula_structural   CeDyLu14(AlCo)4
_chemical_formula_sum   'Ce1 Dy1 Lu14 Al4 Co4'
_cell_volume   556.25735882
_cell_formula_units_Z   1
loop_
 _symmetry_equiv_pos_site_id
 _symmetry_equiv_pos_as_xyz
  1  'x, y, z'
loop_
 _atom_site_type_symbol
 _atom_site_label
 _atom_site_symmetry_multiplicity
 _atom_site_fract_x
 _atom_site_fract_y
 _atom_site_fract_z
 _atom_site_occupancy
  Ce  Ce0  1  0.158397  0.522208  0.159698  1
  Dy  Dy1  1  0.309533  0.311594  0.689437  1
  Lu  Lu2  1  0.691214  0.311325  0.690007  1
  Lu  Lu3  1  0.691214  0.311325  0.307455  1
  Lu  Lu4  1  0.936772  0.561926  0.562482  1
  Lu  Lu5  1  0.552942  0.147340  0.149858  1
  Lu  Lu6  1  0.149333  0.147422  0.551153  1
  Lu  Lu7  1  0.936434  0.934692  0.564438  1
  Lu  Lu8  1  0.309068  0.695012  0.307517  1
  Lu  Lu9  1  0.563202  0.935241  0.938855  1
  Lu  Lu10  1  0.563202  0.935241  0.562704  1
  Lu  Lu11  1  0.688112  0.694411  0.308738  1
  Lu  Lu12  1  0.562100  0.560921  0.938490  1
  Lu  Lu13  1  0.936772  0.561926  0.938819  1
  Lu  Lu14  1  0.309068  0.695012  0.688404  1
  Lu  Lu15  1  0.149333  0.147422  0.152092  1
  Al  Al16  1  0.922329  0.233843  0.921914  1
  Al  Al17  1  0.922447  0.921197  0.921495  1
  Al  Al18  1  0.922447  0.921197  0.234862  1
  Al  Al19  1  0.235018  0.920141  0.922421  1
  Co  Co20  1  0.352062  0.367904  0.929836  1
  Co  Co21  1  0.359029  0.924866  0.358053  1
  Co  Co22  1  0.927916  0.369928  0.351078  1
  Co  Co23  1  0.352062  0.367904  0.350198  1
