# generated using pymatgen
data_Mn2CrNiP4
_symmetry_space_group_name_H-M   'P 1'
_cell_length_a   3.00858100
_cell_length_b   5.30778102
_cell_length_c   5.89984587
_cell_angle_alpha   90.12762099
_cell_angle_beta   90.00000000
_cell_angle_gamma   90.00000000
_symmetry_Int_Tables_number   1
_chemical_formula_structural   Mn2CrNiP4
_chemical_formula_sum   'Mn2 Cr1 Ni1 P4'
_cell_volume   94.21375097
_cell_formula_units_Z   1
loop_
 _symmetry_equiv_pos_site_id
 _symmetry_equiv_pos_as_xyz
  1  'x, y, z'
loop_
 _atom_site_type_symbol
 _atom_site_label
 _atom_site_symmetry_multiplicity
 _atom_site_fract_x
 _atom_site_fract_y
 _atom_site_fract_z
 _atom_site_occupancy
  Mn  Mn0  1  0.000000  0.494012  0.695278  1
  Mn  Mn1  1  0.000000  0.992925  0.795305  1
  Cr  Cr2  1  0.500000  0.505928  0.303706  1
  Ni  Ni3  1  0.500000  0.004563  0.201945  1
  P  P4  1  0.500000  0.689934  0.935738  1
  P  P5  1  0.500000  0.195759  0.571743  1
  P  P6  1  0.000000  0.311553  0.056080  1
  P  P7  1  0.000000  0.805328  0.440203  1
