# generated using pymatgen
data_La2HoEr3(IrO7)2
_symmetry_space_group_name_H-M   'P 1'
_cell_length_a   6.45536420
_cell_length_b   6.45720287
_cell_length_c   7.49706200
_cell_angle_alpha   90.00000000
_cell_angle_beta   90.00000000
_cell_angle_gamma   109.50603768
_symmetry_Int_Tables_number   1
_chemical_formula_structural   La2HoEr3(IrO7)2
_chemical_formula_sum   'La2 Ho1 Er3 Ir2 O14'
_cell_volume   294.56871843
_cell_formula_units_Z   1
loop_
 _symmetry_equiv_pos_site_id
 _symmetry_equiv_pos_as_xyz
  1  'x, y, z'
loop_
 _atom_site_type_symbol
 _atom_site_label
 _atom_site_symmetry_multiplicity
 _atom_site_fract_x
 _atom_site_fract_y
 _atom_site_fract_z
 _atom_site_occupancy
  La  La0  1  0.999845  0.999957  0.500227  1
  La  La1  1  0.999845  0.999957  0.999773  1
  Ho  Ho2  1  0.062861  0.515305  0.250000  1
  Er  Er3  1  0.514933  0.061904  0.250000  1
  Er  Er4  1  0.937899  0.485134  0.750000  1
  Er  Er5  1  0.485214  0.938243  0.750000  1
  Ir  Ir6  1  0.499782  0.499862  0.500197  1
  Ir  Ir7  1  0.499782  0.499862  0.999803  1
  O  O8  1  0.443023  0.180156  0.534573  1
  O  O9  1  0.819493  0.557122  0.465919  1
  O  O10  1  0.443023  0.180156  0.965427  1
  O  O11  1  0.819493  0.557122  0.034081  1
  O  O12  1  0.556748  0.819704  0.465512  1
  O  O13  1  0.180309  0.442680  0.535381  1
  O  O14  1  0.556748  0.819704  0.034488  1
  O  O15  1  0.180309  0.442680  0.964619  1
  O  O16  1  0.162797  0.878135  0.250000  1
  O  O17  1  0.123228  0.837003  0.750000  1
  O  O18  1  0.837157  0.123362  0.750000  1
  O  O19  1  0.876339  0.161801  0.250000  1
  O  O20  1  0.407838  0.406886  0.250000  1
  O  O21  1  0.593333  0.593265  0.750000  1
