# generated using pymatgen
data_Yb7Si16Tc13
_symmetry_space_group_name_H-M   'P 1'
_cell_length_a   6.69069029
_cell_length_b   6.77078450
_cell_length_c   12.52256316
_cell_angle_alpha   89.87804793
_cell_angle_beta   89.54159643
_cell_angle_gamma   90.47080612
_symmetry_Int_Tables_number   1
_chemical_formula_structural   Yb7Si16Tc13
_chemical_formula_sum   'Yb7 Si16 Tc13'
_cell_volume   567.24874175
_cell_formula_units_Z   1
loop_
 _symmetry_equiv_pos_site_id
 _symmetry_equiv_pos_as_xyz
  1  'x, y, z'
loop_
 _atom_site_type_symbol
 _atom_site_label
 _atom_site_symmetry_multiplicity
 _atom_site_fract_x
 _atom_site_fract_y
 _atom_site_fract_z
 _atom_site_occupancy
  Yb  Yb0  1  0.991599  0.834567  0.904458  1
  Yb  Yb1  1  0.511603  0.342342  0.090290  1
  Yb  Yb2  1  0.002196  0.162180  0.415983  1
  Yb  Yb3  1  0.504726  0.339272  0.417438  1
  Yb  Yb4  1  0.009042  0.158559  0.088418  1
  Yb  Yb5  1  0.491632  0.653149  0.912280  1
  Yb  Yb6  1  0.986042  0.840406  0.589688  1
  Si  Si7  1  0.642540  0.934266  0.450696  1
  Si  Si8  1  0.153525  0.546932  0.051612  1
  Si  Si9  1  0.347704  0.047124  0.948737  1
  Si  Si10  1  0.821055  0.464245  0.552684  1
  Si  Si11  1  0.347759  0.034138  0.552309  1
  Si  Si12  1  0.851167  0.447988  0.945981  1
  Si  Si13  1  0.651711  0.950692  0.050732  1
  Si  Si14  1  0.160163  0.547745  0.457388  1
  Si  Si15  1  0.477093  0.371452  0.734394  1
  Si  Si16  1  0.975504  0.144027  0.751611  1
  Si  Si17  1  0.529887  0.645269  0.256681  1
  Si  Si18  1  0.024851  0.862917  0.251074  1
  Si  Si19  1  0.676365  0.845889  0.744830  1
  Si  Si20  1  0.209831  0.640545  0.740437  1
  Si  Si21  1  0.311611  0.141976  0.252322  1
  Si  Si22  1  0.811368  0.359554  0.252284  1
  Tc  Tc23  1  0.682330  0.144830  0.626861  1
  Tc  Tc24  1  0.183877  0.348267  0.869877  1
  Tc  Tc25  1  0.322650  0.844575  0.129025  1
  Tc  Tc26  1  0.835767  0.648356  0.374346  1
  Tc  Tc27  1  0.309477  0.846669  0.375048  1
  Tc  Tc28  1  0.829281  0.653777  0.127828  1
  Tc  Tc29  1  0.672028  0.155999  0.871255  1
  Tc  Tc30  1  0.170604  0.345346  0.622826  1
  Tc  Tc31  1  0.501715  0.699737  0.590371  1
  Tc  Tc32  1  0.829975  0.503841  0.748025  1
  Tc  Tc33  1  0.331857  0.996277  0.751336  1
  Tc  Tc34  1  0.172474  0.497084  0.251452  1
  Tc  Tc35  1  0.668992  0.000006  0.249424  1
