# generated using pymatgen
data_Sr3TiSiS7
_symmetry_space_group_name_H-M   'P 1'
_cell_length_a   10.66473600
_cell_length_b   10.66474461
_cell_length_c   6.07999000
_cell_angle_alpha   90.00013513
_cell_angle_beta   90.00000000
_cell_angle_gamma   119.99993825
_symmetry_Int_Tables_number   1
_chemical_formula_structural   Sr3TiSiS7
_chemical_formula_sum   'Sr6 Ti2 Si2 S14'
_cell_volume   598.87245146
_cell_formula_units_Z   2
loop_
 _symmetry_equiv_pos_site_id
 _symmetry_equiv_pos_as_xyz
  1  'x, y, z'
loop_
 _atom_site_type_symbol
 _atom_site_label
 _atom_site_symmetry_multiplicity
 _atom_site_fract_x
 _atom_site_fract_y
 _atom_site_fract_z
 _atom_site_occupancy
  Sr  Sr0  1  0.256464  0.868637  0.221840  1
  Sr  Sr1  1  0.131365  0.387830  0.221839  1
  Sr  Sr2  1  0.612172  0.743537  0.221840  1
  Sr  Sr3  1  0.743553  0.131353  0.721834  1
  Sr  Sr4  1  0.868646  0.612198  0.721832  1
  Sr  Sr5  1  0.387800  0.256448  0.721835  1
  Ti  Ti6  1  0.000000  0.000003  0.051458  1
  Ti  Ti7  1  0.000001  0.999997  0.551715  1
  Si  Si8  1  0.666666  0.333333  0.144068  1
  Si  Si9  1  0.333334  0.666668  0.644100  1
  S  S10  1  0.520143  0.122396  0.015727  1
  S  S11  1  0.877604  0.397747  0.015729  1
  S  S12  1  0.602252  0.479857  0.015729  1
  S  S13  1  0.333333  0.666667  0.992896  1
  S  S14  1  0.860880  0.068902  0.260278  1
  S  S15  1  0.208021  0.139120  0.260278  1
  S  S16  1  0.931098  0.791979  0.260277  1
  S  S17  1  0.122388  0.602243  0.515713  1
  S  S18  1  0.479855  0.877612  0.515712  1
  S  S19  1  0.397757  0.520146  0.515713  1
  S  S20  1  0.666666  0.333332  0.492889  1
  S  S21  1  0.068888  0.208012  0.760233  1
  S  S22  1  0.791988  0.860875  0.760232  1
  S  S23  1  0.139125  0.931112  0.760232  1
