# generated using pymatgen
data_Sc22Co2Ir5Rh
_symmetry_space_group_name_H-M   'P 1'
_cell_length_a   9.43008865
_cell_length_b   9.48604485
_cell_length_c   9.43008910
_cell_angle_alpha   59.80351442
_cell_angle_beta   59.81441326
_cell_angle_gamma   59.80351697
_symmetry_Int_Tables_number   1
_chemical_formula_structural   Sc22Co2Ir5Rh
_chemical_formula_sum   'Sc22 Co2 Ir5 Rh1'
_cell_volume   593.87678622
_cell_formula_units_Z   1
loop_
 _symmetry_equiv_pos_site_id
 _symmetry_equiv_pos_as_xyz
  1  'x, y, z'
loop_
 _atom_site_type_symbol
 _atom_site_label
 _atom_site_symmetry_multiplicity
 _atom_site_fract_x
 _atom_site_fract_y
 _atom_site_fract_z
 _atom_site_occupancy
  Sc  Sc0  1  0.806574  0.807857  0.193426  1
  Sc  Sc1  1  0.192834  0.807166  0.192834  1
  Sc  Sc2  1  0.806574  0.192143  0.193426  1
  Sc  Sc3  1  0.193426  0.192143  0.806574  1
  Sc  Sc4  1  0.807166  0.192834  0.807166  1
  Sc  Sc5  1  0.193426  0.807857  0.806574  1
  Sc  Sc6  1  0.613371  0.616134  0.154359  1
  Sc  Sc7  1  0.615364  0.154394  0.615364  1
  Sc  Sc8  1  0.154359  0.616134  0.613371  1
  Sc  Sc9  1  0.615364  0.614877  0.615364  1
  Sc  Sc10  1  0.386629  0.383866  0.845641  1
  Sc  Sc11  1  0.384636  0.845606  0.384636  1
  Sc  Sc12  1  0.845641  0.383866  0.386629  1
  Sc  Sc13  1  0.384636  0.385123  0.384636  1
  Sc  Sc14  1  0.840920  0.842114  0.474850  1
  Sc  Sc15  1  0.841450  0.474318  0.841450  1
  Sc  Sc16  1  0.474850  0.842114  0.840920  1
  Sc  Sc17  1  0.841450  0.842781  0.841450  1
  Sc  Sc18  1  0.159080  0.157886  0.525150  1
  Sc  Sc19  1  0.158550  0.525682  0.158550  1
  Sc  Sc20  1  0.525150  0.157886  0.159080  1
  Sc  Sc21  1  0.158550  0.157219  0.158550  1
  Co  Co22  1  0.000000  0.000000  0.000000  1
  Co  Co23  1  0.500000  0.500000  0.500000  1
  Ir  Ir24  1  0.000000  0.000000  0.500000  1
  Ir  Ir25  1  0.500000  0.000000  0.500000  1
  Ir  Ir26  1  0.000000  0.500000  0.500000  1
  Ir  Ir27  1  0.500000  0.500000  0.000000  1
  Ir  Ir28  1  0.500000  0.000000  0.000000  1
  Rh  Rh29  1  0.000000  0.500000  0.000000  1
