# generated using pymatgen
data_Ho3Tm4Pa(ReB6)4
_symmetry_space_group_name_H-M   'P 1'
_cell_length_a   3.66797800
_cell_length_b   9.12303520
_cell_length_c   11.49390406
_cell_angle_alpha   90.13399893
_cell_angle_beta   90.00000000
_cell_angle_gamma   90.00000000
_symmetry_Int_Tables_number   1
_chemical_formula_structural   Ho3Tm4Pa(ReB6)4
_chemical_formula_sum   'Ho3 Tm4 Pa1 Re4 B24'
_cell_volume   384.62052167
_cell_formula_units_Z   1
loop_
 _symmetry_equiv_pos_site_id
 _symmetry_equiv_pos_as_xyz
  1  'x, y, z'
loop_
 _atom_site_type_symbol
 _atom_site_label
 _atom_site_symmetry_multiplicity
 _atom_site_fract_x
 _atom_site_fract_y
 _atom_site_fract_z
 _atom_site_occupancy
  Ho  Ho0  1  0.000000  0.679696  0.586967  1
  Ho  Ho1  1  0.000000  0.822984  0.085356  1
  Ho  Ho2  1  0.000000  0.176096  0.913514  1
  Tm  Tm3  1  0.000000  0.942638  0.371643  1
  Tm  Tm4  1  0.000000  0.055231  0.629269  1
  Tm  Tm5  1  0.000000  0.443564  0.127482  1
  Tm  Tm6  1  0.000000  0.557145  0.870469  1
  Pa  Pa7  1  0.000000  0.323015  0.414078  1
  Re  Re8  1  0.000000  0.636173  0.321528  1
  Re  Re9  1  0.000000  0.361874  0.676895  1
  Re  Re10  1  0.000000  0.141024  0.181758  1
  Re  Re11  1  0.000000  0.861336  0.820852  1
  B  B12  1  0.500000  0.553088  0.432127  1
  B  B13  1  0.500000  0.445842  0.567250  1
  B  B14  1  0.500000  0.053804  0.067279  1
  B  B15  1  0.500000  0.946850  0.933615  1
  B  B16  1  0.500000  0.749623  0.418589  1
  B  B17  1  0.500000  0.249977  0.581418  1
  B  B18  1  0.500000  0.249418  0.080398  1
  B  B19  1  0.500000  0.750354  0.919050  1
  B  B20  1  0.500000  0.792152  0.265734  1
  B  B21  1  0.500000  0.207612  0.734956  1
  B  B22  1  0.500000  0.292034  0.234260  1
  B  B23  1  0.500000  0.707798  0.765736  1
  B  B24  1  0.500000  0.631034  0.184407  1
  B  B25  1  0.500000  0.369864  0.814587  1
  B  B26  1  0.500000  0.131319  0.314958  1
  B  B27  1  0.500000  0.869059  0.685685  1
  B  B28  1  0.500000  0.982097  0.212391  1
  B  B29  1  0.500000  0.018007  0.787953  1
  B  B30  1  0.500000  0.482654  0.286991  1
  B  B31  1  0.500000  0.518196  0.713199  1
  B  B32  1  0.500000  0.601027  0.027543  1
  B  B33  1  0.500000  0.399065  0.971206  1
  B  B34  1  0.500000  0.102737  0.471699  1
  B  B35  1  0.500000  0.895612  0.529155  1
