# generated using pymatgen
data_Ho8Co3Si12Pd
_symmetry_space_group_name_H-M   'P 1'
_cell_length_a   8.02527600
_cell_length_b   8.02527573
_cell_length_c   7.88775200
_cell_angle_alpha   90.00000000
_cell_angle_beta   90.00000000
_cell_angle_gamma   120.00000935
_symmetry_Int_Tables_number   1
_chemical_formula_structural   Ho8Co3Si12Pd
_chemical_formula_sum   'Ho8 Co3 Si12 Pd1'
_cell_volume   439.95046212
_cell_formula_units_Z   1
loop_
 _symmetry_equiv_pos_site_id
 _symmetry_equiv_pos_as_xyz
  1  'x, y, z'
loop_
 _atom_site_type_symbol
 _atom_site_label
 _atom_site_symmetry_multiplicity
 _atom_site_fract_x
 _atom_site_fract_y
 _atom_site_fract_z
 _atom_site_occupancy
  Ho  Ho0  1  0.507909  0.015817  0.245968  1
  Ho  Ho1  1  0.497213  0.994426  0.752073  1
  Ho  Ho2  1  0.984183  0.492091  0.245968  1
  Ho  Ho3  1  0.005574  0.502787  0.752073  1
  Ho  Ho4  1  0.507909  0.492091  0.245968  1
  Ho  Ho5  1  0.497213  0.502787  0.752073  1
  Ho  Ho6  1  0.000000  0.000000  0.249085  1
  Ho  Ho7  1  0.000000  0.000000  0.752310  1
  Co  Co8  1  0.333333  0.666667  0.025072  1
  Co  Co9  1  0.666667  0.333333  0.968330  1
  Co  Co10  1  0.666667  0.333333  0.533451  1
  Si  Si11  1  0.172089  0.344179  0.000512  1
  Si  Si12  1  0.829048  0.658095  0.999266  1
  Si  Si13  1  0.655821  0.827911  0.000512  1
  Si  Si14  1  0.827161  0.654321  0.498318  1
  Si  Si15  1  0.341905  0.170952  0.999266  1
  Si  Si16  1  0.163596  0.327192  0.502799  1
  Si  Si17  1  0.172089  0.827911  0.000512  1
  Si  Si18  1  0.345679  0.172839  0.498318  1
  Si  Si19  1  0.829048  0.170952  0.999266  1
  Si  Si20  1  0.672808  0.836404  0.502799  1
  Si  Si21  1  0.827161  0.172839  0.498318  1
  Si  Si22  1  0.163596  0.836404  0.502799  1
  Pd  Pd23  1  0.333333  0.666667  0.474940  1
