# generated using pymatgen
data_Ta8Cr2SiGeB4
_symmetry_space_group_name_H-M   'P 1'
_cell_length_a   7.21147646
_cell_length_b   7.21147658
_cell_length_c   7.21147614
_cell_angle_alpha   129.99715049
_cell_angle_beta   129.99715242
_cell_angle_gamma   73.41132359
_symmetry_Int_Tables_number   1
_chemical_formula_structural   Ta8Cr2SiGeB4
_chemical_formula_sum   'Ta8 Cr2 Si1 Ge1 B4'
_cell_volume   214.83064774
_cell_formula_units_Z   1
loop_
 _symmetry_equiv_pos_site_id
 _symmetry_equiv_pos_as_xyz
  1  'x, y, z'
loop_
 _atom_site_type_symbol
 _atom_site_label
 _atom_site_symmetry_multiplicity
 _atom_site_fract_x
 _atom_site_fract_y
 _atom_site_fract_z
 _atom_site_occupancy
  Ta  Ta0  1  0.529988  0.693054  0.495452  1
  Ta  Ta1  1  0.197603  0.034537  0.504548  1
  Ta  Ta2  1  0.034537  0.529988  0.836934  1
  Ta  Ta3  1  0.693054  0.197603  0.163066  1
  Ta  Ta4  1  0.465463  0.302397  0.495452  1
  Ta  Ta5  1  0.806946  0.970012  0.504548  1
  Ta  Ta6  1  0.970012  0.465463  0.163066  1
  Ta  Ta7  1  0.302397  0.806946  0.836934  1
  Cr  Cr8  1  0.499282  0.499282  0.000000  1
  Cr  Cr9  1  0.000718  0.000718  0.000000  1
  Si  Si10  1  0.250000  0.250000  0.000000  1
  Ge  Ge11  1  0.750000  0.750000  0.000000  1
  B  B12  1  0.876487  0.623513  0.500000  1
  B  B13  1  0.123513  0.376487  0.500000  1
  B  B14  1  0.376487  0.876487  0.252974  1
  B  B15  1  0.623513  0.123513  0.747026  1
