# generated using pymatgen
data_CsAg2F7
_symmetry_space_group_name_H-M   'P 1'
_cell_length_a   7.99301143
_cell_length_b   7.99301144
_cell_length_c   7.05006628
_cell_angle_alpha   67.96777009
_cell_angle_beta   67.96777475
_cell_angle_gamma   87.65222937
_symmetry_Int_Tables_number   1
_chemical_formula_structural   CsAg2F7
_chemical_formula_sum   'Cs2 Ag4 F14'
_cell_volume   384.41623506
_cell_formula_units_Z   2
loop_
 _symmetry_equiv_pos_site_id
 _symmetry_equiv_pos_as_xyz
  1  'x, y, z'
loop_
 _atom_site_type_symbol
 _atom_site_label
 _atom_site_symmetry_multiplicity
 _atom_site_fract_x
 _atom_site_fract_y
 _atom_site_fract_z
 _atom_site_occupancy
  Cs  Cs0  1  0.310108  0.689892  0.250000  1
  Cs  Cs1  1  0.689892  0.310108  0.750000  1
  Ag  Ag2  1  0.085053  0.286731  0.137943  1
  Ag  Ag3  1  0.713269  0.914947  0.362057  1
  Ag  Ag4  1  0.914947  0.713269  0.862057  1
  Ag  Ag5  1  0.286731  0.085053  0.637943  1
  F  F6  1  0.908381  0.816506  0.459345  1
  F  F7  1  0.671230  0.598013  0.964150  1
  F  F8  1  0.816505  0.908381  0.959345  1
  F  F9  1  0.511079  0.015351  0.277279  1
  F  F10  1  0.183494  0.091619  0.040655  1
  F  F11  1  0.488921  0.984649  0.722721  1
  F  F12  1  0.823310  0.176690  0.250000  1
  F  F13  1  0.984649  0.488921  0.222721  1
  F  F14  1  0.015351  0.511079  0.777279  1
  F  F15  1  0.328770  0.401987  0.035850  1
  F  F16  1  0.091619  0.183495  0.540655  1
  F  F17  1  0.401987  0.328770  0.535850  1
  F  F18  1  0.176690  0.823310  0.750000  1
  F  F19  1  0.598013  0.671230  0.464150  1
