# generated using pymatgen
data_Ce2ZrSn3Rh10
_symmetry_space_group_name_H-M   'P 1'
_cell_length_a   5.72750421
_cell_length_b   5.72750434
_cell_length_c   8.45438404
_cell_angle_alpha   90.00197673
_cell_angle_beta   90.00198525
_cell_angle_gamma   97.55680564
_symmetry_Int_Tables_number   1
_chemical_formula_structural   Ce2ZrSn3Rh10
_chemical_formula_sum   'Ce2 Zr1 Sn3 Rh10'
_cell_volume   274.93148496
_cell_formula_units_Z   1
loop_
 _symmetry_equiv_pos_site_id
 _symmetry_equiv_pos_as_xyz
  1  'x, y, z'
loop_
 _atom_site_type_symbol
 _atom_site_label
 _atom_site_symmetry_multiplicity
 _atom_site_fract_x
 _atom_site_fract_y
 _atom_site_fract_z
 _atom_site_occupancy
  Ce  Ce0  1  0.792382  0.207618  0.500000  1
  Ce  Ce1  1  0.212970  0.787030  0.000000  1
  Zr  Zr2  1  0.782022  0.217978  0.000000  1
  Sn  Sn3  1  0.505475  0.493143  0.751503  1
  Sn  Sn4  1  0.506857  0.494525  0.248497  1
  Sn  Sn5  1  0.206841  0.793159  0.500000  1
  Rh  Rh6  1  0.724947  0.725439  0.999697  1
  Rh  Rh7  1  0.719494  0.719533  0.500353  1
  Rh  Rh8  1  0.274561  0.275053  0.000303  1
  Rh  Rh9  1  0.280467  0.280506  0.499647  1
  Rh  Rh10  1  0.496415  0.992124  0.750277  1
  Rh  Rh11  1  0.496343  0.992611  0.249729  1
  Rh  Rh12  1  0.992928  0.006967  0.243815  1
  Rh  Rh13  1  0.993033  0.007072  0.756185  1
  Rh  Rh14  1  0.007389  0.503657  0.750271  1
  Rh  Rh15  1  0.007876  0.503585  0.249723  1
