# generated using pymatgen
data_Ho3Hg(Pd2Au)4
_symmetry_space_group_name_H-M   'P 1'
_cell_length_a   6.01032821
_cell_length_b   6.00152623
_cell_length_c   7.95040200
_cell_angle_alpha   90.00096943
_cell_angle_beta   90.00054764
_cell_angle_gamma   89.96908084
_symmetry_Int_Tables_number   1
_chemical_formula_structural   Ho3Hg(Pd2Au)4
_chemical_formula_sum   'Ho3 Hg1 Pd8 Au4'
_cell_volume   286.78004080
_cell_formula_units_Z   1
loop_
 _symmetry_equiv_pos_site_id
 _symmetry_equiv_pos_as_xyz
  1  'x, y, z'
loop_
 _atom_site_type_symbol
 _atom_site_label
 _atom_site_symmetry_multiplicity
 _atom_site_fract_x
 _atom_site_fract_y
 _atom_site_fract_z
 _atom_site_occupancy
  Ho  Ho0  1  0.249704  0.250003  0.000002  1
  Ho  Ho1  1  0.750318  0.749993  0.999994  1
  Ho  Ho2  1  0.749671  0.749997  0.500002  1
  Hg  Hg3  1  0.250394  0.250000  0.499998  1
  Pd  Pd4  1  0.500730  0.999059  0.251831  1
  Pd  Pd5  1  0.500769  0.500985  0.251872  1
  Pd  Pd6  1  0.999244  0.999062  0.252259  1
  Pd  Pd7  1  0.999276  0.500894  0.252241  1
  Pd  Pd8  1  0.999181  0.999090  0.747725  1
  Pd  Pd9  1  0.999217  0.500885  0.747763  1
  Pd  Pd10  1  0.500767  0.999086  0.748169  1
  Pd  Pd11  1  0.500798  0.500943  0.748146  1
  Au  Au12  1  0.750027  0.250000  0.999985  1
  Au  Au13  1  0.249986  0.750001  0.000006  1
  Au  Au14  1  0.749888  0.250000  0.500001  1
  Au  Au15  1  0.250030  0.750001  0.500007  1
