# generated using pymatgen
data_Er3MgCd2Ga2Au
_symmetry_space_group_name_H-M   'P 1'
_cell_length_a   7.33085903
_cell_length_b   7.33085946
_cell_length_c   4.32027600
_cell_angle_alpha   90.00000000
_cell_angle_beta   90.00000000
_cell_angle_gamma   120.23963952
_symmetry_Int_Tables_number   1
_chemical_formula_structural   Er3MgCd2Ga2Au
_chemical_formula_sum   'Er3 Mg1 Cd2 Ga2 Au1'
_cell_volume   200.58483402
_cell_formula_units_Z   1
loop_
 _symmetry_equiv_pos_site_id
 _symmetry_equiv_pos_as_xyz
  1  'x, y, z'
loop_
 _atom_site_type_symbol
 _atom_site_label
 _atom_site_symmetry_multiplicity
 _atom_site_fract_x
 _atom_site_fract_y
 _atom_site_fract_z
 _atom_site_occupancy
  Er  Er0  1  0.413493  0.413493  0.500000  1
  Er  Er1  1  0.584047  0.000095  0.500000  1
  Er  Er2  1  0.000095  0.584047  0.500000  1
  Mg  Mg3  1  0.754606  0.754606  0.000000  1
  Cd  Cd4  1  0.254254  0.999302  0.000000  1
  Cd  Cd5  1  0.999302  0.254254  0.000000  1
  Ga  Ga6  1  0.666620  0.336741  0.000000  1
  Ga  Ga7  1  0.336741  0.666620  0.000000  1
  Au  Au8  1  0.990842  0.990842  0.500000  1
