# generated using pymatgen
data_RbMnCoP2
_symmetry_space_group_name_H-M   'P 1'
_cell_length_a   7.46459210
_cell_length_b   7.46459195
_cell_length_c   7.46459248
_cell_angle_alpha   150.60329716
_cell_angle_beta   150.60329493
_cell_angle_gamma   42.05654353
_symmetry_Int_Tables_number   1
_chemical_formula_structural   RbMnCoP2
_chemical_formula_sum   'Rb1 Mn1 Co1 P2'
_cell_volume   99.97507111
_cell_formula_units_Z   1
loop_
 _symmetry_equiv_pos_site_id
 _symmetry_equiv_pos_as_xyz
  1  'x, y, z'
loop_
 _atom_site_type_symbol
 _atom_site_label
 _atom_site_symmetry_multiplicity
 _atom_site_fract_x
 _atom_site_fract_y
 _atom_site_fract_z
 _atom_site_occupancy
  Rb  Rb0  1  0.000000  0.000000  0.000000  1
  Mn  Mn1  1  0.750000  0.250000  0.500000  1
  Co  Co2  1  0.250000  0.750000  0.500000  1
  P  P3  1  0.335250  0.335250  0.000000  1
  P  P4  1  0.664750  0.664750  0.000000  1
