# generated using pymatgen
data_TlSb(AsO4)2
_symmetry_space_group_name_H-M   'P 1'
_cell_length_a   5.00138900
_cell_length_b   5.00138931
_cell_length_c   9.16212600
_cell_angle_alpha   90.00000000
_cell_angle_beta   90.00000000
_cell_angle_gamma   120.00000455
_symmetry_Int_Tables_number   1
_chemical_formula_structural   TlSb(AsO4)2
_chemical_formula_sum   'Tl1 Sb1 As2 O8'
_cell_volume   198.47607738
_cell_formula_units_Z   1
loop_
 _symmetry_equiv_pos_site_id
 _symmetry_equiv_pos_as_xyz
  1  'x, y, z'
loop_
 _atom_site_type_symbol
 _atom_site_label
 _atom_site_symmetry_multiplicity
 _atom_site_fract_x
 _atom_site_fract_y
 _atom_site_fract_z
 _atom_site_occupancy
  Tl  Tl0  1  0.000000  0.000000  0.000000  1
  Sb  Sb1  1  0.000000  0.000000  0.500000  1
  As  As2  1  0.666666  0.333334  0.299730  1
  As  As3  1  0.333333  0.666666  0.700270  1
  O  O4  1  0.666666  0.333334  0.118056  1
  O  O5  1  0.329214  0.020381  0.368654  1
  O  O6  1  0.979620  0.308833  0.368654  1
  O  O7  1  0.691168  0.670786  0.368654  1
  O  O8  1  0.308833  0.329215  0.631345  1
  O  O9  1  0.020382  0.691168  0.631345  1
  O  O10  1  0.670786  0.979620  0.631345  1
  O  O11  1  0.333333  0.666666  0.881944  1
