# generated using pymatgen
data_TbDy11In20
_symmetry_space_group_name_H-M   'P 1'
_cell_length_a   6.51990804
_cell_length_b   10.44959735
_cell_length_c   12.28152600
_cell_angle_alpha   89.96295644
_cell_angle_beta   89.99355853
_cell_angle_gamma   90.01025464
_symmetry_Int_Tables_number   1
_chemical_formula_structural   TbDy11In20
_chemical_formula_sum   'Tb1 Dy11 In20'
_cell_volume   836.74525488
_cell_formula_units_Z   1
loop_
 _symmetry_equiv_pos_site_id
 _symmetry_equiv_pos_as_xyz
  1  'x, y, z'
loop_
 _atom_site_type_symbol
 _atom_site_label
 _atom_site_symmetry_multiplicity
 _atom_site_fract_x
 _atom_site_fract_y
 _atom_site_fract_z
 _atom_site_occupancy
  Tb  Tb0  1  0.609716  0.493389  0.642034  1
  Dy  Dy1  1  0.349874  0.749970  0.055997  1
  Dy  Dy2  1  0.149812  0.749926  0.555948  1
  Dy  Dy3  1  0.650059  0.250133  0.944004  1
  Dy  Dy4  1  0.849985  0.249918  0.443954  1
  Dy  Dy5  1  0.890482  0.493443  0.141801  1
  Dy  Dy6  1  0.609411  0.006513  0.641722  1
  Dy  Dy7  1  0.109437  0.993426  0.858353  1
  Dy  Dy8  1  0.390467  0.506629  0.357960  1
  Dy  Dy9  1  0.109502  0.506546  0.858155  1
  Dy  Dy10  1  0.390608  0.993479  0.358214  1
  Dy  Dy11  1  0.890486  0.006586  0.141741  1
  In  In12  1  0.616998  0.750300  0.505144  1
  In  In13  1  0.882976  0.750080  0.005461  1
  In  In14  1  0.382844  0.249932  0.494499  1
  In  In15  1  0.117025  0.249936  0.994602  1
  In  In16  1  0.651337  0.749915  0.245846  1
  In  In17  1  0.848847  0.750413  0.745992  1
  In  In18  1  0.348504  0.249666  0.754176  1
  In  In19  1  0.151318  0.249932  0.254095  1
  In  In20  1  0.125804  0.750258  0.284679  1
  In  In21  1  0.374057  0.750208  0.784782  1
  In  In22  1  0.874658  0.249480  0.715427  1
  In  In23  1  0.625738  0.249925  0.215313  1
  In  In24  1  0.875409  0.544008  0.400749  1
  In  In25  1  0.624674  0.956148  0.900916  1
  In  In26  1  0.124546  0.043826  0.599148  1
  In  In27  1  0.375202  0.455955  0.099093  1
  In  In28  1  0.124639  0.455901  0.598999  1
  In  In29  1  0.375344  0.043880  0.099133  1
  In  In30  1  0.875555  0.956067  0.400734  1
  In  In31  1  0.624684  0.544210  0.901324  1
