# generated using pymatgen
data_La3Pr16TmGa12
_symmetry_space_group_name_H-M   'P 1'
_cell_length_a   7.85273100
_cell_length_b   7.85273100
_cell_length_c   15.03951700
_cell_angle_alpha   90.00000000
_cell_angle_beta   90.00000000
_cell_angle_gamma   90.00000000
_symmetry_Int_Tables_number   1
_chemical_formula_structural   La3Pr16TmGa12
_chemical_formula_sum   'La3 Pr16 Tm1 Ga12'
_cell_volume   927.41759336
_cell_formula_units_Z   1
loop_
 _symmetry_equiv_pos_site_id
 _symmetry_equiv_pos_as_xyz
  1  'x, y, z'
loop_
 _atom_site_type_symbol
 _atom_site_label
 _atom_site_symmetry_multiplicity
 _atom_site_fract_x
 _atom_site_fract_y
 _atom_site_fract_z
 _atom_site_occupancy
  La  La0  1  0.000000  0.500000  0.716236  1
  La  La1  1  0.000000  0.500000  0.214386  1
  La  La2  1  0.500000  0.000000  0.286607  1
  Pr  Pr3  1  0.814114  0.839473  0.605462  1
  Pr  Pr4  1  0.186252  0.840717  0.103254  1
  Pr  Pr5  1  0.160021  0.814948  0.397042  1
  Pr  Pr6  1  0.839979  0.185052  0.397042  1
  Pr  Pr7  1  0.685052  0.660021  0.397042  1
  Pr  Pr8  1  0.660527  0.314114  0.605462  1
  Pr  Pr9  1  0.339473  0.685886  0.605462  1
  Pr  Pr10  1  0.659283  0.686252  0.103254  1
  Pr  Pr11  1  0.685118  0.335399  0.895460  1
  Pr  Pr12  1  0.835399  0.814882  0.895460  1
  Pr  Pr13  1  0.314948  0.339979  0.397042  1
  Pr  Pr14  1  0.185886  0.160527  0.605462  1
  Pr  Pr15  1  0.813748  0.159283  0.103254  1
  Pr  Pr16  1  0.314882  0.664601  0.895460  1
  Pr  Pr17  1  0.340717  0.313748  0.103254  1
  Pr  Pr18  1  0.164601  0.185118  0.895460  1
  Tm  Tm19  1  0.500000  0.000000  0.773227  1
  Ga  Ga20  1  0.617667  0.382351  0.249979  1
  Ga  Ga21  1  0.125359  0.885473  0.752118  1
  Ga  Ga22  1  0.385473  0.374641  0.752118  1
  Ga  Ga23  1  0.382333  0.617649  0.249979  1
  Ga  Ga24  1  0.882351  0.882333  0.249979  1
  Ga  Ga25  1  0.614527  0.625359  0.752118  1
  Ga  Ga26  1  0.000000  0.500000  0.507382  1
  Ga  Ga27  1  0.874641  0.114527  0.752118  1
  Ga  Ga28  1  0.500000  0.000000  0.496690  1
  Ga  Ga29  1  0.500000  0.000000  0.985497  1
  Ga  Ga30  1  0.117649  0.117667  0.249979  1
  Ga  Ga31  1  0.000000  0.500000  0.006715  1
