# generated using pymatgen
data_Ce2Ga12Rh
_symmetry_space_group_name_H-M   'P 1'
_cell_length_a   6.10362300
_cell_length_b   6.10362300
_cell_length_c   15.63838800
_cell_angle_alpha   90.00000000
_cell_angle_beta   90.00000000
_cell_angle_gamma   90.00000000
_symmetry_Int_Tables_number   1
_chemical_formula_structural   Ce2Ga12Rh
_chemical_formula_sum   'Ce4 Ga24 Rh2'
_cell_volume   582.59584888
_cell_formula_units_Z   2
loop_
 _symmetry_equiv_pos_site_id
 _symmetry_equiv_pos_as_xyz
  1  'x, y, z'
loop_
 _atom_site_type_symbol
 _atom_site_label
 _atom_site_symmetry_multiplicity
 _atom_site_fract_x
 _atom_site_fract_y
 _atom_site_fract_z
 _atom_site_occupancy
  Ce  Ce0  1  0.000000  0.500000  0.758337  1
  Ce  Ce1  1  0.500000  0.000000  0.758337  1
  Ce  Ce2  1  0.000000  0.500000  0.241663  1
  Ce  Ce3  1  0.500000  0.000000  0.241663  1
  Ga  Ga4  1  0.669054  0.169054  0.430317  1
  Ga  Ga5  1  0.669054  0.830946  0.569683  1
  Ga  Ga6  1  0.169054  0.669054  0.569683  1
  Ga  Ga7  1  0.830946  0.330946  0.569683  1
  Ga  Ga8  1  0.500000  0.500000  0.187850  1
  Ga  Ga9  1  0.500000  0.500000  0.812150  1
  Ga  Ga10  1  0.000000  0.000000  0.812150  1
  Ga  Ga11  1  0.000000  0.000000  0.187850  1
  Ga  Ga12  1  0.500000  0.500000  0.344209  1
  Ga  Ga13  1  0.500000  0.500000  0.655791  1
  Ga  Ga14  1  0.000000  0.000000  0.655791  1
  Ga  Ga15  1  0.000000  0.000000  0.344209  1
  Ga  Ga16  1  0.250121  0.750121  0.912635  1
  Ga  Ga17  1  0.249879  0.250121  0.912635  1
  Ga  Ga18  1  0.750121  0.749879  0.912635  1
  Ga  Ga19  1  0.250121  0.249879  0.087365  1
  Ga  Ga20  1  0.749879  0.750121  0.087365  1
  Ga  Ga21  1  0.749879  0.249879  0.912635  1
  Ga  Ga22  1  0.750121  0.250121  0.087365  1
  Ga  Ga23  1  0.249879  0.749879  0.087365  1
  Ga  Ga24  1  0.330946  0.830946  0.430317  1
  Ga  Ga25  1  0.169054  0.330946  0.430317  1
  Ga  Ga26  1  0.830946  0.669054  0.430317  1
  Ga  Ga27  1  0.330946  0.169054  0.569683  1
  Rh  Rh28  1  0.500000  0.000000  0.000000  1
  Rh  Rh29  1  0.000000  0.500000  0.000000  1
