# generated using pymatgen
data_Tb10GaBi5S2
_symmetry_space_group_name_H-M   'P 1'
_cell_length_a   9.16163994
_cell_length_b   9.16164041
_cell_length_c   6.61040900
_cell_angle_alpha   90.00000000
_cell_angle_beta   90.00000000
_cell_angle_gamma   119.85896660
_symmetry_Int_Tables_number   1
_chemical_formula_structural   Tb10GaBi5S2
_chemical_formula_sum   'Tb10 Ga1 Bi5 S2'
_cell_volume   481.19473581
_cell_formula_units_Z   1
loop_
 _symmetry_equiv_pos_site_id
 _symmetry_equiv_pos_as_xyz
  1  'x, y, z'
loop_
 _atom_site_type_symbol
 _atom_site_label
 _atom_site_symmetry_multiplicity
 _atom_site_fract_x
 _atom_site_fract_y
 _atom_site_fract_z
 _atom_site_occupancy
  Tb  Tb0  1  0.659000  0.336209  0.496475  1
  Tb  Tb1  1  0.336209  0.659000  0.496475  1
  Tb  Tb2  1  0.336209  0.659000  0.003525  1
  Tb  Tb3  1  0.659000  0.336209  0.003525  1
  Tb  Tb4  1  0.747342  0.747342  0.250000  1
  Tb  Tb5  1  0.249470  0.013331  0.250000  1
  Tb  Tb6  1  0.013331  0.249470  0.250000  1
  Tb  Tb7  1  0.244765  0.244765  0.750000  1
  Tb  Tb8  1  0.755511  0.001038  0.750000  1
  Tb  Tb9  1  0.001038  0.755511  0.750000  1
  Ga  Ga10  1  0.399030  0.399030  0.250000  1
  Bi  Bi11  1  0.606202  0.002023  0.250000  1
  Bi  Bi12  1  0.002023  0.606202  0.250000  1
  Bi  Bi13  1  0.602759  0.602759  0.750000  1
  Bi  Bi14  1  0.395344  0.997896  0.750000  1
  Bi  Bi15  1  0.997896  0.395344  0.750000  1
  S  S16  1  0.997436  0.997436  0.500131  1
  S  S17  1  0.997436  0.997436  0.999869  1
