# generated using pymatgen
data_La3PrV4F28
_symmetry_space_group_name_H-M   'P 1'
_cell_length_a   5.66908305
_cell_length_b   9.22112222
_cell_length_c   12.26501289
_cell_angle_alpha   62.77525465
_cell_angle_beta   90.01400908
_cell_angle_gamma   90.01117927
_symmetry_Int_Tables_number   1
_chemical_formula_structural   La3PrV4F28
_chemical_formula_sum   'La3 Pr1 V4 F28'
_cell_volume   570.12917372
_cell_formula_units_Z   1
loop_
 _symmetry_equiv_pos_site_id
 _symmetry_equiv_pos_as_xyz
  1  'x, y, z'
loop_
 _atom_site_type_symbol
 _atom_site_label
 _atom_site_symmetry_multiplicity
 _atom_site_fract_x
 _atom_site_fract_y
 _atom_site_fract_z
 _atom_site_occupancy
  La  La0  1  0.758485  0.805609  0.767967  1
  La  La1  1  0.258476  0.193570  0.732309  1
  La  La2  1  0.241093  0.191588  0.232638  1
  Pr  Pr3  1  0.741306  0.804924  0.267879  1
  V  V4  1  0.754805  0.273074  0.957455  1
  V  V5  1  0.254827  0.725974  0.542082  1
  V  V6  1  0.244800  0.725573  0.044629  1
  V  V7  1  0.744925  0.275623  0.455826  1
  F  F8  1  0.435028  0.709342  0.923723  1
  F  F9  1  0.934182  0.291713  0.576907  1
  F  F10  1  0.565446  0.290520  0.077749  1
  F  F11  1  0.063044  0.710314  0.421389  1
  F  F12  1  0.465513  0.284495  0.540262  1
  F  F13  1  0.965999  0.715948  0.959866  1
  F  F14  1  0.534022  0.717512  0.456961  1
  F  F15  1  0.034688  0.283552  0.040655  1
  F  F16  1  0.765379  0.497487  0.867594  1
  F  F17  1  0.265401  0.502003  0.631714  1
  F  F18  1  0.234588  0.501793  0.133160  1
  F  F19  1  0.735327  0.500466  0.366934  1
  F  F20  1  0.760922  0.050479  0.046161  1
  F  F21  1  0.261558  0.948573  0.455522  1
  F  F22  1  0.239913  0.948100  0.956751  1
  F  F23  1  0.739061  0.052961  0.543542  1
  F  F24  1  0.981938  0.730535  0.630258  1
  F  F25  1  0.480860  0.268940  0.869656  1
  F  F26  1  0.018567  0.269802  0.368722  1
  F  F27  1  0.518498  0.732263  0.132297  1
  F  F28  1  0.053129  0.742849  0.166764  1
  F  F29  1  0.555277  0.258936  0.333174  1
  F  F30  1  0.944234  0.257641  0.833982  1
  F  F31  1  0.445195  0.741669  0.665382  1
  F  F32  1  0.408342  0.967684  0.227805  1
  F  F33  1  0.905746  0.029121  0.272160  1
  F  F34  1  0.595107  0.030876  0.772630  1
  F  F35  1  0.094320  0.968490  0.727499  1
