# generated using pymatgen
data_Y4ThAl2Ru3
_symmetry_space_group_name_H-M   'P 1'
_cell_length_a   8.43778562
_cell_length_b   8.42704971
_cell_length_c   8.41456952
_cell_angle_alpha   109.84484552
_cell_angle_beta   109.49109620
_cell_angle_gamma   109.40366382
_symmetry_Int_Tables_number   1
_chemical_formula_structural   Y4ThAl2Ru3
_chemical_formula_sum   'Y8 Th2 Al4 Ru6'
_cell_volume   458.72169404
_cell_formula_units_Z   2
loop_
 _symmetry_equiv_pos_site_id
 _symmetry_equiv_pos_as_xyz
  1  'x, y, z'
loop_
 _atom_site_type_symbol
 _atom_site_label
 _atom_site_symmetry_multiplicity
 _atom_site_fract_x
 _atom_site_fract_y
 _atom_site_fract_z
 _atom_site_occupancy
  Y  Y0  1  0.781437  0.783945  0.778856  1
  Y  Y1  1  0.317567  0.566825  0.752358  1
  Y  Y2  1  0.749281  0.315780  0.567449  1
  Y  Y3  1  0.567315  0.747760  0.313763  1
  Y  Y4  1  0.717265  0.501295  0.997377  1
  Y  Y5  1  0.999499  0.719282  0.505520  1
  Y  Y6  1  0.499611  0.993531  0.715483  1
  Y  Y7  1  0.253248  0.186964  0.932632  1
  Th  Th8  1  0.940147  0.252453  0.192671  1
  Th  Th9  1  0.190331  0.938263  0.250578  1
  Al  Al10  1  0.417568  0.413464  0.411116  1
  Al  Al11  1  0.092330  0.493614  0.994578  1
  Al  Al12  1  0.997257  0.092024  0.505586  1
  Al  Al13  1  0.499827  0.004939  0.091732  1
  Ru  Ru14  1  0.872060  0.122236  0.749235  1
  Ru  Ru15  1  0.755015  0.893892  0.125733  1
  Ru  Ru16  1  0.127820  0.756161  0.896072  1
  Ru  Ru17  1  0.234431  0.606559  0.364132  1
  Ru  Ru18  1  0.360596  0.232502  0.604966  1
  Ru  Ru19  1  0.627395  0.378514  0.250161  1
