# generated using pymatgen
data_TiNb3(MoRh9)2
_symmetry_space_group_name_H-M   'P 1'
_cell_length_a   5.52460500
_cell_length_b   5.52460501
_cell_length_c   13.38833800
_cell_angle_alpha   90.00000000
_cell_angle_beta   90.00000000
_cell_angle_gamma   120.00000592
_symmetry_Int_Tables_number   1
_chemical_formula_structural   TiNb3(MoRh9)2
_chemical_formula_sum   'Ti1 Nb3 Mo2 Rh18'
_cell_volume   353.88303145
_cell_formula_units_Z   1
loop_
 _symmetry_equiv_pos_site_id
 _symmetry_equiv_pos_as_xyz
  1  'x, y, z'
loop_
 _atom_site_type_symbol
 _atom_site_label
 _atom_site_symmetry_multiplicity
 _atom_site_fract_x
 _atom_site_fract_y
 _atom_site_fract_z
 _atom_site_occupancy
  Ti  Ti0  1  0.000000  0.000000  0.248735  1
  Nb  Nb1  1  0.666667  0.333333  0.587493  1
  Nb  Nb2  1  0.666667  0.333333  0.913836  1
  Nb  Nb3  1  0.333333  0.666667  0.089574  1
  Mo  Mo4  1  0.000000  0.000000  0.749648  1
  Mo  Mo5  1  0.333333  0.666667  0.408889  1
  Rh  Rh6  1  0.502624  0.497376  0.251754  1
  Rh  Rh7  1  0.502624  0.005248  0.251754  1
  Rh  Rh8  1  0.994752  0.497376  0.251754  1
  Rh  Rh9  1  0.496055  0.503945  0.749787  1
  Rh  Rh10  1  0.496055  0.992110  0.749787  1
  Rh  Rh11  1  0.007890  0.503945  0.749787  1
  Rh  Rh12  1  0.163988  0.327974  0.915441  1
  Rh  Rh13  1  0.672026  0.836012  0.915441  1
  Rh  Rh14  1  0.163988  0.836012  0.915441  1
  Rh  Rh15  1  0.834669  0.669341  0.084061  1
  Rh  Rh16  1  0.330659  0.165331  0.084061  1
  Rh  Rh17  1  0.834669  0.165331  0.084061  1
  Rh  Rh18  1  0.835165  0.670332  0.416772  1
  Rh  Rh19  1  0.329668  0.164835  0.416772  1
  Rh  Rh20  1  0.835165  0.164835  0.416772  1
  Rh  Rh21  1  0.164924  0.329847  0.582793  1
  Rh  Rh22  1  0.670153  0.835076  0.582793  1
  Rh  Rh23  1  0.164924  0.835076  0.582793  1
