# generated using pymatgen
data_Nd2Tm2Al17GaIr6
_symmetry_space_group_name_H-M   'P 1'
_cell_length_a   7.56608064
_cell_length_b   7.56608008
_cell_length_c   9.54376200
_cell_angle_alpha   90.00000000
_cell_angle_beta   90.00000000
_cell_angle_gamma   119.35706047
_symmetry_Int_Tables_number   1
_chemical_formula_structural   Nd2Tm2Al17GaIr6
_chemical_formula_sum   'Nd2 Tm2 Al17 Ga1 Ir6'
_cell_volume   476.17817566
_cell_formula_units_Z   1
loop_
 _symmetry_equiv_pos_site_id
 _symmetry_equiv_pos_as_xyz
  1  'x, y, z'
loop_
 _atom_site_type_symbol
 _atom_site_label
 _atom_site_symmetry_multiplicity
 _atom_site_fract_x
 _atom_site_fract_y
 _atom_site_fract_z
 _atom_site_occupancy
  Nd  Nd0  1  0.994023  0.674613  0.250000  1
  Nd  Nd1  1  0.674613  0.994023  0.250000  1
  Tm  Tm2  1  0.005100  0.326628  0.750000  1
  Tm  Tm3  1  0.326628  0.005100  0.750000  1
  Al  Al4  1  0.870522  0.870522  0.750000  1
  Al  Al5  1  0.003050  0.335969  0.068394  1
  Al  Al6  1  0.999248  0.663761  0.922211  1
  Al  Al7  1  0.999248  0.663761  0.577789  1
  Al  Al8  1  0.335969  0.003050  0.431606  1
  Al  Al9  1  0.003050  0.335969  0.431606  1
  Al  Al10  1  0.663761  0.999248  0.577789  1
  Al  Al11  1  0.663761  0.999248  0.922211  1
  Al  Al12  1  0.335969  0.003050  0.068394  1
  Al  Al13  1  0.332627  0.332627  0.556803  1
  Al  Al14  1  0.664642  0.664642  0.456141  1
  Al  Al15  1  0.664642  0.664642  0.043859  1
  Al  Al16  1  0.332627  0.332627  0.943197  1
  Al  Al17  1  0.338492  0.547127  0.250000  1
  Al  Al18  1  0.659948  0.449257  0.750000  1
  Al  Al19  1  0.547127  0.338492  0.250000  1
  Al  Al20  1  0.449257  0.659948  0.750000  1
  Ga  Ga21  1  0.138196  0.138196  0.250000  1
  Ir  Ir22  1  0.670465  0.327171  0.997598  1
  Ir  Ir23  1  0.327171  0.670465  0.997598  1
  Ir  Ir24  1  0.327171  0.670465  0.502402  1
  Ir  Ir25  1  0.670465  0.327171  0.502402  1
  Ir  Ir26  1  0.001116  0.001116  0.994417  1
  Ir  Ir27  1  0.001116  0.001116  0.505583  1
