# generated using pymatgen
data_Li4Ac3SmPb4
_symmetry_space_group_name_H-M   'P 1'
_cell_length_a   4.94414300
_cell_length_b   7.96832309
_cell_length_c   8.59242200
_cell_angle_alpha   90.00854225
_cell_angle_beta   90.00000000
_cell_angle_gamma   90.00000000
_symmetry_Int_Tables_number   1
_chemical_formula_structural   Li4Ac3SmPb4
_chemical_formula_sum   'Li4 Ac3 Sm1 Pb4'
_cell_volume   338.51159719
_cell_formula_units_Z   1
loop_
 _symmetry_equiv_pos_site_id
 _symmetry_equiv_pos_as_xyz
  1  'x, y, z'
loop_
 _atom_site_type_symbol
 _atom_site_label
 _atom_site_symmetry_multiplicity
 _atom_site_fract_x
 _atom_site_fract_y
 _atom_site_fract_z
 _atom_site_occupancy
  Li  Li0  1  0.250000  0.824075  0.925229  1
  Li  Li1  1  0.750000  0.174214  0.082635  1
  Li  Li2  1  0.750000  0.684369  0.419476  1
  Li  Li3  1  0.250000  0.313197  0.576307  1
  Ac  Ac4  1  0.250000  0.498002  0.220159  1
  Ac  Ac5  1  0.750000  0.503081  0.782273  1
  Ac  Ac6  1  0.750000  0.001615  0.715710  1
  Sm  Sm7  1  0.250000  0.996768  0.277528  1
  Pb  Pb8  1  0.250000  0.727471  0.582576  1
  Pb  Pb9  1  0.750000  0.266831  0.405052  1
  Pb  Pb10  1  0.750000  0.788772  0.097710  1
  Pb  Pb11  1  0.250000  0.221607  0.915346  1
