# generated using pymatgen
data_TmLu7Re(B8Os)3
_symmetry_space_group_name_H-M   'P 1'
_cell_length_a   3.60570100
_cell_length_b   9.03919675
_cell_length_c   11.41137101
_cell_angle_alpha   90.08184197
_cell_angle_beta   90.00000000
_cell_angle_gamma   90.00000000
_symmetry_Int_Tables_number   1
_chemical_formula_structural   TmLu7Re(B8Os)3
_chemical_formula_sum   'Tm1 Lu7 Re1 B24 Os3'
_cell_volume   371.92633651
_cell_formula_units_Z   1
loop_
 _symmetry_equiv_pos_site_id
 _symmetry_equiv_pos_as_xyz
  1  'x, y, z'
loop_
 _atom_site_type_symbol
 _atom_site_label
 _atom_site_symmetry_multiplicity
 _atom_site_fract_x
 _atom_site_fract_y
 _atom_site_fract_z
 _atom_site_occupancy
  Tm  Tm0  1  0.000000  0.321437  0.414960  1
  Lu  Lu1  1  0.000000  0.681444  0.588391  1
  Lu  Lu2  1  0.000000  0.821627  0.083251  1
  Lu  Lu3  1  0.000000  0.177023  0.913159  1
  Lu  Lu4  1  0.000000  0.943499  0.372430  1
  Lu  Lu5  1  0.000000  0.055565  0.627504  1
  Lu  Lu6  1  0.000000  0.443215  0.127267  1
  Lu  Lu7  1  0.000000  0.556413  0.873086  1
  Re  Re8  1  0.000000  0.862456  0.821196  1
  B  B9  1  0.500000  0.553767  0.433880  1
  B  B10  1  0.500000  0.446718  0.566552  1
  B  B11  1  0.500000  0.053274  0.066644  1
  B  B12  1  0.500000  0.947439  0.933866  1
  B  B13  1  0.500000  0.749497  0.420190  1
  B  B14  1  0.500000  0.250597  0.579968  1
  B  B15  1  0.500000  0.249069  0.079934  1
  B  B16  1  0.500000  0.750402  0.920025  1
  B  B17  1  0.500000  0.791547  0.265510  1
  B  B18  1  0.500000  0.208176  0.733733  1
  B  B19  1  0.500000  0.291814  0.234283  1
  B  B20  1  0.500000  0.707474  0.765522  1
  B  B21  1  0.500000  0.630592  0.184454  1
  B  B22  1  0.500000  0.368977  0.815110  1
  B  B23  1  0.500000  0.130942  0.315504  1
  B  B24  1  0.500000  0.869215  0.684683  1
  B  B25  1  0.500000  0.981659  0.212855  1
  B  B26  1  0.500000  0.019284  0.787100  1
  B  B27  1  0.500000  0.481808  0.287423  1
  B  B28  1  0.500000  0.518428  0.712870  1
  B  B29  1  0.500000  0.604006  0.029393  1
  B  B30  1  0.500000  0.394363  0.971065  1
  B  B31  1  0.500000  0.105000  0.470706  1
  B  B32  1  0.500000  0.895235  0.528496  1
  Os  Os33  1  0.000000  0.637657  0.321140  1
  Os  Os34  1  0.000000  0.362662  0.678455  1
  Os  Os35  1  0.000000  0.137725  0.179392  1
