# generated using pymatgen
data_Nd3Ho13Cd4Ni3Os
_symmetry_space_group_name_H-M   'P 1'
_cell_length_a   9.61278871
_cell_length_b   9.61805499
_cell_length_c   9.61664994
_cell_angle_alpha   59.82380180
_cell_angle_beta   59.61957584
_cell_angle_gamma   59.39647735
_symmetry_Int_Tables_number   1
_chemical_formula_structural   Nd3Ho13Cd4Ni3Os
_chemical_formula_sum   'Nd3 Ho13 Cd4 Ni3 Os1'
_cell_volume   623.15976579
_cell_formula_units_Z   1
loop_
 _symmetry_equiv_pos_site_id
 _symmetry_equiv_pos_as_xyz
  1  'x, y, z'
loop_
 _atom_site_type_symbol
 _atom_site_label
 _atom_site_symmetry_multiplicity
 _atom_site_fract_x
 _atom_site_fract_y
 _atom_site_fract_z
 _atom_site_occupancy
  Nd  Nd0  1  0.190240  0.806606  0.188648  1
  Nd  Nd1  1  0.817679  0.820574  0.183158  1
  Nd  Nd2  1  0.186861  0.185883  0.809756  1
  Ho  Ho3  1  0.598210  0.597821  0.596881  1
  Ho  Ho4  1  0.602191  0.601355  0.207162  1
  Ho  Ho5  1  0.600850  0.204477  0.602297  1
  Ho  Ho6  1  0.205702  0.597587  0.601806  1
  Ho  Ho7  1  0.062798  0.434420  0.437794  1
  Ho  Ho8  1  0.437899  0.062591  0.061739  1
  Ho  Ho9  1  0.436468  0.061849  0.437437  1
  Ho  Ho10  1  0.061660  0.435446  0.061681  1
  Ho  Ho11  1  0.438321  0.437208  0.059913  1
  Ho  Ho12  1  0.061094  0.062925  0.434045  1
  Ho  Ho13  1  0.187843  0.812568  0.808147  1
  Ho  Ho14  1  0.797551  0.196523  0.192433  1
  Ho  Ho15  1  0.813028  0.188975  0.812024  1
  Cd  Cd16  1  0.832122  0.830456  0.828555  1
  Cd  Cd17  1  0.827071  0.831185  0.509893  1
  Cd  Cd18  1  0.827088  0.505603  0.831842  1
  Cd  Cd19  1  0.509548  0.825623  0.828409  1
  Ni  Ni20  1  0.393487  0.394032  0.826081  1
  Ni  Ni21  1  0.388126  0.825185  0.397251  1
  Ni  Ni22  1  0.825190  0.389668  0.394136  1
  Os  Os23  1  0.398974  0.391439  0.388913  1
