# generated using pymatgen
data_Hf3Ti3Ge2Bi
_symmetry_space_group_name_H-M   'P 1'
_cell_length_a   7.17718800
_cell_length_b   7.17718788
_cell_length_c   3.85460500
_cell_angle_alpha   90.00000000
_cell_angle_beta   90.00000000
_cell_angle_gamma   120.00000054
_symmetry_Int_Tables_number   1
_chemical_formula_structural   Hf3Ti3Ge2Bi
_chemical_formula_sum   'Hf3 Ti3 Ge2 Bi1'
_cell_volume   171.95671792
_cell_formula_units_Z   1
loop_
 _symmetry_equiv_pos_site_id
 _symmetry_equiv_pos_as_xyz
  1  'x, y, z'
loop_
 _atom_site_type_symbol
 _atom_site_label
 _atom_site_symmetry_multiplicity
 _atom_site_fract_x
 _atom_site_fract_y
 _atom_site_fract_z
 _atom_site_occupancy
  Hf  Hf0  1  0.388077  0.978749  0.500001  1
  Hf  Hf1  1  0.021251  0.409327  0.500001  1
  Hf  Hf2  1  0.590672  0.611923  0.500001  1
  Ti  Ti3  1  0.755199  0.989296  0.000000  1
  Ti  Ti4  1  0.234097  0.244802  0.000000  1
  Ti  Ti5  1  0.010704  0.765902  0.000000  1
  Ge  Ge6  1  0.333333  0.666666  0.000000  1
  Ge  Ge7  1  0.000000  0.000000  0.500001  1
  Bi  Bi8  1  0.666667  0.333333  0.000000  1
