# generated using pymatgen
data_DyTh3Re16Si7Ge
_symmetry_space_group_name_H-M   'P 1'
_cell_length_a   4.16630400
_cell_length_b   7.31851197
_cell_length_c   15.60287351
_cell_angle_alpha   90.28169826
_cell_angle_beta   90.00000000
_cell_angle_gamma   90.00000000
_symmetry_Int_Tables_number   1
_chemical_formula_structural   DyTh3Re16Si7Ge
_chemical_formula_sum   'Dy1 Th3 Re16 Si7 Ge1'
_cell_volume   475.74373952
_cell_formula_units_Z   1
loop_
 _symmetry_equiv_pos_site_id
 _symmetry_equiv_pos_as_xyz
  1  'x, y, z'
loop_
 _atom_site_type_symbol
 _atom_site_label
 _atom_site_symmetry_multiplicity
 _atom_site_fract_x
 _atom_site_fract_y
 _atom_site_fract_z
 _atom_site_occupancy
  Dy  Dy0  1  0.000000  0.584628  0.117568  1
  Th  Th1  1  0.000000  0.417549  0.883956  1
  Th  Th2  1  0.500000  0.087175  0.377892  1
  Th  Th3  1  0.500000  0.915182  0.620348  1
  Re  Re4  1  0.000000  0.147890  0.052472  1
  Re  Re5  1  0.000000  0.861744  0.950724  1
  Re  Re6  1  0.500000  0.634150  0.447509  1
  Re  Re7  1  0.500000  0.356403  0.551400  1
  Re  Re8  1  0.000000  0.732849  0.318448  1
  Re  Re9  1  0.000000  0.260653  0.679690  1
  Re  Re10  1  0.500000  0.239425  0.176986  1
  Re  Re11  1  0.500000  0.762467  0.822816  1
  Re  Re12  1  0.000000  0.426517  0.417906  1
  Re  Re13  1  0.000000  0.567000  0.580900  1
  Re  Re14  1  0.500000  0.934167  0.082929  1
  Re  Re15  1  0.500000  0.071881  0.921313  1
  Re  Re16  1  0.000000  0.989533  0.204432  1
  Re  Re17  1  0.000000  0.002078  0.795211  1
  Re  Re18  1  0.500000  0.494683  0.291764  1
  Re  Re19  1  0.500000  0.501414  0.707366  1
  Si  Si20  1  0.000000  0.175579  0.525288  1
  Si  Si21  1  0.500000  0.336535  0.025536  1
  Si  Si22  1  0.500000  0.673540  0.978216  1
  Si  Si23  1  0.000000  0.301690  0.267926  1
  Si  Si24  1  0.000000  0.697289  0.727701  1
  Si  Si25  1  0.500000  0.790800  0.223677  1
  Si  Si26  1  0.500000  0.198637  0.774880  1
  Ge  Ge27  1  0.000000  0.838544  0.475148  1
