# generated using pymatgen
data_LaCe2Pa(ZnRh)4
_symmetry_space_group_name_H-M   'P 1'
_cell_length_a   3.87423900
_cell_length_b   7.50955549
_cell_length_c   16.44416049
_cell_angle_alpha   90.17205038
_cell_angle_beta   90.00000000
_cell_angle_gamma   90.00000000
_symmetry_Int_Tables_number   1
_chemical_formula_structural   LaCe2Pa(ZnRh)4
_chemical_formula_sum   'La2 Ce4 Pa2 Zn8 Rh8'
_cell_volume   478.42116884
_cell_formula_units_Z   2
loop_
 _symmetry_equiv_pos_site_id
 _symmetry_equiv_pos_as_xyz
  1  'x, y, z'
loop_
 _atom_site_type_symbol
 _atom_site_label
 _atom_site_symmetry_multiplicity
 _atom_site_fract_x
 _atom_site_fract_y
 _atom_site_fract_z
 _atom_site_occupancy
  La  La0  1  0.250000  0.062533  0.714377  1
  La  La1  1  0.250000  0.172573  0.940915  1
  Ce  Ce2  1  0.750000  0.940167  0.284970  1
  Ce  Ce3  1  0.250000  0.556254  0.782992  1
  Ce  Ce4  1  0.750000  0.433358  0.215537  1
  Ce  Ce5  1  0.750000  0.326571  0.438934  1
  Pa  Pa6  1  0.250000  0.675025  0.558048  1
  Pa  Pa7  1  0.750000  0.821016  0.062582  1
  Zn  Zn8  1  0.250000  0.106454  0.156066  1
  Zn  Zn9  1  0.750000  0.503817  0.942747  1
  Zn  Zn10  1  0.750000  0.008606  0.558061  1
  Zn  Zn11  1  0.750000  0.390881  0.650275  1
  Zn  Zn12  1  0.750000  0.875359  0.847552  1
  Zn  Zn13  1  0.250000  0.490782  0.062629  1
  Zn  Zn14  1  0.250000  0.611826  0.345271  1
  Zn  Zn15  1  0.250000  0.996371  0.439463  1
  Rh  Rh16  1  0.750000  0.738038  0.444649  1
  Rh  Rh17  1  0.750000  0.284548  0.811765  1
  Rh  Rh18  1  0.750000  0.744285  0.674346  1
  Rh  Rh19  1  0.250000  0.749169  0.177779  1
  Rh  Rh20  1  0.250000  0.758486  0.947979  1
  Rh  Rh21  1  0.250000  0.269789  0.556150  1
  Rh  Rh22  1  0.750000  0.243836  0.070737  1
  Rh  Rh23  1  0.250000  0.240258  0.316176  1
