# generated using pymatgen
data_Tb2YU5(ReB6)4
_symmetry_space_group_name_H-M   'P 1'
_cell_length_a   3.64356000
_cell_length_b   9.31257880
_cell_length_c   11.41700201
_cell_angle_alpha   89.97440288
_cell_angle_beta   90.00000000
_cell_angle_gamma   90.00000000
_symmetry_Int_Tables_number   1
_chemical_formula_structural   Tb2YU5(ReB6)4
_chemical_formula_sum   'Tb2 Y1 U5 Re4 B24'
_cell_volume   387.38956691
_cell_formula_units_Z   1
loop_
 _symmetry_equiv_pos_site_id
 _symmetry_equiv_pos_as_xyz
  1  'x, y, z'
loop_
 _atom_site_type_symbol
 _atom_site_label
 _atom_site_symmetry_multiplicity
 _atom_site_fract_x
 _atom_site_fract_y
 _atom_site_fract_z
 _atom_site_occupancy
  Tb  Tb0  1  0.000000  0.336742  0.407677  1
  Tb  Tb1  1  0.000000  0.663483  0.591911  1
  Y  Y2  1  0.000000  0.835433  0.093004  1
  U  U3  1  0.000000  0.163498  0.907178  1
  U  U4  1  0.000000  0.956100  0.396854  1
  U  U5  1  0.000000  0.042948  0.603460  1
  U  U6  1  0.000000  0.457633  0.103528  1
  U  U7  1  0.000000  0.543460  0.897160  1
  Re  Re8  1  0.000000  0.645562  0.318739  1
  Re  Re9  1  0.000000  0.352300  0.684229  1
  Re  Re10  1  0.000000  0.145989  0.177805  1
  Re  Re11  1  0.000000  0.857671  0.819653  1
  B  B12  1  0.500000  0.551781  0.431061  1
  B  B13  1  0.500000  0.447491  0.569936  1
  B  B14  1  0.500000  0.052618  0.067471  1
  B  B15  1  0.500000  0.950480  0.930293  1
  B  B16  1  0.500000  0.743042  0.423053  1
  B  B17  1  0.500000  0.256972  0.577024  1
  B  B18  1  0.500000  0.242743  0.075778  1
  B  B19  1  0.500000  0.756516  0.922613  1
  B  B20  1  0.500000  0.801948  0.275212  1
  B  B21  1  0.500000  0.196807  0.726459  1
  B  B22  1  0.500000  0.301905  0.224702  1
  B  B23  1  0.500000  0.698379  0.775015  1
  B  B24  1  0.500000  0.643402  0.188712  1
  B  B25  1  0.500000  0.355037  0.812285  1
  B  B26  1  0.500000  0.143874  0.310896  1
  B  B27  1  0.500000  0.855776  0.688450  1
  B  B28  1  0.500000  0.989148  0.219474  1
  B  B29  1  0.500000  0.013433  0.781094  1
  B  B30  1  0.500000  0.488661  0.280684  1
  B  B31  1  0.500000  0.511195  0.719834  1
  B  B32  1  0.500000  0.640433  0.038659  1
  B  B33  1  0.500000  0.357267  0.960468  1
  B  B34  1  0.500000  0.139842  0.460911  1
  B  B35  1  0.500000  0.860433  0.538716  1
