# generated using pymatgen
data_Tb3Dy(YBi)6
_symmetry_space_group_name_H-M   'P 1'
_cell_length_a   9.23142600
_cell_length_b   9.23142476
_cell_length_c   6.37194400
_cell_angle_alpha   90.00000000
_cell_angle_beta   90.00000000
_cell_angle_gamma   120.00000444
_symmetry_Int_Tables_number   1
_chemical_formula_structural   Tb3Dy(YBi)6
_chemical_formula_sum   'Tb3 Dy1 Y6 Bi6'
_cell_volume   470.26222006
_cell_formula_units_Z   1
loop_
 _symmetry_equiv_pos_site_id
 _symmetry_equiv_pos_as_xyz
  1  'x, y, z'
loop_
 _atom_site_type_symbol
 _atom_site_label
 _atom_site_symmetry_multiplicity
 _atom_site_fract_x
 _atom_site_fract_y
 _atom_site_fract_z
 _atom_site_occupancy
  Tb  Tb0  1  0.333333  0.666667  0.000000  1
  Tb  Tb1  1  0.333333  0.666667  0.500000  1
  Tb  Tb2  1  0.666667  0.333333  0.500000  1
  Dy  Dy3  1  0.666667  0.333333  0.000000  1
  Y  Y4  1  0.755470  0.755467  0.750015  1
  Y  Y5  1  0.244533  0.000003  0.750015  1
  Y  Y6  1  0.999997  0.244530  0.750015  1
  Y  Y7  1  0.244533  0.244530  0.249985  1
  Y  Y8  1  0.755470  0.000003  0.249985  1
  Y  Y9  1  0.999997  0.755467  0.249985  1
  Bi  Bi10  1  0.387570  0.387493  0.750068  1
  Bi  Bi11  1  0.612507  0.000077  0.750068  1
  Bi  Bi12  1  0.999923  0.612430  0.750068  1
  Bi  Bi13  1  0.612507  0.612430  0.249932  1
  Bi  Bi14  1  0.387570  0.000077  0.249932  1
  Bi  Bi15  1  0.999923  0.387493  0.249932  1
