# generated using pymatgen
data_Ho5BeP11Ir19
_symmetry_space_group_name_H-M   'P 1'
_cell_length_a   12.70309792
_cell_length_b   12.65900415
_cell_length_c   3.96467800
_cell_angle_alpha   90.00000000
_cell_angle_beta   90.00000000
_cell_angle_gamma   120.16963242
_symmetry_Int_Tables_number   1
_chemical_formula_structural   Ho5BeP11Ir19
_chemical_formula_sum   'Ho5 Be1 P11 Ir19'
_cell_volume   551.19192665
_cell_formula_units_Z   1
loop_
 _symmetry_equiv_pos_site_id
 _symmetry_equiv_pos_as_xyz
  1  'x, y, z'
loop_
 _atom_site_type_symbol
 _atom_site_label
 _atom_site_symmetry_multiplicity
 _atom_site_fract_x
 _atom_site_fract_y
 _atom_site_fract_z
 _atom_site_occupancy
  Ho  Ho0  1  0.345074  0.667243  0.500000  1
  Ho  Ho1  1  0.666892  0.333615  0.500000  1
  Ho  Ho2  1  0.998805  0.816717  0.000000  1
  Ho  Ho3  1  0.182866  0.183853  0.000000  1
  Ho  Ho4  1  0.810504  0.994355  0.000000  1
  Be  Be5  1  0.520043  0.684883  0.000000  1
  P  P6  1  0.001473  0.643986  0.500000  1
  P  P7  1  0.359785  0.363757  0.500000  1
  P  P8  1  0.638911  0.994686  0.500000  1
  P  P9  1  0.315929  0.828196  0.000000  1
  P  P10  1  0.173808  0.484420  0.000000  1
  P  P11  1  0.482822  0.174851  0.000000  1
  P  P12  1  0.689857  0.517238  0.000000  1
  P  P13  1  0.828046  0.311016  0.000000  1
  P  P14  1  0.996133  0.175990  0.500000  1
  P  P15  1  0.818886  0.818455  0.500000  1
  P  P16  1  0.178390  0.999509  0.500000  1
  Ir  Ir17  1  0.510431  0.869429  0.000000  1
  Ir  Ir18  1  0.133571  0.639303  0.000000  1
  Ir  Ir19  1  0.355674  0.484527  0.000000  1
  Ir  Ir20  1  0.492940  0.364948  0.000000  1
  Ir  Ir21  1  0.869405  0.506952  0.000000  1
  Ir  Ir22  1  0.637588  0.134549  0.000000  1
  Ir  Ir23  1  0.001156  0.463024  0.500000  1
  Ir  Ir24  1  0.535569  0.552808  0.500000  1
  Ir  Ir25  1  0.461429  0.000949  0.500000  1
  Ir  Ir26  1  0.998773  0.284133  0.000000  1
  Ir  Ir27  1  0.713780  0.712273  0.000000  1
  Ir  Ir28  1  0.285639  0.999896  0.000000  1
  Ir  Ir29  1  0.625898  0.804881  0.500000  1
  Ir  Ir30  1  0.196813  0.819185  0.500000  1
  Ir  Ir31  1  0.176479  0.374434  0.500000  1
  Ir  Ir32  1  0.374981  0.182388  0.500000  1
  Ir  Ir33  1  0.805687  0.622061  0.500000  1
  Ir  Ir34  1  0.816241  0.192280  0.500000  1
  Ir  Ir35  1  0.999724  0.999212  0.500000  1
