# generated using pymatgen
data_Ce2In2BiPd3
_symmetry_space_group_name_H-M   'P 1'
_cell_length_a   8.74781500
_cell_length_b   8.74781487
_cell_length_c   15.49342400
_cell_angle_alpha   90.00000000
_cell_angle_beta   90.00000000
_cell_angle_gamma   120.00001839
_symmetry_Int_Tables_number   1
_chemical_formula_structural   Ce2In2BiPd3
_chemical_formula_sum   'Ce2 In2 Bi1 Pd3'
_cell_volume   1026.77936162
_cell_formula_units_Z   1
loop_
 _symmetry_equiv_pos_site_id
 _symmetry_equiv_pos_as_xyz
  1  'x, y, z'
loop_
 _atom_site_type_symbol
 _atom_site_label
 _atom_site_symmetry_multiplicity
 _atom_site_fract_x
 _atom_site_fract_y
 _atom_site_fract_z
 _atom_site_occupancy
  Ce  Ce0  1  0.666667  0.333333  0.702601  1
  Ce  Ce1  1  0.333333  0.666667  0.289724  1
  In  In2  1  0.000000  0.000000  0.038143  1
  In  In3  1  0.000000  0.000000  0.499108  1
  Bi  Bi4  1  0.333333  0.666667  0.872875  1
  Pd  Pd5  1  0.666667  0.333333  0.416422  1
  Pd  Pd6  1  0.333333  0.666667  0.578248  1
  Pd  Pd7  1  0.666667  0.333333  0.102879  1
