# generated using pymatgen
data_Tm6CoNi15(P6Os)2
_symmetry_space_group_name_H-M   'P 1'
_cell_length_a   3.74568200
_cell_length_b   10.45758300
_cell_length_c   12.30633300
_cell_angle_alpha   90.00000000
_cell_angle_beta   90.00000000
_cell_angle_gamma   90.00000000
_symmetry_Int_Tables_number   1
_chemical_formula_structural   Tm6CoNi15(P6Os)2
_chemical_formula_sum   'Tm6 Co1 Ni15 P12 Os2'
_cell_volume   482.04866755
_cell_formula_units_Z   1
loop_
 _symmetry_equiv_pos_site_id
 _symmetry_equiv_pos_as_xyz
  1  'x, y, z'
loop_
 _atom_site_type_symbol
 _atom_site_label
 _atom_site_symmetry_multiplicity
 _atom_site_fract_x
 _atom_site_fract_y
 _atom_site_fract_z
 _atom_site_occupancy
  Tm  Tm0  1  0.000000  0.500000  0.524767  1
  Tm  Tm1  1  0.500000  0.000000  0.475342  1
  Tm  Tm2  1  0.500000  0.815499  0.208310  1
  Tm  Tm3  1  0.500000  0.184501  0.208310  1
  Tm  Tm4  1  0.000000  0.684434  0.791050  1
  Tm  Tm5  1  0.000000  0.315566  0.791050  1
  Co  Co6  1  0.500000  0.000000  0.016428  1
  Ni  Ni7  1  0.500000  0.500000  0.700136  1
  Ni  Ni8  1  0.000000  0.000000  0.297607  1
  Ni  Ni9  1  0.000000  0.500000  0.981429  1
  Ni  Ni10  1  0.500000  0.330860  0.985827  1
  Ni  Ni11  1  0.500000  0.669140  0.985827  1
  Ni  Ni12  1  0.000000  0.168325  0.013863  1
  Ni  Ni13  1  0.000000  0.831675  0.013863  1
  Ni  Ni14  1  0.500000  0.302120  0.430067  1
  Ni  Ni15  1  0.500000  0.697880  0.430067  1
  Ni  Ni16  1  0.000000  0.196543  0.570286  1
  Ni  Ni17  1  0.000000  0.803457  0.570286  1
  Ni  Ni18  1  0.500000  0.879001  0.709990  1
  Ni  Ni19  1  0.500000  0.120999  0.709990  1
  Ni  Ni20  1  0.000000  0.621504  0.291372  1
  Ni  Ni21  1  0.000000  0.378496  0.291372  1
  P  P22  1  0.500000  0.500000  0.874623  1
  P  P23  1  0.000000  0.000000  0.122462  1
  P  P24  1  0.500000  0.500000  0.351256  1
  P  P25  1  0.000000  0.000000  0.649950  1
  P  P26  1  0.500000  0.314621  0.614885  1
  P  P27  1  0.500000  0.685379  0.614885  1
  P  P28  1  0.000000  0.184540  0.385126  1
  P  P29  1  0.000000  0.815460  0.385126  1
  P  P30  1  0.500000  0.849694  0.891759  1
  P  P31  1  0.500000  0.150306  0.891759  1
  P  P32  1  0.000000  0.649468  0.109301  1
  P  P33  1  0.000000  0.350532  0.109301  1
  Os  Os34  1  0.500000  0.500000  0.158549  1
  Os  Os35  1  0.000000  0.000000  0.843778  1
