# generated using pymatgen
data_Dy11Cd6In(Ni2Hg)2
_symmetry_space_group_name_H-M   'P 1'
_cell_length_a   3.61133700
_cell_length_b   12.98268730
_cell_length_c   13.00817163
_cell_angle_alpha   112.67984973
_cell_angle_beta   90.00000000
_cell_angle_gamma   90.00000000
_symmetry_Int_Tables_number   1
_chemical_formula_structural   Dy11Cd6In(Ni2Hg)2
_chemical_formula_sum   'Dy11 Cd6 In1 Ni4 Hg2'
_cell_volume   562.72607378
_cell_formula_units_Z   1
loop_
 _symmetry_equiv_pos_site_id
 _symmetry_equiv_pos_as_xyz
  1  'x, y, z'
loop_
 _atom_site_type_symbol
 _atom_site_label
 _atom_site_symmetry_multiplicity
 _atom_site_fract_x
 _atom_site_fract_y
 _atom_site_fract_z
 _atom_site_occupancy
  Dy  Dy0  1  0.000000  0.917456  0.582563  1
  Dy  Dy1  1  0.000000  0.082544  0.417437  1
  Dy  Dy2  1  0.000000  0.585119  0.917517  1
  Dy  Dy3  1  0.000000  0.414881  0.082483  1
  Dy  Dy4  1  0.000000  0.162506  0.839070  1
  Dy  Dy5  1  0.000000  0.837494  0.160930  1
  Dy  Dy6  1  0.000000  0.373708  0.625590  1
  Dy  Dy7  1  0.000000  0.626292  0.374410  1
  Dy  Dy8  1  0.000000  0.690449  0.691442  1
  Dy  Dy9  1  0.000000  0.309551  0.308558  1
  Dy  Dy10  1  0.000000  0.000000  0.000000  1
  Cd  Cd11  1  0.500000  0.157610  0.632953  1
  Cd  Cd12  1  0.500000  0.842390  0.367047  1
  Cd  Cd13  1  0.500000  0.631066  0.158093  1
  Cd  Cd14  1  0.500000  0.368934  0.841907  1
  Cd  Cd15  1  0.500000  0.924997  0.780575  1
  Cd  Cd16  1  0.500000  0.075003  0.219425  1
  In  In17  1  0.500000  0.500000  0.500000  1
  Ni  Ni18  1  0.500000  0.747777  0.549440  1
  Ni  Ni19  1  0.500000  0.252223  0.450560  1
  Ni  Ni20  1  0.500000  0.547322  0.746561  1
  Ni  Ni21  1  0.500000  0.452678  0.253439  1
  Hg  Hg22  1  0.500000  0.783827  0.927417  1
  Hg  Hg23  1  0.500000  0.216173  0.072583  1
