# generated using pymatgen
data_Na4DyAs12Rh19
_symmetry_space_group_name_H-M   'P 1'
_cell_length_a   13.15109587
_cell_length_b   13.11248601
_cell_length_c   3.98722100
_cell_angle_alpha   90.00000000
_cell_angle_beta   90.00000000
_cell_angle_gamma   119.90292761
_symmetry_Int_Tables_number   1
_chemical_formula_structural   Na4DyAs12Rh19
_chemical_formula_sum   'Na4 Dy1 As12 Rh19'
_cell_volume   596.03519244
_cell_formula_units_Z   1
loop_
 _symmetry_equiv_pos_site_id
 _symmetry_equiv_pos_as_xyz
  1  'x, y, z'
loop_
 _atom_site_type_symbol
 _atom_site_label
 _atom_site_symmetry_multiplicity
 _atom_site_fract_x
 _atom_site_fract_y
 _atom_site_fract_z
 _atom_site_occupancy
  Na  Na0  1  0.817126  0.816047  0.500000  1
  Na  Na1  1  0.182874  0.998922  0.500000  1
  Na  Na2  1  0.667220  0.333871  0.000000  1
  Na  Na3  1  0.332780  0.666652  0.000000  1
  Dy  Dy4  1  0.000000  0.178466  0.500000  1
  As  As5  1  0.485822  0.318655  0.500000  1
  As  As6  1  0.817343  0.996413  0.000000  1
  As  As7  1  0.182657  0.179071  0.000000  1
  As  As8  1  0.000000  0.820669  0.000000  1
  As  As9  1  0.363041  0.999949  0.000000  1
  As  As10  1  0.681043  0.167354  0.500000  1
  As  As11  1  0.833143  0.515004  0.500000  1
  As  As12  1  0.514178  0.832833  0.500000  1
  As  As13  1  0.166857  0.681860  0.500000  1
  As  As14  1  0.318957  0.486311  0.500000  1
  As  As15  1  0.000000  0.363073  0.000000  1
  As  As16  1  0.636959  0.636908  0.000000  1
  Rh  Rh17  1  0.805264  0.178250  0.000000  1
  Rh  Rh18  1  0.378203  0.198138  0.000000  1
  Rh  Rh19  1  0.644722  0.518344  0.500000  1
  Rh  Rh20  1  0.873278  0.354168  0.500000  1
  Rh  Rh21  1  0.355278  0.873623  0.500000  1
  Rh  Rh22  1  0.517783  0.645031  0.500000  1
  Rh  Rh23  1  0.126722  0.480890  0.500000  1
  Rh  Rh24  1  0.820526  0.623499  0.000000  1
  Rh  Rh25  1  0.621797  0.819934  0.000000  1
  Rh  Rh26  1  0.179474  0.802972  0.000000  1
  Rh  Rh27  1  0.194736  0.372985  0.000000  1
  Rh  Rh28  1  0.000000  0.714504  0.500000  1
  Rh  Rh29  1  0.285141  0.286128  0.500000  1
  Rh  Rh30  1  0.714859  0.000987  0.500000  1
  Rh  Rh31  1  0.000000  0.547504  0.000000  1
  Rh  Rh32  1  0.450711  0.454522  0.000000  1
  Rh  Rh33  1  0.549289  0.003811  0.000000  1
  Rh  Rh34  1  0.000000  0.005402  0.000000  1
  Rh  Rh35  1  0.482217  0.127248  0.500000  1
