# generated using pymatgen
data_CaHoTh2(Al3Ir)6
_symmetry_space_group_name_H-M   'P 1'
_cell_length_a   7.61428468
_cell_length_b   7.61489693
_cell_length_c   9.52457700
_cell_angle_alpha   90.00000000
_cell_angle_beta   90.00000000
_cell_angle_gamma   119.46125023
_symmetry_Int_Tables_number   1
_chemical_formula_structural   CaHoTh2(Al3Ir)6
_chemical_formula_sum   'Ca1 Ho1 Th2 Al18 Ir6'
_cell_volume   480.84118520
_cell_formula_units_Z   1
loop_
 _symmetry_equiv_pos_site_id
 _symmetry_equiv_pos_as_xyz
  1  'x, y, z'
loop_
 _atom_site_type_symbol
 _atom_site_label
 _atom_site_symmetry_multiplicity
 _atom_site_fract_x
 _atom_site_fract_y
 _atom_site_fract_z
 _atom_site_occupancy
  Ca  Ca0  1  0.004122  0.327766  0.750000  1
  Ho  Ho1  1  0.327390  0.004249  0.750000  1
  Th  Th2  1  0.995105  0.670581  0.250000  1
  Th  Th3  1  0.672005  0.995795  0.250000  1
  Al  Al4  1  0.134860  0.134568  0.250000  1
  Al  Al5  1  0.874030  0.872843  0.750000  1
  Al  Al6  1  0.005684  0.335569  0.068721  1
  Al  Al7  1  0.999958  0.663986  0.919029  1
  Al  Al8  1  0.999958  0.663986  0.580971  1
  Al  Al9  1  0.335591  0.005403  0.430309  1
  Al  Al10  1  0.005684  0.335569  0.431279  1
  Al  Al11  1  0.664676  0.000434  0.580910  1
  Al  Al12  1  0.664676  0.000434  0.919090  1
  Al  Al13  1  0.335591  0.005403  0.069691  1
  Al  Al14  1  0.332101  0.332525  0.554803  1
  Al  Al15  1  0.663092  0.663164  0.457100  1
  Al  Al16  1  0.663092  0.663164  0.042900  1
  Al  Al17  1  0.332101  0.332525  0.945197  1
  Al  Al18  1  0.340300  0.542917  0.250000  1
  Al  Al19  1  0.657016  0.448238  0.750000  1
  Al  Al20  1  0.543060  0.339271  0.250000  1
  Al  Al21  1  0.449299  0.661613  0.750000  1
  Ir  Ir22  1  0.671842  0.328360  0.001885  1
  Ir  Ir23  1  0.329537  0.674182  0.001838  1
  Ir  Ir24  1  0.329537  0.674182  0.498162  1
  Ir  Ir25  1  0.671842  0.328360  0.498115  1
  Ir  Ir26  1  0.998927  0.997457  0.002202  1
  Ir  Ir27  1  0.998927  0.997457  0.497798  1
