# generated using pymatgen
data_Pr3Hg5Ir
_symmetry_space_group_name_H-M   'P 1'
_cell_length_a   8.30600700
_cell_length_b   8.30600929
_cell_length_c   3.89609400
_cell_angle_alpha   90.00000000
_cell_angle_beta   90.00000000
_cell_angle_gamma   119.99998689
_symmetry_Int_Tables_number   1
_chemical_formula_structural   Pr3Hg5Ir
_chemical_formula_sum   'Pr3 Hg5 Ir1'
_cell_volume   232.77954815
_cell_formula_units_Z   1
loop_
 _symmetry_equiv_pos_site_id
 _symmetry_equiv_pos_as_xyz
  1  'x, y, z'
loop_
 _atom_site_type_symbol
 _atom_site_label
 _atom_site_symmetry_multiplicity
 _atom_site_fract_x
 _atom_site_fract_y
 _atom_site_fract_z
 _atom_site_occupancy
  Pr  Pr0  1  0.579849  0.615342  0.000000  1
  Pr  Pr1  1  0.384658  0.964507  0.000000  1
  Pr  Pr2  1  0.035493  0.420151  0.000000  1
  Hg  Hg3  1  0.997423  0.717084  0.500000  1
  Hg  Hg4  1  0.282916  0.280341  0.500000  1
  Hg  Hg5  1  0.719659  0.002577  0.500000  1
  Hg  Hg6  1  0.000000  0.000000  0.000000  1
  Hg  Hg7  1  0.666667  0.333333  0.500000  1
  Ir  Ir8  1  0.333333  0.666667  0.500000  1
