# generated using pymatgen
data_Er4Tm8Co4CuBi
_symmetry_space_group_name_H-M   'P 1'
_cell_length_a   8.23357100
_cell_length_b   8.23357054
_cell_length_c   8.23357071
_cell_angle_alpha   110.06390048
_cell_angle_beta   111.40530178
_cell_angle_gamma   106.97587609
_symmetry_Int_Tables_number   1
_chemical_formula_structural   Er4Tm8Co4CuBi
_chemical_formula_sum   'Er4 Tm8 Co4 Cu1 Bi1'
_cell_volume   429.00815952
_cell_formula_units_Z   1
loop_
 _symmetry_equiv_pos_site_id
 _symmetry_equiv_pos_as_xyz
  1  'x, y, z'
loop_
 _atom_site_type_symbol
 _atom_site_label
 _atom_site_symmetry_multiplicity
 _atom_site_fract_x
 _atom_site_fract_y
 _atom_site_fract_z
 _atom_site_occupancy
  Er  Er0  1  0.213537  0.415070  0.201533  1
  Er  Er1  1  0.786463  0.584930  0.798467  1
  Er  Er2  1  0.213537  0.012004  0.798467  1
  Er  Er3  1  0.786463  0.987996  0.201533  1
  Tm  Tm4  1  0.287391  0.182524  0.469915  1
  Tm  Tm5  1  0.712609  0.817476  0.530085  1
  Tm  Tm6  1  0.287391  0.817476  0.104866  1
  Tm  Tm7  1  0.712609  0.182524  0.895134  1
  Tm  Tm8  1  0.621488  0.313081  0.308407  1
  Tm  Tm9  1  0.378512  0.686919  0.691593  1
  Tm  Tm10  1  0.004676  0.313081  0.691593  1
  Tm  Tm11  1  0.995324  0.686919  0.308407  1
  Co  Co12  1  0.000000  0.376134  0.376134  1
  Co  Co13  1  0.000000  0.623866  0.623866  1
  Co  Co14  1  0.387028  0.887028  0.500000  1
  Co  Co15  1  0.612972  0.112972  0.500000  1
  Cu  Cu16  1  0.000000  0.000000  0.000000  1
  Bi  Bi17  1  0.500000  0.500000  0.000000  1
