# generated using pymatgen
data_HoEr7(OsI4)2
_symmetry_space_group_name_H-M   'P 1'
_cell_length_a   10.93179641
_cell_length_b   10.93185271
_cell_length_c   6.16195330
_cell_angle_alpha   89.36345502
_cell_angle_beta   89.37391387
_cell_angle_gamma   88.83301444
_symmetry_Int_Tables_number   1
_chemical_formula_structural   HoEr7(OsI4)2
_chemical_formula_sum   'Ho1 Er7 Os2 I8'
_cell_volume   736.14257875
_cell_formula_units_Z   1
loop_
 _symmetry_equiv_pos_site_id
 _symmetry_equiv_pos_as_xyz
  1  'x, y, z'
loop_
 _atom_site_type_symbol
 _atom_site_label
 _atom_site_symmetry_multiplicity
 _atom_site_fract_x
 _atom_site_fract_y
 _atom_site_fract_z
 _atom_site_occupancy
  Ho  Ho0  1  0.205123  0.915106  0.997348  1
  Er  Er1  1  0.796192  0.084408  0.002682  1
  Er  Er2  1  0.084167  0.796262  0.502686  1
  Er  Er3  1  0.915542  0.203800  0.497298  1
  Er  Er4  1  0.797811  0.919971  0.506317  1
  Er  Er5  1  0.201972  0.080195  0.493707  1
  Er  Er6  1  0.079946  0.202203  0.993705  1
  Er  Er7  1  0.919746  0.797926  0.006301  1
  Os  Os8  1  0.999802  0.000113  0.250204  1
  Os  Os9  1  0.999927  0.000006  0.749786  1
  I  I10  1  0.366655  0.840377  0.502220  1
  I  I11  1  0.633292  0.159624  0.497665  1
  I  I12  1  0.159395  0.632904  0.997721  1
  I  I13  1  0.840389  0.366729  0.002317  1
  I  I14  1  0.363103  0.152802  0.004952  1
  I  I15  1  0.636943  0.847577  0.995063  1
  I  I16  1  0.847611  0.636967  0.495084  1
  I  I17  1  0.152383  0.363027  0.504942  1
