# generated using pymatgen
data_Tm7Sc3(Sn3S)2
_symmetry_space_group_name_H-M   'P 1'
_cell_length_a   8.75911200
_cell_length_b   8.75911329
_cell_length_c   6.43111900
_cell_angle_alpha   90.00000000
_cell_angle_beta   90.00000000
_cell_angle_gamma   119.99999512
_symmetry_Int_Tables_number   1
_chemical_formula_structural   Tm7Sc3(Sn3S)2
_chemical_formula_sum   'Tm7 Sc3 Sn6 S2'
_cell_volume   427.30445633
_cell_formula_units_Z   1
loop_
 _symmetry_equiv_pos_site_id
 _symmetry_equiv_pos_as_xyz
  1  'x, y, z'
loop_
 _atom_site_type_symbol
 _atom_site_label
 _atom_site_symmetry_multiplicity
 _atom_site_fract_x
 _atom_site_fract_y
 _atom_site_fract_z
 _atom_site_occupancy
  Tm  Tm0  1  0.666667  0.333333  0.000000  1
  Tm  Tm1  1  0.752517  0.752996  0.749291  1
  Tm  Tm2  1  0.247004  0.999520  0.749291  1
  Tm  Tm3  1  0.000480  0.247483  0.749291  1
  Tm  Tm4  1  0.247004  0.247483  0.250709  1
  Tm  Tm5  1  0.752517  0.999520  0.250709  1
  Tm  Tm6  1  0.000480  0.752996  0.250709  1
  Sc  Sc7  1  0.333333  0.666667  0.000000  1
  Sc  Sc8  1  0.333333  0.666667  0.500000  1
  Sc  Sc9  1  0.666667  0.333333  0.500000  1
  Sn  Sn10  1  0.397745  0.400431  0.747219  1
  Sn  Sn11  1  0.599569  0.997314  0.747219  1
  Sn  Sn12  1  0.002686  0.602255  0.747219  1
  Sn  Sn13  1  0.599569  0.602255  0.252781  1
  Sn  Sn14  1  0.397745  0.997314  0.252781  1
  Sn  Sn15  1  0.002686  0.400431  0.252781  1
  S  S16  1  0.000000  0.000000  0.000000  1
  S  S17  1  0.000000  0.000000  0.500000  1
