# generated using pymatgen
data_Er12Co4SnPt
_symmetry_space_group_name_H-M   'P 1'
_cell_length_a   8.24412055
_cell_length_b   8.24412120
_cell_length_c   8.24412066
_cell_angle_alpha   111.02143048
_cell_angle_beta   110.64531657
_cell_angle_gamma   106.78020407
_symmetry_Int_Tables_number   1
_chemical_formula_structural   Er12Co4SnPt
_chemical_formula_sum   'Er12 Co4 Sn1 Pt1'
_cell_volume   430.61720535
_cell_formula_units_Z   1
loop_
 _symmetry_equiv_pos_site_id
 _symmetry_equiv_pos_as_xyz
  1  'x, y, z'
loop_
 _atom_site_type_symbol
 _atom_site_label
 _atom_site_symmetry_multiplicity
 _atom_site_fract_x
 _atom_site_fract_y
 _atom_site_fract_z
 _atom_site_occupancy
  Er  Er0  1  0.314630  0.618287  0.303656  1
  Er  Er1  1  0.685370  0.381714  0.696344  1
  Er  Er2  1  0.314630  0.010974  0.696344  1
  Er  Er3  1  0.685370  0.989026  0.303656  1
  Er  Er4  1  0.418429  0.217114  0.201316  1
  Er  Er5  1  0.581571  0.782886  0.798684  1
  Er  Er6  1  0.015798  0.217114  0.798684  1
  Er  Er7  1  0.984202  0.782886  0.201316  1
  Er  Er8  1  0.184351  0.287855  0.472206  1
  Er  Er9  1  0.815649  0.712145  0.527794  1
  Er  Er10  1  0.184351  0.712145  0.896496  1
  Er  Er11  1  0.815649  0.287855  0.103504  1
  Co  Co12  1  0.112539  0.612539  0.500000  1
  Co  Co13  1  0.887462  0.387462  0.500000  1
  Co  Co14  1  0.377854  0.000000  0.377854  1
  Co  Co15  1  0.622146  0.000000  0.622146  1
  Sn  Sn16  1  0.500000  0.500000  0.000000  1
  Pt  Pt17  1  0.000000  0.000000  0.000000  1
