# generated using pymatgen
data_Sc3USnGeRu3
_symmetry_space_group_name_H-M   'P 1'
_cell_length_a   6.95279700
_cell_length_b   6.95279853
_cell_length_c   4.05307800
_cell_angle_alpha   90.00000000
_cell_angle_beta   90.00000000
_cell_angle_gamma   120.00000257
_symmetry_Int_Tables_number   1
_chemical_formula_structural   Sc3USnGeRu3
_chemical_formula_sum   'Sc3 U1 Sn1 Ge1 Ru3'
_cell_volume   169.68161022
_cell_formula_units_Z   1
loop_
 _symmetry_equiv_pos_site_id
 _symmetry_equiv_pos_as_xyz
  1  'x, y, z'
loop_
 _atom_site_type_symbol
 _atom_site_label
 _atom_site_symmetry_multiplicity
 _atom_site_fract_x
 _atom_site_fract_y
 _atom_site_fract_z
 _atom_site_occupancy
  Sc  Sc0  1  0.456086  0.471046  0.000000  1
  Sc  Sc1  1  0.528954  0.985040  0.000000  1
  Sc  Sc2  1  0.014960  0.543914  0.000000  1
  U  U3  1  0.000000  0.000000  0.000000  1
  Sn  Sn4  1  0.666667  0.333333  0.500000  1
  Ge  Ge5  1  0.333333  0.666667  0.500000  1
  Ru  Ru6  1  0.014127  0.242721  0.500000  1
  Ru  Ru7  1  0.757279  0.771406  0.500000  1
  Ru  Ru8  1  0.228594  0.985873  0.500000  1
