# generated using pymatgen
data_Y3In2Pd3Pb
_symmetry_space_group_name_H-M   'P 1'
_cell_length_a   7.87496830
_cell_length_b   7.87496750
_cell_length_c   3.74820300
_cell_angle_alpha   90.00000000
_cell_angle_beta   90.00000000
_cell_angle_gamma   119.58236190
_symmetry_Int_Tables_number   1
_chemical_formula_structural   Y3In2Pd3Pb
_chemical_formula_sum   'Y3 In2 Pd3 Pb1'
_cell_volume   202.14530730
_cell_formula_units_Z   1
loop_
 _symmetry_equiv_pos_site_id
 _symmetry_equiv_pos_as_xyz
  1  'x, y, z'
loop_
 _atom_site_type_symbol
 _atom_site_label
 _atom_site_symmetry_multiplicity
 _atom_site_fract_x
 _atom_site_fract_y
 _atom_site_fract_z
 _atom_site_occupancy
  Y  Y0  1  0.402488  0.994599  0.500000  1
  Y  Y1  1  0.994599  0.402488  0.500000  1
  Y  Y2  1  0.604023  0.604023  0.500000  1
  In  In3  1  0.732179  0.999236  0.000000  1
  In  In4  1  0.999236  0.732179  0.000000  1
  Pd  Pd5  1  0.994902  0.994902  0.500000  1
  Pd  Pd6  1  0.334995  0.671221  0.000000  1
  Pd  Pd7  1  0.671221  0.334995  0.000000  1
  Pb  Pb8  1  0.266355  0.266355  0.000000  1
