# generated using pymatgen
data_Ba3ErScSe6
_symmetry_space_group_name_H-M   'P 1'
_cell_length_a   8.73233469
_cell_length_b   8.73233383
_cell_length_c   8.73233452
_cell_angle_alpha   93.00562217
_cell_angle_beta   93.00561863
_cell_angle_gamma   93.00561802
_symmetry_Int_Tables_number   1
_chemical_formula_structural   Ba3ErScSe6
_chemical_formula_sum   'Ba6 Er2 Sc2 Se12'
_cell_volume   663.02436174
_cell_formula_units_Z   2
loop_
 _symmetry_equiv_pos_site_id
 _symmetry_equiv_pos_as_xyz
  1  'x, y, z'
loop_
 _atom_site_type_symbol
 _atom_site_label
 _atom_site_symmetry_multiplicity
 _atom_site_fract_x
 _atom_site_fract_y
 _atom_site_fract_z
 _atom_site_occupancy
  Ba  Ba0  1  0.367617  0.750000  0.132383  1
  Ba  Ba1  1  0.132383  0.367617  0.750000  1
  Ba  Ba2  1  0.750000  0.132383  0.367617  1
  Ba  Ba3  1  0.632383  0.250000  0.867617  1
  Ba  Ba4  1  0.867617  0.632383  0.250000  1
  Ba  Ba5  1  0.250000  0.867617  0.632383  1
  Er  Er6  1  0.250000  0.250000  0.250000  1
  Er  Er7  1  0.750000  0.750000  0.750000  1
  Sc  Sc8  1  0.500000  0.500000  0.500000  1
  Sc  Sc9  1  0.000000  0.000000  0.000000  1
  Se  Se10  1  0.537441  0.410473  0.200684  1
  Se  Se11  1  0.200684  0.537441  0.410473  1
  Se  Se12  1  0.410473  0.200684  0.537441  1
  Se  Se13  1  0.962559  0.299316  0.089527  1
  Se  Se14  1  0.089527  0.962559  0.299316  1
  Se  Se15  1  0.299316  0.089527  0.962559  1
  Se  Se16  1  0.462559  0.589527  0.799316  1
  Se  Se17  1  0.799316  0.462559  0.589527  1
  Se  Se18  1  0.589527  0.799316  0.462559  1
  Se  Se19  1  0.037441  0.700684  0.910473  1
  Se  Se20  1  0.700684  0.910473  0.037441  1
  Se  Se21  1  0.910473  0.037441  0.700684  1
