# generated using pymatgen
data_Sm8GePd17Pt7
_symmetry_space_group_name_H-M   'P 1'
_cell_length_a   8.44862000
_cell_length_b   8.45172500
_cell_length_c   8.45303200
_cell_angle_alpha   90.00000000
_cell_angle_beta   90.00000000
_cell_angle_gamma   90.00000000
_symmetry_Int_Tables_number   1
_chemical_formula_structural   Sm8GePd17Pt7
_chemical_formula_sum   'Sm8 Ge1 Pd17 Pt7'
_cell_volume   603.59223996
_cell_formula_units_Z   1
loop_
 _symmetry_equiv_pos_site_id
 _symmetry_equiv_pos_as_xyz
  1  'x, y, z'
loop_
 _atom_site_type_symbol
 _atom_site_label
 _atom_site_symmetry_multiplicity
 _atom_site_fract_x
 _atom_site_fract_y
 _atom_site_fract_z
 _atom_site_occupancy
  Sm  Sm0  1  0.253274  0.253632  0.253272  1
  Sm  Sm1  1  0.746784  0.746598  0.746863  1
  Sm  Sm2  1  0.746784  0.746598  0.253137  1
  Sm  Sm3  1  0.746784  0.253402  0.746863  1
  Sm  Sm4  1  0.253274  0.253632  0.746728  1
  Sm  Sm5  1  0.253274  0.746368  0.253272  1
  Sm  Sm6  1  0.253274  0.746368  0.746728  1
  Sm  Sm7  1  0.746784  0.253402  0.253137  1
  Ge  Ge8  1  0.000047  0.000000  0.000000  1
  Pd  Pd9  1  0.500083  0.000000  0.259820  1
  Pd  Pd10  1  0.259829  0.000000  0.500000  1
  Pd  Pd11  1  0.500083  0.000000  0.740180  1
  Pd  Pd12  1  0.740197  0.000000  0.500000  1
  Pd  Pd13  1  0.999962  0.500000  0.259754  1
  Pd  Pd14  1  0.999962  0.500000  0.740246  1
  Pd  Pd15  1  0.747125  0.500000  0.500000  1
  Pd  Pd16  1  0.499957  0.253074  0.500000  1
  Pd  Pd17  1  0.499957  0.746926  0.500000  1
  Pd  Pd18  1  0.499995  0.500000  0.253132  1
  Pd  Pd19  1  0.499995  0.500000  0.746868  1
  Pd  Pd20  1  0.290306  0.000000  0.000000  1
  Pd  Pd21  1  0.709756  0.000000  0.000000  1
  Pd  Pd22  1  0.999909  0.290129  0.000000  1
  Pd  Pd23  1  0.999909  0.709871  0.000000  1
  Pd  Pd24  1  0.999885  0.000000  0.290149  1
  Pd  Pd25  1  0.999885  0.000000  0.709851  1
  Pt  Pt26  1  0.259550  0.500000  0.000000  1
  Pt  Pt27  1  0.740372  0.500000  0.000000  1
  Pt  Pt28  1  0.000057  0.259511  0.500000  1
  Pt  Pt29  1  0.500086  0.259473  0.000000  1
  Pt  Pt30  1  0.000057  0.740489  0.500000  1
  Pt  Pt31  1  0.500086  0.740527  0.000000  1
  Pt  Pt32  1  0.252719  0.500000  0.500000  1
