# generated using pymatgen
data_NdEuTa5WO18
_symmetry_space_group_name_H-M   'P 1'
_cell_length_a   7.61530344
_cell_length_b   5.46319837
_cell_length_c   8.27467731
_cell_angle_alpha   87.40195424
_cell_angle_beta   90.02239378
_cell_angle_gamma   89.92872302
_symmetry_Int_Tables_number   1
_chemical_formula_structural   NdEuTa5WO18
_chemical_formula_sum   'Nd1 Eu1 Ta5 W1 O18'
_cell_volume   343.90479884
_cell_formula_units_Z   1
loop_
 _symmetry_equiv_pos_site_id
 _symmetry_equiv_pos_as_xyz
  1  'x, y, z'
loop_
 _atom_site_type_symbol
 _atom_site_label
 _atom_site_symmetry_multiplicity
 _atom_site_fract_x
 _atom_site_fract_y
 _atom_site_fract_z
 _atom_site_occupancy
  Nd  Nd0  1  0.248183  0.962195  0.435053  1
  Eu  Eu1  1  0.750268  0.033441  0.564522  1
  Ta  Ta2  1  0.493436  0.525636  0.694728  1
  Ta  Ta3  1  0.994348  0.472458  0.302675  1
  Ta  Ta4  1  0.999193  0.999003  0.999256  1
  Ta  Ta5  1  0.005245  0.525279  0.696487  1
  Ta  Ta6  1  0.506755  0.472790  0.303824  1
  W  W7  1  0.499847  0.999239  0.999410  1
  O  O8  1  0.749509  0.449044  0.687237  1
  O  O9  1  0.250596  0.561678  0.308950  1
  O  O10  1  0.745158  0.081216  0.017061  1
  O  O11  1  0.254839  0.921094  0.985007  1
  O  O12  1  0.250154  0.648885  0.664375  1
  O  O13  1  0.749998  0.359524  0.334396  1
  O  O14  1  0.042084  0.267320  0.531528  1
  O  O15  1  0.533766  0.732244  0.469251  1
  O  O16  1  0.552734  0.838966  0.795824  1
  O  O17  1  0.056776  0.154159  0.212074  1
  O  O18  1  0.444108  0.156698  0.208533  1
  O  O19  1  0.948046  0.841656  0.792540  1
  O  O20  1  0.045838  0.314349  0.877589  1
  O  O21  1  0.544650  0.688745  0.123382  1
  O  O22  1  0.954459  0.685493  0.122576  1
  O  O23  1  0.455612  0.310531  0.876079  1
  O  O24  1  0.457977  0.266665  0.529887  1
  O  O25  1  0.966420  0.731692  0.467756  1
