# generated using pymatgen
data_YEr(Ni4Pt)2
_symmetry_space_group_name_H-M   'P 1'
_cell_length_a   4.01349100
_cell_length_b   5.06203540
_cell_length_c   8.48177699
_cell_angle_alpha   93.68766200
_cell_angle_beta   90.00000000
_cell_angle_gamma   90.00000000
_symmetry_Int_Tables_number   1
_chemical_formula_structural   YEr(Ni4Pt)2
_chemical_formula_sum   'Y1 Er1 Ni8 Pt2'
_cell_volume   171.96266947
_cell_formula_units_Z   1
loop_
 _symmetry_equiv_pos_site_id
 _symmetry_equiv_pos_as_xyz
  1  'x, y, z'
loop_
 _atom_site_type_symbol
 _atom_site_label
 _atom_site_symmetry_multiplicity
 _atom_site_fract_x
 _atom_site_fract_y
 _atom_site_fract_z
 _atom_site_occupancy
  Y  Y0  1  0.000000  0.500186  0.499935  1
  Er  Er1  1  0.000000  0.999824  0.999952  1
  Ni  Ni2  1  0.000000  0.976142  0.339904  1
  Ni  Ni3  1  0.000000  0.477056  0.842722  1
  Ni  Ni4  1  0.000000  0.522811  0.157379  1
  Ni  Ni5  1  0.000000  0.024034  0.660063  1
  Ni  Ni6  1  0.500000  0.999513  0.500063  1
  Ni  Ni7  1  0.500000  0.499583  0.000088  1
  Ni  Ni8  1  0.500000  0.748267  0.249688  1
  Ni  Ni9  1  0.500000  0.251892  0.749891  1
  Pt  Pt10  1  0.500000  0.247446  0.248091  1
  Pt  Pt11  1  0.500000  0.753043  0.752224  1
