# generated using pymatgen
data_SmAlCuAu4
_symmetry_space_group_name_H-M   'P 1'
_cell_length_a   5.62204804
_cell_length_b   5.62204854
_cell_length_c   5.62204878
_cell_angle_alpha   102.91361088
_cell_angle_beta   102.91361949
_cell_angle_gamma   123.57558020
_symmetry_Int_Tables_number   1
_chemical_formula_structural   SmAlCuAu4
_chemical_formula_sum   'Sm1 Al1 Cu1 Au4'
_cell_volume   130.46272646
_cell_formula_units_Z   1
loop_
 _symmetry_equiv_pos_site_id
 _symmetry_equiv_pos_as_xyz
  1  'x, y, z'
loop_
 _atom_site_type_symbol
 _atom_site_label
 _atom_site_symmetry_multiplicity
 _atom_site_fract_x
 _atom_site_fract_y
 _atom_site_fract_z
 _atom_site_occupancy
  Sm  Sm0  1  0.000000  0.000000  0.000000  1
  Al  Al1  1  0.250000  0.750000  0.500000  1
  Cu  Cu2  1  0.750000  0.250000  0.500000  1
  Au  Au3  1  0.700630  0.299370  0.000000  1
  Au  Au4  1  0.299370  0.700630  0.000000  1
  Au  Au5  1  0.299370  0.299370  0.598740  1
  Au  Au6  1  0.700630  0.700630  0.401260  1
