# generated using pymatgen
data_Na6Li4SnGeP6
_symmetry_space_group_name_H-M   'P 1'
_cell_length_a   9.43734058
_cell_length_b   9.43734122
_cell_length_c   13.73362500
_cell_angle_alpha   90.00000000
_cell_angle_beta   90.00000000
_cell_angle_gamma   143.77229354
_symmetry_Int_Tables_number   1
_chemical_formula_structural   Na6Li4SnGeP6
_chemical_formula_sum   'Na12 Li8 Sn2 Ge2 P12'
_cell_volume   722.88444510
_cell_formula_units_Z   2
loop_
 _symmetry_equiv_pos_site_id
 _symmetry_equiv_pos_as_xyz
  1  'x, y, z'
loop_
 _atom_site_type_symbol
 _atom_site_label
 _atom_site_symmetry_multiplicity
 _atom_site_fract_x
 _atom_site_fract_y
 _atom_site_fract_z
 _atom_site_occupancy
  Na  Na0  1  0.099572  0.440341  0.680186  1
  Na  Na1  1  0.735161  0.733907  0.680562  1
  Na  Na2  1  0.233907  0.235161  0.819438  1
  Na  Na3  1  0.764839  0.766093  0.180562  1
  Na  Na4  1  0.940341  0.599572  0.819814  1
  Na  Na5  1  0.559659  0.900428  0.319814  1
  Na  Na6  1  0.400428  0.059659  0.180186  1
  Na  Na7  1  0.062512  0.401263  0.176937  1
  Na  Na8  1  0.901263  0.562512  0.323063  1
  Na  Na9  1  0.437488  0.098737  0.676937  1
  Na  Na10  1  0.598737  0.937489  0.823063  1
  Na  Na11  1  0.266093  0.264839  0.319438  1
  Li  Li12  1  0.916927  0.083073  0.000000  1
  Li  Li13  1  0.583073  0.416927  0.500000  1
  Li  Li14  1  0.082123  0.917877  0.000000  1
  Li  Li15  1  0.417877  0.582123  0.500000  1
  Li  Li16  1  0.756651  0.243349  0.000000  1
  Li  Li17  1  0.743349  0.256651  0.500000  1
  Li  Li18  1  0.245908  0.754092  0.000000  1
  Li  Li19  1  0.254092  0.745908  0.500000  1
  Sn  Sn20  1  0.908638  0.091362  0.500000  1
  Sn  Sn21  1  0.591362  0.408638  0.000000  1
  Ge  Ge22  1  0.092162  0.907838  0.500000  1
  Ge  Ge23  1  0.407838  0.592162  0.000000  1
  P  P24  1  0.912601  0.579297  0.112239  1
  P  P25  1  0.420703  0.087399  0.887761  1
  P  P26  1  0.587399  0.920703  0.612239  1
  P  P27  1  0.930045  0.605885  0.605587  1
  P  P28  1  0.105885  0.430045  0.894413  1
  P  P29  1  0.569955  0.894115  0.105587  1
  P  P30  1  0.394115  0.069955  0.394413  1
  P  P31  1  0.230585  0.220241  0.600104  1
  P  P32  1  0.720241  0.730585  0.899896  1
  P  P33  1  0.269415  0.279759  0.100104  1
  P  P34  1  0.079297  0.412601  0.387761  1
  P  P35  1  0.779759  0.769415  0.399896  1
