# generated using pymatgen
data_Ho10InPb5Se2
_symmetry_space_group_name_H-M   'P 1'
_cell_length_a   9.23751500
_cell_length_b   9.23751477
_cell_length_c   6.86257600
_cell_angle_alpha   90.00000000
_cell_angle_beta   90.00000000
_cell_angle_gamma   119.91597904
_symmetry_Int_Tables_number   1
_chemical_formula_structural   Ho10InPb5Se2
_chemical_formula_sum   'Ho10 In1 Pb5 Se2'
_cell_volume   507.56909989
_cell_formula_units_Z   1
loop_
 _symmetry_equiv_pos_site_id
 _symmetry_equiv_pos_as_xyz
  1  'x, y, z'
loop_
 _atom_site_type_symbol
 _atom_site_label
 _atom_site_symmetry_multiplicity
 _atom_site_fract_x
 _atom_site_fract_y
 _atom_site_fract_z
 _atom_site_occupancy
  Ho  Ho0  1  0.749643  0.749643  0.750000  1
  Ho  Ho1  1  0.252502  0.005738  0.750000  1
  Ho  Ho2  1  0.005738  0.252502  0.750000  1
  Ho  Ho3  1  0.247664  0.247664  0.250000  1
  Ho  Ho4  1  0.750511  0.001310  0.250000  1
  Ho  Ho5  1  0.001310  0.750511  0.250000  1
  Ho  Ho6  1  0.662295  0.334619  0.998221  1
  Ho  Ho7  1  0.334619  0.662295  0.998221  1
  Ho  Ho8  1  0.334619  0.662295  0.501779  1
  Ho  Ho9  1  0.662295  0.334619  0.501779  1
  In  In10  1  0.397910  0.397910  0.750000  1
  Pb  Pb11  1  0.605021  0.001726  0.750000  1
  Pb  Pb12  1  0.001726  0.605021  0.750000  1
  Pb  Pb13  1  0.602639  0.602639  0.250000  1
  Pb  Pb14  1  0.396557  0.997916  0.250000  1
  Pb  Pb15  1  0.997916  0.396557  0.250000  1
  Se  Se16  1  0.998518  0.998518  0.000276  1
  Se  Se17  1  0.998518  0.998518  0.499724  1
