# generated using pymatgen
data_Tb10Tl4In4Ni3Rh
_symmetry_space_group_name_H-M   'P 1'
_cell_length_a   3.59998900
_cell_length_b   8.13990002
_cell_length_c   18.22046871
_cell_angle_alpha   89.86440157
_cell_angle_beta   90.00000000
_cell_angle_gamma   90.00000000
_symmetry_Int_Tables_number   1
_chemical_formula_structural   Tb10Tl4In4Ni3Rh
_chemical_formula_sum   'Tb10 Tl4 In4 Ni3 Rh1'
_cell_volume   533.92293042
_cell_formula_units_Z   1
loop_
 _symmetry_equiv_pos_site_id
 _symmetry_equiv_pos_as_xyz
  1  'x, y, z'
loop_
 _atom_site_type_symbol
 _atom_site_label
 _atom_site_symmetry_multiplicity
 _atom_site_fract_x
 _atom_site_fract_y
 _atom_site_fract_z
 _atom_site_occupancy
  Tb  Tb0  1  0.000000  0.499684  0.501244  1
  Tb  Tb1  1  0.000000  0.000270  0.998944  1
  Tb  Tb2  1  0.000000  0.743710  0.280351  1
  Tb  Tb3  1  0.000000  0.256792  0.720237  1
  Tb  Tb4  1  0.000000  0.756768  0.778540  1
  Tb  Tb5  1  0.000000  0.248656  0.221630  1
  Tb  Tb6  1  0.000000  0.616439  0.088034  1
  Tb  Tb7  1  0.000000  0.382627  0.908918  1
  Tb  Tb8  1  0.000000  0.883749  0.590169  1
  Tb  Tb9  1  0.000000  0.115390  0.410501  1
  Tl  Tl10  1  0.500000  0.705163  0.930600  1
  Tl  Tl11  1  0.500000  0.291490  0.067192  1
  Tl  Tl12  1  0.500000  0.793735  0.433498  1
  Tl  Tl13  1  0.500000  0.204841  0.568181  1
  In  In14  1  0.500000  0.577307  0.653134  1
  In  In15  1  0.500000  0.423470  0.350103  1
  In  In16  1  0.500000  0.923248  0.153256  1
  In  In17  1  0.500000  0.076246  0.845830  1
  Ni  Ni18  1  0.500000  0.472533  0.801734  1
  Ni  Ni19  1  0.500000  0.972926  0.697390  1
  Ni  Ni20  1  0.500000  0.026546  0.303238  1
  Rh  Rh21  1  0.500000  0.528411  0.197270  1
