# generated using pymatgen
data_HoLuPa4(Al3Os)8
_symmetry_space_group_name_H-M   'P 1'
_cell_length_a   8.84965220
_cell_length_b   8.84965214
_cell_length_c   9.45197700
_cell_angle_alpha   90.00000000
_cell_angle_beta   90.00000000
_cell_angle_gamma   119.66471941
_symmetry_Int_Tables_number   1
_chemical_formula_structural   HoLuPa4(Al3Os)8
_chemical_formula_sum   'Ho1 Lu1 Pa4 Al24 Os8'
_cell_volume   643.22522351
_cell_formula_units_Z   1
loop_
 _symmetry_equiv_pos_site_id
 _symmetry_equiv_pos_as_xyz
  1  'x, y, z'
loop_
 _atom_site_type_symbol
 _atom_site_label
 _atom_site_symmetry_multiplicity
 _atom_site_fract_x
 _atom_site_fract_y
 _atom_site_fract_z
 _atom_site_occupancy
  Ho  Ho0  1  0.803125  0.196875  0.750000  1
  Lu  Lu1  1  0.199103  0.800897  0.250000  1
  Pa  Pa2  1  0.199245  0.393908  0.250000  1
  Pa  Pa3  1  0.800860  0.606564  0.750000  1
  Pa  Pa4  1  0.606092  0.800755  0.250000  1
  Pa  Pa5  1  0.393436  0.199140  0.750000  1
  Al  Al6  1  0.331149  0.668851  0.019757  1
  Al  Al7  1  0.668542  0.331458  0.980820  1
  Al  Al8  1  0.668542  0.331458  0.519180  1
  Al  Al9  1  0.331149  0.668851  0.480243  1
  Al  Al10  1  0.161805  0.325002  0.577884  1
  Al  Al11  1  0.838694  0.675563  0.421918  1
  Al  Al12  1  0.674998  0.838195  0.577884  1
  Al  Al13  1  0.838694  0.675563  0.078082  1
  Al  Al14  1  0.324437  0.161306  0.421918  1
  Al  Al15  1  0.161805  0.325002  0.922116  1
  Al  Al16  1  0.162521  0.837479  0.579027  1
  Al  Al17  1  0.324437  0.161306  0.078082  1
  Al  Al18  1  0.837353  0.162647  0.420203  1
  Al  Al19  1  0.674998  0.838195  0.922116  1
  Al  Al20  1  0.837353  0.162647  0.079797  1
  Al  Al21  1  0.162521  0.837479  0.920973  1
  Al  Al22  1  0.559748  0.122220  0.250000  1
  Al  Al23  1  0.439624  0.877289  0.750000  1
  Al  Al24  1  0.877780  0.440252  0.250000  1
  Al  Al25  1  0.122711  0.560376  0.750000  1
  Al  Al26  1  0.564471  0.435529  0.250000  1
  Al  Al27  1  0.435540  0.564460  0.750000  1
  Al  Al28  1  0.000374  0.999626  0.250000  1
  Al  Al29  1  0.000706  0.999294  0.750000  1
  Os  Os30  1  0.499241  0.999790  0.000444  1
  Os  Os31  1  0.000210  0.500759  0.000444  1
  Os  Os32  1  0.499241  0.999790  0.499556  1
  Os  Os33  1  0.499867  0.500133  0.000111  1
  Os  Os34  1  0.000210  0.500759  0.499556  1
  Os  Os35  1  0.499867  0.500133  0.499889  1
  Os  Os36  1  0.999776  0.000224  0.000018  1
  Os  Os37  1  0.999776  0.000224  0.499982  1
