# generated using pymatgen
data_CsYb(HO2)2
_symmetry_space_group_name_H-M   'P 1'
_cell_length_a   6.47571644
_cell_length_b   6.22680100
_cell_length_c   6.27204703
_cell_angle_alpha   90.00000000
_cell_angle_beta   93.18995830
_cell_angle_gamma   90.00000000
_symmetry_Int_Tables_number   1
_chemical_formula_structural   CsYb(HO2)2
_chemical_formula_sum   'Cs2 Yb2 H4 O8'
_cell_volume   252.51586500
_cell_formula_units_Z   2
loop_
 _symmetry_equiv_pos_site_id
 _symmetry_equiv_pos_as_xyz
  1  'x, y, z'
loop_
 _atom_site_type_symbol
 _atom_site_label
 _atom_site_symmetry_multiplicity
 _atom_site_fract_x
 _atom_site_fract_y
 _atom_site_fract_z
 _atom_site_occupancy
  Cs  Cs0  1  0.257229  0.733622  0.741999  1
  Cs  Cs1  1  0.242771  0.233622  0.258001  1
  Yb  Yb2  1  0.668145  0.198809  0.764754  1
  Yb  Yb3  1  0.831855  0.698809  0.235246  1
  H  H4  1  0.314753  0.744442  0.232251  1
  H  H5  1  0.185247  0.244442  0.767749  1
  H  H6  1  0.756137  0.264446  0.184348  1
  H  H7  1  0.743863  0.764446  0.815652  1
  O  O8  1  0.855072  0.476011  0.571323  1
  O  O9  1  0.644928  0.976011  0.428677  1
  O  O10  1  0.847575  0.991807  0.496135  1
  O  O11  1  0.652425  0.491807  0.503865  1
  O  O12  1  0.166319  0.723694  0.222582  1
  O  O13  1  0.333681  0.223694  0.777418  1
  O  O14  1  0.784207  0.367168  0.072515  1
  O  O15  1  0.715793  0.867168  0.927485  1
