# generated using pymatgen
data_Yb2Pa2Ga20Pt11
_symmetry_space_group_name_H-M   'P 1'
_cell_length_a   4.23624424
_cell_length_b   10.87970256
_cell_length_c   13.83445298
_cell_angle_alpha   81.21875992
_cell_angle_beta   80.97267234
_cell_angle_gamma   78.55910595
_symmetry_Int_Tables_number   1
_chemical_formula_structural   Yb2Pa2Ga20Pt11
_chemical_formula_sum   'Yb2 Pa2 Ga20 Pt11'
_cell_volume   612.32237192
_cell_formula_units_Z   1
loop_
 _symmetry_equiv_pos_site_id
 _symmetry_equiv_pos_as_xyz
  1  'x, y, z'
loop_
 _atom_site_type_symbol
 _atom_site_label
 _atom_site_symmetry_multiplicity
 _atom_site_fract_x
 _atom_site_fract_y
 _atom_site_fract_z
 _atom_site_occupancy
  Yb  Yb0  1  0.124948  0.084933  0.665275  1
  Yb  Yb1  1  0.875052  0.915067  0.334725  1
  Pa  Pa2  1  0.772561  0.629212  0.821949  1
  Pa  Pa3  1  0.227439  0.370788  0.178051  1
  Ga  Ga4  1  0.017592  0.061206  0.907372  1
  Ga  Ga5  1  0.982408  0.938794  0.092628  1
  Ga  Ga6  1  0.059242  0.680464  0.196321  1
  Ga  Ga7  1  0.940758  0.319536  0.803679  1
  Ga  Ga8  1  0.101998  0.340210  0.457465  1
  Ga  Ga9  1  0.898002  0.659790  0.542535  1
  Ga  Ga10  1  0.199187  0.605401  0.996238  1
  Ga  Ga11  1  0.800813  0.394599  0.003762  1
  Ga  Ga12  1  0.260911  0.780190  0.695416  1
  Ga  Ga13  1  0.739089  0.219810  0.304584  1
  Ga  Ga14  1  0.301378  0.903047  0.493369  1
  Ga  Ga15  1  0.698622  0.096953  0.506631  1
  Ga  Ga16  1  0.388254  0.522605  0.697105  1
  Ga  Ga17  1  0.611746  0.477395  0.302895  1
  Ga  Ga18  1  0.395806  0.202008  0.000991  1
  Ga  Ga19  1  0.604194  0.797992  0.999009  1
  Ga  Ga20  1  0.547254  0.277540  0.627622  1
  Ga  Ga21  1  0.452746  0.722460  0.372378  1
  Ga  Ga22  1  0.639263  0.935747  0.791128  1
  Ga  Ga23  1  0.360737  0.064253  0.208872  1
  Pt  Pt24  1  0.500000  0.500000  0.500000  1
  Pt  Pt25  1  0.028881  0.574001  0.370883  1
  Pt  Pt26  1  0.971119  0.425999  0.629117  1
  Pt  Pt27  1  0.149758  0.823664  0.883965  1
  Pt  Pt28  1  0.850242  0.176336  0.116035  1
  Pt  Pt29  1  0.240427  0.130760  0.390243  1
  Pt  Pt30  1  0.759573  0.869240  0.609757  1
  Pt  Pt31  1  0.343495  0.425399  0.888473  1
  Pt  Pt32  1  0.656505  0.574601  0.111527  1
  Pt  Pt33  1  0.508161  0.168934  0.819808  1
  Pt  Pt34  1  0.491839  0.831066  0.180192  1
