# generated using pymatgen
data_DyHoAl2Ga7Ir3
_symmetry_space_group_name_H-M   'P 1'
_cell_length_a   7.57215306
_cell_length_b   7.57492598
_cell_length_c   9.49775600
_cell_angle_alpha   90.00000000
_cell_angle_beta   90.00000000
_cell_angle_gamma   119.75456647
_symmetry_Int_Tables_number   1
_chemical_formula_structural   DyHoAl2Ga7Ir3
_chemical_formula_sum   'Dy2 Ho2 Al4 Ga14 Ir6'
_cell_volume   472.95322286
_cell_formula_units_Z   2
loop_
 _symmetry_equiv_pos_site_id
 _symmetry_equiv_pos_as_xyz
  1  'x, y, z'
loop_
 _atom_site_type_symbol
 _atom_site_label
 _atom_site_symmetry_multiplicity
 _atom_site_fract_x
 _atom_site_fract_y
 _atom_site_fract_z
 _atom_site_occupancy
  Dy  Dy0  1  0.000667  0.669360  0.250000  1
  Dy  Dy1  1  0.999333  0.330640  0.750000  1
  Ho  Ho2  1  0.669354  0.000727  0.250000  1
  Ho  Ho3  1  0.330646  0.999273  0.750000  1
  Al  Al4  1  0.332086  0.331908  0.553671  1
  Al  Al5  1  0.667914  0.668092  0.446329  1
  Al  Al6  1  0.667914  0.668092  0.053671  1
  Al  Al7  1  0.332086  0.331908  0.946329  1
  Ga  Ga8  1  0.126434  0.126555  0.250000  1
  Ga  Ga9  1  0.873566  0.873445  0.750000  1
  Ga  Ga10  1  0.000221  0.334864  0.079647  1
  Ga  Ga11  1  0.999779  0.665136  0.920353  1
  Ga  Ga12  1  0.999779  0.665136  0.579647  1
  Ga  Ga13  1  0.335383  0.000439  0.420506  1
  Ga  Ga14  1  0.000221  0.334864  0.420353  1
  Ga  Ga15  1  0.664617  0.999561  0.579494  1
  Ga  Ga16  1  0.664617  0.999561  0.920506  1
  Ga  Ga17  1  0.335383  0.000439  0.079494  1
  Ga  Ga18  1  0.346349  0.549452  0.250000  1
  Ga  Ga19  1  0.653651  0.450548  0.750000  1
  Ga  Ga20  1  0.549230  0.346014  0.250000  1
  Ga  Ga21  1  0.450770  0.653986  0.750000  1
  Ir  Ir22  1  0.669575  0.330512  0.999997  1
  Ir  Ir23  1  0.330425  0.669488  0.000003  1
  Ir  Ir24  1  0.330425  0.669488  0.499997  1
  Ir  Ir25  1  0.669575  0.330512  0.500003  1
  Ir  Ir26  1  0.000000  0.000000  0.000000  1
  Ir  Ir27  1  0.000000  0.000000  0.500000  1
