# generated using pymatgen
data_Tm20Ir3(RuPt2)3
_symmetry_space_group_name_H-M   'P 1'
_cell_length_a   10.80188058
_cell_length_b   10.79934401
_cell_length_c   6.34491196
_cell_angle_alpha   90.00521236
_cell_angle_beta   89.93771978
_cell_angle_gamma   89.99716860
_symmetry_Int_Tables_number   1
_chemical_formula_structural   Tm20Ir3(RuPt2)3
_chemical_formula_sum   'Tm20 Ir3 Ru3 Pt6'
_cell_volume   740.15399673
_cell_formula_units_Z   1
loop_
 _symmetry_equiv_pos_site_id
 _symmetry_equiv_pos_as_xyz
  1  'x, y, z'
loop_
 _atom_site_type_symbol
 _atom_site_label
 _atom_site_symmetry_multiplicity
 _atom_site_fract_x
 _atom_site_fract_y
 _atom_site_fract_z
 _atom_site_occupancy
  Tm  Tm0  1  0.296874  0.088033  0.372813  1
  Tm  Tm1  1  0.296974  0.912194  0.873129  1
  Tm  Tm2  1  0.702604  0.084741  0.872282  1
  Tm  Tm3  1  0.702770  0.915115  0.372073  1
  Tm  Tm4  1  0.582262  0.794433  0.872440  1
  Tm  Tm5  1  0.582304  0.205655  0.372309  1
  Tm  Tm6  1  0.412879  0.794833  0.376664  1
  Tm  Tm7  1  0.413080  0.205051  0.876770  1
  Tm  Tm8  1  0.209000  0.415313  0.626097  1
  Tm  Tm9  1  0.208338  0.584884  0.123822  1
  Tm  Tm10  1  0.795561  0.413490  0.124824  1
  Tm  Tm11  1  0.794980  0.586218  0.627705  1
  Tm  Tm12  1  0.914595  0.704075  0.125756  1
  Tm  Tm13  1  0.914911  0.295267  0.628984  1
  Tm  Tm14  1  0.089818  0.704740  0.629473  1
  Tm  Tm15  1  0.090070  0.295963  0.126644  1
  Tm  Tm16  1  0.999939  0.999665  0.499445  1
  Tm  Tm17  1  0.999905  0.000372  0.999081  1
  Tm  Tm18  1  0.496928  0.499774  0.998811  1
  Tm  Tm19  1  0.496925  0.500242  0.499146  1
  Ir  Ir20  1  0.346303  0.346146  0.249420  1
  Ir  Ir21  1  0.346259  0.654131  0.749489  1
  Ir  Ir22  1  0.999862  0.499869  0.376085  1
  Ru  Ru23  1  0.500277  0.000128  0.127562  1
  Ru  Ru24  1  0.500255  0.999801  0.627394  1
  Ru  Ru25  1  0.999727  0.500151  0.873370  1
  Pt  Pt26  1  0.846348  0.153895  0.250220  1
  Pt  Pt27  1  0.845892  0.846263  0.750205  1
  Pt  Pt28  1  0.152837  0.153690  0.749192  1
  Pt  Pt29  1  0.152403  0.846202  0.249035  1
  Pt  Pt30  1  0.654538  0.346480  0.749940  1
  Pt  Pt31  1  0.654582  0.653185  0.249817  1
