# generated using pymatgen
data_CaSc3(B6Os)2
_symmetry_space_group_name_H-M   'P 1'
_cell_length_a   3.52351100
_cell_length_b   8.94180221
_cell_length_c   11.29411279
_cell_angle_alpha   89.93461797
_cell_angle_beta   90.00000000
_cell_angle_gamma   90.00000000
_symmetry_Int_Tables_number   1
_chemical_formula_structural   CaSc3(B6Os)2
_chemical_formula_sum   'Ca2 Sc6 B24 Os4'
_cell_volume   355.83816739
_cell_formula_units_Z   2
loop_
 _symmetry_equiv_pos_site_id
 _symmetry_equiv_pos_as_xyz
  1  'x, y, z'
loop_
 _atom_site_type_symbol
 _atom_site_label
 _atom_site_symmetry_multiplicity
 _atom_site_fract_x
 _atom_site_fract_y
 _atom_site_fract_z
 _atom_site_occupancy
  Ca  Ca0  1  0.000000  0.321415  0.414238  1
  Ca  Ca1  1  0.000000  0.678585  0.585762  1
  Sc  Sc2  1  0.000000  0.820013  0.086264  1
  Sc  Sc3  1  0.000000  0.179987  0.913736  1
  Sc  Sc4  1  0.000000  0.943544  0.370164  1
  Sc  Sc5  1  0.000000  0.056456  0.629836  1
  Sc  Sc6  1  0.000000  0.443919  0.127639  1
  Sc  Sc7  1  0.000000  0.556081  0.872361  1
  B  B8  1  0.500000  0.554877  0.431690  1
  B  B9  1  0.500000  0.445123  0.568310  1
  B  B10  1  0.500000  0.053377  0.064139  1
  B  B11  1  0.500000  0.946623  0.935861  1
  B  B12  1  0.500000  0.752940  0.417050  1
  B  B13  1  0.500000  0.247060  0.582950  1
  B  B14  1  0.500000  0.251687  0.078419  1
  B  B15  1  0.500000  0.748313  0.921581  1
  B  B16  1  0.500000  0.795075  0.261830  1
  B  B17  1  0.500000  0.204925  0.738169  1
  B  B18  1  0.500000  0.292755  0.232930  1
  B  B19  1  0.500000  0.707245  0.767071  1
  B  B20  1  0.500000  0.630817  0.180747  1
  B  B21  1  0.500000  0.369183  0.819253  1
  B  B22  1  0.500000  0.128621  0.315017  1
  B  B23  1  0.500000  0.871379  0.684983  1
  B  B24  1  0.500000  0.980058  0.211167  1
  B  B25  1  0.500000  0.019942  0.788833  1
  B  B26  1  0.500000  0.481993  0.284514  1
  B  B27  1  0.500000  0.518007  0.715486  1
  B  B28  1  0.500000  0.600080  0.027029  1
  B  B29  1  0.500000  0.399920  0.972971  1
  B  B30  1  0.500000  0.096048  0.473765  1
  B  B31  1  0.500000  0.903952  0.526235  1
  Os  Os32  1  0.000000  0.642563  0.314475  1
  Os  Os33  1  0.000000  0.357437  0.685525  1
  Os  Os34  1  0.000000  0.136736  0.176373  1
  Os  Os35  1  0.000000  0.863264  0.823627  1
