# generated using pymatgen
data_Ho8Ti12Si15Sn
_symmetry_space_group_name_H-M   'P 1'
_cell_length_a   7.09252255
_cell_length_b   7.05768262
_cell_length_c   12.99477037
_cell_angle_alpha   89.98731520
_cell_angle_beta   89.73385086
_cell_angle_gamma   89.92377998
_symmetry_Int_Tables_number   1
_chemical_formula_structural   Ho8Ti12Si15Sn
_chemical_formula_sum   'Ho8 Ti12 Si15 Sn1'
_cell_volume   650.46866373
_cell_formula_units_Z   1
loop_
 _symmetry_equiv_pos_site_id
 _symmetry_equiv_pos_as_xyz
  1  'x, y, z'
loop_
 _atom_site_type_symbol
 _atom_site_label
 _atom_site_symmetry_multiplicity
 _atom_site_fract_x
 _atom_site_fract_y
 _atom_site_fract_z
 _atom_site_occupancy
  Ho  Ho0  1  0.343579  0.999561  0.461655  1
  Ho  Ho1  1  0.505295  0.835248  0.717982  1
  Ho  Ho2  1  0.502360  0.159650  0.216445  1
  Ho  Ho3  1  0.840988  0.497293  0.282569  1
  Ho  Ho4  1  0.158880  0.510196  0.786028  1
  Ho  Ho5  1  0.660830  0.996422  0.968376  1
  Ho  Ho6  1  0.993451  0.348486  0.527816  1
  Ho  Ho7  1  0.998420  0.658901  0.034164  1
  Ti  Ti8  1  0.325992  0.326709  0.000948  1
  Ti  Ti9  1  0.173920  0.826107  0.249827  1
  Ti  Ti10  1  0.816760  0.175090  0.751946  1
  Ti  Ti11  1  0.672951  0.673240  0.499572  1
  Ti  Ti12  1  0.151824  0.007241  0.882976  1
  Ti  Ti13  1  0.491973  0.650660  0.126719  1
  Ti  Ti14  1  0.515697  0.354040  0.626321  1
  Ti  Ti15  1  0.653792  0.493053  0.875243  1
  Ti  Ti16  1  0.347935  0.509040  0.372964  1
  Ti  Ti17  1  0.847552  0.991957  0.375842  1
  Ti  Ti18  1  0.009246  0.151605  0.123501  1
  Ti  Ti19  1  0.980247  0.835505  0.619288  1
  Si  Si20  1  0.370438  0.702833  0.935741  1
  Si  Si21  1  0.628929  0.297071  0.432978  1
  Si  Si22  1  0.703173  0.369323  0.066181  1
  Si  Si23  1  0.297108  0.630922  0.565739  1
  Si  Si24  1  0.797323  0.869487  0.184310  1
  Si  Si25  1  0.130435  0.202771  0.315022  1
  Si  Si26  1  0.869769  0.799533  0.816081  1
  Si  Si27  1  0.291849  0.951983  0.066631  1
  Si  Si28  1  0.549114  0.789550  0.313712  1
  Si  Si29  1  0.459340  0.210619  0.819820  1
  Si  Si30  1  0.793614  0.545090  0.686672  1
  Si  Si31  1  0.209330  0.452638  0.185191  1
  Si  Si32  1  0.707477  0.048282  0.564611  1
  Si  Si33  1  0.952369  0.291180  0.935244  1
  Si  Si34  1  0.048411  0.710962  0.433114  1
  Sn  Sn35  1  0.199627  0.127751  0.678771  1
