# generated using pymatgen
data_YbMgZnAs2
_symmetry_space_group_name_H-M   'P 1'
_cell_length_a   4.26886000
_cell_length_b   4.26884434
_cell_length_c   14.06371601
_cell_angle_alpha   89.99999827
_cell_angle_beta   90.00045085
_cell_angle_gamma   119.99988291
_symmetry_Int_Tables_number   1
_chemical_formula_structural   YbMgZnAs2
_chemical_formula_sum   'Yb2 Mg2 Zn2 As4'
_cell_volume   221.94913832
_cell_formula_units_Z   2
loop_
 _symmetry_equiv_pos_site_id
 _symmetry_equiv_pos_as_xyz
  1  'x, y, z'
loop_
 _atom_site_type_symbol
 _atom_site_label
 _atom_site_symmetry_multiplicity
 _atom_site_fract_x
 _atom_site_fract_y
 _atom_site_fract_z
 _atom_site_occupancy
  Yb  Yb0  1  0.999995  0.999998  0.001878  1
  Yb  Yb1  1  0.999995  0.999998  0.501878  1
  Mg  Mg2  1  0.333333  0.666667  0.314533  1
  Mg  Mg3  1  0.333333  0.666667  0.814533  1
  Zn  Zn4  1  0.666671  0.333336  0.183731  1
  Zn  Zn5  1  0.666671  0.333336  0.683731  1
  As  As6  1  0.333328  0.666664  0.124658  1
  As  As7  1  0.333328  0.666664  0.624658  1
  As  As8  1  0.666673  0.333336  0.375200  1
  As  As9  1  0.666673  0.333336  0.875200  1
