# generated using pymatgen
data_Y2Ta4FeB4Ru9
_symmetry_space_group_name_H-M   'P 1'
_cell_length_a   9.48843942
_cell_length_b   9.48843942
_cell_length_c   3.09549300
_cell_angle_alpha   90.00000000
_cell_angle_beta   90.00000000
_cell_angle_gamma   90.17316928
_symmetry_Int_Tables_number   1
_chemical_formula_structural   Y2Ta4FeB4Ru9
_chemical_formula_sum   'Y2 Ta4 Fe1 B4 Ru9'
_cell_volume   278.68745592
_cell_formula_units_Z   1
loop_
 _symmetry_equiv_pos_site_id
 _symmetry_equiv_pos_as_xyz
  1  'x, y, z'
loop_
 _atom_site_type_symbol
 _atom_site_label
 _atom_site_symmetry_multiplicity
 _atom_site_fract_x
 _atom_site_fract_y
 _atom_site_fract_z
 _atom_site_occupancy
  Y  Y0  1  0.821615  0.678385  0.000000  1
  Y  Y1  1  0.178385  0.321615  0.000000  1
  Ta  Ta2  1  0.330319  0.830319  0.000000  1
  Ta  Ta3  1  0.669681  0.169681  0.000000  1
  Ta  Ta4  1  0.500000  0.500000  0.000000  1
  Ta  Ta5  1  0.000000  0.000000  0.000000  1
  Fe  Fe6  1  0.500000  0.000000  0.500000  1
  B  B7  1  0.610701  0.889299  0.000000  1
  B  B8  1  0.389299  0.110701  0.000000  1
  B  B9  1  0.122049  0.622049  0.000000  1
  B  B10  1  0.877951  0.377951  0.000000  1
  Ru  Ru11  1  0.555130  0.729780  0.500000  1
  Ru  Ru12  1  0.444870  0.270220  0.500000  1
  Ru  Ru13  1  0.081742  0.786477  0.500000  1
  Ru  Ru14  1  0.918258  0.213523  0.500000  1
  Ru  Ru15  1  0.286477  0.581742  0.500000  1
  Ru  Ru16  1  0.713523  0.418258  0.500000  1
  Ru  Ru17  1  0.229780  0.055130  0.500000  1
  Ru  Ru18  1  0.770220  0.944870  0.500000  1
  Ru  Ru19  1  0.000000  0.500000  0.500000  1
