# generated using pymatgen
data_Ti8Al15Co6Pt
_symmetry_space_group_name_H-M   'P 1'
_cell_length_a   8.42116908
_cell_length_b   8.42043028
_cell_length_c   8.43953144
_cell_angle_alpha   120.07163361
_cell_angle_beta   119.74744543
_cell_angle_gamma   90.00635830
_symmetry_Int_Tables_number   1
_chemical_formula_structural   Ti8Al15Co6Pt
_chemical_formula_sum   'Ti8 Al15 Co6 Pt1'
_cell_volume   424.29313711
_cell_formula_units_Z   1
loop_
 _symmetry_equiv_pos_site_id
 _symmetry_equiv_pos_as_xyz
  1  'x, y, z'
loop_
 _atom_site_type_symbol
 _atom_site_label
 _atom_site_symmetry_multiplicity
 _atom_site_fract_x
 _atom_site_fract_y
 _atom_site_fract_z
 _atom_site_occupancy
  Ti  Ti0  1  0.791377  0.287605  0.072847  1
  Ti  Ti1  1  0.217321  0.288523  0.496828  1
  Ti  Ti2  1  0.212214  0.709083  0.500084  1
  Ti  Ti3  1  0.215208  0.718359  0.927599  1
  Ti  Ti4  1  0.788965  0.717316  0.503308  1
  Ti  Ti5  1  0.781401  0.284225  0.499803  1
  Ti  Ti6  1  0.388976  0.124993  0.748719  1
  Ti  Ti7  1  0.380833  0.638800  0.260738  1
  Al  Al8  1  0.997022  0.496825  0.499985  1
  Al  Al9  1  0.157045  0.341834  0.184592  1
  Al  Al10  1  0.161313  0.970498  0.823164  1
  Al  Al11  1  0.158094  0.354578  0.817624  1
  Al  Al12  1  0.534485  0.344523  0.190602  1
  Al  Al13  1  0.842961  0.656061  0.813274  1
  Al  Al14  1  0.838466  0.031861  0.178321  1
  Al  Al15  1  0.837388  0.646242  0.176662  1
  Al  Al16  1  0.471463  0.656596  0.814685  1
  Al  Al17  1  0.381010  0.121684  0.261186  1
  Al  Al18  1  0.859148  0.123452  0.746176  1
  Al  Al19  1  0.612522  0.875477  0.252356  1
  Al  Al20  1  0.619434  0.361508  0.739934  1
  Al  Al21  1  0.619219  0.877209  0.739141  1
  Al  Al22  1  0.139727  0.876205  0.253417  1
  Co  Co23  1  0.498230  0.000797  0.997146  1
  Co  Co24  1  0.497513  0.496425  0.999857  1
  Co  Co25  1  0.497723  0.500280  0.497259  1
  Co  Co26  1  0.003015  0.500721  0.002930  1
  Co  Co27  1  0.000039  0.000034  0.000067  1
  Co  Co28  1  0.498083  0.998385  0.501091  1
  Pt  Pt29  1  0.999802  0.999895  0.500609  1
