# generated using pymatgen
data_Zr8Nb2Sn6GeP
_symmetry_space_group_name_H-M   'P 1'
_cell_length_a   8.62578300
_cell_length_b   8.62578294
_cell_length_c   5.84529400
_cell_angle_alpha   90.00000000
_cell_angle_beta   90.00000000
_cell_angle_gamma   119.99998873
_symmetry_Int_Tables_number   1
_chemical_formula_structural   Zr8Nb2Sn6GeP
_chemical_formula_sum   'Zr8 Nb2 Sn6 Ge1 P1'
_cell_volume   376.64663718
_cell_formula_units_Z   1
loop_
 _symmetry_equiv_pos_site_id
 _symmetry_equiv_pos_as_xyz
  1  'x, y, z'
loop_
 _atom_site_type_symbol
 _atom_site_label
 _atom_site_symmetry_multiplicity
 _atom_site_fract_x
 _atom_site_fract_y
 _atom_site_fract_z
 _atom_site_occupancy
  Zr  Zr0  1  0.333333  0.666667  0.500000  1
  Zr  Zr1  1  0.666667  0.333333  0.500000  1
  Zr  Zr2  1  0.741526  0.741526  0.741470  1
  Zr  Zr3  1  0.258474  0.000000  0.741470  1
  Zr  Zr4  1  0.000000  0.258474  0.741470  1
  Zr  Zr5  1  0.258474  0.258474  0.258530  1
  Zr  Zr6  1  0.741526  0.000000  0.258530  1
  Zr  Zr7  1  0.000000  0.741526  0.258530  1
  Nb  Nb8  1  0.666667  0.333333  0.000000  1
  Nb  Nb9  1  0.333333  0.666667  0.000000  1
  Sn  Sn10  1  0.397154  0.397154  0.760045  1
  Sn  Sn11  1  0.602846  0.000000  0.760045  1
  Sn  Sn12  1  0.000000  0.602846  0.760045  1
  Sn  Sn13  1  0.602846  0.602846  0.239955  1
  Sn  Sn14  1  0.397154  0.000000  0.239955  1
  Sn  Sn15  1  0.000000  0.397154  0.239955  1
  Ge  Ge16  1  0.000000  0.000000  0.000000  1
  P  P17  1  0.000000  0.000000  0.500000  1
