# generated using pymatgen
data_Dy11Er(Tl2Ru)4
_symmetry_space_group_name_H-M   'P 1'
_cell_length_a   3.83884400
_cell_length_b   12.87262453
_cell_length_c   12.87262300
_cell_angle_alpha   111.94693029
_cell_angle_beta   90.00000000
_cell_angle_gamma   90.00000000
_symmetry_Int_Tables_number   1
_chemical_formula_structural   Dy11Er(Tl2Ru)4
_chemical_formula_sum   'Dy11 Er1 Tl8 Ru4'
_cell_volume   590.01463474
_cell_formula_units_Z   1
loop_
 _symmetry_equiv_pos_site_id
 _symmetry_equiv_pos_as_xyz
  1  'x, y, z'
loop_
 _atom_site_type_symbol
 _atom_site_label
 _atom_site_symmetry_multiplicity
 _atom_site_fract_x
 _atom_site_fract_y
 _atom_site_fract_z
 _atom_site_occupancy
  Dy  Dy0  1  0.000000  0.910562  0.579439  1
  Dy  Dy1  1  0.000000  0.089438  0.420561  1
  Dy  Dy2  1  0.000000  0.579439  0.910562  1
  Dy  Dy3  1  0.000000  0.420561  0.089438  1
  Dy  Dy4  1  0.000000  0.163200  0.836800  1
  Dy  Dy5  1  0.000000  0.836800  0.163200  1
  Dy  Dy6  1  0.000000  0.361735  0.638265  1
  Dy  Dy7  1  0.000000  0.638265  0.361735  1
  Dy  Dy8  1  0.000000  0.705208  0.705208  1
  Dy  Dy9  1  0.000000  0.294792  0.294792  1
  Dy  Dy10  1  0.000000  0.000000  0.000000  1
  Er  Er11  1  0.500000  0.500000  0.500000  1
  Tl  Tl12  1  0.500000  0.145076  0.630561  1
  Tl  Tl13  1  0.500000  0.854924  0.369439  1
  Tl  Tl14  1  0.500000  0.630561  0.145076  1
  Tl  Tl15  1  0.500000  0.369439  0.854924  1
  Tl  Tl16  1  0.500000  0.935044  0.783956  1
  Tl  Tl17  1  0.500000  0.064956  0.216044  1
  Tl  Tl18  1  0.500000  0.783956  0.935044  1
  Tl  Tl19  1  0.500000  0.216044  0.064956  1
  Ru  Ru20  1  0.500000  0.736638  0.546459  1
  Ru  Ru21  1  0.500000  0.263362  0.453541  1
  Ru  Ru22  1  0.500000  0.546459  0.736638  1
  Ru  Ru23  1  0.500000  0.453541  0.263362  1
