# generated using pymatgen
data_Ho10Co4OsPt
_symmetry_space_group_name_H-M   'P 1'
_cell_length_a   8.69920430
_cell_length_b   8.69920465
_cell_length_c   8.69920343
_cell_angle_alpha   131.84612478
_cell_angle_beta   131.84612763
_cell_angle_gamma   70.47216639
_symmetry_Int_Tables_number   1
_chemical_formula_structural   Ho10Co4OsPt
_chemical_formula_sum   'Ho10 Co4 Os1 Pt1'
_cell_volume   357.96955273
_cell_formula_units_Z   1
loop_
 _symmetry_equiv_pos_site_id
 _symmetry_equiv_pos_as_xyz
  1  'x, y, z'
loop_
 _atom_site_type_symbol
 _atom_site_label
 _atom_site_symmetry_multiplicity
 _atom_site_fract_x
 _atom_site_fract_y
 _atom_site_fract_z
 _atom_site_occupancy
  Ho  Ho0  1  0.685466  0.541348  0.510009  1
  Ho  Ho1  1  0.468661  0.958652  0.144118  1
  Ho  Ho2  1  0.814534  0.324543  0.855882  1
  Ho  Ho3  1  0.541348  0.031339  0.855882  1
  Ho  Ho4  1  0.003062  0.003062  0.000000  1
  Ho  Ho5  1  0.031339  0.175457  0.489991  1
  Ho  Ho6  1  0.324543  0.468661  0.510009  1
  Ho  Ho7  1  0.175457  0.685466  0.144118  1
  Ho  Ho8  1  0.958652  0.814534  0.489991  1
  Ho  Ho9  1  0.496938  0.496938  0.000000  1
  Co  Co10  1  0.112113  0.612113  0.724225  1
  Co  Co11  1  0.887887  0.387887  0.275775  1
  Co  Co12  1  0.612113  0.887887  0.500000  1
  Co  Co13  1  0.387887  0.112113  0.500000  1
  Os  Os14  1  0.750000  0.750000  0.000000  1
  Pt  Pt15  1  0.250000  0.250000  0.000000  1
