# generated using pymatgen
data_Rb4Th6TcBr18
_symmetry_space_group_name_H-M   'P 1'
_cell_length_a   11.10449910
_cell_length_b   11.36234233
_cell_length_c   11.43671400
_cell_angle_alpha   118.71178716
_cell_angle_beta   100.31279067
_cell_angle_gamma   103.92105262
_symmetry_Int_Tables_number   1
_chemical_formula_structural   Rb4Th6TcBr18
_chemical_formula_sum   'Rb4 Th6 Tc1 Br18'
_cell_volume   1152.50949517
_cell_formula_units_Z   1
loop_
 _symmetry_equiv_pos_site_id
 _symmetry_equiv_pos_as_xyz
  1  'x, y, z'
loop_
 _atom_site_type_symbol
 _atom_site_label
 _atom_site_symmetry_multiplicity
 _atom_site_fract_x
 _atom_site_fract_y
 _atom_site_fract_z
 _atom_site_occupancy
  Rb  Rb0  1  0.194599  0.729748  0.573376  1
  Rb  Rb1  1  0.843094  0.957345  0.770569  1
  Rb  Rb2  1  0.156906  0.042655  0.229431  1
  Rb  Rb3  1  0.805401  0.270252  0.426624  1
  Th  Th4  1  0.329098  0.433991  0.742060  1
  Th  Th5  1  0.344211  0.641084  0.149052  1
  Th  Th6  1  0.654675  0.755177  0.046590  1
  Th  Th7  1  0.670902  0.566009  0.257940  1
  Th  Th8  1  0.345325  0.244823  0.953410  1
  Th  Th9  1  0.655789  0.358916  0.850948  1
  Tc  Tc10  1  0.500000  0.500000  0.000000  1
  Br  Br11  1  0.834004  0.414619  0.113820  1
  Br  Br12  1  0.519227  0.717123  0.428634  1
  Br  Br13  1  0.164290  0.967479  0.898793  1
  Br  Br14  1  0.165996  0.585381  0.886180  1
  Br  Br15  1  0.842679  0.849285  0.325479  1
  Br  Br16  1  0.509906  0.292761  0.222510  1
  Br  Br17  1  0.804768  0.201932  0.687167  1
  Br  Br18  1  0.157321  0.150715  0.674521  1
  Br  Br19  1  0.507825  0.925617  0.207875  1
  Br  Br20  1  0.827741  0.629501  0.894509  1
  Br  Br21  1  0.195232  0.798068  0.312833  1
  Br  Br22  1  0.144983  0.375187  0.474443  1
  Br  Br23  1  0.490094  0.707239  0.777490  1
  Br  Br24  1  0.835710  0.032521  0.101207  1
  Br  Br25  1  0.480773  0.282877  0.571366  1
  Br  Br26  1  0.172259  0.370499  0.105491  1
  Br  Br27  1  0.855017  0.624813  0.525557  1
  Br  Br28  1  0.492175  0.074383  0.792125  1
