# generated using pymatgen
data_Pm4GaPt3
_symmetry_space_group_name_H-M   'P 1'
_cell_length_a   7.49393978
_cell_length_b   5.74935310
_cell_length_c   4.54843500
_cell_angle_alpha   90.00000000
_cell_angle_beta   90.00000000
_cell_angle_gamma   89.36748678
_symmetry_Int_Tables_number   1
_chemical_formula_structural   Pm4GaPt3
_chemical_formula_sum   'Pm4 Ga1 Pt3'
_cell_volume   195.95877210
_cell_formula_units_Z   1
loop_
 _symmetry_equiv_pos_site_id
 _symmetry_equiv_pos_as_xyz
  1  'x, y, z'
loop_
 _atom_site_type_symbol
 _atom_site_label
 _atom_site_symmetry_multiplicity
 _atom_site_fract_x
 _atom_site_fract_y
 _atom_site_fract_z
 _atom_site_occupancy
  Pm  Pm0  1  0.109940  0.502657  0.000000  1
  Pm  Pm1  1  0.589098  0.740843  0.000000  1
  Pm  Pm2  1  0.236199  0.021790  0.499999  1
  Pm  Pm3  1  0.727687  0.240806  0.499999  1
  Ga  Ga4  1  0.885497  0.739148  0.499999  1
  Pt  Pt5  1  0.461024  0.224897  0.000000  1
  Pt  Pt6  1  0.950785  0.994746  0.000000  1
  Pt  Pt7  1  0.373103  0.535113  0.499999  1
