# generated using pymatgen
data_NaTcAgF6
_symmetry_space_group_name_H-M   'P 1'
_cell_length_a   5.52080300
_cell_length_b   9.76237900
_cell_length_c   11.14119800
_cell_angle_alpha   90.00000000
_cell_angle_beta   90.00000000
_cell_angle_gamma   90.00000000
_symmetry_Int_Tables_number   1
_chemical_formula_structural   NaTcAgF6
_chemical_formula_sum   'Na4 Tc4 Ag4 F24'
_cell_volume   600.46791556
_cell_formula_units_Z   4
loop_
 _symmetry_equiv_pos_site_id
 _symmetry_equiv_pos_as_xyz
  1  'x, y, z'
loop_
 _atom_site_type_symbol
 _atom_site_label
 _atom_site_symmetry_multiplicity
 _atom_site_fract_x
 _atom_site_fract_y
 _atom_site_fract_z
 _atom_site_occupancy
  Na  Na0  1  0.027013  0.639180  0.092725  1
  Na  Na1  1  0.472987  0.360820  0.592725  1
  Na  Na2  1  0.972987  0.139180  0.407275  1
  Na  Na3  1  0.527013  0.860820  0.907275  1
  Tc  Tc4  1  0.017281  0.994231  0.125700  1
  Tc  Tc5  1  0.482719  0.005769  0.625700  1
  Tc  Tc6  1  0.982719  0.494231  0.374300  1
  Tc  Tc7  1  0.517281  0.505769  0.874300  1
  Ag  Ag8  1  0.501007  0.307980  0.162247  1
  Ag  Ag9  1  0.998993  0.692020  0.662247  1
  Ag  Ag10  1  0.498993  0.807980  0.337753  1
  Ag  Ag11  1  0.001007  0.192020  0.837753  1
  F  F12  1  0.264888  0.146098  0.556113  1
  F  F13  1  0.235112  0.853902  0.056113  1
  F  F14  1  0.735112  0.646098  0.943887  1
  F  F15  1  0.764888  0.353902  0.443887  1
  F  F16  1  0.198688  0.627170  0.294656  1
  F  F17  1  0.301312  0.372830  0.794656  1
  F  F18  1  0.801312  0.127170  0.205344  1
  F  F19  1  0.698688  0.872830  0.705344  1
  F  F20  1  0.222965  0.143635  0.066602  1
  F  F21  1  0.277035  0.856365  0.566602  1
  F  F22  1  0.777035  0.643635  0.433398  1
  F  F23  1  0.722965  0.356365  0.933398  1
  F  F24  1  0.188974  0.338525  0.324066  1
  F  F25  1  0.311026  0.661475  0.824066  1
  F  F26  1  0.811026  0.838525  0.175934  1
  F  F27  1  0.688974  0.161475  0.675934  1
  F  F28  1  0.335460  0.495347  0.026795  1
  F  F29  1  0.164540  0.504653  0.526795  1
  F  F30  1  0.664540  0.995347  0.473205  1
  F  F31  1  0.835460  0.004653  0.973205  1
  F  F32  1  0.195671  0.987438  0.279181  1
  F  F33  1  0.304329  0.012562  0.779181  1
  F  F34  1  0.804329  0.487438  0.220819  1
  F  F35  1  0.695671  0.512562  0.720819  1
