# generated using pymatgen
data_Dy4Si4TcIrRh2
_symmetry_space_group_name_H-M   'P 1'
_cell_length_a   4.32574300
_cell_length_b   6.97164473
_cell_length_c   7.26376140
_cell_angle_alpha   90.15165134
_cell_angle_beta   90.00000000
_cell_angle_gamma   90.00000000
_symmetry_Int_Tables_number   1
_chemical_formula_structural   Dy4Si4TcIrRh2
_chemical_formula_sum   'Dy4 Si4 Tc1 Ir1 Rh2'
_cell_volume   219.05643216
_cell_formula_units_Z   1
loop_
 _symmetry_equiv_pos_site_id
 _symmetry_equiv_pos_as_xyz
  1  'x, y, z'
loop_
 _atom_site_type_symbol
 _atom_site_label
 _atom_site_symmetry_multiplicity
 _atom_site_fract_x
 _atom_site_fract_y
 _atom_site_fract_z
 _atom_site_occupancy
  Dy  Dy0  1  0.250000  0.493500  0.184694  1
  Dy  Dy1  1  0.750000  0.505697  0.815040  1
  Dy  Dy2  1  0.750000  0.010020  0.690209  1
  Dy  Dy3  1  0.250000  0.986436  0.311031  1
  Si  Si4  1  0.250000  0.800188  0.885759  1
  Si  Si5  1  0.750000  0.200082  0.112158  1
  Si  Si6  1  0.750000  0.699650  0.400793  1
  Si  Si7  1  0.250000  0.301158  0.601820  1
  Tc  Tc8  1  0.250000  0.653883  0.568078  1
  Ir  Ir9  1  0.750000  0.343982  0.429712  1
  Rh  Rh10  1  0.750000  0.848947  0.067522  1
  Rh  Rh11  1  0.250000  0.156457  0.933184  1
