# generated using pymatgen
data_La6PrDy3(Sn3Cl)2
_symmetry_space_group_name_H-M   'P 1'
_cell_length_a   9.51553600
_cell_length_b   9.51553558
_cell_length_c   6.78587600
_cell_angle_alpha   90.00000000
_cell_angle_beta   90.00000000
_cell_angle_gamma   119.99999450
_symmetry_Int_Tables_number   1
_chemical_formula_structural   La6PrDy3(Sn3Cl)2
_chemical_formula_sum   'La6 Pr1 Dy3 Sn6 Cl2'
_cell_volume   532.11201991
_cell_formula_units_Z   1
loop_
 _symmetry_equiv_pos_site_id
 _symmetry_equiv_pos_as_xyz
  1  'x, y, z'
loop_
 _atom_site_type_symbol
 _atom_site_label
 _atom_site_symmetry_multiplicity
 _atom_site_fract_x
 _atom_site_fract_y
 _atom_site_fract_z
 _atom_site_occupancy
  La  La0  1  0.738234  0.000077  0.749490  1
  La  La1  1  0.738234  0.738157  0.250510  1
  La  La2  1  0.999923  0.261766  0.250510  1
  La  La3  1  0.999923  0.738157  0.749490  1
  La  La4  1  0.261843  0.261766  0.749490  1
  La  La5  1  0.261843  0.000077  0.250510  1
  Pr  Pr6  1  0.333333  0.666667  0.000000  1
  Dy  Dy7  1  0.666667  0.333333  0.000000  1
  Dy  Dy8  1  0.333333  0.666667  0.500000  1
  Dy  Dy9  1  0.666667  0.333333  0.500000  1
  Sn  Sn10  1  0.610722  0.607469  0.747498  1
  Sn  Sn11  1  0.996747  0.607469  0.252502  1
  Sn  Sn12  1  0.610722  0.003253  0.252502  1
  Sn  Sn13  1  0.392531  0.003253  0.747498  1
  Sn  Sn14  1  0.996747  0.389278  0.747498  1
  Sn  Sn15  1  0.392531  0.389278  0.252502  1
  Cl  Cl16  1  0.000000  0.000000  0.500000  1
  Cl  Cl17  1  0.000000  0.000000  0.000000  1
