# generated using pymatgen
data_Tb3Yb5(Si3Pd)4
_symmetry_space_group_name_H-M   'P 1'
_cell_length_a   8.23122164
_cell_length_b   8.23122133
_cell_length_c   8.13825000
_cell_angle_alpha   90.00000000
_cell_angle_beta   90.00000000
_cell_angle_gamma   120.14561301
_symmetry_Int_Tables_number   1
_chemical_formula_structural   Tb3Yb5(Si3Pd)4
_chemical_formula_sum   'Tb3 Yb5 Si12 Pd4'
_cell_volume   476.81633489
_cell_formula_units_Z   1
loop_
 _symmetry_equiv_pos_site_id
 _symmetry_equiv_pos_as_xyz
  1  'x, y, z'
loop_
 _atom_site_type_symbol
 _atom_site_label
 _atom_site_symmetry_multiplicity
 _atom_site_fract_x
 _atom_site_fract_y
 _atom_site_fract_z
 _atom_site_occupancy
  Tb  Tb0  1  0.498288  0.501712  0.750000  1
  Tb  Tb1  1  0.999833  0.000167  0.250000  1
  Tb  Tb2  1  0.000032  0.999968  0.750000  1
  Yb  Yb3  1  0.502064  0.003837  0.250000  1
  Yb  Yb4  1  0.497709  0.996253  0.750000  1
  Yb  Yb5  1  0.996163  0.497936  0.250000  1
  Yb  Yb6  1  0.003747  0.502291  0.750000  1
  Yb  Yb7  1  0.501958  0.498042  0.250000  1
  Si  Si8  1  0.164564  0.328373  0.999743  1
  Si  Si9  1  0.835405  0.671626  0.997009  1
  Si  Si10  1  0.671627  0.835436  0.999743  1
  Si  Si11  1  0.835405  0.671626  0.502991  1
  Si  Si12  1  0.328374  0.164595  0.997009  1
  Si  Si13  1  0.164564  0.328373  0.500257  1
  Si  Si14  1  0.164318  0.835682  0.000621  1
  Si  Si15  1  0.328374  0.164595  0.502991  1
  Si  Si16  1  0.835595  0.164405  0.996499  1
  Si  Si17  1  0.671627  0.835436  0.500257  1
  Si  Si18  1  0.835595  0.164405  0.503501  1
  Si  Si19  1  0.164318  0.835682  0.499379  1
  Pd  Pd20  1  0.333642  0.666358  0.002832  1
  Pd  Pd21  1  0.666578  0.333422  0.995069  1
  Pd  Pd22  1  0.666578  0.333422  0.504931  1
  Pd  Pd23  1  0.333642  0.666358  0.497168  1
