# generated using pymatgen
data_Zn8CuNi3Rh4
_symmetry_space_group_name_H-M   'P 1'
_cell_length_a   5.84534000
_cell_length_b   5.84094900
_cell_length_c   6.16091800
_cell_angle_alpha   90.00023810
_cell_angle_beta   89.99996230
_cell_angle_gamma   89.99987252
_symmetry_Int_Tables_number   1
_chemical_formula_structural   Zn8CuNi3Rh4
_chemical_formula_sum   'Zn8 Cu1 Ni3 Rh4'
_cell_volume   210.34811288
_cell_formula_units_Z   1
loop_
 _symmetry_equiv_pos_site_id
 _symmetry_equiv_pos_as_xyz
  1  'x, y, z'
loop_
 _atom_site_type_symbol
 _atom_site_label
 _atom_site_symmetry_multiplicity
 _atom_site_fract_x
 _atom_site_fract_y
 _atom_site_fract_z
 _atom_site_occupancy
  Zn  Zn0  1  0.496989  0.503011  0.251780  1
  Zn  Zn1  1  0.496992  0.996992  0.251779  1
  Zn  Zn2  1  0.002981  0.503005  0.254201  1
  Zn  Zn3  1  0.002985  0.996993  0.254201  1
  Zn  Zn4  1  0.002977  0.502995  0.745801  1
  Zn  Zn5  1  0.002975  0.997005  0.745800  1
  Zn  Zn6  1  0.496998  0.502998  0.748221  1
  Zn  Zn7  1  0.496995  0.996997  0.748221  1
  Cu  Cu8  1  0.751323  0.249998  0.000001  1
  Ni  Ni9  1  0.248763  0.750000  0.999999  1
  Ni  Ni10  1  0.748753  0.249999  0.499973  1
  Ni  Ni11  1  0.251267  0.750001  0.500028  1
  Rh  Rh12  1  0.248620  0.250000  0.000001  1
  Rh  Rh13  1  0.751312  0.750000  0.999999  1
  Rh  Rh14  1  0.251396  0.249999  0.499997  1
  Rh  Rh15  1  0.748671  0.750000  0.500002  1
