# generated using pymatgen
data_Ce7Ho3(SiB4)4
_symmetry_space_group_name_H-M   'P 1'
_cell_length_a   7.30313901
_cell_length_b   7.30313901
_cell_length_c   8.24232710
_cell_angle_alpha   89.98718124
_cell_angle_beta   90.01281876
_cell_angle_gamma   90.05887233
_symmetry_Int_Tables_number   1
_chemical_formula_structural   Ce7Ho3(SiB4)4
_chemical_formula_sum   'Ce7 Ho3 Si4 B16'
_cell_volume   439.61118053
_cell_formula_units_Z   1
loop_
 _symmetry_equiv_pos_site_id
 _symmetry_equiv_pos_as_xyz
  1  'x, y, z'
loop_
 _atom_site_type_symbol
 _atom_site_label
 _atom_site_symmetry_multiplicity
 _atom_site_fract_x
 _atom_site_fract_y
 _atom_site_fract_z
 _atom_site_occupancy
  Ce  Ce0  1  0.682310  0.182580  0.227210  1
  Ce  Ce1  1  0.317613  0.817509  0.772886  1
  Ce  Ce2  1  0.317420  0.817690  0.227210  1
  Ce  Ce3  1  0.817674  0.682326  0.227024  1
  Ce  Ce4  1  0.818584  0.681416  0.772859  1
  Ce  Ce5  1  0.682491  0.182387  0.772886  1
  Ce  Ce6  1  0.181716  0.318284  0.774067  1
  Ho  Ho7  1  0.181645  0.318355  0.218857  1
  Ho  Ho8  1  0.000901  0.000413  0.498508  1
  Ho  Ho9  1  0.499587  0.499099  0.498508  1
  Si  Si10  1  0.116050  0.614417  0.498730  1
  Si  Si11  1  0.885583  0.383950  0.498730  1
  Si  Si12  1  0.383380  0.116620  0.498535  1
  Si  Si13  1  0.614539  0.885461  0.499298  1
  B  B14  1  0.173031  0.039413  0.000649  1
  B  B15  1  0.827767  0.961615  0.001368  1
  B  B16  1  0.960964  0.172842  0.000469  1
  B  B17  1  0.327158  0.539036  0.000469  1
  B  B18  1  0.039622  0.827795  0.001324  1
  B  B19  1  0.672205  0.460378  0.001324  1
  B  B20  1  0.538385  0.672233  0.001368  1
  B  B21  1  0.460587  0.326969  0.000649  1
  B  B22  1  0.091603  0.591139  0.001372  1
  B  B23  1  0.908861  0.408397  0.001372  1
  B  B24  1  0.408875  0.091125  0.000082  1
  B  B25  1  0.591186  0.908814  0.000754  1
  B  B26  1  0.000791  0.999995  0.160367  1
  B  B27  1  0.999999  0.000534  0.841380  1
  B  B28  1  0.499466  0.500001  0.841380  1
  B  B29  1  0.500005  0.499209  0.160367  1
