# generated using pymatgen
data_Zr6InHgC4
_symmetry_space_group_name_H-M   'P 1'
_cell_length_a   3.37284500
_cell_length_b   3.37284572
_cell_length_c   20.39834600
_cell_angle_alpha   90.00000000
_cell_angle_beta   90.00000000
_cell_angle_gamma   120.00000271
_symmetry_Int_Tables_number   1
_chemical_formula_structural   Zr6InHgC4
_chemical_formula_sum   'Zr6 In1 Hg1 C4'
_cell_volume   200.96407764
_cell_formula_units_Z   1
loop_
 _symmetry_equiv_pos_site_id
 _symmetry_equiv_pos_as_xyz
  1  'x, y, z'
loop_
 _atom_site_type_symbol
 _atom_site_label
 _atom_site_symmetry_multiplicity
 _atom_site_fract_x
 _atom_site_fract_y
 _atom_site_fract_z
 _atom_site_occupancy
  Zr  Zr0  1  0.000000  0.000000  0.999684  1
  Zr  Zr1  1  0.333333  0.666667  0.126089  1
  Zr  Zr2  1  0.333333  0.666667  0.373911  1
  Zr  Zr3  1  0.000000  0.000000  0.500316  1
  Zr  Zr4  1  0.666667  0.333335  0.627154  1
  Zr  Zr5  1  0.666667  0.333335  0.872846  1
  In  In6  1  0.000000  0.000000  0.250000  1
  Hg  Hg7  1  0.000000  0.000000  0.750000  1
  C  C8  1  0.666667  0.333335  0.069120  1
  C  C9  1  0.666667  0.333335  0.430880  1
  C  C10  1  0.333333  0.666667  0.569716  1
  C  C11  1  0.333333  0.666667  0.930284  1
