# generated using pymatgen
data_Y6Fe4Co11(NiP4)3
_symmetry_space_group_name_H-M   'P 1'
_cell_length_a   3.70894800
_cell_length_b   10.50334613
_cell_length_c   12.18722215
_cell_angle_alpha   90.01821308
_cell_angle_beta   90.00000000
_cell_angle_gamma   90.00000000
_symmetry_Int_Tables_number   1
_chemical_formula_structural   Y6Fe4Co11(NiP4)3
_chemical_formula_sum   'Y6 Fe4 Co11 Ni3 P12'
_cell_volume   474.76984609
_cell_formula_units_Z   1
loop_
 _symmetry_equiv_pos_site_id
 _symmetry_equiv_pos_as_xyz
  1  'x, y, z'
loop_
 _atom_site_type_symbol
 _atom_site_label
 _atom_site_symmetry_multiplicity
 _atom_site_fract_x
 _atom_site_fract_y
 _atom_site_fract_z
 _atom_site_occupancy
  Y  Y0  1  0.000000  0.500017  0.519500  1
  Y  Y1  1  0.500000  0.999949  0.480744  1
  Y  Y2  1  0.500000  0.816983  0.203942  1
  Y  Y3  1  0.500000  0.182175  0.204642  1
  Y  Y4  1  0.000000  0.683703  0.795641  1
  Y  Y5  1  0.000000  0.316956  0.794886  1
  Fe  Fe6  1  0.500000  0.499216  0.155872  1
  Fe  Fe7  1  0.000000  0.000440  0.844692  1
  Fe  Fe8  1  0.000000  0.498085  0.988195  1
  Fe  Fe9  1  0.500000  0.000537  0.012258  1
  Co  Co10  1  0.500000  0.667085  0.994688  1
  Co  Co11  1  0.000000  0.170523  0.005585  1
  Co  Co12  1  0.000000  0.831695  0.005515  1
  Co  Co13  1  0.500000  0.297913  0.431052  1
  Co  Co14  1  0.500000  0.701820  0.430643  1
  Co  Co15  1  0.000000  0.201852  0.569178  1
  Co  Co16  1  0.000000  0.798410  0.569227  1
  Co  Co17  1  0.500000  0.878866  0.710473  1
  Co  Co18  1  0.500000  0.121080  0.709126  1
  Co  Co19  1  0.000000  0.621321  0.289652  1
  Co  Co20  1  0.000000  0.379199  0.291516  1
  Ni  Ni21  1  0.500000  0.500035  0.701909  1
  Ni  Ni22  1  0.000000  0.999971  0.297437  1
  Ni  Ni23  1  0.500000  0.331179  0.993349  1
  P  P24  1  0.500000  0.502154  0.883916  1
  P  P25  1  0.000000  0.000633  0.114219  1
  P  P26  1  0.500000  0.500503  0.341403  1
  P  P27  1  0.000000  0.999779  0.659055  1
  P  P28  1  0.500000  0.309426  0.615067  1
  P  P29  1  0.500000  0.691100  0.615258  1
  P  P30  1  0.000000  0.190448  0.384687  1
  P  P31  1  0.000000  0.809171  0.384327  1
  P  P32  1  0.500000  0.847560  0.894351  1
  P  P33  1  0.500000  0.148895  0.891268  1
  P  P34  1  0.000000  0.651842  0.106216  1
  P  P35  1  0.000000  0.349476  0.110512  1
