# generated using pymatgen
data_Y20Ga7Si8Pt
_symmetry_space_group_name_H-M   'P 1'
_cell_length_a   7.45812892
_cell_length_b   7.86000620
_cell_length_c   14.86648760
_cell_angle_alpha   89.94729195
_cell_angle_beta   89.99456696
_cell_angle_gamma   90.22762335
_symmetry_Int_Tables_number   1
_chemical_formula_structural   Y20Ga7Si8Pt
_chemical_formula_sum   'Y20 Ga7 Si8 Pt1'
_cell_volume   871.48022001
_cell_formula_units_Z   1
loop_
 _symmetry_equiv_pos_site_id
 _symmetry_equiv_pos_as_xyz
  1  'x, y, z'
loop_
 _atom_site_type_symbol
 _atom_site_label
 _atom_site_symmetry_multiplicity
 _atom_site_fract_x
 _atom_site_fract_y
 _atom_site_fract_z
 _atom_site_occupancy
  Y  Y0  1  0.677178  0.176112  0.624914  1
  Y  Y1  1  0.186573  0.328591  0.874482  1
  Y  Y2  1  0.319480  0.824132  0.122261  1
  Y  Y3  1  0.820545  0.674862  0.378928  1
  Y  Y4  1  0.318108  0.822438  0.379713  1
  Y  Y5  1  0.819252  0.676531  0.119382  1
  Y  Y6  1  0.678544  0.178133  0.876383  1
  Y  Y7  1  0.186460  0.326777  0.623884  1
  Y  Y8  1  0.519794  0.680917  0.595923  1
  Y  Y9  1  0.024742  0.812758  0.903283  1
  Y  Y10  1  0.477875  0.314379  0.092677  1
  Y  Y11  1  0.977231  0.184521  0.407181  1
  Y  Y12  1  0.475917  0.317092  0.407942  1
  Y  Y13  1  0.974336  0.181584  0.093308  1
  Y  Y14  1  0.521989  0.679126  0.903912  1
  Y  Y15  1  0.026022  0.816792  0.596308  1
  Y  Y16  1  0.838541  0.515696  0.751275  1
  Y  Y17  1  0.353146  0.983176  0.748669  1
  Y  Y18  1  0.151405  0.478349  0.251293  1
  Y  Y19  1  0.651102  0.018745  0.248815  1
  Ga  Ga20  1  0.653465  0.970817  0.458673  1
  Ga  Ga21  1  0.155019  0.527956  0.041631  1
  Ga  Ga22  1  0.343646  0.027944  0.958129  1
  Ga  Ga23  1  0.845657  0.468754  0.541604  1
  Ga  Ga24  1  0.982154  0.101693  0.751310  1
  Ga  Ga25  1  0.524920  0.603256  0.248977  1
  Ga  Ga26  1  0.022854  0.899697  0.251026  1
  Si  Si27  1  0.346454  0.026282  0.541210  1
  Si  Si28  1  0.849472  0.470701  0.958754  1
  Si  Si29  1  0.649316  0.972550  0.041543  1
  Si  Si30  1  0.151687  0.526590  0.458509  1
  Si  Si31  1  0.736205  0.876676  0.750527  1
  Si  Si32  1  0.228119  0.632221  0.749417  1
  Si  Si33  1  0.268072  0.122605  0.250105  1
  Si  Si34  1  0.765758  0.375403  0.249720  1
  Pt  Pt35  1  0.478961  0.406143  0.748333  1
