# generated using pymatgen
data_Sr21Ga8Sn6Pb
_symmetry_space_group_name_H-M   'P 1'
_cell_length_a   12.13637023
_cell_length_b   12.13637054
_cell_length_c   12.13637000
_cell_angle_alpha   60.00000146
_cell_angle_beta   60.00000064
_cell_angle_gamma   59.99999810
_symmetry_Int_Tables_number   1
_chemical_formula_structural   Sr21Ga8Sn6Pb
_chemical_formula_sum   'Sr21 Ga8 Sn6 Pb1'
_cell_volume   1264.01275162
_cell_formula_units_Z   1
loop_
 _symmetry_equiv_pos_site_id
 _symmetry_equiv_pos_as_xyz
  1  'x, y, z'
loop_
 _atom_site_type_symbol
 _atom_site_label
 _atom_site_symmetry_multiplicity
 _atom_site_fract_x
 _atom_site_fract_y
 _atom_site_fract_z
 _atom_site_occupancy
  Sr  Sr0  1  0.868779  0.868779  0.393662  1
  Sr  Sr1  1  0.606338  0.131221  0.131221  1
  Sr  Sr2  1  0.868779  0.393662  0.868779  1
  Sr  Sr3  1  0.131221  0.131221  0.131221  1
  Sr  Sr4  1  0.393662  0.868779  0.868779  1
  Sr  Sr5  1  0.868779  0.868779  0.868779  1
  Sr  Sr6  1  0.175870  0.824130  0.500000  1
  Sr  Sr7  1  0.824130  0.500000  0.500000  1
  Sr  Sr8  1  0.131221  0.131221  0.606338  1
  Sr  Sr9  1  0.824130  0.175870  0.500000  1
  Sr  Sr10  1  0.175870  0.500000  0.500000  1
  Sr  Sr11  1  0.131221  0.606338  0.131221  1
  Sr  Sr12  1  0.500000  0.500000  0.175870  1
  Sr  Sr13  1  0.500000  0.175870  0.824130  1
  Sr  Sr14  1  0.500000  0.824130  0.175870  1
  Sr  Sr15  1  0.500000  0.500000  0.824130  1
  Sr  Sr16  1  0.500000  0.175870  0.500000  1
  Sr  Sr17  1  0.175870  0.500000  0.824130  1
  Sr  Sr18  1  0.000000  0.000000  0.000000  1
  Sr  Sr19  1  0.500000  0.824130  0.500000  1
  Sr  Sr20  1  0.824130  0.500000  0.175870  1
  Ga  Ga21  1  0.693449  0.919655  0.693449  1
  Ga  Ga22  1  0.693449  0.693449  0.919655  1
  Ga  Ga23  1  0.693449  0.693449  0.693449  1
  Ga  Ga24  1  0.306551  0.080345  0.306551  1
  Ga  Ga25  1  0.919655  0.693449  0.693449  1
  Ga  Ga26  1  0.306551  0.306551  0.080345  1
  Ga  Ga27  1  0.080345  0.306551  0.306551  1
  Ga  Ga28  1  0.306551  0.306551  0.306551  1
  Sn  Sn29  1  0.786300  0.213700  0.786300  1
  Sn  Sn30  1  0.786300  0.213700  0.213700  1
  Sn  Sn31  1  0.213700  0.786300  0.213700  1
  Sn  Sn32  1  0.213700  0.786300  0.786300  1
  Sn  Sn33  1  0.786300  0.786300  0.213700  1
  Sn  Sn34  1  0.213700  0.213700  0.786300  1
  Pb  Pb35  1  0.500000  0.500000  0.500000  1
