# generated using pymatgen
data_Yb3EuZrSb3O14
_symmetry_space_group_name_H-M   'P 1'
_cell_length_a   7.43708945
_cell_length_b   7.47086857
_cell_length_c   7.39659921
_cell_angle_alpha   59.94507405
_cell_angle_beta   59.81873907
_cell_angle_gamma   60.14944704
_symmetry_Int_Tables_number   1
_chemical_formula_structural   Yb3EuZrSb3O14
_chemical_formula_sum   'Yb3 Eu1 Zr1 Sb3 O14'
_cell_volume   290.40157547
_cell_formula_units_Z   1
loop_
 _symmetry_equiv_pos_site_id
 _symmetry_equiv_pos_as_xyz
  1  'x, y, z'
loop_
 _atom_site_type_symbol
 _atom_site_label
 _atom_site_symmetry_multiplicity
 _atom_site_fract_x
 _atom_site_fract_y
 _atom_site_fract_z
 _atom_site_occupancy
  Yb  Yb0  1  0.625000  0.125000  0.625000  1
  Yb  Yb1  1  0.125000  0.625000  0.625000  1
  Yb  Yb2  1  0.625000  0.625000  0.625000  1
  Eu  Eu3  1  0.625000  0.625000  0.125000  1
  Zr  Zr4  1  0.125000  0.625000  0.125000  1
  Sb  Sb5  1  0.125000  0.125000  0.625000  1
  Sb  Sb6  1  0.625000  0.125000  0.125000  1
  Sb  Sb7  1  0.125000  0.125000  0.125000  1
  O  O8  1  0.745938  0.748889  0.759236  1
  O  O9  1  0.504062  0.501111  0.490764  1
  O  O10  1  0.048786  0.444212  0.043569  1
  O  O11  1  0.799701  0.193430  0.799587  1
  O  O12  1  0.042720  0.056570  0.450413  1
  O  O13  1  0.449682  0.057865  0.042770  1
  O  O14  1  0.045523  0.444347  0.464606  1
  O  O15  1  0.463431  0.444212  0.043569  1
  O  O16  1  0.450299  0.056570  0.450413  1
  O  O17  1  0.204477  0.805653  0.785394  1
  O  O18  1  0.800318  0.192135  0.207230  1
  O  O19  1  0.201214  0.805788  0.206431  1
  O  O20  1  0.786569  0.805788  0.206431  1
  O  O21  1  0.207280  0.193430  0.799587  1
