# generated using pymatgen
data_Sc8Ta3Ti(Si2Mo)8
_symmetry_space_group_name_H-M   'P 1'
_cell_length_a   6.60620630
_cell_length_b   6.83486925
_cell_length_c   12.78806200
_cell_angle_alpha   90.00000000
_cell_angle_beta   90.00000000
_cell_angle_gamma   89.99509217
_symmetry_Int_Tables_number   1
_chemical_formula_structural   Sc8Ta3Ti(Si2Mo)8
_chemical_formula_sum   'Sc8 Ta3 Ti1 Si16 Mo8'
_cell_volume   577.41368658
_cell_formula_units_Z   1
loop_
 _symmetry_equiv_pos_site_id
 _symmetry_equiv_pos_as_xyz
  1  'x, y, z'
loop_
 _atom_site_type_symbol
 _atom_site_label
 _atom_site_symmetry_multiplicity
 _atom_site_fract_x
 _atom_site_fract_y
 _atom_site_fract_z
 _atom_site_occupancy
  Sc  Sc0  1  0.499135  0.326915  0.094654  1
  Sc  Sc1  1  0.000219  0.172897  0.404845  1
  Sc  Sc2  1  0.501680  0.672253  0.593868  1
  Sc  Sc3  1  0.000684  0.826775  0.905943  1
  Sc  Sc4  1  0.501680  0.672253  0.906132  1
  Sc  Sc5  1  0.000684  0.826775  0.594057  1
  Sc  Sc6  1  0.499135  0.326915  0.405346  1
  Sc  Sc7  1  0.000219  0.172897  0.095155  1
  Ta  Ta8  1  0.660159  0.003938  0.750000  1
  Ta  Ta9  1  0.160009  0.495972  0.750000  1
  Ta  Ta10  1  0.339533  0.995660  0.250000  1
  Ti  Ti11  1  0.840532  0.506876  0.250000  1
  Si  Si12  1  0.667696  0.037510  0.541399  1
  Si  Si13  1  0.166609  0.462413  0.958650  1
  Si  Si14  1  0.333060  0.961575  0.041373  1
  Si  Si15  1  0.833095  0.536785  0.457137  1
  Si  Si16  1  0.333060  0.961575  0.458627  1
  Si  Si17  1  0.833095  0.536785  0.042863  1
  Si  Si18  1  0.667696  0.037510  0.958601  1
  Si  Si19  1  0.166609  0.462413  0.541350  1
  Si  Si20  1  0.535614  0.381059  0.750000  1
  Si  Si21  1  0.035455  0.119036  0.750000  1
  Si  Si22  1  0.465807  0.617998  0.250000  1
  Si  Si23  1  0.962974  0.879181  0.250000  1
  Si  Si24  1  0.794059  0.638622  0.750000  1
  Si  Si25  1  0.294001  0.861572  0.750000  1
  Si  Si26  1  0.203402  0.364780  0.250000  1
  Si  Si27  1  0.707389  0.139811  0.250000  1
  Mo  Mo28  1  0.830909  0.334104  0.623977  1
  Mo  Mo29  1  0.331544  0.166673  0.876158  1
  Mo  Mo30  1  0.167863  0.667743  0.124098  1
  Mo  Mo31  1  0.668038  0.832106  0.376000  1
  Mo  Mo32  1  0.167863  0.667743  0.375902  1
  Mo  Mo33  1  0.668038  0.832106  0.124000  1
  Mo  Mo34  1  0.830909  0.334104  0.876023  1
  Mo  Mo35  1  0.331544  0.166673  0.623842  1
