# generated using pymatgen
data_Ho6Er2Ti5Si16Mo7
_symmetry_space_group_name_H-M   'P 1'
_cell_length_a   6.92563405
_cell_length_b   6.91732567
_cell_length_c   12.80645901
_cell_angle_alpha   89.88888864
_cell_angle_beta   90.00330365
_cell_angle_gamma   90.04032728
_symmetry_Int_Tables_number   1
_chemical_formula_structural   Ho6Er2Ti5Si16Mo7
_chemical_formula_sum   'Ho6 Er2 Ti5 Si16 Mo7'
_cell_volume   613.51601168
_cell_formula_units_Z   1
loop_
 _symmetry_equiv_pos_site_id
 _symmetry_equiv_pos_as_xyz
  1  'x, y, z'
loop_
 _atom_site_type_symbol
 _atom_site_label
 _atom_site_symmetry_multiplicity
 _atom_site_fract_x
 _atom_site_fract_y
 _atom_site_fract_z
 _atom_site_occupancy
  Ho  Ho0  1  0.340611  0.002671  0.467341  1
  Ho  Ho1  1  0.498109  0.840468  0.718833  1
  Ho  Ho2  1  0.501380  0.160169  0.218720  1
  Ho  Ho3  1  0.839578  0.497118  0.280799  1
  Ho  Ho4  1  0.160099  0.501723  0.782698  1
  Ho  Ho5  1  0.659723  0.998133  0.968502  1
  Er  Er6  1  0.001930  0.339782  0.531758  1
  Er  Er7  1  0.997155  0.661235  0.030970  1
  Ti  Ti8  1  0.330116  0.330852  0.999538  1
  Ti  Ti9  1  0.168768  0.829383  0.249968  1
  Ti  Ti10  1  0.828721  0.171399  0.750353  1
  Ti  Ti11  1  0.669774  0.667000  0.499266  1
  Ti  Ti12  1  0.994446  0.840792  0.625801  1
  Si  Si13  1  0.202780  0.129591  0.683334  1
  Si  Si14  1  0.371254  0.702204  0.933704  1
  Si  Si15  1  0.630679  0.298707  0.433666  1
  Si  Si16  1  0.700197  0.371215  0.066644  1
  Si  Si17  1  0.300000  0.628572  0.565762  1
  Si  Si18  1  0.798406  0.870917  0.183202  1
  Si  Si19  1  0.127044  0.201041  0.316869  1
  Si  Si20  1  0.872631  0.799349  0.816464  1
  Si  Si21  1  0.289126  0.959446  0.062927  1
  Si  Si22  1  0.540147  0.788861  0.312687  1
  Si  Si23  1  0.458959  0.211007  0.812695  1
  Si  Si24  1  0.790193  0.542140  0.687474  1
  Si  Si25  1  0.209803  0.459174  0.186722  1
  Si  Si26  1  0.710808  0.042020  0.563296  1
  Si  Si27  1  0.958949  0.290613  0.937546  1
  Si  Si28  1  0.042943  0.709385  0.437242  1
  Mo  Mo29  1  0.160185  0.008935  0.875261  1
  Mo  Mo30  1  0.492260  0.658883  0.124136  1
  Mo  Mo31  1  0.507359  0.340828  0.623422  1
  Mo  Mo32  1  0.658262  0.492437  0.877738  1
  Mo  Mo33  1  0.341882  0.503842  0.374775  1
  Mo  Mo34  1  0.839689  0.990843  0.373316  1
  Mo  Mo35  1  0.006039  0.159267  0.126573  1
