# generated using pymatgen
data_Hf3BiB
_symmetry_space_group_name_H-M   'P 1'
_cell_length_a   6.10800758
_cell_length_b   6.10800714
_cell_length_c   9.30341600
_cell_angle_alpha   90.00000000
_cell_angle_beta   90.00000000
_cell_angle_gamma   145.26037314
_symmetry_Int_Tables_number   1
_chemical_formula_structural   Hf3BiB
_chemical_formula_sum   'Hf6 Bi2 B2'
_cell_volume   197.78828779
_cell_formula_units_Z   2
loop_
 _symmetry_equiv_pos_site_id
 _symmetry_equiv_pos_as_xyz
  1  'x, y, z'
loop_
 _atom_site_type_symbol
 _atom_site_label
 _atom_site_symmetry_multiplicity
 _atom_site_fract_x
 _atom_site_fract_y
 _atom_site_fract_z
 _atom_site_occupancy
  Hf  Hf0  1  0.125556  0.874443  0.043572  1
  Hf  Hf1  1  0.464111  0.535887  0.250000  1
  Hf  Hf2  1  0.125556  0.874443  0.456427  1
  Hf  Hf3  1  0.874443  0.125556  0.543572  1
  Hf  Hf4  1  0.535887  0.464111  0.750000  1
  Hf  Hf5  1  0.874443  0.125556  0.956427  1
  Bi  Bi6  1  0.751673  0.248325  0.250000  1
  Bi  Bi7  1  0.248325  0.751673  0.750000  1
  B  B8  1  0.499999  0.499999  0.000000  1
  B  B9  1  0.499999  0.499999  0.500000  1
