# generated using pymatgen
data_BaTlVSe4
_symmetry_space_group_name_H-M   'P 1'
_cell_length_a   10.09653100
_cell_length_b   6.86172294
_cell_length_c   12.88676800
_cell_angle_alpha   70.70208078
_cell_angle_beta   90.00000000
_cell_angle_gamma   90.00000000
_symmetry_Int_Tables_number   1
_chemical_formula_structural   BaTlVSe4
_chemical_formula_sum   'Ba4 Tl4 V4 Se16'
_cell_volume   842.62687268
_cell_formula_units_Z   4
loop_
 _symmetry_equiv_pos_site_id
 _symmetry_equiv_pos_as_xyz
  1  'x, y, z'
loop_
 _atom_site_type_symbol
 _atom_site_label
 _atom_site_symmetry_multiplicity
 _atom_site_fract_x
 _atom_site_fract_y
 _atom_site_fract_z
 _atom_site_occupancy
  Ba  Ba0  1  0.883523  0.378216  0.343242  1
  Ba  Ba1  1  0.616477  0.378216  0.843242  1
  Ba  Ba2  1  0.116477  0.621784  0.656758  1
  Ba  Ba3  1  0.383523  0.621784  0.156758  1
  Tl  Tl4  1  0.117234  0.219974  0.030440  1
  Tl  Tl5  1  0.382766  0.219974  0.530440  1
  Tl  Tl6  1  0.882766  0.780026  0.969560  1
  Tl  Tl7  1  0.617234  0.780026  0.469560  1
  V  V8  1  0.621471  0.122175  0.174856  1
  V  V9  1  0.878529  0.122175  0.674856  1
  V  V10  1  0.378529  0.877825  0.825144  1
  V  V11  1  0.121471  0.877825  0.325144  1
  Se  Se12  1  0.801785  0.295962  0.084641  1
  Se  Se13  1  0.698215  0.295962  0.584641  1
  Se  Se14  1  0.198215  0.704038  0.915359  1
  Se  Se15  1  0.301785  0.704038  0.415359  1
  Se  Se16  1  0.937259  0.813896  0.432617  1
  Se  Se17  1  0.562741  0.813896  0.932617  1
  Se  Se18  1  0.062741  0.186104  0.567383  1
  Se  Se19  1  0.437259  0.186104  0.067383  1
  Se  Se20  1  0.576997  0.228088  0.322836  1
  Se  Se21  1  0.923003  0.228088  0.822836  1
  Se  Se22  1  0.423003  0.771912  0.677164  1
  Se  Se23  1  0.076997  0.771912  0.177164  1
  Se  Se24  1  0.167082  0.223972  0.267505  1
  Se  Se25  1  0.332918  0.223972  0.767505  1
  Se  Se26  1  0.832918  0.776028  0.732495  1
  Se  Se27  1  0.667082  0.776028  0.232495  1
