# generated using pymatgen
data_NdDy3(Co2Tc)2
_symmetry_space_group_name_H-M   'P 1'
_cell_length_a   5.56720722
_cell_length_b   5.56720712
_cell_length_c   7.07804584
_cell_angle_alpha   90.24343440
_cell_angle_beta   89.75656480
_cell_angle_gamma   121.41409502
_symmetry_Int_Tables_number   1
_chemical_formula_structural   NdDy3(Co2Tc)2
_chemical_formula_sum   'Nd1 Dy3 Co4 Tc2'
_cell_volume   187.21779386
_cell_formula_units_Z   1
loop_
 _symmetry_equiv_pos_site_id
 _symmetry_equiv_pos_as_xyz
  1  'x, y, z'
loop_
 _atom_site_type_symbol
 _atom_site_label
 _atom_site_symmetry_multiplicity
 _atom_site_fract_x
 _atom_site_fract_y
 _atom_site_fract_z
 _atom_site_occupancy
  Nd  Nd0  1  0.167448  0.832552  0.597773  1
  Dy  Dy1  1  0.664715  0.335285  0.905639  1
  Dy  Dy2  1  0.334139  0.665861  0.097676  1
  Dy  Dy3  1  0.834562  0.165438  0.398536  1
  Co  Co4  1  0.670434  0.832170  0.751671  1
  Co  Co5  1  0.830110  0.664646  0.247275  1
  Co  Co6  1  0.335354  0.169890  0.247275  1
  Co  Co7  1  0.167830  0.329566  0.751671  1
  Tc  Tc8  1  0.498530  0.501470  0.498707  1
  Tc  Tc9  1  0.996881  0.003119  0.003776  1
