# generated using pymatgen
data_YTh2Al2GaNi3
_symmetry_space_group_name_H-M   'P 1'
_cell_length_a   7.12453707
_cell_length_b   7.07121646
_cell_length_c   3.98359700
_cell_angle_alpha   90.00000000
_cell_angle_beta   90.00000000
_cell_angle_gamma   120.81157989
_symmetry_Int_Tables_number   1
_chemical_formula_structural   YTh2Al2GaNi3
_chemical_formula_sum   'Y1 Th2 Al2 Ga1 Ni3'
_cell_volume   172.36406632
_cell_formula_units_Z   1
loop_
 _symmetry_equiv_pos_site_id
 _symmetry_equiv_pos_as_xyz
  1  'x, y, z'
loop_
 _atom_site_type_symbol
 _atom_site_label
 _atom_site_symmetry_multiplicity
 _atom_site_fract_x
 _atom_site_fract_y
 _atom_site_fract_z
 _atom_site_occupancy
  Y  Y0  1  0.414914  0.414041  0.000000  1
  Th  Th1  1  0.000913  0.581370  0.000000  1
  Th  Th2  1  0.576391  0.999669  0.000000  1
  Al  Al3  1  0.762058  0.763477  0.500000  1
  Al  Al4  1  0.005131  0.229856  0.500000  1
  Ga  Ga5  1  0.234628  0.007980  0.500000  1
  Ni  Ni6  1  0.681028  0.336541  0.500000  1
  Ni  Ni7  1  0.989321  0.995170  0.000000  1
  Ni  Ni8  1  0.335615  0.671895  0.500000  1
