# generated using pymatgen
data_Cs4MoAsCl12
_symmetry_space_group_name_H-M   'P 1'
_cell_length_a   7.42912500
_cell_length_b   7.42912500
_cell_length_c   10.76829500
_cell_angle_alpha   90.00000000
_cell_angle_beta   90.00000000
_cell_angle_gamma   90.00000000
_symmetry_Int_Tables_number   1
_chemical_formula_structural   Cs4MoAsCl12
_chemical_formula_sum   'Cs4 Mo1 As1 Cl12'
_cell_volume   594.32264213
_cell_formula_units_Z   1
loop_
 _symmetry_equiv_pos_site_id
 _symmetry_equiv_pos_as_xyz
  1  'x, y, z'
loop_
 _atom_site_type_symbol
 _atom_site_label
 _atom_site_symmetry_multiplicity
 _atom_site_fract_x
 _atom_site_fract_y
 _atom_site_fract_z
 _atom_site_occupancy
  Cs  Cs0  1  0.500000  0.000000  0.770661  1
  Cs  Cs1  1  0.000000  0.500000  0.229339  1
  Cs  Cs2  1  0.500000  0.000000  0.229339  1
  Cs  Cs3  1  0.000000  0.500000  0.770661  1
  Mo  Mo4  1  0.500000  0.500000  0.500000  1
  As  As5  1  0.000000  0.000000  0.000000  1
  Cl  Cl6  1  0.000000  0.000000  0.768651  1
  Cl  Cl7  1  0.500000  0.500000  0.279009  1
  Cl  Cl8  1  0.725507  0.725507  0.500000  1
  Cl  Cl9  1  0.236823  0.236823  0.000000  1
  Cl  Cl10  1  0.725507  0.274493  0.500000  1
  Cl  Cl11  1  0.236823  0.763177  0.000000  1
  Cl  Cl12  1  0.000000  0.000000  0.231349  1
  Cl  Cl13  1  0.500000  0.500000  0.720991  1
  Cl  Cl14  1  0.274493  0.274493  0.500000  1
  Cl  Cl15  1  0.763177  0.763177  0.000000  1
  Cl  Cl16  1  0.274493  0.725507  0.500000  1
  Cl  Cl17  1  0.763177  0.236823  0.000000  1
