# generated using pymatgen
data_SmDyY2(CrB4)4
_symmetry_space_group_name_H-M   'P 1'
_cell_length_a   5.95870658
_cell_length_b   11.51675846
_cell_length_c   3.46523800
_cell_angle_alpha   90.00000000
_cell_angle_beta   90.00000000
_cell_angle_gamma   89.92943944
_symmetry_Int_Tables_number   1
_chemical_formula_structural   SmDyY2(CrB4)4
_chemical_formula_sum   'Sm1 Dy1 Y2 Cr4 B16'
_cell_volume   237.80172341
_cell_formula_units_Z   1
loop_
 _symmetry_equiv_pos_site_id
 _symmetry_equiv_pos_as_xyz
  1  'x, y, z'
loop_
 _atom_site_type_symbol
 _atom_site_label
 _atom_site_symmetry_multiplicity
 _atom_site_fract_x
 _atom_site_fract_y
 _atom_site_fract_z
 _atom_site_occupancy
  Sm  Sm0  1  0.624207  0.348867  0.000000  1
  Dy  Dy1  1  0.875761  0.849141  0.000000  1
  Y  Y2  1  0.375734  0.651325  0.000000  1
  Y  Y3  1  0.124188  0.150360  0.000000  1
  Cr  Cr4  1  0.623699  0.079718  0.000000  1
  Cr  Cr5  1  0.376143  0.918656  0.000000  1
  Cr  Cr6  1  0.123976  0.419609  0.000000  1
  Cr  Cr7  1  0.876310  0.581951  0.000000  1
  B  B8  1  0.781330  0.182637  0.500000  1
  B  B9  1  0.218812  0.815973  0.500000  1
  B  B10  1  0.279009  0.315784  0.500000  1
  B  B11  1  0.718985  0.684812  0.500000  1
  B  B12  1  0.862599  0.031727  0.500000  1
  B  B13  1  0.137519  0.967086  0.500000  1
  B  B14  1  0.361376  0.468537  0.500000  1
  B  B15  1  0.638248  0.533757  0.500000  1
  B  B16  1  0.888775  0.454523  0.500000  1
  B  B17  1  0.113328  0.547493  0.500000  1
  B  B18  1  0.386487  0.045929  0.500000  1
  B  B19  1  0.613128  0.952902  0.500000  1
  B  B20  1  0.976354  0.308912  0.500000  1
  B  B21  1  0.024861  0.691892  0.500000  1
  B  B22  1  0.474106  0.189728  0.500000  1
  B  B23  1  0.525066  0.808682  0.500000  1
