# generated using pymatgen
data_PrTa5NbCl18
_symmetry_space_group_name_H-M   'P 1'
_cell_length_a   10.30290528
_cell_length_b   10.30261588
_cell_length_c   10.29683402
_cell_angle_alpha   55.86343391
_cell_angle_beta   55.86693188
_cell_angle_gamma   55.82286141
_symmetry_Int_Tables_number   1
_chemical_formula_structural   PrTa5NbCl18
_chemical_formula_sum   'Pr1 Ta5 Nb1 Cl18'
_cell_volume   698.51613191
_cell_formula_units_Z   1
loop_
 _symmetry_equiv_pos_site_id
 _symmetry_equiv_pos_as_xyz
  1  'x, y, z'
loop_
 _atom_site_type_symbol
 _atom_site_label
 _atom_site_symmetry_multiplicity
 _atom_site_fract_x
 _atom_site_fract_y
 _atom_site_fract_z
 _atom_site_occupancy
  Pr  Pr0  1  0.999743  0.999630  0.000174  1
  Ta  Ta1  1  0.412526  0.303288  0.646162  1
  Ta  Ta2  1  0.353532  0.588009  0.697109  1
  Ta  Ta3  1  0.697354  0.353579  0.587685  1
  Ta  Ta4  1  0.302879  0.646811  0.412011  1
  Ta  Ta5  1  0.646714  0.412379  0.302589  1
  Nb  Nb6  1  0.588249  0.698210  0.352705  1
  Cl  Cl7  1  0.569243  0.167033  0.440388  1
  Cl  Cl8  1  0.227954  0.370338  0.902718  1
  Cl  Cl9  1  0.902700  0.227772  0.370399  1
  Cl  Cl10  1  0.366970  0.903705  0.227642  1
  Cl  Cl11  1  0.773586  0.627325  0.095242  1
  Cl  Cl12  1  0.097229  0.771992  0.629761  1
  Cl  Cl13  1  0.695791  0.956569  0.164512  1
  Cl  Cl14  1  0.951600  0.167080  0.694653  1
  Cl  Cl15  1  0.167692  0.693448  0.952243  1
  Cl  Cl16  1  0.305616  0.049292  0.831733  1
  Cl  Cl17  1  0.048144  0.831508  0.306100  1
  Cl  Cl18  1  0.832218  0.305144  0.048620  1
  Cl  Cl19  1  0.559495  0.430688  0.833099  1
  Cl  Cl20  1  0.167033  0.440520  0.569168  1
  Cl  Cl21  1  0.440424  0.569136  0.167009  1
  Cl  Cl22  1  0.428244  0.833094  0.563146  1
  Cl  Cl23  1  0.835316  0.556196  0.432974  1
  Cl  Cl24  1  0.629749  0.097253  0.772158  1
