# generated using pymatgen
data_Yb7Sc(CdIn)4
_symmetry_space_group_name_H-M   'P 1'
_cell_length_a   7.59079581
_cell_length_b   7.44557538
_cell_length_c   7.58852456
_cell_angle_alpha   89.97140412
_cell_angle_beta   89.65770431
_cell_angle_gamma   90.02344360
_symmetry_Int_Tables_number   1
_chemical_formula_structural   Yb7Sc(CdIn)4
_chemical_formula_sum   'Yb7 Sc1 Cd4 In4'
_cell_volume   428.87929202
_cell_formula_units_Z   1
loop_
 _symmetry_equiv_pos_site_id
 _symmetry_equiv_pos_as_xyz
  1  'x, y, z'
loop_
 _atom_site_type_symbol
 _atom_site_label
 _atom_site_symmetry_multiplicity
 _atom_site_fract_x
 _atom_site_fract_y
 _atom_site_fract_z
 _atom_site_occupancy
  Yb  Yb0  1  0.249996  0.499992  0.250003  1
  Yb  Yb1  1  0.750002  0.999974  0.249999  1
  Yb  Yb2  1  0.249991  0.999974  0.249997  1
  Yb  Yb3  1  0.749997  0.499982  0.250001  1
  Yb  Yb4  1  0.250004  0.499978  0.749996  1
  Yb  Yb5  1  0.749989  0.499998  0.750000  1
  Yb  Yb6  1  0.250000  0.999979  0.750004  1
  Sc  Sc7  1  0.749980  0.000122  0.750027  1
  Cd  Cd8  1  0.994060  0.245014  0.994216  1
  Cd  Cd9  1  0.994113  0.754948  0.994137  1
  Cd  Cd10  1  0.505957  0.754973  0.505792  1
  Cd  Cd11  1  0.505869  0.244997  0.505837  1
  In  In12  1  0.505268  0.243259  0.994673  1
  In  In13  1  0.505245  0.756871  0.994769  1
  In  In14  1  0.994722  0.756739  0.505354  1
  In  In15  1  0.994848  0.243199  0.505229  1
