# generated using pymatgen
data_MgZn3(AsO3)8
_symmetry_space_group_name_H-M   'P 1'
_cell_length_a   4.85846607
_cell_length_b   10.41355720
_cell_length_c   8.41388400
_cell_angle_alpha   66.17233549
_cell_angle_beta   90.00000000
_cell_angle_gamma   76.54343981
_symmetry_Int_Tables_number   1
_chemical_formula_structural   MgZn3(AsO3)8
_chemical_formula_sum   'Mg1 Zn3 As8 O24'
_cell_volume   376.59644762
_cell_formula_units_Z   1
loop_
 _symmetry_equiv_pos_site_id
 _symmetry_equiv_pos_as_xyz
  1  'x, y, z'
loop_
 _atom_site_type_symbol
 _atom_site_label
 _atom_site_symmetry_multiplicity
 _atom_site_fract_x
 _atom_site_fract_y
 _atom_site_fract_z
 _atom_site_occupancy
  Mg  Mg0  1  0.000000  0.000000  0.000000  1
  Zn  Zn1  1  0.500000  0.000000  0.500000  1
  Zn  Zn2  1  0.250230  0.499951  0.250025  1
  Zn  Zn3  1  0.749770  0.500049  0.749975  1
  As  As4  1  0.624710  0.749699  0.291659  1
  As  As5  1  0.375290  0.250301  0.041358  1
  As  As6  1  0.125362  0.749755  0.791979  1
  As  As7  1  0.874638  0.250245  0.541735  1
  As  As8  1  0.125362  0.749755  0.458265  1
  As  As9  1  0.874638  0.250245  0.208021  1
  As  As10  1  0.624710  0.749699  0.958642  1
  As  As11  1  0.375290  0.250301  0.708341  1
  O  O12  1  0.751185  0.862316  0.386229  1
  O  O13  1  0.501122  0.362453  0.136505  1
  O  O14  1  0.250620  0.861510  0.888241  1
  O  O15  1  0.001408  0.362547  0.636511  1
  O  O16  1  0.204926  0.862079  0.568960  1
  O  O17  1  0.954781  0.362171  0.318915  1
  O  O18  1  0.706020  0.861675  0.069163  1
  O  O19  1  0.454283  0.362775  0.818612  1
  O  O20  1  0.250620  0.861510  0.250248  1
  O  O21  1  0.001408  0.362547  0.000941  1
  O  O22  1  0.751185  0.862316  0.751454  1
  O  O23  1  0.501122  0.362453  0.501042  1
  O  O24  1  0.045219  0.637829  0.681085  1
  O  O25  1  0.795074  0.137921  0.431040  1
  O  O26  1  0.545717  0.637225  0.181388  1
  O  O27  1  0.293980  0.138325  0.930837  1
  O  O28  1  0.498878  0.637547  0.498958  1
  O  O29  1  0.248815  0.137684  0.248546  1
  O  O30  1  0.998592  0.637453  0.999059  1
  O  O31  1  0.749380  0.138490  0.749752  1
  O  O32  1  0.998592  0.637453  0.363489  1
  O  O33  1  0.749380  0.138490  0.111759  1
  O  O34  1  0.498878  0.637547  0.863495  1
  O  O35  1  0.248815  0.137684  0.613771  1
