# generated using pymatgen
data_ErTm3(Co5P3)4
_symmetry_space_group_name_H-M   'P 1'
_cell_length_a   3.63536500
_cell_length_b   10.25439812
_cell_length_c   11.70996518
_cell_angle_alpha   89.98343228
_cell_angle_beta   90.00000000
_cell_angle_gamma   90.00000000
_symmetry_Int_Tables_number   1
_chemical_formula_structural   ErTm3(Co5P3)4
_chemical_formula_sum   'Er1 Tm3 Co20 P12'
_cell_volume   436.52968475
_cell_formula_units_Z   1
loop_
 _symmetry_equiv_pos_site_id
 _symmetry_equiv_pos_as_xyz
  1  'x, y, z'
loop_
 _atom_site_type_symbol
 _atom_site_label
 _atom_site_symmetry_multiplicity
 _atom_site_fract_x
 _atom_site_fract_y
 _atom_site_fract_z
 _atom_site_occupancy
  Er  Er0  1  0.750000  0.082915  0.797141  1
  Tm  Tm1  1  0.250000  0.582583  0.702654  1
  Tm  Tm2  1  0.250000  0.917168  0.202453  1
  Tm  Tm3  1  0.750000  0.417399  0.297432  1
  Co  Co4  1  0.250000  0.716969  0.992579  1
  Co  Co5  1  0.250000  0.782656  0.491760  1
  Co  Co6  1  0.750000  0.282984  0.008233  1
  Co  Co7  1  0.750000  0.217223  0.508029  1
  Co  Co8  1  0.250000  0.407237  0.487387  1
  Co  Co9  1  0.250000  0.092581  0.988287  1
  Co  Co10  1  0.750000  0.592690  0.512580  1
  Co  Co11  1  0.750000  0.906869  0.012848  1
  Co  Co12  1  0.250000  0.221744  0.176930  1
  Co  Co13  1  0.250000  0.278926  0.676673  1
  Co  Co14  1  0.750000  0.778460  0.823340  1
  Co  Co15  1  0.750000  0.721262  0.323257  1
  Co  Co16  1  0.250000  0.882337  0.698628  1
  Co  Co17  1  0.250000  0.616975  0.199293  1
  Co  Co18  1  0.750000  0.117214  0.300708  1
  Co  Co19  1  0.750000  0.383511  0.801066  1
  Co  Co20  1  0.250000  0.468355  0.931617  1
  Co  Co21  1  0.250000  0.032158  0.430560  1
  Co  Co22  1  0.750000  0.532459  0.068839  1
  Co  Co23  1  0.750000  0.967179  0.567812  1
  P  P24  1  0.250000  0.418681  0.112828  1
  P  P25  1  0.250000  0.081573  0.611790  1
  P  P26  1  0.750000  0.581656  0.887499  1
  P  P27  1  0.750000  0.918478  0.386694  1
  P  P28  1  0.250000  0.270131  0.870673  1
  P  P29  1  0.250000  0.230624  0.370189  1
  P  P30  1  0.750000  0.730340  0.130122  1
  P  P31  1  0.750000  0.769317  0.629751  1
  P  P32  1  0.250000  0.600879  0.390964  1
  P  P33  1  0.250000  0.898437  0.891143  1
  P  P34  1  0.750000  0.399027  0.609129  1
  P  P35  1  0.750000  0.101006  0.109112  1
