# generated using pymatgen
data_Dy5Tm3As4(PIr2)8
_symmetry_space_group_name_H-M   'P 1'
_cell_length_a   13.19033037
_cell_length_b   13.10924511
_cell_length_c   4.00309500
_cell_angle_alpha   90.00000000
_cell_angle_beta   90.00000000
_cell_angle_gamma   120.03448983
_symmetry_Int_Tables_number   1
_chemical_formula_structural   Dy5Tm3As4(PIr2)8
_chemical_formula_sum   'Dy5 Tm3 As4 P8 Ir16'
_cell_volume   599.25110660
_cell_formula_units_Z   1
loop_
 _symmetry_equiv_pos_site_id
 _symmetry_equiv_pos_as_xyz
  1  'x, y, z'
loop_
 _atom_site_type_symbol
 _atom_site_label
 _atom_site_symmetry_multiplicity
 _atom_site_fract_x
 _atom_site_fract_y
 _atom_site_fract_z
 _atom_site_occupancy
  Dy  Dy0  1  0.327999  0.665789  0.500000  1
  Dy  Dy1  1  0.666913  0.333258  0.500000  1
  Dy  Dy2  1  0.000867  0.816794  0.000000  1
  Dy  Dy3  1  0.183036  0.183450  0.000000  1
  Dy  Dy4  1  0.817415  0.000352  0.000000  1
  Tm  Tm5  1  0.998373  0.443846  0.500000  1
  Tm  Tm6  1  0.558941  0.553971  0.500000  1
  Tm  Tm7  1  0.444166  0.001012  0.500000  1
  As  As8  1  0.000605  0.652129  0.500000  1
  As  As9  1  0.347472  0.349385  0.500000  1
  As  As10  1  0.651377  0.001486  0.500000  1
  As  As11  1  0.513065  0.686147  0.000000  1
  P  P12  1  0.309581  0.829191  0.000000  1
  P  P13  1  0.169611  0.480063  0.000000  1
  P  P14  1  0.482859  0.173553  0.000000  1
  P  P15  1  0.692187  0.518164  0.000000  1
  P  P16  1  0.826678  0.309930  0.000000  1
  P  P17  1  0.998663  0.175363  0.500000  1
  P  P18  1  0.826012  0.824933  0.500000  1
  P  P19  1  0.177310  0.001126  0.500000  1
  Ir  Ir20  1  0.503008  0.867747  0.000000  1
  Ir  Ir21  1  0.139671  0.641551  0.000000  1
  Ir  Ir22  1  0.347986  0.479445  0.000000  1
  Ir  Ir23  1  0.499757  0.359901  0.000000  1
  Ir  Ir24  1  0.863440  0.504795  0.000000  1
  Ir  Ir25  1  0.641719  0.138181  0.000000  1
  Ir  Ir26  1  0.998684  0.270722  0.000000  1
  Ir  Ir27  1  0.733271  0.729459  0.000000  1
  Ir  Ir28  1  0.271637  0.000469  0.000000  1
  Ir  Ir29  1  0.635245  0.808172  0.500000  1
  Ir  Ir30  1  0.199060  0.825608  0.500000  1
  Ir  Ir31  1  0.171135  0.372869  0.500000  1
  Ir  Ir32  1  0.373087  0.175402  0.500000  1
  Ir  Ir33  1  0.802252  0.625989  0.500000  1
  Ir  Ir34  1  0.825278  0.198769  0.500000  1
  Ir  Ir35  1  0.001638  0.000981  0.500000  1
