# generated using pymatgen
data_Eu2Tc(MoO6)2
_symmetry_space_group_name_H-M   'P 1'
_cell_length_a   7.15876092
_cell_length_b   7.15876113
_cell_length_c   11.72732576
_cell_angle_alpha   80.06793172
_cell_angle_beta   80.06793160
_cell_angle_gamma   114.08472288
_symmetry_Int_Tables_number   1
_chemical_formula_structural   Eu2Tc(MoO6)2
_chemical_formula_sum   'Eu4 Tc2 Mo4 O24'
_cell_volume   520.37231487
_cell_formula_units_Z   2
loop_
 _symmetry_equiv_pos_site_id
 _symmetry_equiv_pos_as_xyz
  1  'x, y, z'
loop_
 _atom_site_type_symbol
 _atom_site_label
 _atom_site_symmetry_multiplicity
 _atom_site_fract_x
 _atom_site_fract_y
 _atom_site_fract_z
 _atom_site_occupancy
  Eu  Eu0  1  0.449003  0.188332  0.093963  1
  Eu  Eu1  1  0.811668  0.550997  0.406037  1
  Eu  Eu2  1  0.550997  0.811668  0.906037  1
  Eu  Eu3  1  0.188332  0.449003  0.593963  1
  Tc  Tc4  1  0.617944  0.382056  0.750000  1
  Tc  Tc5  1  0.382056  0.617944  0.250000  1
  Mo  Mo6  1  0.988402  0.698149  0.050495  1
  Mo  Mo7  1  0.301851  0.011598  0.449505  1
  Mo  Mo8  1  0.011598  0.301851  0.949505  1
  Mo  Mo9  1  0.698149  0.988402  0.550495  1
  O  O10  1  0.552546  0.470609  0.619654  1
  O  O11  1  0.529391  0.447454  0.880346  1
  O  O12  1  0.447454  0.529391  0.380346  1
  O  O13  1  0.470609  0.552546  0.119654  1
  O  O14  1  0.886647  0.814682  0.948065  1
  O  O15  1  0.185318  0.113353  0.551935  1
  O  O16  1  0.113353  0.185318  0.051935  1
  O  O17  1  0.814682  0.886647  0.448065  1
  O  O18  1  0.295487  0.133206  0.303358  1
  O  O19  1  0.866794  0.704513  0.196642  1
  O  O20  1  0.704513  0.866794  0.696642  1
  O  O21  1  0.133206  0.295487  0.803358  1
  O  O22  1  0.171344  0.599057  0.922274  1
  O  O23  1  0.400943  0.828656  0.577726  1
  O  O24  1  0.828656  0.400943  0.077726  1
  O  O25  1  0.599057  0.171344  0.422274  1
  O  O26  1  0.491328  0.892023  0.220554  1
  O  O27  1  0.107977  0.508672  0.279446  1
  O  O28  1  0.508672  0.107977  0.779446  1
  O  O29  1  0.892023  0.491328  0.720554  1
  O  O30  1  0.869202  0.274033  0.539934  1
  O  O31  1  0.725967  0.130798  0.960066  1
  O  O32  1  0.130798  0.725967  0.460066  1
  O  O33  1  0.274033  0.869202  0.039934  1
