# generated using pymatgen
data_Pr4LuSn4
_symmetry_space_group_name_H-M   'P 1'
_cell_length_a   8.24641600
_cell_length_b   8.40904400
_cell_length_c   15.99596800
_cell_angle_alpha   90.00000000
_cell_angle_beta   90.00000000
_cell_angle_gamma   90.00000000
_symmetry_Int_Tables_number   1
_chemical_formula_structural   Pr4LuSn4
_chemical_formula_sum   'Pr16 Lu4 Sn16'
_cell_volume   1109.23200286
_cell_formula_units_Z   4
loop_
 _symmetry_equiv_pos_site_id
 _symmetry_equiv_pos_as_xyz
  1  'x, y, z'
loop_
 _atom_site_type_symbol
 _atom_site_label
 _atom_site_symmetry_multiplicity
 _atom_site_fract_x
 _atom_site_fract_y
 _atom_site_fract_z
 _atom_site_occupancy
  Pr  Pr0  1  0.367590  0.837679  0.879301  1
  Pr  Pr1  1  0.867590  0.662321  0.620699  1
  Pr  Pr2  1  0.632410  0.162321  0.379301  1
  Pr  Pr3  1  0.132410  0.337679  0.120699  1
  Pr  Pr4  1  0.632410  0.162321  0.120699  1
  Pr  Pr5  1  0.132410  0.337679  0.379301  1
  Pr  Pr6  1  0.367590  0.837679  0.620699  1
  Pr  Pr7  1  0.867590  0.662321  0.879301  1
  Pr  Pr8  1  0.518641  0.318525  0.901282  1
  Pr  Pr9  1  0.018641  0.181475  0.598718  1
  Pr  Pr10  1  0.481359  0.681475  0.401282  1
  Pr  Pr11  1  0.981359  0.818525  0.098718  1
  Pr  Pr12  1  0.481359  0.681475  0.098718  1
  Pr  Pr13  1  0.981359  0.818525  0.401282  1
  Pr  Pr14  1  0.518641  0.318525  0.598718  1
  Pr  Pr15  1  0.018641  0.181475  0.901282  1
  Lu  Lu16  1  0.199049  0.501632  0.750000  1
  Lu  Lu17  1  0.699049  0.998368  0.750000  1
  Lu  Lu18  1  0.800951  0.498368  0.250000  1
  Lu  Lu19  1  0.300951  0.001632  0.250000  1
  Sn  Sn20  1  0.291587  0.033421  0.044820  1
  Sn  Sn21  1  0.791587  0.466579  0.455180  1
  Sn  Sn22  1  0.708413  0.966579  0.544820  1
  Sn  Sn23  1  0.208413  0.533421  0.955180  1
  Sn  Sn24  1  0.708413  0.966579  0.955180  1
  Sn  Sn25  1  0.208413  0.533421  0.544820  1
  Sn  Sn26  1  0.291587  0.033421  0.455180  1
  Sn  Sn27  1  0.791587  0.466579  0.044820  1
  Sn  Sn28  1  0.563103  0.616335  0.750000  1
  Sn  Sn29  1  0.063103  0.883665  0.750000  1
  Sn  Sn30  1  0.436897  0.383665  0.250000  1
  Sn  Sn31  1  0.936897  0.116335  0.250000  1
  Sn  Sn32  1  0.323505  0.147132  0.750000  1
  Sn  Sn33  1  0.823505  0.352868  0.750000  1
  Sn  Sn34  1  0.676495  0.852868  0.250000  1
  Sn  Sn35  1  0.176495  0.647132  0.250000  1
