# generated using pymatgen
data_Lu12Ga2CuNiRu2
_symmetry_space_group_name_H-M   'P 1'
_cell_length_a   8.19102657
_cell_length_b   8.19102631
_cell_length_c   8.19102701
_cell_angle_alpha   112.90992452
_cell_angle_beta   110.88745264
_cell_angle_gamma   104.72518461
_symmetry_Int_Tables_number   1
_chemical_formula_structural   Lu12Ga2CuNiRu2
_chemical_formula_sum   'Lu12 Ga2 Cu1 Ni1 Ru2'
_cell_volume   420.75467666
_cell_formula_units_Z   1
loop_
 _symmetry_equiv_pos_site_id
 _symmetry_equiv_pos_as_xyz
  1  'x, y, z'
loop_
 _atom_site_type_symbol
 _atom_site_label
 _atom_site_symmetry_multiplicity
 _atom_site_fract_x
 _atom_site_fract_y
 _atom_site_fract_z
 _atom_site_occupancy
  Lu  Lu0  1  0.436028  0.242845  0.193183  1
  Lu  Lu1  1  0.565945  0.757682  0.808263  1
  Lu  Lu2  1  0.049662  0.242845  0.806817  1
  Lu  Lu3  1  0.949419  0.757682  0.191737  1
  Lu  Lu4  1  0.178712  0.275802  0.458644  1
  Lu  Lu5  1  0.817158  0.720068  0.541356  1
  Lu  Lu6  1  0.178712  0.720068  0.902911  1
  Lu  Lu7  1  0.817158  0.275802  0.097089  1
  Lu  Lu8  1  0.334722  0.642734  0.308013  1
  Lu  Lu9  1  0.670405  0.359406  0.689001  1
  Lu  Lu10  1  0.334722  0.026710  0.691987  1
  Lu  Lu11  1  0.670405  0.981404  0.310999  1
  Ga  Ga12  1  0.499918  0.499918  0.000000  1
  Ga  Ga13  1  0.000220  0.000220  0.000000  1
  Cu  Cu14  1  0.121189  0.621189  0.500000  1
  Ni  Ni15  1  0.877560  0.377560  0.500000  1
  Ru  Ru16  1  0.327014  0.999032  0.327982  1
  Ru  Ru17  1  0.671050  0.999032  0.672018  1
