# generated using pymatgen
data_TbY3Cd2(CuPd)2
_symmetry_space_group_name_H-M   'P 1'
_cell_length_a   3.76916400
_cell_length_b   7.61424743
_cell_length_c   7.65344028
_cell_angle_alpha   89.88505341
_cell_angle_beta   90.00000000
_cell_angle_gamma   90.00000000
_symmetry_Int_Tables_number   1
_chemical_formula_structural   TbY3Cd2(CuPd)2
_chemical_formula_sum   'Tb1 Y3 Cd2 Cu2 Pd2'
_cell_volume   219.64829843
_cell_formula_units_Z   1
loop_
 _symmetry_equiv_pos_site_id
 _symmetry_equiv_pos_as_xyz
  1  'x, y, z'
loop_
 _atom_site_type_symbol
 _atom_site_label
 _atom_site_symmetry_multiplicity
 _atom_site_fract_x
 _atom_site_fract_y
 _atom_site_fract_z
 _atom_site_occupancy
  Tb  Tb0  1  0.500000  0.669474  0.825666  1
  Y  Y1  1  0.500000  0.175184  0.672624  1
  Y  Y2  1  0.500000  0.829796  0.325782  1
  Y  Y3  1  0.500000  0.325248  0.173151  1
  Cd  Cd4  1  0.000000  0.995308  0.998435  1
  Cd  Cd5  1  0.000000  0.504521  0.497702  1
  Cu  Cu6  1  0.000000  0.625627  0.124532  1
  Cu  Cu7  1  0.000000  0.874245  0.625525  1
  Pd  Pd8  1  0.000000  0.378817  0.877986  1
  Pd  Pd9  1  0.000000  0.121780  0.378598  1
