# generated using pymatgen
data_Dy5Ho(Si3Pt2)4
_symmetry_space_group_name_H-M   'P 1'
_cell_length_a   4.24849900
_cell_length_b   8.56309995
_cell_length_c   12.93538001
_cell_angle_alpha   80.24518088
_cell_angle_beta   90.00000000
_cell_angle_gamma   90.00000000
_symmetry_Int_Tables_number   1
_chemical_formula_structural   Dy5Ho(Si3Pt2)4
_chemical_formula_sum   'Dy5 Ho1 Si12 Pt8'
_cell_volume   463.78935804
_cell_formula_units_Z   1
loop_
 _symmetry_equiv_pos_site_id
 _symmetry_equiv_pos_as_xyz
  1  'x, y, z'
loop_
 _atom_site_type_symbol
 _atom_site_label
 _atom_site_symmetry_multiplicity
 _atom_site_fract_x
 _atom_site_fract_y
 _atom_site_fract_z
 _atom_site_occupancy
  Dy  Dy0  1  0.250000  0.766247  0.439333  1
  Dy  Dy1  1  0.250000  0.583582  0.186429  1
  Dy  Dy2  1  0.750000  0.233774  0.560656  1
  Dy  Dy3  1  0.750000  0.416430  0.813551  1
  Dy  Dy4  1  0.750000  0.926387  0.815732  1
  Ho  Ho5  1  0.250000  0.073567  0.184281  1
  Si  Si6  1  0.750000  0.588524  0.571596  1
  Si  Si7  1  0.750000  0.126910  0.004701  1
  Si  Si8  1  0.750000  0.872954  0.573738  1
  Si  Si9  1  0.250000  0.696388  0.713720  1
  Si  Si10  1  0.750000  0.303576  0.286267  1
  Si  Si11  1  0.750000  0.805884  0.276816  1
  Si  Si12  1  0.250000  0.873079  0.995385  1
  Si  Si13  1  0.250000  0.194210  0.723159  1
  Si  Si14  1  0.250000  0.378417  0.001343  1
  Si  Si15  1  0.250000  0.127032  0.426240  1
  Si  Si16  1  0.750000  0.621553  0.998697  1
  Si  Si17  1  0.250000  0.411484  0.428409  1
  Pt  Pt18  1  0.750000  0.351726  0.099121  1
  Pt  Pt19  1  0.250000  0.970814  0.624268  1
  Pt  Pt20  1  0.750000  0.849645  0.088881  1
  Pt  Pt21  1  0.750000  0.029275  0.375512  1
  Pt  Pt22  1  0.250000  0.648019  0.900981  1
  Pt  Pt23  1  0.250000  0.150510  0.911215  1
  Pt  Pt24  1  0.750000  0.532999  0.375906  1
  Pt  Pt25  1  0.250000  0.467017  0.624062  1
