# generated using pymatgen
data_Tm2Fe4TcNi4P6W
_symmetry_space_group_name_H-M   'P 1'
_cell_length_a   3.71088100
_cell_length_b   10.36320800
_cell_length_c   11.99350400
_cell_angle_alpha   90.00000000
_cell_angle_beta   90.00000000
_cell_angle_gamma   90.00000000
_symmetry_Int_Tables_number   1
_chemical_formula_structural   Tm2Fe4TcNi4P6W
_chemical_formula_sum   'Tm4 Fe8 Tc2 Ni8 P12 W2'
_cell_volume   461.22976572
_cell_formula_units_Z   2
loop_
 _symmetry_equiv_pos_site_id
 _symmetry_equiv_pos_as_xyz
  1  'x, y, z'
loop_
 _atom_site_type_symbol
 _atom_site_label
 _atom_site_symmetry_multiplicity
 _atom_site_fract_x
 _atom_site_fract_y
 _atom_site_fract_z
 _atom_site_occupancy
  Tm  Tm0  1  0.250000  0.580259  0.708535  1
  Tm  Tm1  1  0.250000  0.919741  0.208535  1
  Tm  Tm2  1  0.750000  0.420418  0.291763  1
  Tm  Tm3  1  0.750000  0.079582  0.791763  1
  Fe  Fe4  1  0.250000  0.880277  0.700738  1
  Fe  Fe5  1  0.250000  0.619723  0.200738  1
  Fe  Fe6  1  0.750000  0.121941  0.299722  1
  Fe  Fe7  1  0.750000  0.378059  0.799722  1
  Fe  Fe8  1  0.250000  0.463238  0.934440  1
  Fe  Fe9  1  0.250000  0.036762  0.434440  1
  Fe  Fe10  1  0.750000  0.538314  0.065293  1
  Fe  Fe11  1  0.750000  0.961686  0.565293  1
  Tc  Tc12  1  0.250000  0.706304  0.988626  1
  Tc  Tc13  1  0.250000  0.793696  0.488626  1
  Ni  Ni14  1  0.250000  0.407481  0.484837  1
  Ni  Ni15  1  0.250000  0.092519  0.984837  1
  Ni  Ni16  1  0.750000  0.591321  0.514234  1
  Ni  Ni17  1  0.750000  0.908679  0.014234  1
  Ni  Ni18  1  0.250000  0.226907  0.175456  1
  Ni  Ni19  1  0.250000  0.273093  0.675456  1
  Ni  Ni20  1  0.750000  0.774208  0.824556  1
  Ni  Ni21  1  0.750000  0.725792  0.324556  1
  P  P22  1  0.250000  0.429860  0.114030  1
  P  P23  1  0.250000  0.070140  0.614030  1
  P  P24  1  0.750000  0.571072  0.885890  1
  P  P25  1  0.750000  0.928928  0.385890  1
  P  P26  1  0.250000  0.270774  0.863034  1
  P  P27  1  0.250000  0.229226  0.363034  1
  P  P28  1  0.750000  0.731471  0.136000  1
  P  P29  1  0.750000  0.768529  0.636000  1
  P  P30  1  0.250000  0.599753  0.386669  1
  P  P31  1  0.250000  0.900247  0.886669  1
  P  P32  1  0.750000  0.403587  0.613623  1
  P  P33  1  0.750000  0.096413  0.113623  1
  W  W34  1  0.750000  0.293639  0.012554  1
  W  W35  1  0.750000  0.206361  0.512554  1
