# generated using pymatgen
data_Nd3ErO6
_symmetry_space_group_name_H-M   'P 1'
_cell_length_a   6.94846824
_cell_length_b   6.94846855
_cell_length_c   6.94846722
_cell_angle_alpha   92.07773828
_cell_angle_beta   92.07773240
_cell_angle_gamma   92.07774728
_symmetry_Int_Tables_number   1
_chemical_formula_structural   Nd3ErO6
_chemical_formula_sum   'Nd6 Er2 O12'
_cell_volume   334.80229098
_cell_formula_units_Z   2
loop_
 _symmetry_equiv_pos_site_id
 _symmetry_equiv_pos_as_xyz
  1  'x, y, z'
loop_
 _atom_site_type_symbol
 _atom_site_label
 _atom_site_symmetry_multiplicity
 _atom_site_fract_x
 _atom_site_fract_y
 _atom_site_fract_z
 _atom_site_occupancy
  Nd  Nd0  1  0.557854  0.064269  0.252978  1
  Nd  Nd1  1  0.064269  0.252978  0.557854  1
  Nd  Nd2  1  0.747022  0.442146  0.935731  1
  Nd  Nd3  1  0.252978  0.557854  0.064269  1
  Nd  Nd4  1  0.935731  0.747022  0.442146  1
  Nd  Nd5  1  0.442146  0.935731  0.747022  1
  Er  Er6  1  0.000000  0.000000  0.000000  1
  Er  Er7  1  0.500000  0.500000  0.500000  1
  O  O8  1  0.691939  0.088868  0.933670  1
  O  O9  1  0.911132  0.066330  0.308061  1
  O  O10  1  0.403665  0.191287  0.534302  1
  O  O11  1  0.066330  0.308061  0.911132  1
  O  O12  1  0.534302  0.403665  0.191287  1
  O  O13  1  0.808713  0.465698  0.596335  1
  O  O14  1  0.191287  0.534302  0.403665  1
  O  O15  1  0.465698  0.596335  0.808713  1
  O  O16  1  0.933670  0.691939  0.088868  1
  O  O17  1  0.596335  0.808713  0.465698  1
  O  O18  1  0.088868  0.933670  0.691939  1
  O  O19  1  0.308061  0.911132  0.066330  1
