# generated using pymatgen
data_CaGd3(ReB4)4
_symmetry_space_group_name_H-M   'P 1'
_cell_length_a   3.62183200
_cell_length_b   6.00351606
_cell_length_c   11.61260701
_cell_angle_alpha   90.00961224
_cell_angle_beta   90.00000000
_cell_angle_gamma   90.00000000
_symmetry_Int_Tables_number   1
_chemical_formula_structural   CaGd3(ReB4)4
_chemical_formula_sum   'Ca1 Gd3 Re4 B16'
_cell_volume   252.50134787
_cell_formula_units_Z   1
loop_
 _symmetry_equiv_pos_site_id
 _symmetry_equiv_pos_as_xyz
  1  'x, y, z'
loop_
 _atom_site_type_symbol
 _atom_site_label
 _atom_site_symmetry_multiplicity
 _atom_site_fract_x
 _atom_site_fract_y
 _atom_site_fract_z
 _atom_site_occupancy
  Ca  Ca0  1  0.000000  0.626976  0.349715  1
  Gd  Gd1  1  0.000000  0.373918  0.650066  1
  Gd  Gd2  1  0.000000  0.127564  0.150687  1
  Gd  Gd3  1  0.000000  0.873078  0.850024  1
  Re  Re4  1  0.000000  0.633686  0.086544  1
  Re  Re5  1  0.000000  0.367200  0.912766  1
  Re  Re6  1  0.000000  0.131292  0.415279  1
  Re  Re7  1  0.000000  0.870110  0.585658  1
  B  B8  1  0.500000  0.785587  0.184658  1
  B  B9  1  0.500000  0.213882  0.815152  1
  B  B10  1  0.500000  0.285258  0.315865  1
  B  B11  1  0.500000  0.713476  0.683939  1
  B  B12  1  0.500000  0.862908  0.031226  1
  B  B13  1  0.500000  0.137065  0.968436  1
  B  B14  1  0.500000  0.363196  0.468261  1
  B  B15  1  0.500000  0.636815  0.532116  1
  B  B16  1  0.500000  0.885345  0.452621  1
  B  B17  1  0.500000  0.112600  0.546870  1
  B  B18  1  0.500000  0.387087  0.047184  1
  B  B19  1  0.500000  0.612915  0.952785  1
  B  B20  1  0.500000  0.978302  0.308418  1
  B  B21  1  0.500000  0.022202  0.691826  1
  B  B22  1  0.500000  0.476475  0.191834  1
  B  B23  1  0.500000  0.523065  0.808074  1
