# generated using pymatgen
data_Y3Lu7Hg3Ru
_symmetry_space_group_name_H-M   'P 1'
_cell_length_a   9.46145000
_cell_length_b   9.46145082
_cell_length_c   9.57908600
_cell_angle_alpha   90.00000000
_cell_angle_beta   90.00000000
_cell_angle_gamma   119.99999714
_symmetry_Int_Tables_number   1
_chemical_formula_structural   Y3Lu7Hg3Ru
_chemical_formula_sum   'Y6 Lu14 Hg6 Ru2'
_cell_volume   742.62600188
_cell_formula_units_Z   2
loop_
 _symmetry_equiv_pos_site_id
 _symmetry_equiv_pos_as_xyz
  1  'x, y, z'
loop_
 _atom_site_type_symbol
 _atom_site_label
 _atom_site_symmetry_multiplicity
 _atom_site_fract_x
 _atom_site_fract_y
 _atom_site_fract_z
 _atom_site_occupancy
  Y  Y0  1  0.540061  0.459939  0.250000  1
  Y  Y1  1  0.540061  0.080122  0.250000  1
  Y  Y2  1  0.919878  0.459939  0.250000  1
  Y  Y3  1  0.459939  0.540061  0.750000  1
  Y  Y4  1  0.459939  0.919878  0.750000  1
  Y  Y5  1  0.080122  0.540061  0.750000  1
  Lu  Lu6  1  0.000000  0.000000  0.500000  1
  Lu  Lu7  1  0.000000  0.000000  0.000000  1
  Lu  Lu8  1  0.209600  0.790400  0.439790  1
  Lu  Lu9  1  0.209600  0.419200  0.439790  1
  Lu  Lu10  1  0.580800  0.790400  0.439790  1
  Lu  Lu11  1  0.790400  0.209600  0.560210  1
  Lu  Lu12  1  0.790400  0.580800  0.560210  1
  Lu  Lu13  1  0.419200  0.209600  0.560210  1
  Lu  Lu14  1  0.790400  0.209600  0.939790  1
  Lu  Lu15  1  0.790400  0.580800  0.939790  1
  Lu  Lu16  1  0.419200  0.209600  0.939790  1
  Lu  Lu17  1  0.209600  0.790400  0.060210  1
  Lu  Lu18  1  0.209600  0.419200  0.060210  1
  Lu  Lu19  1  0.580800  0.790400  0.060210  1
  Hg  Hg20  1  0.883396  0.116604  0.250000  1
  Hg  Hg21  1  0.883396  0.766791  0.250000  1
  Hg  Hg22  1  0.233209  0.116604  0.250000  1
  Hg  Hg23  1  0.116604  0.883396  0.750000  1
  Hg  Hg24  1  0.116604  0.233209  0.750000  1
  Hg  Hg25  1  0.766791  0.883396  0.750000  1
  Ru  Ru26  1  0.333333  0.666667  0.250000  1
  Ru  Ru27  1  0.666667  0.333333  0.750000  1
