# generated using pymatgen
data_Ni8Ge3Mo12AsC4
_symmetry_space_group_name_H-M   'P 1'
_cell_length_a   7.92443970
_cell_length_b   7.91337700
_cell_length_c   7.92444000
_cell_angle_alpha   59.95374334
_cell_angle_beta   59.99999873
_cell_angle_gamma   59.95374135
_symmetry_Int_Tables_number   1
_chemical_formula_structural   Ni8Ge3Mo12AsC4
_chemical_formula_sum   'Ni8 Ge3 Mo12 As1 C4'
_cell_volume   351.13974941
_cell_formula_units_Z   1
loop_
 _symmetry_equiv_pos_site_id
 _symmetry_equiv_pos_as_xyz
  1  'x, y, z'
loop_
 _atom_site_type_symbol
 _atom_site_label
 _atom_site_symmetry_multiplicity
 _atom_site_fract_x
 _atom_site_fract_y
 _atom_site_fract_z
 _atom_site_occupancy
  Ni  Ni0  1  0.918181  0.912457  0.251180  1
  Ni  Ni1  1  0.331819  0.337543  0.331819  1
  Ni  Ni2  1  0.251180  0.912457  0.918181  1
  Ni  Ni3  1  0.331405  0.005785  0.331405  1
  Ni  Ni4  1  0.998820  0.337543  0.331819  1
  Ni  Ni5  1  0.331819  0.337543  0.998820  1
  Ni  Ni6  1  0.918181  0.912457  0.918181  1
  Ni  Ni7  1  0.918595  0.244215  0.918595  1
  Ge  Ge8  1  0.125000  0.125000  0.125000  1
  Ge  Ge9  1  0.625000  0.125000  0.125000  1
  Ge  Ge10  1  0.125000  0.125000  0.625000  1
  Mo  Mo11  1  0.690510  0.308591  0.310388  1
  Mo  Mo12  1  0.939612  0.941409  0.559490  1
  Mo  Mo13  1  0.683281  0.690759  0.312980  1
  Mo  Mo14  1  0.690510  0.308591  0.690510  1
  Mo  Mo15  1  0.312980  0.690759  0.312980  1
  Mo  Mo16  1  0.559490  0.941409  0.559490  1
  Mo  Mo17  1  0.559490  0.941409  0.939612  1
  Mo  Mo18  1  0.937020  0.559241  0.566719  1
  Mo  Mo19  1  0.937020  0.559241  0.937020  1
  Mo  Mo20  1  0.310388  0.308591  0.690510  1
  Mo  Mo21  1  0.566719  0.559241  0.937020  1
  Mo  Mo22  1  0.312980  0.690759  0.683281  1
  As  As23  1  0.125000  0.625000  0.125000  1
  C  C24  1  0.625000  0.625000  0.625000  1
  C  C25  1  0.625000  0.625000  0.125000  1
  C  C26  1  0.125000  0.625000  0.625000  1
  C  C27  1  0.625000  0.125000  0.625000  1
