# generated using pymatgen
data_NdSm2Cr(Co4P3)2
_symmetry_space_group_name_H-M   'P 1'
_cell_length_a   3.72236000
_cell_length_b   10.56390000
_cell_length_c   12.26557400
_cell_angle_alpha   90.00000000
_cell_angle_beta   90.00000000
_cell_angle_gamma   90.00000000
_symmetry_Int_Tables_number   1
_chemical_formula_structural   NdSm2Cr(Co4P3)2
_chemical_formula_sum   'Nd2 Sm4 Cr2 Co16 P12'
_cell_volume   482.31473613
_cell_formula_units_Z   2
loop_
 _symmetry_equiv_pos_site_id
 _symmetry_equiv_pos_as_xyz
  1  'x, y, z'
loop_
 _atom_site_type_symbol
 _atom_site_label
 _atom_site_symmetry_multiplicity
 _atom_site_fract_x
 _atom_site_fract_y
 _atom_site_fract_z
 _atom_site_occupancy
  Nd  Nd0  1  0.000000  0.500000  0.522115  1
  Nd  Nd1  1  0.500000  0.000000  0.477885  1
  Sm  Sm2  1  0.500000  0.817882  0.204174  1
  Sm  Sm3  1  0.500000  0.182118  0.204174  1
  Sm  Sm4  1  0.000000  0.682118  0.795826  1
  Sm  Sm5  1  0.000000  0.317882  0.795826  1
  Cr  Cr6  1  0.500000  0.500000  0.153190  1
  Cr  Cr7  1  0.000000  0.000000  0.846810  1
  Co  Co8  1  0.500000  0.500000  0.704240  1
  Co  Co9  1  0.000000  0.000000  0.295760  1
  Co  Co10  1  0.000000  0.500000  0.987816  1
  Co  Co11  1  0.500000  0.000000  0.012184  1
  Co  Co12  1  0.500000  0.332601  0.993306  1
  Co  Co13  1  0.500000  0.667399  0.993306  1
  Co  Co14  1  0.000000  0.167399  0.006694  1
  Co  Co15  1  0.000000  0.832601  0.006694  1
  Co  Co16  1  0.500000  0.296056  0.429680  1
  Co  Co17  1  0.500000  0.703944  0.429680  1
  Co  Co18  1  0.000000  0.203944  0.570320  1
  Co  Co19  1  0.000000  0.796056  0.570320  1
  Co  Co20  1  0.500000  0.880717  0.710974  1
  Co  Co21  1  0.500000  0.119283  0.710974  1
  Co  Co22  1  0.000000  0.619283  0.289026  1
  Co  Co23  1  0.000000  0.380717  0.289026  1
  P  P24  1  0.500000  0.500000  0.884593  1
  P  P25  1  0.000000  0.000000  0.115407  1
  P  P26  1  0.500000  0.500000  0.338460  1
  P  P27  1  0.000000  0.000000  0.661540  1
  P  P28  1  0.500000  0.308006  0.615691  1
  P  P29  1  0.500000  0.691994  0.615691  1
  P  P30  1  0.000000  0.191994  0.384309  1
  P  P31  1  0.000000  0.808006  0.384309  1
  P  P32  1  0.500000  0.849031  0.893485  1
  P  P33  1  0.500000  0.150969  0.893485  1
  P  P34  1  0.000000  0.650969  0.106515  1
  P  P35  1  0.000000  0.349031  0.106515  1
