# generated using pymatgen
data_Ca3ZnAu5
_symmetry_space_group_name_H-M   'P 1'
_cell_length_a   8.55067894
_cell_length_b   8.55068003
_cell_length_c   13.72602700
_cell_angle_alpha   90.00000000
_cell_angle_beta   90.00000000
_cell_angle_gamma   127.81054010
_symmetry_Int_Tables_number   1
_chemical_formula_structural   Ca3ZnAu5
_chemical_formula_sum   'Ca12 Zn4 Au20'
_cell_volume   792.85984042
_cell_formula_units_Z   4
loop_
 _symmetry_equiv_pos_site_id
 _symmetry_equiv_pos_as_xyz
  1  'x, y, z'
loop_
 _atom_site_type_symbol
 _atom_site_label
 _atom_site_symmetry_multiplicity
 _atom_site_fract_x
 _atom_site_fract_y
 _atom_site_fract_z
 _atom_site_occupancy
  Ca  Ca0  1  0.926598  0.073402  0.250000  1
  Ca  Ca1  1  0.073402  0.926598  0.750000  1
  Ca  Ca2  1  0.322458  0.677542  0.250000  1
  Ca  Ca3  1  0.677542  0.322458  0.750000  1
  Ca  Ca4  1  0.630343  0.369657  0.460448  1
  Ca  Ca5  1  0.369657  0.630343  0.539552  1
  Ca  Ca6  1  0.630343  0.369657  0.039552  1
  Ca  Ca7  1  0.369657  0.630343  0.960448  1
  Ca  Ca8  1  0.881855  0.118145  0.948221  1
  Ca  Ca9  1  0.118145  0.881855  0.051779  1
  Ca  Ca10  1  0.881855  0.118145  0.551779  1
  Ca  Ca11  1  0.118145  0.881855  0.448221  1
  Zn  Zn12  1  0.719866  0.280134  0.250000  1
  Zn  Zn13  1  0.280134  0.719866  0.750000  1
  Zn  Zn14  1  0.533323  0.466677  0.250000  1
  Zn  Zn15  1  0.466677  0.533323  0.750000  1
  Au  Au16  1  0.319120  0.064632  0.250000  1
  Au  Au17  1  0.064632  0.319120  0.750000  1
  Au  Au18  1  0.680880  0.935368  0.750000  1
  Au  Au19  1  0.935368  0.680880  0.250000  1
  Au  Au20  1  0.572370  0.004209  0.396567  1
  Au  Au21  1  0.004209  0.572370  0.603433  1
  Au  Au22  1  0.572370  0.004209  0.103433  1
  Au  Au23  1  0.004209  0.572370  0.896567  1
  Au  Au24  1  0.427630  0.995791  0.603433  1
  Au  Au25  1  0.995791  0.427630  0.396567  1
  Au  Au26  1  0.427630  0.995791  0.896567  1
  Au  Au27  1  0.995791  0.427630  0.103433  1
  Au  Au28  1  0.682755  0.741118  0.394523  1
  Au  Au29  1  0.741118  0.682755  0.605477  1
  Au  Au30  1  0.682755  0.741118  0.105477  1
  Au  Au31  1  0.741118  0.682755  0.894523  1
  Au  Au32  1  0.317245  0.258882  0.605477  1
  Au  Au33  1  0.258882  0.317245  0.394523  1
  Au  Au34  1  0.317245  0.258882  0.894523  1
  Au  Au35  1  0.258882  0.317245  0.105477  1
