# generated using pymatgen
data_LaCe2Ho13(CdRu)4
_symmetry_space_group_name_H-M   'P 1'
_cell_length_a   9.75145515
_cell_length_b   9.61995327
_cell_length_c   9.64930118
_cell_angle_alpha   59.35402778
_cell_angle_beta   59.27512309
_cell_angle_gamma   59.48966350
_symmetry_Int_Tables_number   1
_chemical_formula_structural   LaCe2Ho13(CdRu)4
_chemical_formula_sum   'La1 Ce2 Ho13 Cd4 Ru4'
_cell_volume   630.92416818
_cell_formula_units_Z   1
loop_
 _symmetry_equiv_pos_site_id
 _symmetry_equiv_pos_as_xyz
  1  'x, y, z'
loop_
 _atom_site_type_symbol
 _atom_site_label
 _atom_site_symmetry_multiplicity
 _atom_site_fract_x
 _atom_site_fract_y
 _atom_site_fract_z
 _atom_site_occupancy
  La  La0  1  0.563476  0.561796  0.938256  1
  Ce  Ce1  1  0.970512  0.340616  0.341398  1
  Ce  Ce2  1  0.347585  0.339310  0.341037  1
  Ho  Ho3  1  0.941075  0.561658  0.937252  1
  Ho  Ho4  1  0.560908  0.941716  0.938100  1
  Ho  Ho5  1  0.936663  0.938962  0.561564  1
  Ho  Ho6  1  0.563716  0.939509  0.559134  1
  Ho  Ho7  1  0.941684  0.560469  0.557925  1
  Ho  Ho8  1  0.189384  0.188750  0.811854  1
  Ho  Ho9  1  0.810322  0.186727  0.812616  1
  Ho  Ho10  1  0.185683  0.812946  0.811347  1
  Ho  Ho11  1  0.808944  0.811491  0.188447  1
  Ho  Ho12  1  0.186563  0.814018  0.189744  1
  Ho  Ho13  1  0.812488  0.186515  0.190544  1
  Ho  Ho14  1  0.346614  0.348974  0.953556  1
  Ho  Ho15  1  0.348598  0.951932  0.350259  1
  Cd  Cd16  1  0.583097  0.579631  0.259301  1
  Cd  Cd17  1  0.581511  0.256661  0.579856  1
  Cd  Cd18  1  0.258954  0.579458  0.580294  1
  Cd  Cd19  1  0.581549  0.580002  0.576282  1
  Ru  Ru20  1  0.138638  0.152600  0.572435  1
  Ru  Ru21  1  0.136253  0.573681  0.152483  1
  Ru  Ru22  1  0.573287  0.145368  0.149439  1
  Ru  Ru23  1  0.132494  0.147209  0.146871  1
