# generated using pymatgen
data_Tb19Ho(Ga2Bi)4
_symmetry_space_group_name_H-M   'P 1'
_cell_length_a   8.29632300
_cell_length_b   8.29632300
_cell_length_c   12.69244300
_cell_angle_alpha   90.00000000
_cell_angle_beta   90.00000000
_cell_angle_gamma   90.00000000
_symmetry_Int_Tables_number   1
_chemical_formula_structural   Tb19Ho(Ga2Bi)4
_chemical_formula_sum   'Tb19 Ho1 Ga8 Bi4'
_cell_volume   873.60784600
_cell_formula_units_Z   1
loop_
 _symmetry_equiv_pos_site_id
 _symmetry_equiv_pos_as_xyz
  1  'x, y, z'
loop_
 _atom_site_type_symbol
 _atom_site_label
 _atom_site_symmetry_multiplicity
 _atom_site_fract_x
 _atom_site_fract_y
 _atom_site_fract_z
 _atom_site_occupancy
  Tb  Tb0  1  0.000000  0.500000  0.750576  1
  Tb  Tb1  1  0.000000  0.500000  0.250573  1
  Tb  Tb2  1  0.500000  0.000000  0.249424  1
  Tb  Tb3  1  0.652368  0.652975  0.608445  1
  Tb  Tb4  1  0.653178  0.347472  0.108393  1
  Tb  Tb5  1  0.846897  0.847516  0.391750  1
  Tb  Tb6  1  0.153611  0.848173  0.891370  1
  Tb  Tb7  1  0.347632  0.347025  0.608445  1
  Tb  Tb8  1  0.346822  0.652528  0.108393  1
  Tb  Tb9  1  0.153103  0.152484  0.391750  1
  Tb  Tb10  1  0.846389  0.151827  0.891370  1
  Tb  Tb11  1  0.652484  0.346897  0.391750  1
  Tb  Tb12  1  0.348173  0.346389  0.891370  1
  Tb  Tb13  1  0.152975  0.847632  0.608445  1
  Tb  Tb14  1  0.847472  0.846822  0.108393  1
  Tb  Tb15  1  0.347516  0.653103  0.391750  1
  Tb  Tb16  1  0.651827  0.653611  0.891370  1
  Tb  Tb17  1  0.847025  0.152368  0.608445  1
  Tb  Tb18  1  0.152528  0.153178  0.108393  1
  Ho  Ho19  1  0.500000  0.000000  0.749551  1
  Ga  Ga20  1  0.851364  0.852165  0.749882  1
  Ga  Ga21  1  0.852252  0.147426  0.250093  1
  Ga  Ga22  1  0.647426  0.647748  0.250093  1
  Ga  Ga23  1  0.352165  0.648636  0.749882  1
  Ga  Ga24  1  0.148636  0.147835  0.749882  1
  Ga  Ga25  1  0.147748  0.852574  0.250093  1
  Ga  Ga26  1  0.352574  0.352252  0.250093  1
  Ga  Ga27  1  0.647835  0.351364  0.749882  1
  Bi  Bi28  1  0.000000  0.500000  0.500410  1
  Bi  Bi29  1  0.000000  0.500000  0.000351  1
  Bi  Bi30  1  0.500000  0.000000  0.500730  1
  Bi  Bi31  1  0.500000  0.000000  0.998652  1
