# generated using pymatgen
data_Cd2Co3O8
_symmetry_space_group_name_H-M   'P 1'
_cell_length_a   6.14698455
_cell_length_b   6.14698380
_cell_length_c   4.93199418
_cell_angle_alpha   73.20262447
_cell_angle_beta   73.20262243
_cell_angle_gamma   56.41678949
_symmetry_Int_Tables_number   1
_chemical_formula_structural   Cd2Co3O8
_chemical_formula_sum   'Cd2 Co3 O8'
_cell_volume   146.66590993
_cell_formula_units_Z   1
loop_
 _symmetry_equiv_pos_site_id
 _symmetry_equiv_pos_as_xyz
  1  'x, y, z'
loop_
 _atom_site_type_symbol
 _atom_site_label
 _atom_site_symmetry_multiplicity
 _atom_site_fract_x
 _atom_site_fract_y
 _atom_site_fract_z
 _atom_site_occupancy
  Cd  Cd0  1  0.720179  0.720179  0.331770  1
  Cd  Cd1  1  0.279821  0.279821  0.668230  1
  Co  Co2  1  0.000000  0.000000  0.500000  1
  Co  Co3  1  0.746611  0.253389  0.000000  1
  Co  Co4  1  0.253389  0.746611  0.000000  1
  O  O5  1  0.396997  0.396997  0.963544  1
  O  O6  1  0.603003  0.603003  0.036456  1
  O  O7  1  0.903844  0.903844  0.906782  1
  O  O8  1  0.096156  0.096156  0.093218  1
  O  O9  1  0.322299  0.875966  0.611294  1
  O  O10  1  0.875966  0.322299  0.611294  1
  O  O11  1  0.124034  0.677701  0.388706  1
  O  O12  1  0.677701  0.124034  0.388706  1
