# generated using pymatgen
data_Nb3V2Ga3C
_symmetry_space_group_name_H-M   'P 1'
_cell_length_a   7.64526500
_cell_length_b   7.64526500
_cell_length_c   5.16163300
_cell_angle_alpha   90.00000000
_cell_angle_beta   90.00000000
_cell_angle_gamma   119.99999566
_symmetry_Int_Tables_number   1
_chemical_formula_structural   Nb3V2Ga3C
_chemical_formula_sum   'Nb6 V4 Ga6 C2'
_cell_volume   261.27801030
_cell_formula_units_Z   2
loop_
 _symmetry_equiv_pos_site_id
 _symmetry_equiv_pos_as_xyz
  1  'x, y, z'
loop_
 _atom_site_type_symbol
 _atom_site_label
 _atom_site_symmetry_multiplicity
 _atom_site_fract_x
 _atom_site_fract_y
 _atom_site_fract_z
 _atom_site_occupancy
  Nb  Nb0  1  0.235399  0.000000  0.250000  1
  Nb  Nb1  1  0.764601  0.000000  0.750000  1
  Nb  Nb2  1  0.000000  0.235399  0.250000  1
  Nb  Nb3  1  0.000000  0.764601  0.750000  1
  Nb  Nb4  1  0.764601  0.764601  0.250000  1
  Nb  Nb5  1  0.235399  0.235399  0.750000  1
  V  V6  1  0.333333  0.666667  0.000000  1
  V  V7  1  0.666667  0.333333  0.000000  1
  V  V8  1  0.666667  0.333333  0.500000  1
  V  V9  1  0.333333  0.666667  0.500000  1
  Ga  Ga10  1  0.588545  0.000000  0.250000  1
  Ga  Ga11  1  0.411455  0.000000  0.750000  1
  Ga  Ga12  1  0.000000  0.588545  0.250000  1
  Ga  Ga13  1  0.000000  0.411455  0.750000  1
  Ga  Ga14  1  0.411455  0.411455  0.250000  1
  Ga  Ga15  1  0.588545  0.588545  0.750000  1
  C  C16  1  0.000000  0.000000  0.000000  1
  C  C17  1  0.000000  0.000000  0.500000  1
