# generated using pymatgen
data_Er4In2Hg3Rh
_symmetry_space_group_name_H-M   'P 1'
_cell_length_a   8.10301222
_cell_length_b   8.10301219
_cell_length_c   3.69676600
_cell_angle_alpha   90.00000000
_cell_angle_beta   90.00000000
_cell_angle_gamma   89.33291072
_symmetry_Int_Tables_number   1
_chemical_formula_structural   Er4In2Hg3Rh
_chemical_formula_sum   'Er4 In2 Hg3 Rh1'
_cell_volume   242.70879330
_cell_formula_units_Z   1
loop_
 _symmetry_equiv_pos_site_id
 _symmetry_equiv_pos_as_xyz
  1  'x, y, z'
loop_
 _atom_site_type_symbol
 _atom_site_label
 _atom_site_symmetry_multiplicity
 _atom_site_fract_x
 _atom_site_fract_y
 _atom_site_fract_z
 _atom_site_occupancy
  Er  Er0  1  0.135320  0.318397  0.500000  1
  Er  Er1  1  0.693731  0.193731  0.500000  1
  Er  Er2  1  0.818397  0.635320  0.500000  1
  Er  Er3  1  0.333179  0.833179  0.500000  1
  In  In4  1  0.997467  0.004640  0.000000  1
  In  In5  1  0.504640  0.497467  0.000000  1
  Hg  Hg6  1  0.127333  0.627333  0.000000  1
  Hg  Hg7  1  0.639023  0.878050  0.000000  1
  Hg  Hg8  1  0.378050  0.139023  0.000000  1
  Rh  Rh9  1  0.872861  0.372861  0.000000  1
