# generated using pymatgen
data_MgNb3Sn2(B2Ru5)2
_symmetry_space_group_name_H-M   'P 1'
_cell_length_a   9.54765071
_cell_length_b   9.54765071
_cell_length_c   3.02313400
_cell_angle_alpha   90.00000000
_cell_angle_beta   90.00000000
_cell_angle_gamma   90.67105149
_symmetry_Int_Tables_number   1
_chemical_formula_structural   MgNb3Sn2(B2Ru5)2
_chemical_formula_sum   'Mg1 Nb3 Sn2 B4 Ru10'
_cell_volume   275.56284200
_cell_formula_units_Z   1
loop_
 _symmetry_equiv_pos_site_id
 _symmetry_equiv_pos_as_xyz
  1  'x, y, z'
loop_
 _atom_site_type_symbol
 _atom_site_label
 _atom_site_symmetry_multiplicity
 _atom_site_fract_x
 _atom_site_fract_y
 _atom_site_fract_z
 _atom_site_occupancy
  Mg  Mg0  1  0.821694  0.678306  0.000000  1
  Nb  Nb1  1  0.171906  0.328094  0.000000  1
  Nb  Nb2  1  0.324643  0.825632  0.000000  1
  Nb  Nb3  1  0.674368  0.175357  0.000000  1
  Sn  Sn4  1  0.507673  0.501516  0.000000  1
  Sn  Sn5  1  0.998484  0.992327  0.000000  1
  B  B6  1  0.619470  0.880530  0.000000  1
  B  B7  1  0.375140  0.124860  0.000000  1
  B  B8  1  0.126998  0.616665  0.000000  1
  B  B9  1  0.883335  0.373002  0.000000  1
  Ru  Ru10  1  0.558105  0.728831  0.500000  1
  Ru  Ru11  1  0.424885  0.282550  0.500000  1
  Ru  Ru12  1  0.086853  0.777712  0.500000  1
  Ru  Ru13  1  0.935097  0.216886  0.500000  1
  Ru  Ru14  1  0.283114  0.564903  0.500000  1
  Ru  Ru15  1  0.722288  0.413147  0.500000  1
  Ru  Ru16  1  0.217450  0.075115  0.500000  1
  Ru  Ru17  1  0.771169  0.941895  0.500000  1
  Ru  Ru18  1  0.495448  0.004552  0.500000  1
  Ru  Ru19  1  0.001881  0.498119  0.500000  1
