# generated using pymatgen
data_YErMn2F14
_symmetry_space_group_name_H-M   'P 1'
_cell_length_a   5.42675500
_cell_length_b   8.67046010
_cell_length_c   11.67451490
_cell_angle_alpha   62.65392377
_cell_angle_beta   90.00000000
_cell_angle_gamma   90.00000000
_symmetry_Int_Tables_number   1
_chemical_formula_structural   YErMn2F14
_chemical_formula_sum   'Y2 Er2 Mn4 F28'
_cell_volume   487.92772211
_cell_formula_units_Z   2
loop_
 _symmetry_equiv_pos_site_id
 _symmetry_equiv_pos_as_xyz
  1  'x, y, z'
loop_
 _atom_site_type_symbol
 _atom_site_label
 _atom_site_symmetry_multiplicity
 _atom_site_fract_x
 _atom_site_fract_y
 _atom_site_fract_z
 _atom_site_occupancy
  Y  Y0  1  0.761352  0.809035  0.765186  1
  Y  Y1  1  0.261352  0.190965  0.734814  1
  Er  Er2  1  0.238372  0.189308  0.235281  1
  Er  Er3  1  0.738372  0.810692  0.264719  1
  Mn  Mn4  1  0.758826  0.271999  0.958113  1
  Mn  Mn5  1  0.258826  0.728001  0.541887  1
  Mn  Mn6  1  0.240812  0.725898  0.044992  1
  Mn  Mn7  1  0.740812  0.274102  0.455008  1
  F  F8  1  0.427730  0.703741  0.922737  1
  F  F9  1  0.927730  0.296259  0.577263  1
  F  F10  1  0.569962  0.294800  0.079610  1
  F  F11  1  0.069962  0.705200  0.420390  1
  F  F12  1  0.452304  0.278984  0.537741  1
  F  F13  1  0.952304  0.721016  0.962259  1
  F  F14  1  0.548159  0.723280  0.458970  1
  F  F15  1  0.048159  0.276720  0.041030  1
  F  F16  1  0.777192  0.511118  0.863591  1
  F  F17  1  0.277192  0.488882  0.636409  1
  F  F18  1  0.224165  0.486208  0.138523  1
  F  F19  1  0.724165  0.513792  0.361477  1
  F  F20  1  0.754416  0.035218  0.047331  1
  F  F21  1  0.254416  0.964782  0.452669  1
  F  F22  1  0.245137  0.962590  0.955333  1
  F  F23  1  0.745137  0.037410  0.544667  1
  F  F24  1  0.977900  0.725191  0.631500  1
  F  F25  1  0.477900  0.274809  0.868500  1
  F  F26  1  0.021505  0.274085  0.365584  1
  F  F27  1  0.521505  0.725915  0.134416  1
  F  F28  1  0.054249  0.744225  0.171873  1
  F  F29  1  0.554249  0.255775  0.328127  1
  F  F30  1  0.942376  0.255689  0.829984  1
  F  F31  1  0.442376  0.744311  0.670016  1
  F  F32  1  0.412692  0.970710  0.230177  1
  F  F33  1  0.912692  0.029290  0.269823  1
  F  F34  1  0.592850  0.031773  0.771082  1
  F  F35  1  0.092850  0.968227  0.728918  1
