# generated using pymatgen
data_Tm4Zn2Co11NiB6
_symmetry_space_group_name_H-M   'P 1'
_cell_length_a   5.05582455
_cell_length_b   5.05582463
_cell_length_c   12.60207800
_cell_angle_alpha   90.00000000
_cell_angle_beta   90.00000000
_cell_angle_gamma   119.84625297
_symmetry_Int_Tables_number   1
_chemical_formula_structural   Tm4Zn2Co11NiB6
_chemical_formula_sum   'Tm4 Zn2 Co11 Ni1 B6'
_cell_volume   279.40073331
_cell_formula_units_Z   1
loop_
 _symmetry_equiv_pos_site_id
 _symmetry_equiv_pos_as_xyz
  1  'x, y, z'
loop_
 _atom_site_type_symbol
 _atom_site_label
 _atom_site_symmetry_multiplicity
 _atom_site_fract_x
 _atom_site_fract_y
 _atom_site_fract_z
 _atom_site_occupancy
  Tm  Tm0  1  0.000000  0.000000  0.003881  1
  Tm  Tm1  1  0.000000  0.000000  0.499854  1
  Tm  Tm2  1  0.000000  0.000000  0.739728  1
  Tm  Tm3  1  0.000000  0.000000  0.261270  1
  Zn  Zn4  1  0.668486  0.331514  0.000006  1
  Zn  Zn5  1  0.331514  0.668486  0.000006  1
  Co  Co6  1  0.500000  0.000000  0.837892  1
  Co  Co7  1  0.000000  0.500000  0.837892  1
  Co  Co8  1  0.500000  0.500000  0.160854  1
  Co  Co9  1  0.500000  0.000000  0.160854  1
  Co  Co10  1  0.000000  0.500000  0.160854  1
  Co  Co11  1  0.500000  0.500000  0.614068  1
  Co  Co12  1  0.500000  0.000000  0.614075  1
  Co  Co13  1  0.000000  0.500000  0.614075  1
  Co  Co14  1  0.500000  0.500000  0.385422  1
  Co  Co15  1  0.500000  0.000000  0.386118  1
  Co  Co16  1  0.000000  0.500000  0.386118  1
  Ni  Ni17  1  0.500000  0.500000  0.840278  1
  B  B18  1  0.666389  0.333611  0.499325  1
  B  B19  1  0.333611  0.666389  0.499325  1
  B  B20  1  0.669253  0.330747  0.729685  1
  B  B21  1  0.330747  0.669253  0.729685  1
  B  B22  1  0.332824  0.667176  0.269367  1
  B  B23  1  0.667176  0.332824  0.269367  1
