# generated using pymatgen
data_Th6Al24Fe7Pd
_symmetry_space_group_name_H-M   'P 1'
_cell_length_a   8.76020384
_cell_length_b   8.76020330
_cell_length_c   9.33334500
_cell_angle_alpha   89.90187994
_cell_angle_beta   90.09811352
_cell_angle_gamma   119.82641638
_symmetry_Int_Tables_number   1
_chemical_formula_structural   Th6Al24Fe7Pd
_chemical_formula_sum   'Th6 Al24 Fe7 Pd1'
_cell_volume   621.37315501
_cell_formula_units_Z   1
loop_
 _symmetry_equiv_pos_site_id
 _symmetry_equiv_pos_as_xyz
  1  'x, y, z'
loop_
 _atom_site_type_symbol
 _atom_site_label
 _atom_site_symmetry_multiplicity
 _atom_site_fract_x
 _atom_site_fract_y
 _atom_site_fract_z
 _atom_site_occupancy
  Th  Th0  1  0.191483  0.389462  0.251946  1
  Th  Th1  1  0.808517  0.610538  0.748054  1
  Th  Th2  1  0.610538  0.808517  0.251946  1
  Th  Th3  1  0.389462  0.191483  0.748054  1
  Th  Th4  1  0.195480  0.804520  0.253002  1
  Th  Th5  1  0.804520  0.195480  0.746998  1
  Al  Al6  1  0.328561  0.671439  0.009320  1
  Al  Al7  1  0.671439  0.328561  0.990680  1
  Al  Al8  1  0.666538  0.333462  0.507416  1
  Al  Al9  1  0.333462  0.666538  0.492584  1
  Al  Al10  1  0.161089  0.322171  0.576616  1
  Al  Al11  1  0.838911  0.677829  0.423384  1
  Al  Al12  1  0.677829  0.838911  0.576616  1
  Al  Al13  1  0.846773  0.680451  0.077795  1
  Al  Al14  1  0.322171  0.161089  0.423384  1
  Al  Al15  1  0.153227  0.319549  0.922205  1
  Al  Al16  1  0.161755  0.838245  0.577418  1
  Al  Al17  1  0.319549  0.153227  0.077795  1
  Al  Al18  1  0.838245  0.161755  0.422582  1
  Al  Al19  1  0.680451  0.846773  0.922205  1
  Al  Al20  1  0.838744  0.161256  0.077253  1
  Al  Al21  1  0.161256  0.838744  0.922747  1
  Al  Al22  1  0.562187  0.125424  0.249416  1
  Al  Al23  1  0.437813  0.874576  0.750584  1
  Al  Al24  1  0.874576  0.437813  0.249416  1
  Al  Al25  1  0.125424  0.562187  0.750584  1
  Al  Al26  1  0.563168  0.436832  0.257244  1
  Al  Al27  1  0.436832  0.563168  0.742756  1
  Al  Al28  1  0.999486  0.000514  0.250215  1
  Al  Al29  1  0.000514  0.999486  0.749785  1
  Fe  Fe30  1  0.500000  0.000000  0.000000  1
  Fe  Fe31  1  0.000000  0.500000  0.000000  1
  Fe  Fe32  1  0.500000  0.000000  0.500000  1
  Fe  Fe33  1  0.000000  0.500000  0.500000  1
  Fe  Fe34  1  0.500000  0.500000  0.500000  1
  Fe  Fe35  1  0.000000  0.000000  0.000000  1
  Fe  Fe36  1  0.000000  0.000000  0.500000  1
  Pd  Pd37  1  0.500000  0.500000  0.000000  1
