# generated using pymatgen
data_Nd11YTh4(MgIr)4
_symmetry_space_group_name_H-M   'P 1'
_cell_length_a   10.03397826
_cell_length_b   10.03397888
_cell_length_c   10.03537300
_cell_angle_alpha   59.99540709
_cell_angle_beta   59.99540506
_cell_angle_gamma   60.14374299
_symmetry_Int_Tables_number   1
_chemical_formula_structural   Nd11YTh4(MgIr)4
_chemical_formula_sum   'Nd11 Y1 Th4 Mg4 Ir4'
_cell_volume   715.16162845
_cell_formula_units_Z   1
loop_
 _symmetry_equiv_pos_site_id
 _symmetry_equiv_pos_as_xyz
  1  'x, y, z'
loop_
 _atom_site_type_symbol
 _atom_site_label
 _atom_site_symmetry_multiplicity
 _atom_site_fract_x
 _atom_site_fract_y
 _atom_site_fract_z
 _atom_site_occupancy
  Nd  Nd0  1  0.060445  0.438686  0.441006  1
  Nd  Nd1  1  0.438686  0.060445  0.059863  1
  Nd  Nd2  1  0.438686  0.060445  0.441006  1
  Nd  Nd3  1  0.060445  0.438686  0.059863  1
  Nd  Nd4  1  0.439911  0.439911  0.060089  1
  Nd  Nd5  1  0.061356  0.061356  0.438644  1
  Nd  Nd6  1  0.188614  0.814356  0.812911  1
  Nd  Nd7  1  0.814356  0.188614  0.184120  1
  Nd  Nd8  1  0.814356  0.188614  0.812911  1
  Nd  Nd9  1  0.188614  0.814356  0.184120  1
  Nd  Nd10  1  0.812749  0.812749  0.187251  1
  Y  Y11  1  0.189526  0.189526  0.810474  1
  Th  Th12  1  0.594150  0.594150  0.595924  1
  Th  Th13  1  0.594150  0.594150  0.215775  1
  Th  Th14  1  0.595489  0.212012  0.596249  1
  Th  Th15  1  0.212012  0.595489  0.596249  1
  Mg  Mg16  1  0.828987  0.828987  0.829225  1
  Mg  Mg17  1  0.828987  0.828987  0.512800  1
  Mg  Mg18  1  0.830331  0.511633  0.829018  1
  Mg  Mg19  1  0.511633  0.830331  0.829018  1
  Ir  Ir20  1  0.394068  0.394068  0.398436  1
  Ir  Ir21  1  0.394068  0.394068  0.813427  1
  Ir  Ir22  1  0.395164  0.813215  0.395810  1
  Ir  Ir23  1  0.813215  0.395164  0.395810  1
