# generated using pymatgen
data_AcCeZn4Ru
_symmetry_space_group_name_H-M   'P 1'
_cell_length_a   7.33542300
_cell_length_b   7.33542300
_cell_length_c   5.29617900
_cell_angle_alpha   90.00000000
_cell_angle_beta   90.00000000
_cell_angle_gamma   90.00000000
_symmetry_Int_Tables_number   1
_chemical_formula_structural   AcCeZn4Ru
_chemical_formula_sum   'Ac2 Ce2 Zn8 Ru2'
_cell_volume   284.97908011
_cell_formula_units_Z   2
loop_
 _symmetry_equiv_pos_site_id
 _symmetry_equiv_pos_as_xyz
  1  'x, y, z'
loop_
 _atom_site_type_symbol
 _atom_site_label
 _atom_site_symmetry_multiplicity
 _atom_site_fract_x
 _atom_site_fract_y
 _atom_site_fract_z
 _atom_site_occupancy
  Ac  Ac0  1  0.000000  0.500000  0.778937  1
  Ac  Ac1  1  0.500000  0.000000  0.221063  1
  Ce  Ce2  1  0.000000  0.000000  0.000000  1
  Ce  Ce3  1  0.500000  0.500000  0.000000  1
  Zn  Zn4  1  0.185561  0.685561  0.290985  1
  Zn  Zn5  1  0.814439  0.685561  0.290985  1
  Zn  Zn6  1  0.814439  0.314439  0.290985  1
  Zn  Zn7  1  0.314439  0.185561  0.709015  1
  Zn  Zn8  1  0.185561  0.314439  0.290985  1
  Zn  Zn9  1  0.685561  0.185561  0.709015  1
  Zn  Zn10  1  0.685561  0.814439  0.709015  1
  Zn  Zn11  1  0.314439  0.814439  0.709015  1
  Ru  Ru12  1  0.500000  0.500000  0.500000  1
  Ru  Ru13  1  0.000000  0.000000  0.500000  1
