# generated using pymatgen
data_Dy11In(Hg2Ir)4
_symmetry_space_group_name_H-M   'P 1'
_cell_length_a   13.00555405
_cell_length_b   13.00555389
_cell_length_c   3.76181500
_cell_angle_alpha   90.00000000
_cell_angle_beta   90.00000000
_cell_angle_gamma   114.56854616
_symmetry_Int_Tables_number   1
_chemical_formula_structural   Dy11In(Hg2Ir)4
_chemical_formula_sum   'Dy11 In1 Hg8 Ir4'
_cell_volume   578.68322872
_cell_formula_units_Z   1
loop_
 _symmetry_equiv_pos_site_id
 _symmetry_equiv_pos_as_xyz
  1  'x, y, z'
loop_
 _atom_site_type_symbol
 _atom_site_label
 _atom_site_symmetry_multiplicity
 _atom_site_fract_x
 _atom_site_fract_y
 _atom_site_fract_z
 _atom_site_occupancy
  Dy  Dy0  1  0.500000  0.500000  0.500000  1
  Dy  Dy1  1  0.796515  0.796515  0.500000  1
  Dy  Dy2  1  0.203485  0.203485  0.500000  1
  Dy  Dy3  1  0.586819  0.918610  0.500000  1
  Dy  Dy4  1  0.413181  0.081390  0.500000  1
  Dy  Dy5  1  0.918610  0.586819  0.500000  1
  Dy  Dy6  1  0.081390  0.413181  0.500000  1
  Dy  Dy7  1  0.130842  0.869158  0.500000  1
  Dy  Dy8  1  0.869158  0.130842  0.500000  1
  Dy  Dy9  1  0.332881  0.667119  0.500000  1
  Dy  Dy10  1  0.667119  0.332881  0.500000  1
  In  In11  1  0.000000  0.000000  0.000000  1
  Hg  Hg12  1  0.351430  0.868111  0.000000  1
  Hg  Hg13  1  0.648570  0.131889  0.000000  1
  Hg  Hg14  1  0.868111  0.351430  0.000000  1
  Hg  Hg15  1  0.131889  0.648570  0.000000  1
  Hg  Hg16  1  0.557234  0.710933  0.000000  1
  Hg  Hg17  1  0.442766  0.289067  0.000000  1
  Hg  Hg18  1  0.710933  0.557234  0.000000  1
  Hg  Hg19  1  0.289067  0.442766  0.000000  1
  Ir  Ir20  1  0.757811  0.949963  0.000000  1
  Ir  Ir21  1  0.242189  0.050037  0.000000  1
  Ir  Ir22  1  0.949963  0.757811  0.000000  1
  Ir  Ir23  1  0.050037  0.242189  0.000000  1
