# generated using pymatgen
data_Zr2Ta2TiGe4
_symmetry_space_group_name_H-M   'P 1'
_cell_length_a   6.83471600
_cell_length_b   6.95366500
_cell_length_c   13.29844600
_cell_angle_alpha   90.00000000
_cell_angle_beta   90.00000000
_cell_angle_gamma   90.00000000
_symmetry_Int_Tables_number   1
_chemical_formula_structural   Zr2Ta2TiGe4
_chemical_formula_sum   'Zr8 Ta8 Ti4 Ge16'
_cell_volume   632.02627236
_cell_formula_units_Z   4
loop_
 _symmetry_equiv_pos_site_id
 _symmetry_equiv_pos_as_xyz
  1  'x, y, z'
loop_
 _atom_site_type_symbol
 _atom_site_label
 _atom_site_symmetry_multiplicity
 _atom_site_fract_x
 _atom_site_fract_y
 _atom_site_fract_z
 _atom_site_occupancy
  Zr  Zr0  1  0.491570  0.675328  0.092553  1
  Zr  Zr1  1  0.991570  0.824672  0.407447  1
  Zr  Zr2  1  0.508430  0.324672  0.592553  1
  Zr  Zr3  1  0.008430  0.175328  0.907447  1
  Zr  Zr4  1  0.511695  0.326592  0.907484  1
  Zr  Zr5  1  0.011695  0.173408  0.592516  1
  Zr  Zr6  1  0.488305  0.673408  0.407484  1
  Zr  Zr7  1  0.988305  0.826592  0.092516  1
  Ta  Ta8  1  0.334847  0.008382  0.249365  1
  Ta  Ta9  1  0.834847  0.491618  0.250635  1
  Ta  Ta10  1  0.665153  0.991618  0.749365  1
  Ta  Ta11  1  0.165153  0.508382  0.750635  1
  Ta  Ta12  1  0.659700  0.166976  0.124526  1
  Ta  Ta13  1  0.159700  0.333024  0.375474  1
  Ta  Ta14  1  0.340300  0.833024  0.624526  1
  Ta  Ta15  1  0.840300  0.666976  0.875474  1
  Ti  Ti16  1  0.337931  0.832985  0.875404  1
  Ti  Ti17  1  0.837931  0.667015  0.624596  1
  Ti  Ti18  1  0.662069  0.167015  0.375404  1
  Ti  Ti19  1  0.162069  0.332985  0.124596  1
  Ge  Ge20  1  0.694505  0.853626  0.251600  1
  Ge  Ge21  1  0.194505  0.646374  0.248400  1
  Ge  Ge22  1  0.305495  0.146374  0.751600  1
  Ge  Ge23  1  0.805495  0.353626  0.748400  1
  Ge  Ge24  1  0.677733  0.960452  0.960108  1
  Ge  Ge25  1  0.177733  0.539548  0.539892  1
  Ge  Ge26  1  0.322267  0.039548  0.460108  1
  Ge  Ge27  1  0.822267  0.460452  0.039892  1
  Ge  Ge28  1  0.315988  0.039743  0.038265  1
  Ge  Ge29  1  0.815988  0.460257  0.461735  1
  Ge  Ge30  1  0.684012  0.960257  0.538265  1
  Ge  Ge31  1  0.184012  0.539743  0.961735  1
  Ge  Ge32  1  0.461045  0.382599  0.250782  1
  Ge  Ge33  1  0.961045  0.117401  0.249218  1
  Ge  Ge34  1  0.538955  0.617401  0.750782  1
  Ge  Ge35  1  0.038955  0.882599  0.749218  1
