# generated using pymatgen
data_DyY4Ho5Bi6
_symmetry_space_group_name_H-M   'P 1'
_cell_length_a   8.26158000
_cell_length_b   9.52387800
_cell_length_c   12.08965800
_cell_angle_alpha   90.00073190
_cell_angle_beta   90.00000000
_cell_angle_gamma   90.00000000
_symmetry_Int_Tables_number   1
_chemical_formula_structural   DyY4Ho5Bi6
_chemical_formula_sum   'Dy2 Y8 Ho10 Bi12'
_cell_volume   951.24185591
_cell_formula_units_Z   2
loop_
 _symmetry_equiv_pos_site_id
 _symmetry_equiv_pos_as_xyz
  1  'x, y, z'
loop_
 _atom_site_type_symbol
 _atom_site_label
 _atom_site_symmetry_multiplicity
 _atom_site_fract_x
 _atom_site_fract_y
 _atom_site_fract_z
 _atom_site_occupancy
  Dy  Dy0  1  0.306347  0.436582  0.940313  1
  Dy  Dy1  1  0.806347  0.063418  0.559687  1
  Y  Y2  1  0.186290  0.750012  0.719042  1
  Y  Y3  1  0.686290  0.749988  0.780958  1
  Y  Y4  1  0.813664  0.250058  0.280897  1
  Y  Y5  1  0.313664  0.249942  0.219103  1
  Y  Y6  1  0.353681  0.749986  0.215412  1
  Y  Y7  1  0.853681  0.750014  0.284588  1
  Y  Y8  1  0.646234  0.250024  0.784617  1
  Y  Y9  1  0.146234  0.249976  0.715383  1
  Ho  Ho10  1  0.025677  0.750072  0.988969  1
  Ho  Ho11  1  0.525677  0.749928  0.511031  1
  Ho  Ho12  1  0.974031  0.249921  0.011108  1
  Ho  Ho13  1  0.474031  0.250079  0.488892  1
  Ho  Ho14  1  0.693692  0.936368  0.059720  1
  Ho  Ho15  1  0.193692  0.563632  0.440280  1
  Ho  Ho16  1  0.693660  0.563664  0.059685  1
  Ho  Ho17  1  0.193660  0.936336  0.440315  1
  Ho  Ho18  1  0.306394  0.063491  0.940300  1
  Ho  Ho19  1  0.806394  0.436509  0.559700  1
  Bi  Bi20  1  0.433439  0.003809  0.673272  1
  Bi  Bi21  1  0.933439  0.496191  0.826728  1
  Bi  Bi22  1  0.566476  0.503844  0.326777  1
  Bi  Bi23  1  0.066476  0.996156  0.173223  1
  Bi  Bi24  1  0.566459  0.996176  0.326697  1
  Bi  Bi25  1  0.066459  0.503824  0.173303  1
  Bi  Bi26  1  0.433595  0.496182  0.673177  1
  Bi  Bi27  1  0.933595  0.003818  0.826823  1
  Bi  Bi28  1  0.408996  0.750547  0.958159  1
  Bi  Bi29  1  0.908996  0.749453  0.541841  1
  Bi  Bi30  1  0.591365  0.249797  0.041984  1
  Bi  Bi31  1  0.091365  0.250203  0.458016  1
