# generated using pymatgen
data_DyHo3InPt11
_symmetry_space_group_name_H-M   'P 1'
_cell_length_a   4.18866700
_cell_length_b   5.83304812
_cell_length_c   11.68111683
_cell_angle_alpha   87.78837085
_cell_angle_beta   90.00000000
_cell_angle_gamma   90.00000000
_symmetry_Int_Tables_number   1
_chemical_formula_structural   DyHo3InPt11
_chemical_formula_sum   'Dy1 Ho3 In1 Pt11'
_cell_volume   285.18858419
_cell_formula_units_Z   1
loop_
 _symmetry_equiv_pos_site_id
 _symmetry_equiv_pos_as_xyz
  1  'x, y, z'
loop_
 _atom_site_type_symbol
 _atom_site_label
 _atom_site_symmetry_multiplicity
 _atom_site_fract_x
 _atom_site_fract_y
 _atom_site_fract_z
 _atom_site_occupancy
  Dy  Dy0  1  0.500000  0.751896  0.375736  1
  Ho  Ho1  1  0.500000  0.721591  0.862075  1
  Ho  Ho2  1  0.500000  0.278400  0.137864  1
  Ho  Ho3  1  0.500000  0.248133  0.624305  1
  In  In4  1  0.000000  0.000011  0.999970  1
  Pt  Pt5  1  0.000000  0.010813  0.249048  1
  Pt  Pt6  1  0.000000  0.989710  0.750693  1
  Pt  Pt7  1  0.000000  0.499970  0.999921  1
  Pt  Pt8  1  0.000000  0.499506  0.500315  1
  Pt  Pt9  1  0.000000  0.512305  0.249923  1
  Pt  Pt10  1  0.000000  0.487249  0.749840  1
  Pt  Pt11  1  0.500000  0.250091  0.377895  1
  Pt  Pt12  1  0.500000  0.232497  0.880754  1
  Pt  Pt13  1  0.500000  0.767522  0.118924  1
  Pt  Pt14  1  0.500000  0.749979  0.622459  1
  Pt  Pt15  1  0.000000  0.000329  0.500280  1
