# generated using pymatgen
data_Tb3Ho2AlRuO12
_symmetry_space_group_name_H-M   'P 1'
_cell_length_a   6.81226016
_cell_length_b   6.81133225
_cell_length_c   7.27283210
_cell_angle_alpha   74.50536578
_cell_angle_beta   74.50112322
_cell_angle_gamma   50.54573073
_symmetry_Int_Tables_number   1
_chemical_formula_structural   Tb3Ho2AlRuO12
_chemical_formula_sum   'Tb3 Ho2 Al1 Ru1 O12'
_cell_volume   248.93310465
_cell_formula_units_Z   1
loop_
 _symmetry_equiv_pos_site_id
 _symmetry_equiv_pos_as_xyz
  1  'x, y, z'
loop_
 _atom_site_type_symbol
 _atom_site_label
 _atom_site_symmetry_multiplicity
 _atom_site_fract_x
 _atom_site_fract_y
 _atom_site_fract_z
 _atom_site_occupancy
  Tb  Tb0  1  0.997526  0.002313  0.999953  1
  Tb  Tb1  1  0.293607  0.314106  0.858310  1
  Tb  Tb2  1  0.308185  0.306631  0.332932  1
  Ho  Ho3  1  0.693314  0.691315  0.667885  1
  Ho  Ho4  1  0.685815  0.706506  0.141249  1
  Al  Al5  1  0.253657  0.746619  0.499988  1
  Ru  Ru6  1  0.763700  0.236682  0.499897  1
  O  O7  1  0.403143  0.905590  0.922705  1
  O  O8  1  0.578283  0.096824  0.582073  1
  O  O9  1  0.898951  0.425664  0.418252  1
  O  O10  1  0.089243  0.600487  0.077704  1
  O  O11  1  0.006606  0.994170  0.322197  1
  O  O12  1  0.504414  0.497908  0.680095  1
  O  O13  1  0.896501  0.407350  0.925967  1
  O  O14  1  0.098583  0.581604  0.580385  1
  O  O15  1  0.422497  0.897030  0.419470  1
  O  O16  1  0.596116  0.098474  0.074102  1
  O  O17  1  0.503427  0.496886  0.319302  1
  O  O18  1  0.006431  0.993841  0.677535  1
