# generated using pymatgen
data_Nd3Ho5(CdPd)2
_symmetry_space_group_name_H-M   'P 1'
_cell_length_a   9.77167990
_cell_length_b   9.77168055
_cell_length_c   9.77167900
_cell_angle_alpha   60.00000187
_cell_angle_beta   59.99999966
_cell_angle_gamma   60.00000198
_symmetry_Int_Tables_number   1
_chemical_formula_structural   Nd3Ho5(CdPd)2
_chemical_formula_sum   'Nd6 Ho10 Cd4 Pd4'
_cell_volume   659.77020403
_cell_formula_units_Z   2
loop_
 _symmetry_equiv_pos_site_id
 _symmetry_equiv_pos_as_xyz
  1  'x, y, z'
loop_
 _atom_site_type_symbol
 _atom_site_label
 _atom_site_symmetry_multiplicity
 _atom_site_fract_x
 _atom_site_fract_y
 _atom_site_fract_z
 _atom_site_occupancy
  Nd  Nd0  1  0.936987  0.563013  0.563013  1
  Nd  Nd1  1  0.563013  0.936987  0.936987  1
  Nd  Nd2  1  0.563013  0.936987  0.563013  1
  Nd  Nd3  1  0.936987  0.563013  0.936987  1
  Nd  Nd4  1  0.563013  0.563013  0.936987  1
  Nd  Nd5  1  0.936987  0.936987  0.563013  1
  Ho  Ho6  1  0.351546  0.351546  0.351546  1
  Ho  Ho7  1  0.351546  0.351546  0.945361  1
  Ho  Ho8  1  0.351546  0.945361  0.351546  1
  Ho  Ho9  1  0.945361  0.351546  0.351546  1
  Ho  Ho10  1  0.812368  0.187632  0.187632  1
  Ho  Ho11  1  0.187632  0.812368  0.812368  1
  Ho  Ho12  1  0.187632  0.812368  0.187632  1
  Ho  Ho13  1  0.812368  0.187632  0.812368  1
  Ho  Ho14  1  0.187632  0.187632  0.812368  1
  Ho  Ho15  1  0.812368  0.812368  0.187632  1
  Cd  Cd16  1  0.579988  0.579988  0.579988  1
  Cd  Cd17  1  0.579988  0.579988  0.260037  1
  Cd  Cd18  1  0.579988  0.260037  0.579988  1
  Cd  Cd19  1  0.260037  0.579988  0.579988  1
  Pd  Pd20  1  0.143516  0.143516  0.143516  1
  Pd  Pd21  1  0.143516  0.143516  0.569454  1
  Pd  Pd22  1  0.143516  0.569454  0.143516  1
  Pd  Pd23  1  0.569454  0.143516  0.143516  1
