# generated using pymatgen
data_Rb6GaS4F
_symmetry_space_group_name_H-M   'P 1'
_cell_length_a   10.20417500
_cell_length_b   10.20417358
_cell_length_c   7.66124400
_cell_angle_alpha   90.00000000
_cell_angle_beta   90.00000000
_cell_angle_gamma   119.99999488
_symmetry_Int_Tables_number   1
_chemical_formula_structural   Rb6GaS4F
_chemical_formula_sum   'Rb12 Ga2 S8 F2'
_cell_volume   690.85305757
_cell_formula_units_Z   2
loop_
 _symmetry_equiv_pos_site_id
 _symmetry_equiv_pos_as_xyz
  1  'x, y, z'
loop_
 _atom_site_type_symbol
 _atom_site_label
 _atom_site_symmetry_multiplicity
 _atom_site_fract_x
 _atom_site_fract_y
 _atom_site_fract_z
 _atom_site_occupancy
  Rb  Rb0  1  0.122112  0.877888  0.512173  1
  Rb  Rb1  1  0.755775  0.877888  0.512173  1
  Rb  Rb2  1  0.945183  0.472591  0.315750  1
  Rb  Rb3  1  0.527408  0.472592  0.315750  1
  Rb  Rb4  1  0.877888  0.755774  0.012172  1
  Rb  Rb5  1  0.244225  0.122112  0.012173  1
  Rb  Rb6  1  0.527408  0.054817  0.315750  1
  Rb  Rb7  1  0.122112  0.244226  0.512172  1
  Rb  Rb8  1  0.877888  0.122112  0.012173  1
  Rb  Rb9  1  0.054817  0.527409  0.815750  1
  Rb  Rb10  1  0.472592  0.945183  0.815750  1
  Rb  Rb11  1  0.472592  0.527408  0.815750  1
  Ga  Ga12  1  0.666667  0.333333  0.712878  1
  Ga  Ga13  1  0.333333  0.666667  0.212878  1
  S  S14  1  0.417323  0.208661  0.616848  1
  S  S15  1  0.582677  0.791339  0.116848  1
  S  S16  1  0.666667  0.333333  0.016038  1
  S  S17  1  0.791339  0.582677  0.616848  1
  S  S18  1  0.208661  0.417323  0.116848  1
  S  S19  1  0.333333  0.666667  0.516038  1
  S  S20  1  0.208661  0.791339  0.116849  1
  S  S21  1  0.791339  0.208661  0.616849  1
  F  F22  1  0.000000  0.000000  0.277371  1
  F  F23  1  0.000000  0.000000  0.777371  1
