# generated using pymatgen
data_Y3Th11Ir6
_symmetry_space_group_name_H-M   'P 1'
_cell_length_a   9.99144083
_cell_length_b   10.02585369
_cell_length_c   6.38028281
_cell_angle_alpha   90.33996770
_cell_angle_beta   89.77136409
_cell_angle_gamma   120.11408930
_symmetry_Int_Tables_number   1
_chemical_formula_structural   Y3Th11Ir6
_chemical_formula_sum   'Y3 Th11 Ir6'
_cell_volume   552.85554598
_cell_formula_units_Z   1
loop_
 _symmetry_equiv_pos_site_id
 _symmetry_equiv_pos_as_xyz
  1  'x, y, z'
loop_
 _atom_site_type_symbol
 _atom_site_label
 _atom_site_symmetry_multiplicity
 _atom_site_fract_x
 _atom_site_fract_y
 _atom_site_fract_z
 _atom_site_occupancy
  Y  Y0  1  0.459421  0.539283  0.294673  1
  Y  Y1  1  0.076988  0.537483  0.301152  1
  Y  Y2  1  0.924392  0.462980  0.802674  1
  Th  Th3  1  0.253555  0.128596  0.500473  1
  Th  Th4  1  0.544279  0.085712  0.793733  1
  Th  Th5  1  0.745990  0.873639  0.000012  1
  Th  Th6  1  0.664888  0.331141  0.291375  1
  Th  Th7  1  0.127135  0.869546  0.001459  1
  Th  Th8  1  0.456133  0.910895  0.290558  1
  Th  Th9  1  0.543631  0.459017  0.796048  1
  Th  Th10  1  0.873658  0.129742  0.502892  1
  Th  Th11  1  0.125940  0.255848  0.000283  1
  Th  Th12  1  0.870081  0.742380  0.499179  1
  Th  Th13  1  0.335030  0.667819  0.781657  1
  Ir  Ir14  1  0.809980  0.624829  0.057814  1
  Ir  Ir15  1  0.811896  0.187431  0.057612  1
  Ir  Ir16  1  0.627142  0.816704  0.550968  1
  Ir  Ir17  1  0.375222  0.189204  0.050243  1
  Ir  Ir18  1  0.184740  0.372228  0.557513  1
  Ir  Ir19  1  0.189899  0.815521  0.553684  1
