# generated using pymatgen
data_V3PS3
_symmetry_space_group_name_H-M   'P 1'
_cell_length_a   9.08809800
_cell_length_b   9.08809959
_cell_length_c   3.25301600
_cell_angle_alpha   90.00000000
_cell_angle_beta   90.00000000
_cell_angle_gamma   120.00000149
_symmetry_Int_Tables_number   1
_chemical_formula_structural   V3PS3
_chemical_formula_sum   'V6 P2 S6'
_cell_volume   232.68206192
_cell_formula_units_Z   2
loop_
 _symmetry_equiv_pos_site_id
 _symmetry_equiv_pos_as_xyz
  1  'x, y, z'
loop_
 _atom_site_type_symbol
 _atom_site_label
 _atom_site_symmetry_multiplicity
 _atom_site_fract_x
 _atom_site_fract_y
 _atom_site_fract_z
 _atom_site_occupancy
  V  V0  1  0.509073  0.875732  0.750000  1
  V  V1  1  0.633343  0.509073  0.250000  1
  V  V2  1  0.875732  0.366657  0.250000  1
  V  V3  1  0.124268  0.633343  0.750000  1
  V  V4  1  0.366657  0.490927  0.750000  1
  V  V5  1  0.490927  0.124268  0.250000  1
  P  P6  1  0.666667  0.333333  0.750000  1
  P  P7  1  0.333333  0.666667  0.250000  1
  S  S8  1  0.650077  0.703249  0.750000  1
  S  S9  1  0.946827  0.650077  0.250000  1
  S  S10  1  0.703249  0.053173  0.250000  1
  S  S11  1  0.296751  0.946827  0.750000  1
  S  S12  1  0.349923  0.296751  0.250000  1
  S  S13  1  0.053173  0.349923  0.750000  1
