# generated using pymatgen
data_Th3NiSn3Ru2
_symmetry_space_group_name_H-M   'P 1'
_cell_length_a   7.55274600
_cell_length_b   7.55274558
_cell_length_c   4.06391500
_cell_angle_alpha   90.00000000
_cell_angle_beta   90.00000000
_cell_angle_gamma   119.99999307
_symmetry_Int_Tables_number   1
_chemical_formula_structural   Th3NiSn3Ru2
_chemical_formula_sum   'Th3 Ni1 Sn3 Ru2'
_cell_volume   200.76361769
_cell_formula_units_Z   1
loop_
 _symmetry_equiv_pos_site_id
 _symmetry_equiv_pos_as_xyz
  1  'x, y, z'
loop_
 _atom_site_type_symbol
 _atom_site_label
 _atom_site_symmetry_multiplicity
 _atom_site_fract_x
 _atom_site_fract_y
 _atom_site_fract_z
 _atom_site_occupancy
  Th  Th0  1  0.000000  0.585305  0.500000  1
  Th  Th1  1  0.414695  0.414695  0.500000  1
  Th  Th2  1  0.585305  0.000000  0.500000  1
  Ni  Ni3  1  0.000000  0.000000  0.500000  1
  Sn  Sn4  1  0.754884  0.754884  0.000000  1
  Sn  Sn5  1  0.000000  0.245116  0.000000  1
  Sn  Sn6  1  0.245116  0.000000  0.000000  1
  Ru  Ru7  1  0.333333  0.666667  0.000000  1
  Ru  Ru8  1  0.666667  0.333333  0.000000  1
