# generated using pymatgen
data_Nd6GeBBr6
_symmetry_space_group_name_H-M   'P 1'
_cell_length_a   10.39582455
_cell_length_b   10.39582481
_cell_length_c   10.23345400
_cell_angle_alpha   109.46735167
_cell_angle_beta   109.46735947
_cell_angle_gamma   110.11289343
_symmetry_Int_Tables_number   1
_chemical_formula_structural   Nd6GeBBr6
_chemical_formula_sum   'Nd12 Ge2 B2 Br12'
_cell_volume   844.61651587
_cell_formula_units_Z   2
loop_
 _symmetry_equiv_pos_site_id
 _symmetry_equiv_pos_as_xyz
  1  'x, y, z'
loop_
 _atom_site_type_symbol
 _atom_site_label
 _atom_site_symmetry_multiplicity
 _atom_site_fract_x
 _atom_site_fract_y
 _atom_site_fract_z
 _atom_site_occupancy
  Nd  Nd0  1  0.257700  0.007700  0.015401  1
  Nd  Nd1  1  0.028174  0.271607  0.001991  1
  Nd  Nd2  1  0.473818  0.730383  0.001991  1
  Nd  Nd3  1  0.770887  0.244610  0.276763  1
  Nd  Nd4  1  0.005877  0.032153  0.276763  1
  Nd  Nd5  1  0.020238  0.479762  0.750000  1
  Nd  Nd6  1  0.229762  0.270238  0.750000  1
  Nd  Nd7  1  0.255390  0.729113  0.223237  1
  Nd  Nd8  1  0.228393  0.471826  0.498009  1
  Nd  Nd9  1  0.467847  0.494123  0.223237  1
  Nd  Nd10  1  0.769617  0.026182  0.498009  1
  Nd  Nd11  1  0.492300  0.242300  0.484599  1
  Ge  Ge12  1  0.500312  0.999688  0.250000  1
  Ge  Ge13  1  0.249688  0.250312  0.250000  1
  B  B14  1  0.999494  0.249494  0.498987  1
  B  B15  1  0.250506  0.500506  0.001013  1
  Br  Br16  1  0.755532  0.744468  0.250000  1
  Br  Br17  1  0.503870  0.250769  0.994551  1
  Br  Br18  1  0.249231  0.996130  0.505449  1
  Br  Br19  1  0.512675  0.506686  0.757776  1
  Br  Br20  1  0.993314  0.987325  0.742224  1
  Br  Br21  1  0.746042  0.996042  0.992084  1
  Br  Br22  1  0.503958  0.753958  0.507916  1
  Br  Br23  1  0.756219  0.509318  0.505449  1
  Br  Br24  1  0.994468  0.505532  0.250000  1
  Br  Br25  1  0.990682  0.743781  0.994551  1
  Br  Br26  1  0.248909  0.754899  0.742224  1
  Br  Br27  1  0.745101  0.251091  0.757776  1
