# generated using pymatgen
data_Yb7Er(CdIn)4
_symmetry_space_group_name_H-M   'P 1'
_cell_length_a   7.62796855
_cell_length_b   7.53176900
_cell_length_c   7.62897600
_cell_angle_alpha   90.00000000
_cell_angle_beta   89.81549269
_cell_angle_gamma   90.00000000
_symmetry_Int_Tables_number   1
_chemical_formula_structural   Yb7Er(CdIn)4
_chemical_formula_sum   'Yb7 Er1 Cd4 In4'
_cell_volume   438.29839707
_cell_formula_units_Z   1
loop_
 _symmetry_equiv_pos_site_id
 _symmetry_equiv_pos_as_xyz
  1  'x, y, z'
loop_
 _atom_site_type_symbol
 _atom_site_label
 _atom_site_symmetry_multiplicity
 _atom_site_fract_x
 _atom_site_fract_y
 _atom_site_fract_z
 _atom_site_occupancy
  Yb  Yb0  1  0.250142  0.000000  0.249975  1
  Yb  Yb1  1  0.250153  0.499998  0.249977  1
  Yb  Yb2  1  0.750153  0.999999  0.250027  1
  Yb  Yb3  1  0.750157  0.500001  0.250027  1
  Yb  Yb4  1  0.249849  0.000000  0.749974  1
  Yb  Yb5  1  0.249848  0.499996  0.749972  1
  Yb  Yb6  1  0.749849  0.000000  0.750024  1
  Er  Er7  1  0.749836  0.500001  0.750039  1
  Cd  Cd8  1  0.999625  0.250300  0.999622  1
  Cd  Cd9  1  0.999642  0.749698  0.999638  1
  Cd  Cd10  1  0.500369  0.749698  0.500371  1
  Cd  Cd11  1  0.500366  0.250302  0.500362  1
  In  In12  1  0.500526  0.251003  0.999487  1
  In  In13  1  0.500525  0.749000  0.999484  1
  In  In14  1  0.999483  0.251007  0.500521  1
  In  In15  1  0.999478  0.749002  0.500507  1
