# generated using pymatgen
data_Yb3Sn(Ir2O7)2
_symmetry_space_group_name_H-M   'P 1'
_cell_length_a   7.14608403
_cell_length_b   7.21938305
_cell_length_c   7.21938400
_cell_angle_alpha   59.99999566
_cell_angle_beta   59.66010512
_cell_angle_gamma   59.66010352
_symmetry_Int_Tables_number   1
_chemical_formula_structural   Yb3Sn(Ir2O7)2
_chemical_formula_sum   'Yb3 Sn1 Ir4 O14'
_cell_volume   262.00098697
_cell_formula_units_Z   1
loop_
 _symmetry_equiv_pos_site_id
 _symmetry_equiv_pos_as_xyz
  1  'x, y, z'
loop_
 _atom_site_type_symbol
 _atom_site_label
 _atom_site_symmetry_multiplicity
 _atom_site_fract_x
 _atom_site_fract_y
 _atom_site_fract_z
 _atom_site_occupancy
  Yb  Yb0  1  0.125000  0.625000  0.125000  1
  Yb  Yb1  1  0.125000  0.125000  0.625000  1
  Yb  Yb2  1  0.125000  0.125000  0.125000  1
  Sn  Sn3  1  0.625000  0.125000  0.125000  1
  Ir  Ir4  1  0.125000  0.625000  0.625000  1
  Ir  Ir5  1  0.625000  0.125000  0.625000  1
  Ir  Ir6  1  0.625000  0.625000  0.125000  1
  Ir  Ir7  1  0.625000  0.625000  0.625000  1
  O  O8  1  0.687000  0.723368  0.294816  1
  O  O9  1  0.292893  0.290982  0.708063  1
  O  O10  1  0.687000  0.294816  0.723368  1
  O  O11  1  0.292893  0.708063  0.290982  1
  O  O12  1  0.292893  0.708063  0.708063  1
  O  O13  1  0.687000  0.294816  0.294816  1
  O  O14  1  0.563000  0.526632  0.955184  1
  O  O15  1  0.957107  0.959018  0.541937  1
  O  O16  1  0.563000  0.955184  0.526632  1
  O  O17  1  0.957107  0.541937  0.959018  1
  O  O18  1  0.957107  0.541937  0.541937  1
  O  O19  1  0.563000  0.955184  0.955184  1
  O  O20  1  0.280705  0.239765  0.239765  1
  O  O21  1  0.969295  0.010235  0.010235  1
