# generated using pymatgen
data_KGeSb11Rh4
_symmetry_space_group_name_H-M   'P 1'
_cell_length_a   8.11360806
_cell_length_b   8.12632970
_cell_length_c   8.12633063
_cell_angle_alpha   109.81005461
_cell_angle_beta   109.25204082
_cell_angle_gamma   109.41506598
_symmetry_Int_Tables_number   1
_chemical_formula_structural   KGeSb11Rh4
_chemical_formula_sum   'K1 Ge1 Sb11 Rh4'
_cell_volume   412.12795658
_cell_formula_units_Z   1
loop_
 _symmetry_equiv_pos_site_id
 _symmetry_equiv_pos_as_xyz
  1  'x, y, z'
loop_
 _atom_site_type_symbol
 _atom_site_label
 _atom_site_symmetry_multiplicity
 _atom_site_fract_x
 _atom_site_fract_y
 _atom_site_fract_z
 _atom_site_occupancy
  K  K0  1  0.003730  0.004792  0.998937  1
  Ge  Ge1  1  0.819007  0.159085  0.659922  1
  Sb  Sb2  1  0.841161  0.658575  0.501225  1
  Sb  Sb3  1  0.340438  0.498151  0.156300  1
  Sb  Sb4  1  0.183926  0.842257  0.341668  1
  Sb  Sb5  1  0.153642  0.654874  0.812060  1
  Sb  Sb6  1  0.656803  0.815775  0.158919  1
  Sb  Sb7  1  0.512457  0.855628  0.656830  1
  Sb  Sb8  1  0.153642  0.341581  0.498768  1
  Sb  Sb9  1  0.510491  0.155390  0.355100  1
  Sb  Sb10  1  0.841161  0.339935  0.182586  1
  Sb  Sb11  1  0.656803  0.497883  0.841028  1
  Sb  Sb12  1  0.340438  0.184138  0.842288  1
  Rh  Rh13  1  0.995650  0.002816  0.503489  1
  Rh  Rh14  1  0.497502  0.499036  0.499581  1
  Rh  Rh15  1  0.995650  0.492161  0.992833  1
  Rh  Rh16  1  0.497502  0.997922  0.998467  1
