# generated using pymatgen
data_Y4HfIr2Rh
_symmetry_space_group_name_H-M   'P 1'
_cell_length_a   10.87571800
_cell_length_b   10.87571800
_cell_length_c   6.27181600
_cell_angle_alpha   90.00000000
_cell_angle_beta   90.00000000
_cell_angle_gamma   90.00000000
_symmetry_Int_Tables_number   1
_chemical_formula_structural   Y4HfIr2Rh
_chemical_formula_sum   'Y16 Hf4 Ir8 Rh4'
_cell_volume   741.83818617
_cell_formula_units_Z   4
loop_
 _symmetry_equiv_pos_site_id
 _symmetry_equiv_pos_as_xyz
  1  'x, y, z'
loop_
 _atom_site_type_symbol
 _atom_site_label
 _atom_site_symmetry_multiplicity
 _atom_site_fract_x
 _atom_site_fract_y
 _atom_site_fract_z
 _atom_site_occupancy
  Y  Y0  1  0.287909  0.086240  0.375904  1
  Y  Y1  1  0.287909  0.913760  0.875904  1
  Y  Y2  1  0.712091  0.086240  0.875904  1
  Y  Y3  1  0.712091  0.913760  0.375904  1
  Y  Y4  1  0.586240  0.787909  0.875904  1
  Y  Y5  1  0.586240  0.212091  0.375904  1
  Y  Y6  1  0.413760  0.787909  0.375904  1
  Y  Y7  1  0.413760  0.212091  0.875904  1
  Y  Y8  1  0.212091  0.413760  0.624096  1
  Y  Y9  1  0.212091  0.586240  0.124096  1
  Y  Y10  1  0.787909  0.413760  0.124096  1
  Y  Y11  1  0.787909  0.586240  0.624096  1
  Y  Y12  1  0.913760  0.712091  0.124096  1
  Y  Y13  1  0.913760  0.287909  0.624096  1
  Y  Y14  1  0.086240  0.712091  0.624096  1
  Y  Y15  1  0.086240  0.287909  0.124096  1
  Hf  Hf16  1  0.000000  0.000000  0.500000  1
  Hf  Hf17  1  0.000000  0.000000  0.000000  1
  Hf  Hf18  1  0.500000  0.500000  0.000000  1
  Hf  Hf19  1  0.500000  0.500000  0.500000  1
  Ir  Ir20  1  0.857429  0.142571  0.250000  1
  Ir  Ir21  1  0.857429  0.857429  0.750000  1
  Ir  Ir22  1  0.142571  0.142571  0.750000  1
  Ir  Ir23  1  0.142571  0.857429  0.250000  1
  Ir  Ir24  1  0.642571  0.357429  0.750000  1
  Ir  Ir25  1  0.642571  0.642571  0.250000  1
  Ir  Ir26  1  0.357429  0.357429  0.250000  1
  Ir  Ir27  1  0.357429  0.642571  0.750000  1
  Rh  Rh28  1  0.500000  0.000000  0.122970  1
  Rh  Rh29  1  0.500000  0.000000  0.622970  1
  Rh  Rh30  1  0.000000  0.500000  0.877030  1
  Rh  Rh31  1  0.000000  0.500000  0.377030  1
