# generated using pymatgen
data_NpFeH5
_symmetry_space_group_name_H-M   'P 1'
_cell_length_a   4.26865600
_cell_length_b   4.59720500
_cell_length_c   11.38341700
_cell_angle_alpha   90.00000000
_cell_angle_beta   90.00000000
_cell_angle_gamma   90.00000000
_symmetry_Int_Tables_number   1
_chemical_formula_structural   NpFeH5
_chemical_formula_sum   'Np4 Fe4 H20'
_cell_volume   223.38688554
_cell_formula_units_Z   4
loop_
 _symmetry_equiv_pos_site_id
 _symmetry_equiv_pos_as_xyz
  1  'x, y, z'
loop_
 _atom_site_type_symbol
 _atom_site_label
 _atom_site_symmetry_multiplicity
 _atom_site_fract_x
 _atom_site_fract_y
 _atom_site_fract_z
 _atom_site_occupancy
  Np  Np0  1  0.282898  0.177509  0.650663  1
  Np  Np1  1  0.782898  0.322491  0.349337  1
  Np  Np2  1  0.217102  0.822491  0.150663  1
  Np  Np3  1  0.717102  0.677509  0.849337  1
  Fe  Fe4  1  0.317355  0.173295  0.915561  1
  Fe  Fe5  1  0.817355  0.326705  0.084439  1
  Fe  Fe6  1  0.182645  0.826705  0.415561  1
  Fe  Fe7  1  0.682645  0.673295  0.584439  1
  H  H8  1  0.528221  0.420467  0.511745  1
  H  H9  1  0.028221  0.079533  0.488255  1
  H  H10  1  0.971779  0.579533  0.011745  1
  H  H11  1  0.471779  0.920467  0.988255  1
  H  H12  1  0.184248  0.930801  0.826201  1
  H  H13  1  0.684248  0.569199  0.173799  1
  H  H14  1  0.315752  0.069199  0.326201  1
  H  H15  1  0.815752  0.430801  0.673799  1
  H  H16  1  0.201653  0.438838  0.830187  1
  H  H17  1  0.701653  0.061162  0.169813  1
  H  H18  1  0.298347  0.561162  0.330187  1
  H  H19  1  0.798347  0.938838  0.669813  1
  H  H20  1  0.610071  0.174083  0.828125  1
  H  H21  1  0.110071  0.325917  0.171875  1
  H  H22  1  0.889929  0.825917  0.328125  1
  H  H23  1  0.389929  0.674083  0.671875  1
  H  H24  1  0.987993  0.082702  0.993843  1
  H  H25  1  0.487993  0.417298  0.006157  1
  H  H26  1  0.512007  0.917298  0.493843  1
  H  H27  1  0.012007  0.582702  0.506157  1
