# generated using pymatgen
data_Li3ScAs6Rh7
_symmetry_space_group_name_H-M   'P 1'
_cell_length_a   7.01804515
_cell_length_b   7.01804581
_cell_length_c   6.94739300
_cell_angle_alpha   109.26740801
_cell_angle_beta   109.26740989
_cell_angle_gamma   109.67425823
_symmetry_Int_Tables_number   1
_chemical_formula_structural   Li3ScAs6Rh7
_chemical_formula_sum   'Li3 Sc1 As6 Rh7'
_cell_volume   264.06969013
_cell_formula_units_Z   1
loop_
 _symmetry_equiv_pos_site_id
 _symmetry_equiv_pos_as_xyz
  1  'x, y, z'
loop_
 _atom_site_type_symbol
 _atom_site_label
 _atom_site_symmetry_multiplicity
 _atom_site_fract_x
 _atom_site_fract_y
 _atom_site_fract_z
 _atom_site_occupancy
  Li  Li0  1  0.500000  0.000000  0.000000  1
  Li  Li1  1  0.000000  0.500000  0.000000  1
  Li  Li2  1  0.500000  0.500000  0.500000  1
  Sc  Sc3  1  0.000000  0.000000  0.500000  1
  As  As4  1  0.683180  0.683180  0.991082  1
  As  As5  1  0.316820  0.316820  0.008918  1
  As  As6  1  0.000000  0.683180  0.692099  1
  As  As7  1  0.000000  0.316820  0.307901  1
  As  As8  1  0.683180  0.000000  0.692099  1
  As  As9  1  0.316820  0.000000  0.307901  1
  Rh  Rh10  1  0.000000  0.000000  0.000000  1
  Rh  Rh11  1  0.249572  0.499143  0.749572  1
  Rh  Rh12  1  0.750428  0.249572  0.500000  1
  Rh  Rh13  1  0.499143  0.249572  0.749572  1
  Rh  Rh14  1  0.500857  0.750428  0.250428  1
  Rh  Rh15  1  0.750428  0.500857  0.250428  1
  Rh  Rh16  1  0.249572  0.750428  0.500000  1
