# generated using pymatgen
data_Ta12Al8Os3RuC4
_symmetry_space_group_name_H-M   'P 1'
_cell_length_a   8.28468675
_cell_length_b   8.28468663
_cell_length_c   8.28468698
_cell_angle_alpha   60.28309383
_cell_angle_beta   60.28310176
_cell_angle_gamma   60.28309252
_symmetry_Int_Tables_number   1
_chemical_formula_structural   Ta12Al8Os3RuC4
_chemical_formula_sum   'Ta12 Al8 Os3 Ru1 C4'
_cell_volume   404.65685968
_cell_formula_units_Z   1
loop_
 _symmetry_equiv_pos_site_id
 _symmetry_equiv_pos_as_xyz
  1  'x, y, z'
loop_
 _atom_site_type_symbol
 _atom_site_label
 _atom_site_symmetry_multiplicity
 _atom_site_fract_x
 _atom_site_fract_y
 _atom_site_fract_z
 _atom_site_occupancy
  Ta  Ta0  1  0.558800  0.941059  0.558800  1
  Ta  Ta1  1  0.308941  0.691200  0.691200  1
  Ta  Ta2  1  0.688645  0.309798  0.309798  1
  Ta  Ta3  1  0.309798  0.688645  0.309798  1
  Ta  Ta4  1  0.691200  0.691200  0.308941  1
  Ta  Ta5  1  0.309798  0.309798  0.688645  1
  Ta  Ta6  1  0.558800  0.558800  0.941059  1
  Ta  Ta7  1  0.941059  0.558800  0.558800  1
  Ta  Ta8  1  0.561355  0.940202  0.940202  1
  Ta  Ta9  1  0.940202  0.940202  0.561355  1
  Ta  Ta10  1  0.691200  0.308941  0.691200  1
  Ta  Ta11  1  0.940202  0.561355  0.940202  1
  Al  Al12  1  0.917233  0.917233  0.917233  1
  Al  Al13  1  0.999340  0.332480  0.332480  1
  Al  Al14  1  0.332480  0.999340  0.332480  1
  Al  Al15  1  0.332480  0.332480  0.999340  1
  Al  Al16  1  0.917520  0.250660  0.917520  1
  Al  Al17  1  0.917520  0.917520  0.250660  1
  Al  Al18  1  0.250660  0.917520  0.917520  1
  Al  Al19  1  0.332767  0.332767  0.332767  1
  Os  Os20  1  0.625000  0.125000  0.125000  1
  Os  Os21  1  0.125000  0.625000  0.125000  1
  Os  Os22  1  0.125000  0.125000  0.625000  1
  Ru  Ru23  1  0.125000  0.125000  0.125000  1
  C  C24  1  0.625000  0.625000  0.625000  1
  C  C25  1  0.125000  0.625000  0.625000  1
  C  C26  1  0.625000  0.125000  0.625000  1
  C  C27  1  0.625000  0.625000  0.125000  1
