# generated using pymatgen
data_MnNb3Fe2B3
_symmetry_space_group_name_H-M   'P 1'
_cell_length_a   6.06033033
_cell_length_b   6.06032955
_cell_length_c   3.16077900
_cell_angle_alpha   90.00000000
_cell_angle_beta   90.00000000
_cell_angle_gamma   119.79896072
_symmetry_Int_Tables_number   1
_chemical_formula_structural   MnNb3Fe2B3
_chemical_formula_sum   'Mn1 Nb3 Fe2 B3'
_cell_volume   100.73804931
_cell_formula_units_Z   1
loop_
 _symmetry_equiv_pos_site_id
 _symmetry_equiv_pos_as_xyz
  1  'x, y, z'
loop_
 _atom_site_type_symbol
 _atom_site_label
 _atom_site_symmetry_multiplicity
 _atom_site_fract_x
 _atom_site_fract_y
 _atom_site_fract_z
 _atom_site_occupancy
  Mn  Mn0  1  0.759194  0.759194  0.000000  1
  Nb  Nb1  1  0.410588  0.410588  0.500000  1
  Nb  Nb2  1  0.588704  0.998776  0.500000  1
  Nb  Nb3  1  0.998776  0.588704  0.500000  1
  Fe  Fe4  1  0.240692  0.999822  0.000000  1
  Fe  Fe5  1  0.999822  0.240692  0.000000  1
  B  B6  1  0.666978  0.333369  0.000000  1
  B  B7  1  0.333369  0.666978  0.000000  1
  B  B8  1  0.001878  0.001878  0.500000  1
