# generated using pymatgen
data_RbSb12OsRh3
_symmetry_space_group_name_H-M   'P 1'
_cell_length_a   8.18109871
_cell_length_b   8.18955450
_cell_length_c   8.18955446
_cell_angle_alpha   109.49212983
_cell_angle_beta   109.45031491
_cell_angle_gamma   109.45029612
_symmetry_Int_Tables_number   1
_chemical_formula_structural   RbSb12OsRh3
_chemical_formula_sum   'Rb1 Sb12 Os1 Rh3'
_cell_volume   422.49572424
_cell_formula_units_Z   1
loop_
 _symmetry_equiv_pos_site_id
 _symmetry_equiv_pos_as_xyz
  1  'x, y, z'
loop_
 _atom_site_type_symbol
 _atom_site_label
 _atom_site_symmetry_multiplicity
 _atom_site_fract_x
 _atom_site_fract_y
 _atom_site_fract_z
 _atom_site_occupancy
  Rb  Rb0  1  0.000000  0.000000  0.000000  1
  Sb  Sb1  1  0.343216  0.184568  0.843772  1
  Sb  Sb2  1  0.656784  0.815432  0.156228  1
  Sb  Sb3  1  0.656520  0.499742  0.843049  1
  Sb  Sb4  1  0.343480  0.500258  0.156951  1
  Sb  Sb5  1  0.186528  0.843049  0.343305  1
  Sb  Sb6  1  0.813472  0.156951  0.656695  1
  Sb  Sb7  1  0.500555  0.843772  0.659205  1
  Sb  Sb8  1  0.499445  0.156228  0.340795  1
  Sb  Sb9  1  0.841352  0.340795  0.184568  1
  Sb  Sb10  1  0.158648  0.659205  0.815432  1
  Sb  Sb11  1  0.843224  0.656695  0.499742  1
  Sb  Sb12  1  0.156776  0.343305  0.500258  1
  Os  Os13  1  0.500000  0.000000  0.000000  1
  Rh  Rh14  1  0.000000  0.000000  0.500000  1
  Rh  Rh15  1  0.000000  0.500000  0.000000  1
  Rh  Rh16  1  0.500000  0.500000  0.500000  1
