# generated using pymatgen
data_Ti4Si4Ir3Rh
_symmetry_space_group_name_H-M   'P 1'
_cell_length_a   3.86290300
_cell_length_b   6.27915946
_cell_length_c   7.25212467
_cell_angle_alpha   89.83447038
_cell_angle_beta   90.00000000
_cell_angle_gamma   90.00000000
_symmetry_Int_Tables_number   1
_chemical_formula_structural   Ti4Si4Ir3Rh
_chemical_formula_sum   'Ti4 Si4 Ir3 Rh1'
_cell_volume   175.90523488
_cell_formula_units_Z   1
loop_
 _symmetry_equiv_pos_site_id
 _symmetry_equiv_pos_as_xyz
  1  'x, y, z'
loop_
 _atom_site_type_symbol
 _atom_site_label
 _atom_site_symmetry_multiplicity
 _atom_site_fract_x
 _atom_site_fract_y
 _atom_site_fract_z
 _atom_site_occupancy
  Ti  Ti0  1  0.250000  0.023771  0.819153  1
  Ti  Ti1  1  0.250000  0.523761  0.681024  1
  Ti  Ti2  1  0.750000  0.974702  0.180201  1
  Ti  Ti3  1  0.750000  0.478196  0.319769  1
  Si  Si4  1  0.250000  0.770633  0.377524  1
  Si  Si5  1  0.250000  0.270542  0.124870  1
  Si  Si6  1  0.750000  0.229843  0.621938  1
  Si  Si7  1  0.750000  0.728329  0.875535  1
  Ir  Ir8  1  0.250000  0.656553  0.061804  1
  Ir  Ir9  1  0.750000  0.845541  0.561737  1
  Ir  Ir10  1  0.750000  0.343581  0.938653  1
  Rh  Rh11  1  0.250000  0.154549  0.437791  1
