# generated using pymatgen
data_BeNb4Co4AsP2
_symmetry_space_group_name_H-M   'P 1'
_cell_length_a   3.58591500
_cell_length_b   6.15008800
_cell_length_c   7.01791623
_cell_angle_alpha   90.12496358
_cell_angle_beta   90.00000000
_cell_angle_gamma   90.00000000
_symmetry_Int_Tables_number   1
_chemical_formula_structural   BeNb4Co4AsP2
_chemical_formula_sum   'Be1 Nb4 Co4 As1 P2'
_cell_volume   154.77060071
_cell_formula_units_Z   1
loop_
 _symmetry_equiv_pos_site_id
 _symmetry_equiv_pos_as_xyz
  1  'x, y, z'
loop_
 _atom_site_type_symbol
 _atom_site_label
 _atom_site_symmetry_multiplicity
 _atom_site_fract_x
 _atom_site_fract_y
 _atom_site_fract_z
 _atom_site_occupancy
  Be  Be0  1  0.250000  0.776029  0.382852  1
  Nb  Nb1  1  0.250000  0.019594  0.818714  1
  Nb  Nb2  1  0.250000  0.529438  0.670242  1
  Nb  Nb3  1  0.750000  0.960769  0.185258  1
  Nb  Nb4  1  0.750000  0.488510  0.330396  1
  Co  Co5  1  0.250000  0.138625  0.447319  1
  Co  Co6  1  0.250000  0.650217  0.057179  1
  Co  Co7  1  0.750000  0.858501  0.561128  1
  Co  Co8  1  0.750000  0.358727  0.926858  1
  As  As9  1  0.250000  0.271516  0.126121  1
  P  P10  1  0.750000  0.223899  0.616389  1
  P  P11  1  0.750000  0.724175  0.877542  1
