# generated using pymatgen
data_CsDy2HoS5
_symmetry_space_group_name_H-M   'P 1'
_cell_length_a   4.02206200
_cell_length_b   12.05959500
_cell_length_c   21.45132500
_cell_angle_alpha   90.00000000
_cell_angle_beta   90.00000000
_cell_angle_gamma   90.00000000
_symmetry_Int_Tables_number   1
_chemical_formula_structural   CsDy2HoS5
_chemical_formula_sum   'Cs4 Dy8 Ho4 S20'
_cell_volume   1040.48448032
_cell_formula_units_Z   4
loop_
 _symmetry_equiv_pos_site_id
 _symmetry_equiv_pos_as_xyz
  1  'x, y, z'
loop_
 _atom_site_type_symbol
 _atom_site_label
 _atom_site_symmetry_multiplicity
 _atom_site_fract_x
 _atom_site_fract_y
 _atom_site_fract_z
 _atom_site_occupancy
  Cs  Cs0  1  0.250000  0.853773  0.093320  1
  Cs  Cs1  1  0.750000  0.146227  0.906680  1
  Cs  Cs2  1  0.750000  0.353773  0.406680  1
  Cs  Cs3  1  0.250000  0.646227  0.593320  1
  Dy  Dy4  1  0.750000  0.797523  0.825808  1
  Dy  Dy5  1  0.250000  0.202477  0.174192  1
  Dy  Dy6  1  0.250000  0.297523  0.674192  1
  Dy  Dy7  1  0.750000  0.702477  0.325808  1
  Dy  Dy8  1  0.250000  0.958074  0.697080  1
  Dy  Dy9  1  0.750000  0.041926  0.302920  1
  Dy  Dy10  1  0.750000  0.458074  0.802920  1
  Dy  Dy11  1  0.250000  0.541926  0.197080  1
  Ho  Ho12  1  0.750000  0.391206  0.052529  1
  Ho  Ho13  1  0.250000  0.608794  0.947471  1
  Ho  Ho14  1  0.250000  0.891206  0.447471  1
  Ho  Ho15  1  0.750000  0.108794  0.552529  1
  S  S16  1  0.250000  0.952690  0.568296  1
  S  S17  1  0.750000  0.047310  0.431704  1
  S  S18  1  0.750000  0.452690  0.931704  1
  S  S19  1  0.250000  0.547310  0.068296  1
  S  S20  1  0.750000  0.759964  0.952016  1
  S  S21  1  0.250000  0.240036  0.047984  1
  S  S22  1  0.250000  0.259964  0.547984  1
  S  S23  1  0.750000  0.740036  0.452016  1
  S  S24  1  0.250000  0.946400  0.824336  1
  S  S25  1  0.750000  0.053600  0.175664  1
  S  S26  1  0.750000  0.446400  0.675664  1
  S  S27  1  0.250000  0.553600  0.324336  1
  S  S28  1  0.750000  0.126234  0.681774  1
  S  S29  1  0.250000  0.873766  0.318226  1
  S  S30  1  0.250000  0.626234  0.818226  1
  S  S31  1  0.750000  0.373766  0.181774  1
  S  S32  1  0.750000  0.689247  0.198656  1
  S  S33  1  0.250000  0.310753  0.801344  1
  S  S34  1  0.250000  0.189247  0.301344  1
  S  S35  1  0.750000  0.810753  0.698656  1
