# generated using pymatgen
data_Dy5Mg2Cr(Co4P3)4
_symmetry_space_group_name_H-M   'P 1'
_cell_length_a   12.11301332
_cell_length_b   12.11301289
_cell_length_c   3.70632200
_cell_angle_alpha   90.00000000
_cell_angle_beta   90.00000000
_cell_angle_gamma   119.92900683
_symmetry_Int_Tables_number   1
_chemical_formula_structural   Dy5Mg2Cr(Co4P3)4
_chemical_formula_sum   'Dy5 Mg2 Cr1 Co16 P12'
_cell_volume   471.29018161
_cell_formula_units_Z   1
loop_
 _symmetry_equiv_pos_site_id
 _symmetry_equiv_pos_as_xyz
  1  'x, y, z'
loop_
 _atom_site_type_symbol
 _atom_site_label
 _atom_site_symmetry_multiplicity
 _atom_site_fract_x
 _atom_site_fract_y
 _atom_site_fract_z
 _atom_site_occupancy
  Dy  Dy0  1  0.665713  0.335626  0.000000  1
  Dy  Dy1  1  0.335626  0.665713  0.000000  1
  Dy  Dy2  1  0.187351  0.187351  0.500000  1
  Dy  Dy3  1  0.813648  0.998574  0.500000  1
  Dy  Dy4  1  0.998574  0.813648  0.500000  1
  Mg  Mg5  1  0.439926  0.999383  0.000000  1
  Mg  Mg6  1  0.999383  0.439926  0.000000  1
  Cr  Cr7  1  0.557885  0.557885  0.000000  1
  Co  Co8  1  0.821734  0.197245  0.000000  1
  Co  Co9  1  0.799616  0.625544  0.000000  1
  Co  Co10  1  0.377870  0.181170  0.000000  1
  Co  Co11  1  0.197245  0.821734  0.000000  1
  Co  Co12  1  0.625544  0.799616  0.000000  1
  Co  Co13  1  0.181170  0.377870  0.000000  1
  Co  Co14  1  0.642116  0.123334  0.500000  1
  Co  Co15  1  0.869948  0.516976  0.500000  1
  Co  Co16  1  0.482993  0.360558  0.500000  1
  Co  Co17  1  0.123334  0.642116  0.500000  1
  Co  Co18  1  0.516976  0.869948  0.500000  1
  Co  Co19  1  0.360558  0.482993  0.500000  1
  Co  Co20  1  0.717133  0.717133  0.500000  1
  Co  Co21  1  0.281831  0.001313  0.500000  1
  Co  Co22  1  0.001313  0.281831  0.500000  1
  Co  Co23  1  0.001583  0.001583  0.000000  1
  P  P24  1  0.365874  0.365874  0.000000  1
  P  P25  1  0.639432  0.997700  0.000000  1
  P  P26  1  0.997700  0.639432  0.000000  1
  P  P27  1  0.826795  0.307124  0.500000  1
  P  P28  1  0.685431  0.522199  0.500000  1
  P  P29  1  0.480921  0.172229  0.500000  1
  P  P30  1  0.307124  0.826795  0.500000  1
  P  P31  1  0.522199  0.685431  0.500000  1
  P  P32  1  0.172229  0.480921  0.500000  1
  P  P33  1  0.821205  0.821205  0.000000  1
  P  P34  1  0.180843  0.001177  0.000000  1
  P  P35  1  0.001177  0.180843  0.000000  1
