# generated using pymatgen
data_Ho8In2CoRu
_symmetry_space_group_name_H-M   'P 1'
_cell_length_a   9.58823108
_cell_length_b   9.55379189
_cell_length_c   9.55379207
_cell_angle_alpha   59.86285931
_cell_angle_beta   59.88068849
_cell_angle_gamma   59.88068860
_symmetry_Int_Tables_number   1
_chemical_formula_structural   Ho8In2CoRu
_chemical_formula_sum   'Ho16 In4 Co2 Ru2'
_cell_volume   617.07645801
_cell_formula_units_Z   2
loop_
 _symmetry_equiv_pos_site_id
 _symmetry_equiv_pos_as_xyz
  1  'x, y, z'
loop_
 _atom_site_type_symbol
 _atom_site_label
 _atom_site_symmetry_multiplicity
 _atom_site_fract_x
 _atom_site_fract_y
 _atom_site_fract_z
 _atom_site_occupancy
  Ho  Ho0  1  0.940193  0.940096  0.557762  1
  Ho  Ho1  1  0.809772  0.190228  0.190228  1
  Ho  Ho2  1  0.937458  0.562542  0.562542  1
  Ho  Ho3  1  0.940193  0.557762  0.940096  1
  Ho  Ho4  1  0.813382  0.806564  0.188258  1
  Ho  Ho5  1  0.342046  0.348515  0.348515  1
  Ho  Ho6  1  0.556395  0.943605  0.943605  1
  Ho  Ho7  1  0.561948  0.940096  0.557762  1
  Ho  Ho8  1  0.190748  0.809252  0.809252  1
  Ho  Ho9  1  0.191796  0.188258  0.806564  1
  Ho  Ho10  1  0.345560  0.352414  0.956468  1
  Ho  Ho11  1  0.345560  0.956468  0.352414  1
  Ho  Ho12  1  0.813382  0.188258  0.806564  1
  Ho  Ho13  1  0.561948  0.557762  0.940096  1
  Ho  Ho14  1  0.191796  0.806564  0.188258  1
  Ho  Ho15  1  0.960925  0.348515  0.348515  1
  In  In16  1  0.582812  0.581624  0.252755  1
  In  In17  1  0.252683  0.581966  0.581966  1
  In  In18  1  0.583388  0.581966  0.581966  1
  In  In19  1  0.582812  0.252755  0.581624  1
  Co  Co20  1  0.138848  0.581175  0.141130  1
  Co  Co21  1  0.138848  0.141130  0.581175  1
  Ru  Ru22  1  0.579264  0.141245  0.141245  1
  Ru  Ru23  1  0.138248  0.141245  0.141245  1
