# generated using pymatgen
data_Tb3DyEr2(AlC3)2
_symmetry_space_group_name_H-M   'P 1'
_cell_length_a   3.57203500
_cell_length_b   7.07243232
_cell_length_c   9.96553867
_cell_angle_alpha   89.78586558
_cell_angle_beta   90.00000000
_cell_angle_gamma   90.00000000
_symmetry_Int_Tables_number   1
_chemical_formula_structural   Tb3DyEr2(AlC3)2
_chemical_formula_sum   'Tb3 Dy1 Er2 Al2 C6'
_cell_volume   251.75740376
_cell_formula_units_Z   1
loop_
 _symmetry_equiv_pos_site_id
 _symmetry_equiv_pos_as_xyz
  1  'x, y, z'
loop_
 _atom_site_type_symbol
 _atom_site_label
 _atom_site_symmetry_multiplicity
 _atom_site_fract_x
 _atom_site_fract_y
 _atom_site_fract_z
 _atom_site_occupancy
  Tb  Tb0  1  0.500000  0.510396  0.198412  1
  Tb  Tb1  1  0.000000  0.750452  0.459717  1
  Tb  Tb2  1  0.000000  0.250184  0.540364  1
  Dy  Dy3  1  0.500000  0.487870  0.801801  1
  Er  Er4  1  0.500000  0.987399  0.200865  1
  Er  Er5  1  0.500000  0.012391  0.798630  1
  Al  Al6  1  0.000000  0.758801  0.004149  1
  Al  Al7  1  0.000000  0.240456  0.995218  1
  C  C8  1  0.500000  0.509311  0.567076  1
  C  C9  1  0.500000  0.491573  0.434676  1
  C  C10  1  0.500000  0.991453  0.566045  1
  C  C11  1  0.500000  0.009254  0.433460  1
  C  C12  1  0.000000  0.753294  0.207460  1
  C  C13  1  0.000000  0.247167  0.792126  1
