# generated using pymatgen
data_ScNb4Co16Si7Mo
_symmetry_space_group_name_H-M   'P 1'
_cell_length_a   7.91676982
_cell_length_b   7.89750051
_cell_length_c   7.90909132
_cell_angle_alpha   60.11278364
_cell_angle_beta   59.87101872
_cell_angle_gamma   59.97983659
_symmetry_Int_Tables_number   1
_chemical_formula_structural   ScNb4Co16Si7Mo
_chemical_formula_sum   'Sc1 Nb4 Co16 Si7 Mo1'
_cell_volume   349.56345426
_cell_formula_units_Z   1
loop_
 _symmetry_equiv_pos_site_id
 _symmetry_equiv_pos_as_xyz
  1  'x, y, z'
loop_
 _atom_site_type_symbol
 _atom_site_label
 _atom_site_symmetry_multiplicity
 _atom_site_fract_x
 _atom_site_fract_y
 _atom_site_fract_z
 _atom_site_occupancy
  Sc  Sc0  1  0.202068  0.797932  0.799131  1
  Nb  Nb1  1  0.799686  0.200314  0.201479  1
  Nb  Nb2  1  0.797496  0.796079  0.204036  1
  Nb  Nb3  1  0.203921  0.202504  0.797611  1
  Nb  Nb4  1  0.793960  0.206040  0.794256  1
  Co  Co5  1  0.165897  0.166625  0.166542  1
  Co  Co6  1  0.500656  0.833833  0.833740  1
  Co  Co7  1  0.832912  0.500038  0.833526  1
  Co  Co8  1  0.833375  0.834103  0.499065  1
  Co  Co9  1  0.166167  0.499344  0.168228  1
  Co  Co10  1  0.165948  0.168938  0.498528  1
  Co  Co11  1  0.499962  0.167088  0.166476  1
  Co  Co12  1  0.831062  0.834052  0.833413  1
  Co  Co13  1  0.381646  0.383760  0.380550  1
  Co  Co14  1  0.143290  0.618235  0.614894  1
  Co  Co15  1  0.619151  0.143306  0.618038  1
  Co  Co16  1  0.616240  0.618354  0.145958  1
  Co  Co17  1  0.381765  0.856710  0.376418  1
  Co  Co18  1  0.381912  0.376260  0.859631  1
  Co  Co19  1  0.856694  0.380849  0.380495  1
  Co  Co20  1  0.623740  0.618088  0.617804  1
  Si  Si21  1  0.500054  0.499946  0.503774  1
  Si  Si22  1  0.999485  0.501102  0.999623  1
  Si  Si23  1  0.498745  0.997903  0.002687  1
  Si  Si24  1  0.002097  0.501255  0.499334  1
  Si  Si25  1  0.498898  0.000515  0.500209  1
  Si  Si26  1  0.002291  0.997709  0.499575  1
  Si  Si27  1  0.498292  0.501708  0.002511  1
  Mo  Mo28  1  0.202590  0.797410  0.202472  1
