# generated using pymatgen
data_Hf6Al16Ir6Au
_symmetry_space_group_name_H-M   'P 1'
_cell_length_a   8.74136438
_cell_length_b   8.74136429
_cell_length_c   8.72535500
_cell_angle_alpha   60.06056131
_cell_angle_beta   60.06056167
_cell_angle_gamma   60.22163857
_symmetry_Int_Tables_number   1
_chemical_formula_structural   Hf6Al16Ir6Au
_chemical_formula_sum   'Hf6 Al16 Ir6 Au1'
_cell_volume   472.65799503
_cell_formula_units_Z   1
loop_
 _symmetry_equiv_pos_site_id
 _symmetry_equiv_pos_as_xyz
  1  'x, y, z'
loop_
 _atom_site_type_symbol
 _atom_site_label
 _atom_site_symmetry_multiplicity
 _atom_site_fract_x
 _atom_site_fract_y
 _atom_site_fract_z
 _atom_site_occupancy
  Hf  Hf0  1  0.688564  0.311436  0.312453  1
  Hf  Hf1  1  0.311436  0.688564  0.687547  1
  Hf  Hf2  1  0.311436  0.688564  0.312453  1
  Hf  Hf3  1  0.688564  0.311436  0.687547  1
  Hf  Hf4  1  0.326061  0.326061  0.673939  1
  Hf  Hf5  1  0.673939  0.673939  0.326061  1
  Al  Al6  1  0.335204  0.335204  0.343355  1
  Al  Al7  1  0.664796  0.664796  0.656645  1
  Al  Al8  1  0.335204  0.335204  0.986238  1
  Al  Al9  1  0.336388  0.985459  0.339076  1
  Al  Al10  1  0.664796  0.664796  0.013762  1
  Al  Al11  1  0.663612  0.014541  0.660924  1
  Al  Al12  1  0.985459  0.336388  0.339076  1
  Al  Al13  1  0.014541  0.663612  0.660924  1
  Al  Al14  1  0.119157  0.119157  0.121427  1
  Al  Al15  1  0.880843  0.880843  0.878573  1
  Al  Al16  1  0.119157  0.119157  0.640259  1
  Al  Al17  1  0.103266  0.644102  0.126316  1
  Al  Al18  1  0.880843  0.880843  0.359741  1
  Al  Al19  1  0.896734  0.355898  0.873684  1
  Al  Al20  1  0.644102  0.103266  0.126316  1
  Al  Al21  1  0.355898  0.896734  0.873684  1
  Ir  Ir22  1  0.500000  0.000000  0.000000  1
  Ir  Ir23  1  0.000000  0.500000  0.500000  1
  Ir  Ir24  1  0.000000  0.500000  0.000000  1
  Ir  Ir25  1  0.500000  0.000000  0.500000  1
  Ir  Ir26  1  0.000000  0.000000  0.500000  1
  Ir  Ir27  1  0.000000  0.000000  0.000000  1
  Au  Au28  1  0.500000  0.500000  0.000000  1
