# generated using pymatgen
data_Na4ErSi9P3Ir19
_symmetry_space_group_name_H-M   'P 1'
_cell_length_a   12.76449379
_cell_length_b   12.74744594
_cell_length_c   3.94956500
_cell_angle_alpha   90.00000000
_cell_angle_beta   90.00000000
_cell_angle_gamma   119.95583150
_symmetry_Int_Tables_number   1
_chemical_formula_structural   Na4ErSi9P3Ir19
_chemical_formula_sum   'Na4 Er1 Si9 P3 Ir19'
_cell_volume   556.80072561
_cell_formula_units_Z   1
loop_
 _symmetry_equiv_pos_site_id
 _symmetry_equiv_pos_as_xyz
  1  'x, y, z'
loop_
 _atom_site_type_symbol
 _atom_site_label
 _atom_site_symmetry_multiplicity
 _atom_site_fract_x
 _atom_site_fract_y
 _atom_site_fract_z
 _atom_site_occupancy
  Na  Na0  1  0.667050  0.333670  0.000000  1
  Na  Na1  1  0.332950  0.666621  0.000000  1
  Na  Na2  1  0.816459  0.816057  0.500000  1
  Na  Na3  1  0.183541  0.999598  0.500000  1
  Er  Er4  1  0.000000  0.177679  0.500000  1
  Si  Si5  1  0.684441  0.166630  0.500000  1
  Si  Si6  1  0.833871  0.520202  0.500000  1
  Si  Si7  1  0.481227  0.314172  0.500000  1
  Si  Si8  1  0.166129  0.686331  0.500000  1
  Si  Si9  1  0.518773  0.832944  0.500000  1
  Si  Si10  1  0.315559  0.482189  0.500000  1
  Si  Si11  1  0.631678  0.631819  0.000000  1
  Si  Si12  1  0.368322  0.000141  0.000000  1
  Si  Si13  1  0.000000  0.368670  0.000000  1
  P  P14  1  0.181565  0.177949  0.000000  1
  P  P15  1  0.818435  0.996384  0.000000  1
  P  P16  1  0.000000  0.820562  0.000000  1
  Ir  Ir17  1  0.809554  0.180862  0.000000  1
  Ir  Ir18  1  0.817988  0.624306  0.000000  1
  Ir  Ir19  1  0.376017  0.194602  0.000000  1
  Ir  Ir20  1  0.182012  0.806319  0.000000  1
  Ir  Ir21  1  0.623983  0.818585  0.000000  1
  Ir  Ir22  1  0.190446  0.371308  0.000000  1
  Ir  Ir23  1  0.444093  0.447654  0.000000  1
  Ir  Ir24  1  0.555907  0.003561  0.000000  1
  Ir  Ir25  1  0.000000  0.553453  0.000000  1
  Ir  Ir26  1  0.278250  0.279716  0.500000  1
  Ir  Ir27  1  0.721750  0.001466  0.500000  1
  Ir  Ir28  1  0.000000  0.722572  0.500000  1
  Ir  Ir29  1  0.873094  0.358342  0.500000  1
  Ir  Ir30  1  0.640328  0.514559  0.500000  1
  Ir  Ir31  1  0.484783  0.126215  0.500000  1
  Ir  Ir32  1  0.359672  0.874229  0.500000  1
  Ir  Ir33  1  0.515217  0.641431  0.500000  1
  Ir  Ir34  1  0.126906  0.485247  0.500000  1
  Ir  Ir35  1  0.000000  0.003956  0.000000  1
