# generated using pymatgen
data_Dy2Er3(In2Au)2
_symmetry_space_group_name_H-M   'P 1'
_cell_length_a   3.66400400
_cell_length_b   8.20742161
_cell_length_c   18.38773700
_cell_angle_alpha   89.76573189
_cell_angle_beta   90.00000000
_cell_angle_gamma   90.00000000
_symmetry_Int_Tables_number   1
_chemical_formula_structural   Dy2Er3(In2Au)2
_chemical_formula_sum   'Dy4 Er6 In8 Au4'
_cell_volume   552.95187551
_cell_formula_units_Z   2
loop_
 _symmetry_equiv_pos_site_id
 _symmetry_equiv_pos_as_xyz
  1  'x, y, z'
loop_
 _atom_site_type_symbol
 _atom_site_label
 _atom_site_symmetry_multiplicity
 _atom_site_fract_x
 _atom_site_fract_y
 _atom_site_fract_z
 _atom_site_occupancy
  Dy  Dy0  1  0.000000  0.500000  0.500000  1
  Dy  Dy1  1  0.000000  0.000000  0.000000  1
  Dy  Dy2  1  0.000000  0.735940  0.283742  1
  Dy  Dy3  1  0.000000  0.264060  0.716258  1
  Er  Er4  1  0.000000  0.764077  0.784319  1
  Er  Er5  1  0.000000  0.235923  0.215681  1
  Er  Er6  1  0.000000  0.619790  0.080341  1
  Er  Er7  1  0.000000  0.380210  0.919659  1
  Er  Er8  1  0.000000  0.879376  0.580387  1
  Er  Er9  1  0.000000  0.120624  0.419613  1
  In  In10  1  0.500000  0.708401  0.934526  1
  In  In11  1  0.500000  0.291599  0.065474  1
  In  In12  1  0.500000  0.793236  0.434508  1
  In  In13  1  0.500000  0.206764  0.565492  1
  In  In14  1  0.500000  0.583635  0.647843  1
  In  In15  1  0.500000  0.416365  0.352157  1
  In  In16  1  0.500000  0.918389  0.147220  1
  In  In17  1  0.500000  0.081611  0.852780  1
  Au  Au18  1  0.500000  0.525443  0.196021  1
  Au  Au19  1  0.500000  0.474557  0.803979  1
  Au  Au20  1  0.500000  0.969438  0.696783  1
  Au  Au21  1  0.500000  0.030562  0.303217  1
