# generated using pymatgen
data_Sr2CdIn3Pd2
_symmetry_space_group_name_H-M   'P 1'
_cell_length_a   5.93628503
_cell_length_b   5.93628579
_cell_length_c   8.08467854
_cell_angle_alpha   89.74339078
_cell_angle_beta   90.25660708
_cell_angle_gamma   135.18773199
_symmetry_Int_Tables_number   1
_chemical_formula_structural   Sr2CdIn3Pd2
_chemical_formula_sum   'Sr2 Cd1 In3 Pd2'
_cell_volume   200.79114320
_cell_formula_units_Z   1
loop_
 _symmetry_equiv_pos_site_id
 _symmetry_equiv_pos_as_xyz
  1  'x, y, z'
loop_
 _atom_site_type_symbol
 _atom_site_label
 _atom_site_symmetry_multiplicity
 _atom_site_fract_x
 _atom_site_fract_y
 _atom_site_fract_z
 _atom_site_occupancy
  Sr  Sr0  1  0.938539  0.061461  0.752999  1
  Sr  Sr1  1  0.061455  0.938545  0.248164  1
  Cd  Cd2  1  0.649307  0.350693  0.944820  1
  In  In3  1  0.348259  0.651741  0.053052  1
  In  In4  1  0.350612  0.649388  0.443765  1
  In  In5  1  0.649203  0.350797  0.558444  1
  Pd  Pd6  1  0.222362  0.777638  0.745446  1
  Pd  Pd7  1  0.780263  0.219737  0.253310  1
