# generated using pymatgen
data_Tb2Dy3Co7(PRu)12
_symmetry_space_group_name_H-M   'P 1'
_cell_length_a   12.39341200
_cell_length_b   12.39341045
_cell_length_c   3.81582800
_cell_angle_alpha   90.00000000
_cell_angle_beta   90.00000000
_cell_angle_gamma   119.99999345
_symmetry_Int_Tables_number   1
_chemical_formula_structural   Tb2Dy3Co7(PRu)12
_chemical_formula_sum   'Tb2 Dy3 Co7 P12 Ru12'
_cell_volume   507.57610808
_cell_formula_units_Z   1
loop_
 _symmetry_equiv_pos_site_id
 _symmetry_equiv_pos_as_xyz
  1  'x, y, z'
loop_
 _atom_site_type_symbol
 _atom_site_label
 _atom_site_symmetry_multiplicity
 _atom_site_fract_x
 _atom_site_fract_y
 _atom_site_fract_z
 _atom_site_occupancy
  Tb  Tb0  1  0.666667  0.333333  0.000000  1
  Tb  Tb1  1  0.333333  0.666667  0.000000  1
  Dy  Dy2  1  0.181845  0.181648  0.500000  1
  Dy  Dy3  1  0.818352  0.000197  0.500000  1
  Dy  Dy4  1  0.999803  0.818155  0.500000  1
  Co  Co5  1  0.194400  0.824017  0.000000  1
  Co  Co6  1  0.629616  0.805600  0.000000  1
  Co  Co7  1  0.175983  0.370384  0.000000  1
  Co  Co8  1  0.716038  0.722664  0.500000  1
  Co  Co9  1  0.277336  0.993374  0.500000  1
  Co  Co10  1  0.006626  0.283962  0.500000  1
  Co  Co11  1  0.000000  0.000000  0.000000  1
  P  P12  1  0.364004  0.367388  0.000000  1
  P  P13  1  0.632612  0.996615  0.000000  1
  P  P14  1  0.003385  0.635996  0.000000  1
  P  P15  1  0.837646  0.312773  0.500000  1
  P  P16  1  0.687227  0.524874  0.500000  1
  P  P17  1  0.475126  0.162354  0.500000  1
  P  P18  1  0.316491  0.839349  0.500000  1
  P  P19  1  0.522858  0.683509  0.500000  1
  P  P20  1  0.160651  0.477142  0.500000  1
  P  P21  1  0.818437  0.824492  0.000000  1
  P  P22  1  0.175508  0.993944  0.000000  1
  P  P23  1  0.006056  0.181563  0.000000  1
  Ru  Ru24  1  0.550048  0.561605  0.000000  1
  Ru  Ru25  1  0.438395  0.988442  0.000000  1
  Ru  Ru26  1  0.011558  0.449952  0.000000  1
  Ru  Ru27  1  0.826755  0.197519  0.000000  1
  Ru  Ru28  1  0.802481  0.629235  0.000000  1
  Ru  Ru29  1  0.370765  0.173245  0.000000  1
  Ru  Ru30  1  0.638431  0.123410  0.500000  1
  Ru  Ru31  1  0.876590  0.515022  0.500000  1
  Ru  Ru32  1  0.484978  0.361569  0.500000  1
  Ru  Ru33  1  0.131046  0.649044  0.500000  1
  Ru  Ru34  1  0.517998  0.868954  0.500000  1
  Ru  Ru35  1  0.350956  0.482002  0.500000  1
