# generated using pymatgen
data_Tm16Ga6FeRh
_symmetry_space_group_name_H-M   'P 1'
_cell_length_a   9.88565000
_cell_length_b   9.88565047
_cell_length_c   6.88356500
_cell_angle_alpha   90.00000000
_cell_angle_beta   90.00000000
_cell_angle_gamma   120.00000511
_symmetry_Int_Tables_number   1
_chemical_formula_structural   Tm16Ga6FeRh
_chemical_formula_sum   'Tm16 Ga6 Fe1 Rh1'
_cell_volume   582.57857415
_cell_formula_units_Z   1
loop_
 _symmetry_equiv_pos_site_id
 _symmetry_equiv_pos_as_xyz
  1  'x, y, z'
loop_
 _atom_site_type_symbol
 _atom_site_label
 _atom_site_symmetry_multiplicity
 _atom_site_fract_x
 _atom_site_fract_y
 _atom_site_fract_z
 _atom_site_occupancy
  Tm  Tm0  1  0.173391  0.826609  0.990180  1
  Tm  Tm1  1  0.342658  0.171329  0.487531  1
  Tm  Tm2  1  0.828671  0.657342  0.487531  1
  Tm  Tm3  1  0.173391  0.346781  0.990180  1
  Tm  Tm4  1  0.653219  0.826609  0.990180  1
  Tm  Tm5  1  0.828671  0.171329  0.487531  1
  Tm  Tm6  1  0.333333  0.666667  0.668904  1
  Tm  Tm7  1  0.666667  0.333333  0.161548  1
  Tm  Tm8  1  0.462868  0.537132  0.292441  1
  Tm  Tm9  1  0.933047  0.466525  0.795696  1
  Tm  Tm10  1  0.533475  0.066953  0.795696  1
  Tm  Tm11  1  0.462868  0.925734  0.292441  1
  Tm  Tm12  1  0.074266  0.537132  0.292441  1
  Tm  Tm13  1  0.533475  0.466525  0.795696  1
  Tm  Tm14  1  0.000000  0.000000  0.265707  1
  Tm  Tm15  1  0.000000  0.000000  0.766931  1
  Ga  Ga16  1  0.163406  0.836594  0.542184  1
  Ga  Ga17  1  0.326912  0.163456  0.042070  1
  Ga  Ga18  1  0.836544  0.673088  0.042070  1
  Ga  Ga19  1  0.163406  0.326811  0.542184  1
  Ga  Ga20  1  0.673189  0.836594  0.542184  1
  Ga  Ga21  1  0.836544  0.163456  0.042070  1
  Fe  Fe22  1  0.333333  0.666667  0.054251  1
  Rh  Rh23  1  0.666667  0.333333  0.556357  1
