# generated using pymatgen
data_Pr16MgCo2Hg3Ir2
_symmetry_space_group_name_H-M   'P 1'
_cell_length_a   9.95506980
_cell_length_b   9.99444652
_cell_length_c   9.95928800
_cell_angle_alpha   60.11630001
_cell_angle_beta   59.98598234
_cell_angle_gamma   60.26632010
_symmetry_Int_Tables_number   1
_chemical_formula_structural   Pr16MgCo2Hg3Ir2
_chemical_formula_sum   'Pr16 Mg1 Co2 Hg3 Ir2'
_cell_volume   702.61652942
_cell_formula_units_Z   1
loop_
 _symmetry_equiv_pos_site_id
 _symmetry_equiv_pos_as_xyz
  1  'x, y, z'
loop_
 _atom_site_type_symbol
 _atom_site_label
 _atom_site_symmetry_multiplicity
 _atom_site_fract_x
 _atom_site_fract_y
 _atom_site_fract_z
 _atom_site_occupancy
  Pr  Pr0  1  0.345292  0.344196  0.352101  1
  Pr  Pr1  1  0.345292  0.344196  0.958412  1
  Pr  Pr2  1  0.342696  0.959762  0.348772  1
  Pr  Pr3  1  0.952965  0.345023  0.351007  1
  Pr  Pr4  1  0.812060  0.192501  0.191809  1
  Pr  Pr5  1  0.187710  0.816006  0.806711  1
  Pr  Pr6  1  0.187710  0.816006  0.189574  1
  Pr  Pr7  1  0.812060  0.192501  0.803631  1
  Pr  Pr8  1  0.186961  0.188361  0.812340  1
  Pr  Pr9  1  0.805878  0.807242  0.193440  1
  Pr  Pr10  1  0.939535  0.562168  0.560464  1
  Pr  Pr11  1  0.560449  0.940216  0.939176  1
  Pr  Pr12  1  0.560449  0.940216  0.560160  1
  Pr  Pr13  1  0.939535  0.562168  0.937833  1
  Pr  Pr14  1  0.558044  0.560472  0.940742  1
  Pr  Pr15  1  0.937634  0.937377  0.562494  1
  Mg  Mg16  1  0.286174  0.571212  0.571308  1
  Co  Co17  1  0.140322  0.141280  0.140840  1
  Co  Co18  1  0.140322  0.141280  0.577558  1
  Hg  Hg19  1  0.580496  0.585718  0.584754  1
  Hg  Hg20  1  0.580496  0.585718  0.249031  1
  Hg  Hg21  1  0.580839  0.248035  0.585563  1
  Ir  Ir22  1  0.141335  0.576163  0.141251  1
  Ir  Ir23  1  0.575747  0.142187  0.141033  1
