# generated using pymatgen
data_Sr3LaPd4
_symmetry_space_group_name_H-M   'P 1'
_cell_length_a   4.56005500
_cell_length_b   6.12955954
_cell_length_c   7.84988495
_cell_angle_alpha   88.52470943
_cell_angle_beta   90.00000000
_cell_angle_gamma   90.00000000
_symmetry_Int_Tables_number   1
_chemical_formula_structural   Sr3LaPd4
_chemical_formula_sum   'Sr3 La1 Pd4'
_cell_volume   219.34041328
_cell_formula_units_Z   1
loop_
 _symmetry_equiv_pos_site_id
 _symmetry_equiv_pos_as_xyz
  1  'x, y, z'
loop_
 _atom_site_type_symbol
 _atom_site_label
 _atom_site_symmetry_multiplicity
 _atom_site_fract_x
 _atom_site_fract_y
 _atom_site_fract_z
 _atom_site_occupancy
  Sr  Sr0  1  0.250000  0.361598  0.681423  1
  Sr  Sr1  1  0.250000  0.140046  0.183849  1
  Sr  Sr2  1  0.750000  0.639058  0.315144  1
  La  La3  1  0.750000  0.861409  0.815486  1
  Pd  Pd4  1  0.250000  0.863295  0.557831  1
  Pd  Pd5  1  0.250000  0.649660  0.016110  1
  Pd  Pd6  1  0.750000  0.124204  0.473649  1
  Pd  Pd7  1  0.750000  0.360731  0.956508  1
