# generated using pymatgen
data_NdTh3RuAu3
_symmetry_space_group_name_H-M   'P 1'
_cell_length_a   4.58179200
_cell_length_b   5.95664622
_cell_length_c   7.58357231
_cell_angle_alpha   88.78479838
_cell_angle_beta   90.00000000
_cell_angle_gamma   90.00000000
_symmetry_Int_Tables_number   1
_chemical_formula_structural   NdTh3RuAu3
_chemical_formula_sum   'Nd1 Th3 Ru1 Au3'
_cell_volume   206.92517061
_cell_formula_units_Z   1
loop_
 _symmetry_equiv_pos_site_id
 _symmetry_equiv_pos_as_xyz
  1  'x, y, z'
loop_
 _atom_site_type_symbol
 _atom_site_label
 _atom_site_symmetry_multiplicity
 _atom_site_fract_x
 _atom_site_fract_y
 _atom_site_fract_z
 _atom_site_occupancy
  Nd  Nd0  1  0.250000  0.138417  0.184211  1
  Th  Th1  1  0.250000  0.374915  0.675254  1
  Th  Th2  1  0.750000  0.656075  0.333461  1
  Th  Th3  1  0.750000  0.862453  0.799373  1
  Ru  Ru4  1  0.250000  0.808179  0.551389  1
  Au  Au5  1  0.250000  0.653668  0.042720  1
  Au  Au6  1  0.750000  0.155965  0.455773  1
  Au  Au7  1  0.750000  0.350329  0.957819  1
