# generated using pymatgen
data_La3Th(Cu5Sn)4
_symmetry_space_group_name_H-M   'P 1'
_cell_length_a   5.10946000
_cell_length_b   8.36282892
_cell_length_c   10.68489641
_cell_angle_alpha   90.07730926
_cell_angle_beta   90.00000000
_cell_angle_gamma   90.00000000
_symmetry_Int_Tables_number   1
_chemical_formula_structural   La3Th(Cu5Sn)4
_chemical_formula_sum   'La3 Th1 Cu20 Sn4'
_cell_volume   456.56029138
_cell_formula_units_Z   1
loop_
 _symmetry_equiv_pos_site_id
 _symmetry_equiv_pos_as_xyz
  1  'x, y, z'
loop_
 _atom_site_type_symbol
 _atom_site_label
 _atom_site_symmetry_multiplicity
 _atom_site_fract_x
 _atom_site_fract_y
 _atom_site_fract_z
 _atom_site_occupancy
  La  La0  1  0.750000  0.246802  0.940562  1
  La  La1  1  0.750000  0.744937  0.559251  1
  La  La2  1  0.250000  0.254456  0.441367  1
  Th  Th3  1  0.250000  0.751405  0.060695  1
  Cu  Cu4  1  0.250000  0.819388  0.745852  1
  Cu  Cu5  1  0.750000  0.181001  0.254785  1
  Cu  Cu6  1  0.750000  0.681765  0.243350  1
  Cu  Cu7  1  0.250000  0.319119  0.755568  1
  Cu  Cu8  1  0.499578  0.569665  0.814337  1
  Cu  Cu9  1  0.499273  0.431970  0.187416  1
  Cu  Cu10  1  0.498796  0.931244  0.310566  1
  Cu  Cu11  1  0.000727  0.431970  0.187416  1
  Cu  Cu12  1  0.500765  0.068866  0.687409  1
  Cu  Cu13  1  0.000422  0.569665  0.814337  1
  Cu  Cu14  1  0.999235  0.068866  0.687409  1
  Cu  Cu15  1  0.001204  0.931244  0.310566  1
  Cu  Cu16  1  0.250000  0.917830  0.517442  1
  Cu  Cu17  1  0.750000  0.080333  0.481536  1
  Cu  Cu18  1  0.750000  0.584068  0.017633  1
  Cu  Cu19  1  0.250000  0.420532  0.983334  1
  Cu  Cu20  1  0.250000  0.563612  0.608105  1
  Cu  Cu21  1  0.750000  0.437124  0.392664  1
  Cu  Cu22  1  0.750000  0.933318  0.104778  1
  Cu  Cu23  1  0.250000  0.060833  0.894494  1
  Sn  Sn24  1  0.250000  0.641099  0.361369  1
  Sn  Sn25  1  0.750000  0.359655  0.638297  1
  Sn  Sn26  1  0.750000  0.859591  0.861149  1
  Sn  Sn27  1  0.250000  0.139644  0.138312  1
