# generated using pymatgen
data_Yb2Ga(SiPd2)3
_symmetry_space_group_name_H-M   'P 1'
_cell_length_a   6.76216615
_cell_length_b   6.77802816
_cell_length_c   6.76216400
_cell_angle_alpha   129.98353227
_cell_angle_beta   114.56406361
_cell_angle_gamma   86.58054438
_symmetry_Int_Tables_number   1
_chemical_formula_structural   Yb2Ga(SiPd2)3
_chemical_formula_sum   'Yb2 Ga1 Si3 Pd6'
_cell_volume   206.19607466
_cell_formula_units_Z   1
loop_
 _symmetry_equiv_pos_site_id
 _symmetry_equiv_pos_as_xyz
  1  'x, y, z'
loop_
 _atom_site_type_symbol
 _atom_site_label
 _atom_site_symmetry_multiplicity
 _atom_site_fract_x
 _atom_site_fract_y
 _atom_site_fract_z
 _atom_site_occupancy
  Yb  Yb0  1  0.000346  0.963496  0.963150  1
  Yb  Yb1  1  0.500693  0.064983  0.564289  1
  Ga  Ga2  1  0.351694  0.415252  0.063559  1
  Si  Si3  1  0.810939  0.239081  0.428142  1
  Si  Si4  1  0.647152  0.711652  0.064500  1
  Si  Si5  1  0.191982  0.622059  0.430076  1
  Pd  Pd6  1  0.947943  0.504543  0.952957  1
  Pd  Pd7  1  0.551586  0.504543  0.556601  1
  Pd  Pd8  1  0.038600  0.996113  0.538838  1
  Pd  Pd9  1  0.790988  0.483583  0.272781  1
  Pd  Pd10  1  0.210802  0.483583  0.692594  1
  Pd  Pd11  1  0.457276  0.996113  0.957516  1
