# generated using pymatgen
data_Pa4In2Co3Pd
_symmetry_space_group_name_H-M   'P 1'
_cell_length_a   7.54843554
_cell_length_b   7.54843554
_cell_length_c   3.49503500
_cell_angle_alpha   90.00000000
_cell_angle_beta   90.00000000
_cell_angle_gamma   90.77926866
_symmetry_Int_Tables_number   1
_chemical_formula_structural   Pa4In2Co3Pd
_chemical_formula_sum   'Pa4 In2 Co3 Pd1'
_cell_volume   199.12475806
_cell_formula_units_Z   1
loop_
 _symmetry_equiv_pos_site_id
 _symmetry_equiv_pos_as_xyz
  1  'x, y, z'
loop_
 _atom_site_type_symbol
 _atom_site_label
 _atom_site_symmetry_multiplicity
 _atom_site_fract_x
 _atom_site_fract_y
 _atom_site_fract_z
 _atom_site_occupancy
  Pa  Pa0  1  0.313606  0.831347  0.500000  1
  Pa  Pa1  1  0.850054  0.649946  0.500000  1
  Pa  Pa2  1  0.175627  0.324373  0.500000  1
  Pa  Pa3  1  0.668653  0.186394  0.500000  1
  In  In4  1  0.995938  0.002089  0.000000  1
  In  In5  1  0.497911  0.504062  0.000000  1
  Co  Co6  1  0.366414  0.133586  0.000000  1
  Co  Co7  1  0.869110  0.367156  0.000000  1
  Co  Co8  1  0.132844  0.630890  0.000000  1
  Pd  Pd9  1  0.629843  0.870157  0.000000  1
