# generated using pymatgen
data_Tb3SnBRh6
_symmetry_space_group_name_H-M   'P 1'
_cell_length_a   5.83232900
_cell_length_b   5.83232782
_cell_length_c   13.83154000
_cell_angle_alpha   90.00000000
_cell_angle_beta   90.00000000
_cell_angle_gamma   120.00000104
_symmetry_Int_Tables_number   1
_chemical_formula_structural   Tb3SnBRh6
_chemical_formula_sum   'Tb6 Sn2 B2 Rh12'
_cell_volume   407.46011644
_cell_formula_units_Z   2
loop_
 _symmetry_equiv_pos_site_id
 _symmetry_equiv_pos_as_xyz
  1  'x, y, z'
loop_
 _atom_site_type_symbol
 _atom_site_label
 _atom_site_symmetry_multiplicity
 _atom_site_fract_x
 _atom_site_fract_y
 _atom_site_fract_z
 _atom_site_occupancy
  Tb  Tb0  1  0.000000  0.000000  0.750000  1
  Tb  Tb1  1  0.000000  0.000000  0.250000  1
  Tb  Tb2  1  0.333333  0.666667  0.409746  1
  Tb  Tb3  1  0.666667  0.333333  0.909746  1
  Tb  Tb4  1  0.666667  0.333333  0.590254  1
  Tb  Tb5  1  0.333333  0.666667  0.090254  1
  Sn  Sn6  1  0.333333  0.666667  0.750000  1
  Sn  Sn7  1  0.666667  0.333333  0.250000  1
  B  B8  1  0.000000  0.000000  0.500000  1
  B  B9  1  0.000000  0.000000  0.000000  1
  Rh  Rh10  1  0.344523  0.172262  0.413740  1
  Rh  Rh11  1  0.827738  0.172262  0.413740  1
  Rh  Rh12  1  0.827738  0.655477  0.413740  1
  Rh  Rh13  1  0.172262  0.344523  0.913740  1
  Rh  Rh14  1  0.655477  0.827738  0.586260  1
  Rh  Rh15  1  0.655477  0.827738  0.913740  1
  Rh  Rh16  1  0.344523  0.172262  0.086260  1
  Rh  Rh17  1  0.172262  0.344523  0.586260  1
  Rh  Rh18  1  0.172262  0.827738  0.586260  1
  Rh  Rh19  1  0.827738  0.172262  0.086260  1
  Rh  Rh20  1  0.827738  0.655477  0.086260  1
  Rh  Rh21  1  0.172262  0.827738  0.913740  1
