# generated using pymatgen
data_SrEuTl4(SbO7)2
_symmetry_space_group_name_H-M   'P 1'
_cell_length_a   6.59214154
_cell_length_b   6.59214178
_cell_length_c   7.79163781
_cell_angle_alpha   90.40383789
_cell_angle_beta   89.59616203
_cell_angle_gamma   111.11086048
_symmetry_Int_Tables_number   1
_chemical_formula_structural   SrEuTl4(SbO7)2
_chemical_formula_sum   'Sr1 Eu1 Tl4 Sb2 O14'
_cell_volume   315.85968487
_cell_formula_units_Z   1
loop_
 _symmetry_equiv_pos_site_id
 _symmetry_equiv_pos_as_xyz
  1  'x, y, z'
loop_
 _atom_site_type_symbol
 _atom_site_label
 _atom_site_symmetry_multiplicity
 _atom_site_fract_x
 _atom_site_fract_y
 _atom_site_fract_z
 _atom_site_occupancy
  Sr  Sr0  1  0.500000  0.500000  0.500000  1
  Eu  Eu1  1  0.500000  0.500000  0.000000  1
  Tl  Tl2  1  0.520346  0.994806  0.747853  1
  Tl  Tl3  1  0.994806  0.520346  0.252147  1
  Tl  Tl4  1  0.479654  0.005194  0.252147  1
  Tl  Tl5  1  0.005194  0.479654  0.747853  1
  Sb  Sb6  1  0.000000  0.000000  0.500000  1
  Sb  Sb7  1  0.000000  0.000000  0.000000  1
  O  O8  1  0.678195  0.930210  0.478652  1
  O  O9  1  0.930210  0.678195  0.521348  1
  O  O10  1  0.676540  0.918888  0.024619  1
  O  O11  1  0.918888  0.676540  0.975381  1
  O  O12  1  0.321805  0.069790  0.521348  1
  O  O13  1  0.069790  0.321805  0.478652  1
  O  O14  1  0.323460  0.081112  0.975381  1
  O  O15  1  0.081112  0.323460  0.024619  1
  O  O16  1  0.949697  0.050303  0.750954  1
  O  O17  1  0.050303  0.949697  0.249046  1
  O  O18  1  0.362296  0.637704  0.765320  1
  O  O19  1  0.637704  0.362296  0.234680  1
  O  O20  1  0.651291  0.348709  0.766425  1
  O  O21  1  0.348709  0.651291  0.233575  1
