# generated using pymatgen
data_Tb2Sm2PI6
_symmetry_space_group_name_H-M   'P 1'
_cell_length_a   4.25065700
_cell_length_b   13.99775800
_cell_length_c   14.77057900
_cell_angle_alpha   90.00000000
_cell_angle_beta   90.00000000
_cell_angle_gamma   90.00000000
_symmetry_Int_Tables_number   1
_chemical_formula_structural   Tb2Sm2PI6
_chemical_formula_sum   'Tb4 Sm4 P2 I12'
_cell_volume   878.84454707
_cell_formula_units_Z   2
loop_
 _symmetry_equiv_pos_site_id
 _symmetry_equiv_pos_as_xyz
  1  'x, y, z'
loop_
 _atom_site_type_symbol
 _atom_site_label
 _atom_site_symmetry_multiplicity
 _atom_site_fract_x
 _atom_site_fract_y
 _atom_site_fract_z
 _atom_site_occupancy
  Tb  Tb0  1  0.500000  0.112906  0.350561  1
  Tb  Tb1  1  0.500000  0.887094  0.649439  1
  Tb  Tb2  1  0.500000  0.612906  0.149439  1
  Tb  Tb3  1  0.500000  0.387094  0.850561  1
  Sm  Sm4  1  0.000000  0.108339  0.572770  1
  Sm  Sm5  1  0.000000  0.891661  0.427230  1
  Sm  Sm6  1  0.000000  0.608339  0.927230  1
  Sm  Sm7  1  0.000000  0.391661  0.072770  1
  P  P8  1  0.500000  0.000000  0.500000  1
  P  P9  1  0.500000  0.500000  0.000000  1
  I  I10  1  0.500000  0.244642  0.163120  1
  I  I11  1  0.500000  0.755358  0.836880  1
  I  I12  1  0.500000  0.744642  0.336880  1
  I  I13  1  0.500000  0.255358  0.663120  1
  I  I14  1  0.000000  0.258692  0.413151  1
  I  I15  1  0.000000  0.741308  0.586849  1
  I  I16  1  0.000000  0.758692  0.086849  1
  I  I17  1  0.000000  0.241308  0.913151  1
  I  I18  1  0.000000  0.002091  0.240224  1
  I  I19  1  0.000000  0.997909  0.759776  1
  I  I20  1  0.000000  0.502091  0.259776  1
  I  I21  1  0.000000  0.497909  0.740224  1
