# generated using pymatgen
data_Sm8Ho12Si15Pd
_symmetry_space_group_name_H-M   'P 1'
_cell_length_a   7.65076103
_cell_length_b   7.68278149
_cell_length_c   14.15736200
_cell_angle_alpha   89.60734971
_cell_angle_beta   89.72829422
_cell_angle_gamma   90.42485850
_symmetry_Int_Tables_number   1
_chemical_formula_structural   Sm8Ho12Si15Pd
_chemical_formula_sum   'Sm8 Ho12 Si15 Pd1'
_cell_volume   832.10537633
_cell_formula_units_Z   1
loop_
 _symmetry_equiv_pos_site_id
 _symmetry_equiv_pos_as_xyz
  1  'x, y, z'
loop_
 _atom_site_type_symbol
 _atom_site_label
 _atom_site_symmetry_multiplicity
 _atom_site_fract_x
 _atom_site_fract_y
 _atom_site_fract_z
 _atom_site_occupancy
  Sm  Sm0  1  0.985769  0.362678  0.209164  1
  Sm  Sm1  1  0.008647  0.641395  0.709576  1
  Sm  Sm2  1  0.141011  0.501030  0.457917  1
  Sm  Sm3  1  0.508406  0.856820  0.040436  1
  Sm  Sm4  1  0.857451  0.505613  0.958041  1
  Sm  Sm5  1  0.496366  0.139795  0.544662  1
  Sm  Sm6  1  0.360499  0.992230  0.792071  1
  Sm  Sm7  1  0.644585  0.004782  0.290228  1
  Ho  Ho8  1  0.183177  0.184381  0.001062  1
  Ho  Ho9  1  0.822215  0.818271  0.499948  1
  Ho  Ho10  1  0.317637  0.684259  0.249899  1
  Ho  Ho11  1  0.684103  0.318665  0.749857  1
  Ho  Ho12  1  0.146215  0.012564  0.374899  1
  Ho  Ho13  1  0.859627  0.991655  0.876487  1
  Ho  Ho14  1  0.491764  0.639596  0.626744  1
  Ho  Ho15  1  0.363776  0.507802  0.874171  1
  Ho  Ho16  1  0.505113  0.357620  0.125965  1
  Ho  Ho17  1  0.631086  0.489757  0.377707  1
  Ho  Ho18  1  0.009248  0.140412  0.623395  1
  Ho  Ho19  1  0.989686  0.857767  0.122953  1
  Si  Si20  1  0.654236  0.703273  0.811489  1
  Si  Si21  1  0.206277  0.850690  0.563365  1
  Si  Si22  1  0.150189  0.791728  0.937121  1
  Si  Si23  1  0.795878  0.150776  0.062613  1
  Si  Si24  1  0.848524  0.204228  0.436124  1
  Si  Si25  1  0.296486  0.346911  0.689902  1
  Si  Si26  1  0.700052  0.652696  0.189238  1
  Si  Si27  1  0.293182  0.052888  0.184869  1
  Si  Si28  1  0.709810  0.937770  0.688890  1
  Si  Si29  1  0.438845  0.794777  0.440562  1
  Si  Si30  1  0.208167  0.565678  0.059368  1
  Si  Si31  1  0.563036  0.206220  0.938801  1
  Si  Si32  1  0.791966  0.437398  0.561778  1
  Si  Si33  1  0.064132  0.288670  0.810826  1
  Si  Si34  1  0.931999  0.708934  0.312006  1
  Pd  Pd35  1  0.340841  0.300273  0.307866  1
