# generated using pymatgen
data_BaAl8Fe2Si
_symmetry_space_group_name_H-M   'P 1'
_cell_length_a   7.89080703
_cell_length_b   8.00107730
_cell_length_c   3.95081500
_cell_angle_alpha   90.00000000
_cell_angle_beta   90.00000000
_cell_angle_gamma   120.46335922
_symmetry_Int_Tables_number   1
_chemical_formula_structural   BaAl8Fe2Si
_chemical_formula_sum   'Ba1 Al8 Fe2 Si1'
_cell_volume   215.00098474
_cell_formula_units_Z   1
loop_
 _symmetry_equiv_pos_site_id
 _symmetry_equiv_pos_as_xyz
  1  'x, y, z'
loop_
 _atom_site_type_symbol
 _atom_site_label
 _atom_site_symmetry_multiplicity
 _atom_site_fract_x
 _atom_site_fract_y
 _atom_site_fract_z
 _atom_site_occupancy
  Ba  Ba0  1  0.000000  0.000000  0.000000  1
  Al  Al1  1  0.500000  0.000000  0.000000  1
  Al  Al2  1  0.500000  0.500000  0.000000  1
  Al  Al3  1  0.209806  0.426343  0.500000  1
  Al  Al4  1  0.790194  0.216539  0.500000  1
  Al  Al5  1  0.438277  0.219139  0.500000  1
  Al  Al6  1  0.561723  0.780861  0.500000  1
  Al  Al7  1  0.209806  0.783461  0.500000  1
  Al  Al8  1  0.790194  0.573657  0.500000  1
  Fe  Fe9  1  0.679175  0.339587  0.000000  1
  Fe  Fe10  1  0.320825  0.660413  0.000000  1
  Si  Si11  1  0.000000  0.500000  0.000000  1
