# generated using pymatgen
data_Dy4HoHf3Pt4
_symmetry_space_group_name_H-M   'P 1'
_cell_length_a   4.71835000
_cell_length_b   7.09758198
_cell_length_c   8.33156488
_cell_angle_alpha   89.38888439
_cell_angle_beta   90.00000000
_cell_angle_gamma   90.00000000
_symmetry_Int_Tables_number   1
_chemical_formula_structural   Dy4HoHf3Pt4
_chemical_formula_sum   'Dy4 Ho1 Hf3 Pt4'
_cell_volume   278.99887193
_cell_formula_units_Z   1
loop_
 _symmetry_equiv_pos_site_id
 _symmetry_equiv_pos_as_xyz
  1  'x, y, z'
loop_
 _atom_site_type_symbol
 _atom_site_label
 _atom_site_symmetry_multiplicity
 _atom_site_fract_x
 _atom_site_fract_y
 _atom_site_fract_z
 _atom_site_occupancy
  Dy  Dy0  1  0.250000  0.478373  0.179020  1
  Dy  Dy1  1  0.750000  0.521957  0.829037  1
  Dy  Dy2  1  0.750000  0.013619  0.673246  1
  Dy  Dy3  1  0.250000  0.979983  0.318787  1
  Ho  Ho4  1  0.250000  0.356004  0.580950  1
  Hf  Hf5  1  0.250000  0.852341  0.923844  1
  Hf  Hf6  1  0.750000  0.138631  0.074111  1
  Hf  Hf7  1  0.750000  0.647814  0.423095  1
  Pt  Pt8  1  0.250000  0.747483  0.596523  1
  Pt  Pt9  1  0.750000  0.271308  0.385990  1
  Pt  Pt10  1  0.750000  0.768352  0.097700  1
  Pt  Pt11  1  0.250000  0.224138  0.917696  1
