# generated using pymatgen
data_Y3TmCdPt
_symmetry_space_group_name_H-M   'P 1'
_cell_length_a   9.68480374
_cell_length_b   9.68480368
_cell_length_c   9.68480300
_cell_angle_alpha   59.99999892
_cell_angle_beta   59.99999913
_cell_angle_gamma   59.99999921
_symmetry_Int_Tables_number   1
_chemical_formula_structural   Y3TmCdPt
_chemical_formula_sum   'Y12 Tm4 Cd4 Pt4'
_cell_volume   642.32885273
_cell_formula_units_Z   4
loop_
 _symmetry_equiv_pos_site_id
 _symmetry_equiv_pos_as_xyz
  1  'x, y, z'
loop_
 _atom_site_type_symbol
 _atom_site_label
 _atom_site_symmetry_multiplicity
 _atom_site_fract_x
 _atom_site_fract_y
 _atom_site_fract_z
 _atom_site_occupancy
  Y  Y0  1  0.809218  0.190782  0.190782  1
  Y  Y1  1  0.190782  0.809218  0.809218  1
  Y  Y2  1  0.190782  0.809218  0.190782  1
  Y  Y3  1  0.809218  0.190782  0.809218  1
  Y  Y4  1  0.190782  0.190782  0.809218  1
  Y  Y5  1  0.809218  0.809218  0.190782  1
  Y  Y6  1  0.936465  0.563535  0.563535  1
  Y  Y7  1  0.563535  0.936465  0.936465  1
  Y  Y8  1  0.563535  0.936465  0.563535  1
  Y  Y9  1  0.936465  0.563535  0.936465  1
  Y  Y10  1  0.563535  0.563535  0.936465  1
  Y  Y11  1  0.936465  0.936465  0.563535  1
  Tm  Tm12  1  0.351977  0.351977  0.351977  1
  Tm  Tm13  1  0.351977  0.351977  0.944070  1
  Tm  Tm14  1  0.351977  0.944070  0.351977  1
  Tm  Tm15  1  0.944070  0.351977  0.351977  1
  Cd  Cd16  1  0.581540  0.581540  0.581540  1
  Cd  Cd17  1  0.581540  0.581540  0.255380  1
  Cd  Cd18  1  0.581540  0.255380  0.581540  1
  Cd  Cd19  1  0.255380  0.581540  0.581540  1
  Pt  Pt20  1  0.144795  0.144795  0.144795  1
  Pt  Pt21  1  0.144795  0.144795  0.565616  1
  Pt  Pt22  1  0.144795  0.565616  0.144795  1
  Pt  Pt23  1  0.565616  0.144795  0.144795  1
