# generated using pymatgen
data_TbTmNp2(NiAs)4
_symmetry_space_group_name_H-M   'P 1'
_cell_length_a   4.06949900
_cell_length_b   4.06950004
_cell_length_c   15.21167700
_cell_angle_alpha   90.00000000
_cell_angle_beta   90.00000000
_cell_angle_gamma   119.99998345
_symmetry_Int_Tables_number   1
_chemical_formula_structural   TbTmNp2(NiAs)4
_chemical_formula_sum   'Tb1 Tm1 Np2 Ni4 As4'
_cell_volume   218.16737293
_cell_formula_units_Z   1
loop_
 _symmetry_equiv_pos_site_id
 _symmetry_equiv_pos_as_xyz
  1  'x, y, z'
loop_
 _atom_site_type_symbol
 _atom_site_label
 _atom_site_symmetry_multiplicity
 _atom_site_fract_x
 _atom_site_fract_y
 _atom_site_fract_z
 _atom_site_occupancy
  Tb  Tb0  1  0.000000  0.000000  0.250000  1
  Tm  Tm1  1  0.000000  0.000000  0.750000  1
  Np  Np2  1  0.000000  0.000000  0.998168  1
  Np  Np3  1  0.000000  0.000000  0.501832  1
  Ni  Ni4  1  0.333333  0.666667  0.131771  1
  Ni  Ni5  1  0.666667  0.333333  0.858298  1
  Ni  Ni6  1  0.666667  0.333333  0.641702  1
  Ni  Ni7  1  0.333333  0.666667  0.368229  1
  As  As8  1  0.333333  0.666667  0.621068  1
  As  As9  1  0.666667  0.333333  0.380800  1
  As  As10  1  0.666667  0.333333  0.119200  1
  As  As11  1  0.333333  0.666667  0.878932  1
