# generated using pymatgen
data_Th14Tc4NiRh
_symmetry_space_group_name_H-M   'P 1'
_cell_length_a   9.93459551
_cell_length_b   9.93459546
_cell_length_c   6.32200530
_cell_angle_alpha   89.95911500
_cell_angle_beta   90.04088959
_cell_angle_gamma   119.30965395
_symmetry_Int_Tables_number   1
_chemical_formula_structural   Th14Tc4NiRh
_chemical_formula_sum   'Th14 Tc4 Ni1 Rh1'
_cell_volume   544.08279869
_cell_formula_units_Z   1
loop_
 _symmetry_equiv_pos_site_id
 _symmetry_equiv_pos_as_xyz
  1  'x, y, z'
loop_
 _atom_site_type_symbol
 _atom_site_label
 _atom_site_symmetry_multiplicity
 _atom_site_fract_x
 _atom_site_fract_y
 _atom_site_fract_z
 _atom_site_occupancy
  Th  Th0  1  0.332105  0.667895  0.034074  1
  Th  Th1  1  0.665703  0.334297  0.533318  1
  Th  Th2  1  0.124558  0.875442  0.253089  1
  Th  Th3  1  0.252525  0.126573  0.755895  1
  Th  Th4  1  0.873427  0.747475  0.755895  1
  Th  Th5  1  0.131495  0.253410  0.256012  1
  Th  Th6  1  0.746590  0.868505  0.256012  1
  Th  Th7  1  0.876762  0.123238  0.756663  1
  Th  Th8  1  0.541010  0.458990  0.044278  1
  Th  Th9  1  0.079193  0.543630  0.546303  1
  Th  Th10  1  0.456370  0.920807  0.546303  1
  Th  Th11  1  0.541579  0.078358  0.042733  1
  Th  Th12  1  0.921642  0.458421  0.042733  1
  Th  Th13  1  0.458496  0.541504  0.547715  1
  Tc  Tc14  1  0.626444  0.819927  0.797243  1
  Tc  Tc15  1  0.180073  0.373556  0.797243  1
  Tc  Tc16  1  0.819543  0.628946  0.296876  1
  Tc  Tc17  1  0.371054  0.180457  0.296876  1
  Ni  Ni18  1  0.186413  0.813587  0.801810  1
  Rh  Rh19  1  0.815019  0.184981  0.298933  1
