# generated using pymatgen
data_Y3TmTh6(Sn3C)2
_symmetry_space_group_name_H-M   'P 1'
_cell_length_a   9.22081700
_cell_length_b   9.22081882
_cell_length_c   6.51551400
_cell_angle_alpha   90.00000000
_cell_angle_beta   90.00000000
_cell_angle_gamma   120.00000424
_symmetry_Int_Tables_number   1
_chemical_formula_structural   Y3TmTh6(Sn3C)2
_chemical_formula_sum   'Y3 Tm1 Th6 Sn6 C2'
_cell_volume   479.75353889
_cell_formula_units_Z   1
loop_
 _symmetry_equiv_pos_site_id
 _symmetry_equiv_pos_as_xyz
  1  'x, y, z'
loop_
 _atom_site_type_symbol
 _atom_site_label
 _atom_site_symmetry_multiplicity
 _atom_site_fract_x
 _atom_site_fract_y
 _atom_site_fract_z
 _atom_site_occupancy
  Y  Y0  1  0.666667  0.333333  0.000000  1
  Y  Y1  1  0.333333  0.666667  0.000000  1
  Y  Y2  1  0.333333  0.666667  0.500000  1
  Tm  Tm3  1  0.666667  0.333333  0.500000  1
  Th  Th4  1  0.777383  0.777424  0.749957  1
  Th  Th5  1  0.222576  0.999959  0.749957  1
  Th  Th6  1  0.000041  0.222617  0.749957  1
  Th  Th7  1  0.222576  0.222617  0.250043  1
  Th  Th8  1  0.777383  0.999959  0.250043  1
  Th  Th9  1  0.000041  0.777424  0.250043  1
  Sn  Sn10  1  0.406556  0.405627  0.748923  1
  Sn  Sn11  1  0.594373  0.000930  0.748923  1
  Sn  Sn12  1  0.999070  0.593444  0.748923  1
  Sn  Sn13  1  0.594373  0.593444  0.251077  1
  Sn  Sn14  1  0.406556  0.000930  0.251077  1
  Sn  Sn15  1  0.999070  0.405627  0.251077  1
  C  C16  1  0.000000  0.000000  0.000000  1
  C  C17  1  0.000000  0.000000  0.500000  1
