# generated using pymatgen
data_Pr8Be4Si11Ge
_symmetry_space_group_name_H-M   'P 1'
_cell_length_a   8.00720901
_cell_length_b   8.00720930
_cell_length_c   8.68173700
_cell_angle_alpha   90.00285505
_cell_angle_beta   89.99714495
_cell_angle_gamma   119.98119939
_symmetry_Int_Tables_number   1
_chemical_formula_structural   Pr8Be4Si11Ge
_chemical_formula_sum   'Pr8 Be4 Si11 Ge1'
_cell_volume   482.14963965
_cell_formula_units_Z   1
loop_
 _symmetry_equiv_pos_site_id
 _symmetry_equiv_pos_as_xyz
  1  'x, y, z'
loop_
 _atom_site_type_symbol
 _atom_site_label
 _atom_site_symmetry_multiplicity
 _atom_site_fract_x
 _atom_site_fract_y
 _atom_site_fract_z
 _atom_site_occupancy
  Pr  Pr0  1  0.499948  0.500052  0.749531  1
  Pr  Pr1  1  0.500140  0.499860  0.250431  1
  Pr  Pr2  1  0.001260  0.501589  0.748713  1
  Pr  Pr3  1  0.001007  0.501477  0.251312  1
  Pr  Pr4  1  0.498411  0.998740  0.748713  1
  Pr  Pr5  1  0.498523  0.998993  0.251312  1
  Pr  Pr6  1  0.000657  0.999343  0.749110  1
  Pr  Pr7  1  0.000641  0.999359  0.250909  1
  Be  Be8  1  0.663936  0.336064  0.998054  1
  Be  Be9  1  0.333442  0.666558  0.001834  1
  Be  Be10  1  0.333528  0.666472  0.498129  1
  Be  Be11  1  0.666660  0.333340  0.501874  1
  Si  Si12  1  0.172296  0.827704  0.999889  1
  Si  Si13  1  0.344142  0.171739  0.000139  1
  Si  Si14  1  0.172171  0.827829  0.500155  1
  Si  Si15  1  0.652979  0.822424  0.999844  1
  Si  Si16  1  0.827858  0.172142  0.499855  1
  Si  Si17  1  0.828261  0.655858  0.000139  1
  Si  Si18  1  0.655549  0.827550  0.500160  1
  Si  Si19  1  0.177576  0.347021  0.999844  1
  Si  Si20  1  0.344354  0.172329  0.499845  1
  Si  Si21  1  0.172450  0.344451  0.500160  1
  Si  Si22  1  0.827671  0.655646  0.499845  1
  Ge  Ge23  1  0.826538  0.173462  0.000204  1
