# generated using pymatgen
data_RbTc2W4Se7
_symmetry_space_group_name_H-M   'P 1'
_cell_length_a   9.95599949
_cell_length_b   9.94978265
_cell_length_c   9.96054698
_cell_angle_alpha   60.52823940
_cell_angle_beta   60.51698973
_cell_angle_gamma   60.65982697
_symmetry_Int_Tables_number   1
_chemical_formula_structural   RbTc2W4Se7
_chemical_formula_sum   'Rb2 Tc4 W8 Se14'
_cell_volume   706.65168775
_cell_formula_units_Z   2
loop_
 _symmetry_equiv_pos_site_id
 _symmetry_equiv_pos_as_xyz
  1  'x, y, z'
loop_
 _atom_site_type_symbol
 _atom_site_label
 _atom_site_symmetry_multiplicity
 _atom_site_fract_x
 _atom_site_fract_y
 _atom_site_fract_z
 _atom_site_occupancy
  Rb  Rb0  1  0.125881  0.128109  0.129514  1
  Rb  Rb1  1  0.873417  0.875324  0.873866  1
  Tc  Tc2  1  0.613881  0.305362  0.440032  1
  Tc  Tc3  1  0.305978  0.439662  0.612805  1
  Tc  Tc4  1  0.440042  0.612843  0.306276  1
  Tc  Tc5  1  0.385449  0.696705  0.560386  1
  W  W6  1  0.694591  0.560331  0.386927  1
  W  W7  1  0.559463  0.386990  0.694491  1
  W  W8  1  0.377522  0.203287  0.503790  1
  W  W9  1  0.204408  0.504162  0.376879  1
  W  W10  1  0.504857  0.376644  0.204003  1
  W  W11  1  0.623246  0.796822  0.496061  1
  W  W12  1  0.797312  0.496367  0.622526  1
  W  W13  1  0.496109  0.622574  0.796863  1
  Se  Se14  1  0.670179  0.311464  0.918981  1
  Se  Se15  1  0.085096  0.327275  0.688166  1
  Se  Se16  1  0.276553  0.277548  0.276272  1
  Se  Se17  1  0.723306  0.724717  0.723634  1
  Se  Se18  1  0.858365  0.254514  0.518638  1
  Se  Se19  1  0.255623  0.523416  0.853376  1
  Se  Se20  1  0.514199  0.857275  0.260827  1
  Se  Se21  1  0.148082  0.735104  0.481100  1
  Se  Se22  1  0.735786  0.479912  0.144803  1
  Se  Se23  1  0.478502  0.144699  0.735681  1
  Se  Se24  1  0.330945  0.687499  0.083940  1
  Se  Se25  1  0.688864  0.083137  0.328945  1
  Se  Se26  1  0.919444  0.672142  0.310824  1
  Se  Se27  1  0.312901  0.916113  0.670396  1
