# generated using pymatgen
data_Ac5Yb5Si8
_symmetry_space_group_name_H-M   'P 1'
_cell_length_a   8.17097660
_cell_length_b   8.16689440
_cell_length_c   15.13061200
_cell_angle_alpha   90.00000000
_cell_angle_beta   90.00000000
_cell_angle_gamma   89.90227130
_symmetry_Int_Tables_number   1
_chemical_formula_structural   Ac5Yb5Si8
_chemical_formula_sum   'Ac10 Yb10 Si16'
_cell_volume   1009.68701209
_cell_formula_units_Z   2
loop_
 _symmetry_equiv_pos_site_id
 _symmetry_equiv_pos_as_xyz
  1  'x, y, z'
loop_
 _atom_site_type_symbol
 _atom_site_label
 _atom_site_symmetry_multiplicity
 _atom_site_fract_x
 _atom_site_fract_y
 _atom_site_fract_z
 _atom_site_occupancy
  Ac  Ac0  1  0.128030  0.489118  0.455718  1
  Ac  Ac1  1  0.871970  0.510883  0.955718  1
  Ac  Ac2  1  0.628637  0.012096  0.294049  1
  Ac  Ac3  1  0.371363  0.987903  0.794049  1
  Ac  Ac4  1  0.510928  0.870301  0.045439  1
  Ac  Ac5  1  0.489073  0.129699  0.545439  1
  Ac  Ac6  1  0.989403  0.376228  0.203449  1
  Ac  Ac7  1  0.010596  0.623772  0.703449  1
  Ac  Ac8  1  0.124737  0.005389  0.374065  1
  Ac  Ac9  1  0.875263  0.994611  0.874064  1
  Yb  Yb10  1  0.631187  0.492485  0.375282  1
  Yb  Yb11  1  0.368813  0.507515  0.875282  1
  Yb  Yb12  1  0.992835  0.868564  0.125439  1
  Yb  Yb13  1  0.007165  0.131436  0.625438  1
  Yb  Yb14  1  0.508236  0.371670  0.124880  1
  Yb  Yb15  1  0.491764  0.628330  0.624879  1
  Yb  Yb16  1  0.195511  0.194718  0.002301  1
  Yb  Yb17  1  0.804489  0.805282  0.502301  1
  Yb  Yb18  1  0.681608  0.316592  0.748296  1
  Yb  Yb19  1  0.318392  0.683408  0.248296  1
  Si  Si20  1  0.292345  0.084615  0.189288  1
  Si  Si21  1  0.707656  0.915385  0.689287  1
  Si  Si22  1  0.786260  0.421560  0.559519  1
  Si  Si23  1  0.213738  0.578440  0.059518  1
  Si  Si24  1  0.912299  0.712338  0.306691  1
  Si  Si25  1  0.087701  0.287663  0.806692  1
  Si  Si26  1  0.579527  0.215565  0.943369  1
  Si  Si27  1  0.420473  0.784433  0.443369  1
  Si  Si28  1  0.340250  0.299062  0.303083  1
  Si  Si29  1  0.659750  0.700938  0.803083  1
  Si  Si30  1  0.835981  0.212575  0.446869  1
  Si  Si31  1  0.164019  0.787425  0.946869  1
  Si  Si32  1  0.703425  0.661182  0.193690  1
  Si  Si33  1  0.296575  0.338818  0.693690  1
  Si  Si34  1  0.789966  0.163623  0.058574  1
  Si  Si35  1  0.210034  0.836377  0.558574  1
