# generated using pymatgen
data_AcTh3(PPt)4
_symmetry_space_group_name_H-M   'P 1'
_cell_length_a   4.21204300
_cell_length_b   4.21204341
_cell_length_c   16.16739100
_cell_angle_alpha   90.00000000
_cell_angle_beta   90.00000000
_cell_angle_gamma   119.99998894
_symmetry_Int_Tables_number   1
_chemical_formula_structural   AcTh3(PPt)4
_chemical_formula_sum   'Ac1 Th3 P4 Pt4'
_cell_volume   248.40266803
_cell_formula_units_Z   1
loop_
 _symmetry_equiv_pos_site_id
 _symmetry_equiv_pos_as_xyz
  1  'x, y, z'
loop_
 _atom_site_type_symbol
 _atom_site_label
 _atom_site_symmetry_multiplicity
 _atom_site_fract_x
 _atom_site_fract_y
 _atom_site_fract_z
 _atom_site_occupancy
  Ac  Ac0  1  0.000000  0.000000  0.000000  1
  Th  Th1  1  0.000000  0.000000  0.500000  1
  Th  Th2  1  0.000000  0.000000  0.253707  1
  Th  Th3  1  0.000000  0.000000  0.746293  1
  P  P4  1  0.333333  0.666667  0.869941  1
  P  P5  1  0.666667  0.333333  0.130059  1
  P  P6  1  0.666667  0.333333  0.369759  1
  P  P7  1  0.333333  0.666667  0.630241  1
  Pt  Pt8  1  0.333333  0.666667  0.382372  1
  Pt  Pt9  1  0.666667  0.333333  0.617628  1
  Pt  Pt10  1  0.666667  0.333333  0.860831  1
  Pt  Pt11  1  0.333333  0.666667  0.139169  1
