# generated using pymatgen
data_Pr6Cd6Rh5Au
_symmetry_space_group_name_H-M   'P 1'
_cell_length_a   7.72404300
_cell_length_b   7.72404235
_cell_length_c   8.12519300
_cell_angle_alpha   90.00000000
_cell_angle_beta   90.00000000
_cell_angle_gamma   119.99999849
_symmetry_Int_Tables_number   1
_chemical_formula_structural   Pr6Cd6Rh5Au
_chemical_formula_sum   'Pr6 Cd6 Rh5 Au1'
_cell_volume   419.81084481
_cell_formula_units_Z   1
loop_
 _symmetry_equiv_pos_site_id
 _symmetry_equiv_pos_as_xyz
  1  'x, y, z'
loop_
 _atom_site_type_symbol
 _atom_site_label
 _atom_site_symmetry_multiplicity
 _atom_site_fract_x
 _atom_site_fract_y
 _atom_site_fract_z
 _atom_site_occupancy
  Pr  Pr0  1  0.589937  0.990384  0.743541  1
  Pr  Pr1  1  0.400448  0.410063  0.743541  1
  Pr  Pr2  1  0.009616  0.599552  0.743541  1
  Pr  Pr3  1  0.589996  0.991119  0.256351  1
  Pr  Pr4  1  0.401121  0.410004  0.256351  1
  Pr  Pr5  1  0.008881  0.598879  0.256351  1
  Cd  Cd6  1  0.241994  0.992493  0.000092  1
  Cd  Cd7  1  0.752994  0.748599  0.500026  1
  Cd  Cd8  1  0.995604  0.247006  0.500026  1
  Cd  Cd9  1  0.007507  0.249501  0.000092  1
  Cd  Cd10  1  0.750499  0.758006  0.000092  1
  Cd  Cd11  1  0.251401  0.004396  0.500026  1
  Rh  Rh12  1  0.666667  0.333333  0.500940  1
  Rh  Rh13  1  0.333333  0.666667  0.000564  1
  Rh  Rh14  1  0.333333  0.666667  0.499267  1
  Rh  Rh15  1  0.000000  0.000000  0.748330  1
  Rh  Rh16  1  0.000000  0.000000  0.251815  1
  Au  Au17  1  0.666667  0.333333  0.999055  1
