# generated using pymatgen
data_TbY3Tm4Sc11Si16Hg
_symmetry_space_group_name_H-M   'P 1'
_cell_length_a   7.03423934
_cell_length_b   7.38114236
_cell_length_c   13.99443643
_cell_angle_alpha   89.99893639
_cell_angle_beta   90.03310549
_cell_angle_gamma   89.90729526
_symmetry_Int_Tables_number   1
_chemical_formula_structural   TbY3Tm4Sc11Si16Hg
_chemical_formula_sum   'Tb1 Y3 Tm4 Sc11 Si16 Hg1'
_cell_volume   726.60016996
_cell_formula_units_Z   1
loop_
 _symmetry_equiv_pos_site_id
 _symmetry_equiv_pos_as_xyz
  1  'x, y, z'
loop_
 _atom_site_type_symbol
 _atom_site_label
 _atom_site_symmetry_multiplicity
 _atom_site_fract_x
 _atom_site_fract_y
 _atom_site_fract_z
 _atom_site_occupancy
  Tb  Tb0  1  0.990626  0.816639  0.596744  1
  Y  Y1  1  0.009479  0.174425  0.096749  1
  Y  Y2  1  0.990552  0.816899  0.902479  1
  Y  Y3  1  0.485653  0.672380  0.903065  1
  Tm  Tm4  1  0.510196  0.323744  0.097692  1
  Tm  Tm5  1  0.010847  0.175491  0.402738  1
  Tm  Tm6  1  0.510232  0.323421  0.403273  1
  Tm  Tm7  1  0.485412  0.673569  0.597135  1
  Sc  Sc8  1  0.838024  0.497249  0.250285  1
  Sc  Sc9  1  0.340064  0.004499  0.250244  1
  Sc  Sc10  1  0.657178  0.997378  0.749846  1
  Sc  Sc11  1  0.325287  0.183330  0.625854  1
  Sc  Sc12  1  0.671181  0.823760  0.375044  1
  Sc  Sc13  1  0.170068  0.680124  0.373183  1
  Sc  Sc14  1  0.671143  0.823629  0.125606  1
  Sc  Sc15  1  0.838466  0.325381  0.625467  1
  Sc  Sc16  1  0.325225  0.183127  0.873854  1
  Sc  Sc17  1  0.838931  0.325618  0.873745  1
  Sc  Sc18  1  0.170041  0.679875  0.127212  1
  Si  Si19  1  0.027041  0.094299  0.749548  1
  Si  Si20  1  0.968423  0.889499  0.250597  1
  Si  Si21  1  0.467807  0.615249  0.250408  1
  Si  Si22  1  0.544061  0.379386  0.749467  1
  Si  Si23  1  0.291605  0.886258  0.749278  1
  Si  Si24  1  0.712301  0.130580  0.251012  1
  Si  Si25  1  0.213717  0.371991  0.250849  1
  Si  Si26  1  0.768175  0.631449  0.748958  1
  Si  Si27  1  0.164985  0.458173  0.527581  1
  Si  Si28  1  0.840918  0.533472  0.460788  1
  Si  Si29  1  0.343331  0.967073  0.461905  1
  Si  Si30  1  0.839949  0.535145  0.038744  1
  Si  Si31  1  0.656118  0.033847  0.540063  1
  Si  Si32  1  0.163278  0.458549  0.972409  1
  Si  Si33  1  0.657092  0.035503  0.960262  1
  Si  Si34  1  0.344954  0.967401  0.038301  1
  Hg  Hg35  1  0.157644  0.511592  0.749612  1
