# generated using pymatgen
data_Lu16Cd3InNi4
_symmetry_space_group_name_H-M   'P 1'
_cell_length_a   9.34453221
_cell_length_b   9.34453314
_cell_length_c   9.34453331
_cell_angle_alpha   60.13207543
_cell_angle_beta   60.13207189
_cell_angle_gamma   60.13207837
_symmetry_Int_Tables_number   1
_chemical_formula_structural   Lu16Cd3InNi4
_chemical_formula_sum   'Lu16 Cd3 In1 Ni4'
_cell_volume   578.70235546
_cell_formula_units_Z   1
loop_
 _symmetry_equiv_pos_site_id
 _symmetry_equiv_pos_as_xyz
  1  'x, y, z'
loop_
 _atom_site_type_symbol
 _atom_site_label
 _atom_site_symmetry_multiplicity
 _atom_site_fract_x
 _atom_site_fract_y
 _atom_site_fract_z
 _atom_site_occupancy
  Lu  Lu0  1  0.347923  0.347923  0.347923  1
  Lu  Lu1  1  0.348238  0.348238  0.955922  1
  Lu  Lu2  1  0.348238  0.955922  0.348238  1
  Lu  Lu3  1  0.955922  0.348238  0.348238  1
  Lu  Lu4  1  0.811935  0.187826  0.187826  1
  Lu  Lu5  1  0.187860  0.811671  0.811671  1
  Lu  Lu6  1  0.187826  0.811935  0.187826  1
  Lu  Lu7  1  0.811671  0.187860  0.811671  1
  Lu  Lu8  1  0.187826  0.187826  0.811935  1
  Lu  Lu9  1  0.811671  0.811671  0.187860  1
  Lu  Lu10  1  0.938525  0.563337  0.563337  1
  Lu  Lu11  1  0.563916  0.936741  0.936741  1
  Lu  Lu12  1  0.563337  0.938525  0.563337  1
  Lu  Lu13  1  0.936741  0.563916  0.936741  1
  Lu  Lu14  1  0.563337  0.563337  0.938525  1
  Lu  Lu15  1  0.936741  0.936741  0.563916  1
  Cd  Cd16  1  0.581784  0.581784  0.252388  1
  Cd  Cd17  1  0.581784  0.252388  0.581784  1
  Cd  Cd18  1  0.252388  0.581784  0.581784  1
  In  In19  1  0.582180  0.582180  0.582180  1
  Ni  Ni20  1  0.142425  0.142425  0.142425  1
  Ni  Ni21  1  0.142241  0.142241  0.573247  1
  Ni  Ni22  1  0.142241  0.573247  0.142241  1
  Ni  Ni23  1  0.573247  0.142241  0.142241  1
