# generated using pymatgen
data_Tb2Dy17TmSn16
_symmetry_space_group_name_H-M   'P 1'
_cell_length_a   8.03008501
_cell_length_b   8.17656894
_cell_length_c   15.45342904
_cell_angle_alpha   90.00619090
_cell_angle_beta   89.99476369
_cell_angle_gamma   89.95378525
_symmetry_Int_Tables_number   1
_chemical_formula_structural   Tb2Dy17TmSn16
_chemical_formula_sum   'Tb2 Dy17 Tm1 Sn16'
_cell_volume   1014.64930557
_cell_formula_units_Z   1
loop_
 _symmetry_equiv_pos_site_id
 _symmetry_equiv_pos_as_xyz
  1  'x, y, z'
loop_
 _atom_site_type_symbol
 _atom_site_label
 _atom_site_symmetry_multiplicity
 _atom_site_fract_x
 _atom_site_fract_y
 _atom_site_fract_z
 _atom_site_occupancy
  Tb  Tb0  1  0.519929  0.320630  0.597928  1
  Tb  Tb1  1  0.020322  0.179948  0.902066  1
  Dy  Dy2  1  0.367242  0.836163  0.877875  1
  Dy  Dy3  1  0.867869  0.663411  0.622076  1
  Dy  Dy4  1  0.632535  0.163687  0.378186  1
  Dy  Dy5  1  0.132544  0.336340  0.121468  1
  Dy  Dy6  1  0.632514  0.163689  0.121782  1
  Dy  Dy7  1  0.132534  0.336320  0.378556  1
  Dy  Dy8  1  0.367204  0.836174  0.622138  1
  Dy  Dy9  1  0.867844  0.663385  0.877920  1
  Dy  Dy10  1  0.519972  0.320653  0.901989  1
  Dy  Dy11  1  0.020360  0.179926  0.598025  1
  Dy  Dy12  1  0.479980  0.679749  0.402430  1
  Dy  Dy13  1  0.979857  0.820198  0.097762  1
  Dy  Dy14  1  0.479967  0.679747  0.097550  1
  Dy  Dy15  1  0.979852  0.820207  0.402250  1
  Dy  Dy16  1  0.698553  0.997831  0.749995  1
  Dy  Dy17  1  0.801077  0.497597  0.250007  1
  Dy  Dy18  1  0.301052  0.002353  0.249981  1
  Tm  Tm19  1  0.199187  0.502697  0.750016  1
  Sn  Sn20  1  0.292768  0.035356  0.041722  1
  Sn  Sn21  1  0.792588  0.464235  0.458292  1
  Sn  Sn22  1  0.707605  0.964195  0.542025  1
  Sn  Sn23  1  0.207615  0.535530  0.957370  1
  Sn  Sn24  1  0.707256  0.964148  0.957999  1
  Sn  Sn25  1  0.207293  0.535577  0.542604  1
  Sn  Sn26  1  0.292574  0.035454  0.458361  1
  Sn  Sn27  1  0.792418  0.464167  0.041625  1
  Sn  Sn28  1  0.564254  0.618469  0.750005  1
  Sn  Sn29  1  0.065443  0.880474  0.749972  1
  Sn  Sn30  1  0.434430  0.381253  0.250002  1
  Sn  Sn31  1  0.934785  0.118918  0.250026  1
  Sn  Sn32  1  0.328246  0.148205  0.750064  1
  Sn  Sn33  1  0.829422  0.353794  0.749909  1
  Sn  Sn34  1  0.671279  0.853417  0.250007  1
  Sn  Sn35  1  0.171627  0.646108  0.250017  1
