# generated using pymatgen
data_Dy9Er(Ga2Sb)2
_symmetry_space_group_name_H-M   'P 1'
_cell_length_a   8.69155812
_cell_length_b   8.70792632
_cell_length_c   6.54472800
_cell_angle_alpha   89.99628651
_cell_angle_beta   90.00185720
_cell_angle_gamma   120.06232454
_symmetry_Int_Tables_number   1
_chemical_formula_structural   Dy9Er(Ga2Sb)2
_chemical_formula_sum   'Dy9 Er1 Ga4 Sb2'
_cell_volume   428.70794037
_cell_formula_units_Z   1
loop_
 _symmetry_equiv_pos_site_id
 _symmetry_equiv_pos_as_xyz
  1  'x, y, z'
loop_
 _atom_site_type_symbol
 _atom_site_label
 _atom_site_symmetry_multiplicity
 _atom_site_fract_x
 _atom_site_fract_y
 _atom_site_fract_z
 _atom_site_occupancy
  Dy  Dy0  1  0.987165  0.750757  0.750100  1
  Dy  Dy1  1  0.987165  0.236408  0.249900  1
  Dy  Dy2  1  0.765453  0.765859  0.249853  1
  Dy  Dy3  1  0.765453  0.999595  0.750147  1
  Dy  Dy4  1  0.236290  0.248960  0.750132  1
  Dy  Dy5  1  0.236290  0.987330  0.249868  1
  Dy  Dy6  1  0.332010  0.666005  0.500000  1
  Dy  Dy7  1  0.684557  0.342278  0.000000  1
  Dy  Dy8  1  0.684739  0.342369  0.500000  1
  Er  Er9  1  0.332025  0.666013  0.000000  1
  Ga  Ga10  1  0.001845  0.601521  0.249755  1
  Ga  Ga11  1  0.001845  0.400324  0.750245  1
  Ga  Ga12  1  0.597733  0.601510  0.750324  1
  Ga  Ga13  1  0.597733  0.996222  0.249676  1
  Sb  Sb14  1  0.394849  0.003865  0.750395  1
  Sb  Sb15  1  0.394849  0.390984  0.249605  1
