# generated using pymatgen
data_Er4Al16Ga2Ir5Pt
_symmetry_space_group_name_H-M   'P 1'
_cell_length_a   7.54449856
_cell_length_b   7.54582701
_cell_length_c   9.48215870
_cell_angle_alpha   89.97822368
_cell_angle_beta   89.97752573
_cell_angle_gamma   119.76075775
_symmetry_Int_Tables_number   1
_chemical_formula_structural   Er4Al16Ga2Ir5Pt
_chemical_formula_sum   'Er4 Al16 Ga2 Ir5 Pt1'
_cell_volume   468.61575859
_cell_formula_units_Z   1
loop_
 _symmetry_equiv_pos_site_id
 _symmetry_equiv_pos_as_xyz
  1  'x, y, z'
loop_
 _atom_site_type_symbol
 _atom_site_label
 _atom_site_symmetry_multiplicity
 _atom_site_fract_x
 _atom_site_fract_y
 _atom_site_fract_z
 _atom_site_occupancy
  Er  Er0  1  0.993082  0.666470  0.750633  1
  Er  Er1  1  0.007156  0.333661  0.249449  1
  Er  Er2  1  0.670582  0.998090  0.750584  1
  Er  Er3  1  0.329335  0.001930  0.249369  1
  Al  Al4  1  0.126660  0.124525  0.750258  1
  Al  Al5  1  0.874126  0.874621  0.249788  1
  Al  Al6  1  0.004576  0.334761  0.575413  1
  Al  Al7  1  0.001609  0.668616  0.424700  1
  Al  Al8  1  0.999081  0.665053  0.073652  1
  Al  Al9  1  0.334096  0.999476  0.926304  1
  Al  Al10  1  0.001216  0.334465  0.925927  1
  Al  Al11  1  0.666355  0.000295  0.074303  1
  Al  Al12  1  0.665768  0.996533  0.424471  1
  Al  Al13  1  0.330744  0.997089  0.575394  1
  Al  Al14  1  0.332959  0.332299  0.054737  1
  Al  Al15  1  0.667027  0.667515  0.945507  1
  Al  Al16  1  0.666329  0.669804  0.557732  1
  Al  Al17  1  0.330665  0.333163  0.442439  1
  Al  Al18  1  0.341066  0.550825  0.750322  1
  Al  Al19  1  0.659143  0.451881  0.247447  1
  Ga  Ga20  1  0.541763  0.340404  0.752450  1
  Ga  Ga21  1  0.455795  0.659300  0.249691  1
  Ir  Ir22  1  0.327902  0.671735  0.502037  1
  Ir  Ir23  1  0.328004  0.671571  0.998019  1
  Ir  Ir24  1  0.672383  0.328101  0.002070  1
  Ir  Ir25  1  0.999837  0.000150  0.500011  1
  Ir  Ir26  1  0.000102  0.999726  0.000066  1
  Pt  Pt27  1  0.672637  0.327941  0.497226  1
