# generated using pymatgen
data_Gd2Y5Er(WO6)4
_symmetry_space_group_name_H-M   'P 1'
_cell_length_a   5.42334238
_cell_length_b   7.74468725
_cell_length_c   11.51237204
_cell_angle_alpha   75.56986514
_cell_angle_beta   90.01136110
_cell_angle_gamma   89.96260299
_symmetry_Int_Tables_number   1
_chemical_formula_structural   Gd2Y5Er(WO6)4
_chemical_formula_sum   'Gd2 Y5 Er1 W4 O24'
_cell_volume   468.28883487
_cell_formula_units_Z   1
loop_
 _symmetry_equiv_pos_site_id
 _symmetry_equiv_pos_as_xyz
  1  'x, y, z'
loop_
 _atom_site_type_symbol
 _atom_site_label
 _atom_site_symmetry_multiplicity
 _atom_site_fract_x
 _atom_site_fract_y
 _atom_site_fract_z
 _atom_site_occupancy
  Gd  Gd0  1  0.684270  0.499772  0.249833  1
  Gd  Gd1  1  0.316218  0.499356  0.750675  1
  Y  Y2  1  0.184770  0.205677  0.422259  1
  Y  Y3  1  0.184167  0.794870  0.077406  1
  Y  Y4  1  0.815353  0.794346  0.577674  1
  Y  Y5  1  0.741402  0.000328  0.249308  1
  Y  Y6  1  0.258773  0.000468  0.750803  1
  Er  Er7  1  0.815960  0.206258  0.921960  1
  W  W8  1  0.255466  0.274804  0.114362  1
  W  W9  1  0.255414  0.724860  0.384833  1
  W  W10  1  0.744652  0.724652  0.884811  1
  W  W11  1  0.745037  0.274819  0.615807  1
  O  O12  1  0.456938  0.207788  0.272032  1
  O  O13  1  0.456802  0.791794  0.227327  1
  O  O14  1  0.542949  0.791272  0.727609  1
  O  O15  1  0.545133  0.207768  0.773895  1
  O  O16  1  0.044158  0.061027  0.103363  1
  O  O17  1  0.044779  0.939504  0.395657  1
  O  O18  1  0.952417  0.941303  0.895824  1
  O  O19  1  0.955610  0.060656  0.604408  1
  O  O20  1  0.983081  0.287245  0.228398  1
  O  O21  1  0.982567  0.712691  0.271456  1
  O  O22  1  0.018010  0.713420  0.771886  1
  O  O23  1  0.016807  0.286830  0.729892  1
  O  O24  1  0.848700  0.363463  0.453322  1
  O  O25  1  0.848919  0.636540  0.046968  1
  O  O26  1  0.151384  0.636135  0.547077  1
  O  O27  1  0.148185  0.362610  0.952614  1
  O  O28  1  0.642288  0.508130  0.614405  1
  O  O29  1  0.644740  0.490721  0.885747  1
  O  O30  1  0.357665  0.491541  0.385631  1
  O  O31  1  0.356885  0.508033  0.113672  1
  O  O32  1  0.466456  0.154148  0.570261  1
  O  O33  1  0.465662  0.845305  0.930581  1
  O  O34  1  0.533274  0.846232  0.430506  1
  O  O35  1  0.535110  0.155636  0.067737  1
