# generated using pymatgen
data_Tm4ReSiRu6
_symmetry_space_group_name_H-M   'P 1'
_cell_length_a   5.53013100
_cell_length_b   5.11081030
_cell_length_c   8.94549000
_cell_angle_alpha   90.00000000
_cell_angle_beta   90.00000000
_cell_angle_gamma   122.95570158
_symmetry_Int_Tables_number   1
_chemical_formula_structural   Tm4ReSiRu6
_chemical_formula_sum   'Tm4 Re1 Si1 Ru6'
_cell_volume   212.14782720
_cell_formula_units_Z   1
loop_
 _symmetry_equiv_pos_site_id
 _symmetry_equiv_pos_as_xyz
  1  'x, y, z'
loop_
 _atom_site_type_symbol
 _atom_site_label
 _atom_site_symmetry_multiplicity
 _atom_site_fract_x
 _atom_site_fract_y
 _atom_site_fract_z
 _atom_site_occupancy
  Tm  Tm0  1  0.672664  0.346262  0.565201  1
  Tm  Tm1  1  0.332127  0.663504  0.431771  1
  Tm  Tm2  1  0.332127  0.663504  0.068229  1
  Tm  Tm3  1  0.672664  0.346262  0.934799  1
  Re  Re4  1  0.155327  0.310232  0.750000  1
  Si  Si5  1  0.833956  0.667064  0.250000  1
  Ru  Ru6  1  0.006961  0.013848  0.497326  1
  Ru  Ru7  1  0.006961  0.013848  0.002674  1
  Ru  Ru8  1  0.169505  0.814165  0.750000  1
  Ru  Ru9  1  0.643889  0.815331  0.750000  1
  Ru  Ru10  1  0.827532  0.173139  0.250000  1
  Ru  Ru11  1  0.346290  0.172841  0.250000  1
