# generated using pymatgen
data_Yb2SmY(Ga2Ag)4
_symmetry_space_group_name_H-M   'P 1'
_cell_length_a   4.36974100
_cell_length_b   6.98965708
_cell_length_c   10.37028158
_cell_angle_alpha   90.13389219
_cell_angle_beta   90.00000000
_cell_angle_gamma   90.00000000
_symmetry_Int_Tables_number   1
_chemical_formula_structural   Yb2SmY(Ga2Ag)4
_chemical_formula_sum   'Yb2 Sm1 Y1 Ga8 Ag4'
_cell_volume   316.73855328
_cell_formula_units_Z   1
loop_
 _symmetry_equiv_pos_site_id
 _symmetry_equiv_pos_as_xyz
  1  'x, y, z'
loop_
 _atom_site_type_symbol
 _atom_site_label
 _atom_site_symmetry_multiplicity
 _atom_site_fract_x
 _atom_site_fract_y
 _atom_site_fract_z
 _atom_site_occupancy
  Yb  Yb0  1  0.750000  0.223980  0.172887  1
  Yb  Yb1  1  0.750000  0.724541  0.327274  1
  Sm  Sm2  1  0.250000  0.279718  0.671626  1
  Y  Y3  1  0.250000  0.779718  0.829808  1
  Ga  Ga4  1  0.250000  0.704061  0.534604  1
  Ga  Ga5  1  0.750000  0.298123  0.463501  1
  Ga  Ga6  1  0.750000  0.796329  0.035468  1
  Ga  Ga7  1  0.250000  0.200421  0.966689  1
  Ga  Ga8  1  0.250000  0.926299  0.149475  1
  Ga  Ga9  1  0.750000  0.073326  0.846669  1
  Ga  Ga10  1  0.750000  0.577133  0.653986  1
  Ga  Ga11  1  0.250000  0.427197  0.350251  1
  Ag  Ag12  1  0.250000  0.538607  0.100239  1
  Ag  Ag13  1  0.750000  0.456458  0.901993  1
  Ag  Ag14  1  0.750000  0.954808  0.597234  1
  Ag  Ag15  1  0.250000  0.039281  0.398297  1
