# generated using pymatgen
data_Sr2YHo(BO4)2
_symmetry_space_group_name_H-M   'P 1'
_cell_length_a   3.67421200
_cell_length_b   9.73780253
_cell_length_c   10.97770473
_cell_angle_alpha   89.93568218
_cell_angle_beta   90.00000000
_cell_angle_gamma   90.00000000
_symmetry_Int_Tables_number   1
_chemical_formula_structural   Sr2YHo(BO4)2
_chemical_formula_sum   'Sr4 Y2 Ho2 B4 O16'
_cell_volume   392.76831575
_cell_formula_units_Z   2
loop_
 _symmetry_equiv_pos_site_id
 _symmetry_equiv_pos_as_xyz
  1  'x, y, z'
loop_
 _atom_site_type_symbol
 _atom_site_label
 _atom_site_symmetry_multiplicity
 _atom_site_fract_x
 _atom_site_fract_y
 _atom_site_fract_z
 _atom_site_occupancy
  Sr  Sr0  1  0.250000  0.657717  0.084315  1
  Sr  Sr1  1  0.750000  0.342283  0.915685  1
  Sr  Sr2  1  0.750000  0.158923  0.416310  1
  Sr  Sr3  1  0.250000  0.841077  0.583690  1
  Y  Y4  1  0.250000  0.081194  0.110630  1
  Y  Y5  1  0.750000  0.918806  0.889370  1
  Ho  Ho6  1  0.750000  0.581039  0.390396  1
  Ho  Ho7  1  0.250000  0.418961  0.609604  1
  B  B8  1  0.250000  0.363939  0.204974  1
  B  B9  1  0.750000  0.636061  0.795026  1
  B  B10  1  0.750000  0.862698  0.295972  1
  B  B11  1  0.250000  0.137302  0.704028  1
  O  O12  1  0.250000  0.489586  0.264778  1
  O  O13  1  0.750000  0.510414  0.735222  1
  O  O14  1  0.750000  0.988961  0.236769  1
  O  O15  1  0.250000  0.011039  0.763231  1
  O  O16  1  0.250000  0.240418  0.269745  1
  O  O17  1  0.750000  0.759582  0.730255  1
  O  O18  1  0.750000  0.739369  0.231368  1
  O  O19  1  0.250000  0.260631  0.768632  1
  O  O20  1  0.250000  0.359690  0.077417  1
  O  O21  1  0.750000  0.640310  0.922583  1
  O  O22  1  0.750000  0.857756  0.423465  1
  O  O23  1  0.250000  0.142244  0.576535  1
  O  O24  1  0.250000  0.612613  0.500095  1
  O  O25  1  0.750000  0.387387  0.499905  1
  O  O26  1  0.750000  0.113993  0.999135  1
  O  O27  1  0.250000  0.886007  0.000865  1
