# generated using pymatgen
data_ErTm9(In2Sb)2
_symmetry_space_group_name_H-M   'P 1'
_cell_length_a   8.88133300
_cell_length_b   8.88292852
_cell_length_c   6.46283100
_cell_angle_alpha   90.00000000
_cell_angle_beta   90.00000000
_cell_angle_gamma   119.99406224
_symmetry_Int_Tables_number   1
_chemical_formula_structural   ErTm9(In2Sb)2
_chemical_formula_sum   'Er1 Tm9 In4 Sb2'
_cell_volume   441.58441208
_cell_formula_units_Z   1
loop_
 _symmetry_equiv_pos_site_id
 _symmetry_equiv_pos_as_xyz
  1  'x, y, z'
loop_
 _atom_site_type_symbol
 _atom_site_label
 _atom_site_symmetry_multiplicity
 _atom_site_fract_x
 _atom_site_fract_y
 _atom_site_fract_z
 _atom_site_occupancy
  Er  Er0  1  0.760249  0.000000  0.750000  1
  Tm  Tm1  1  0.331397  0.665104  0.003590  1
  Tm  Tm2  1  0.666294  0.334896  0.496410  1
  Tm  Tm3  1  0.666294  0.334896  0.003590  1
  Tm  Tm4  1  0.331397  0.665104  0.496410  1
  Tm  Tm5  1  0.236497  0.000000  0.250000  1
  Tm  Tm6  1  0.999975  0.238633  0.250000  1
  Tm  Tm7  1  0.761342  0.761367  0.250000  1
  Tm  Tm8  1  0.239221  0.235436  0.750000  1
  Tm  Tm9  1  0.003786  0.764564  0.750000  1
  In  In10  1  0.603300  0.000000  0.250000  1
  In  In11  1  0.400887  0.000000  0.750000  1
  In  In12  1  0.999284  0.605796  0.250000  1
  In  In13  1  0.393488  0.394204  0.250000  1
  Sb  Sb14  1  0.606354  0.606118  0.750000  1
  Sb  Sb15  1  0.000236  0.393882  0.750000  1
