# generated using pymatgen
data_Yb3DyAl16(SiIr3)2
_symmetry_space_group_name_H-M   'P 1'
_cell_length_a   7.53705650
_cell_length_b   7.54186418
_cell_length_c   9.41783300
_cell_angle_alpha   90.00000000
_cell_angle_beta   90.00000000
_cell_angle_gamma   119.55130173
_symmetry_Int_Tables_number   1
_chemical_formula_structural   Yb3DyAl16(SiIr3)2
_chemical_formula_sum   'Yb3 Dy1 Al16 Si2 Ir6'
_cell_volume   465.70189183
_cell_formula_units_Z   1
loop_
 _symmetry_equiv_pos_site_id
 _symmetry_equiv_pos_as_xyz
  1  'x, y, z'
loop_
 _atom_site_type_symbol
 _atom_site_label
 _atom_site_symmetry_multiplicity
 _atom_site_fract_x
 _atom_site_fract_y
 _atom_site_fract_z
 _atom_site_occupancy
  Yb  Yb0  1  0.993827  0.676944  0.750000  1
  Yb  Yb1  1  0.004075  0.323719  0.250000  1
  Yb  Yb2  1  0.678013  0.994590  0.750000  1
  Dy  Dy3  1  0.323069  0.002295  0.250000  1
  Al  Al4  1  0.001182  0.336433  0.572005  1
  Al  Al5  1  0.998677  0.662264  0.425926  1
  Al  Al6  1  0.998677  0.662264  0.074074  1
  Al  Al7  1  0.336688  0.001404  0.926168  1
  Al  Al8  1  0.001182  0.336433  0.927995  1
  Al  Al9  1  0.664353  0.000029  0.074193  1
  Al  Al10  1  0.664353  0.000029  0.425807  1
  Al  Al11  1  0.336688  0.001404  0.573832  1
  Al  Al12  1  0.334589  0.335164  0.054731  1
  Al  Al13  1  0.664116  0.664242  0.951562  1
  Al  Al14  1  0.664116  0.664242  0.548438  1
  Al  Al15  1  0.334589  0.335164  0.445269  1
  Al  Al16  1  0.332569  0.545694  0.750000  1
  Al  Al17  1  0.663973  0.452022  0.250000  1
  Al  Al18  1  0.546421  0.333787  0.750000  1
  Al  Al19  1  0.454173  0.667727  0.250000  1
  Si  Si20  1  0.132645  0.134286  0.750000  1
  Si  Si21  1  0.870660  0.868700  0.250000  1
  Ir  Ir22  1  0.670430  0.328771  0.499529  1
  Ir  Ir23  1  0.329557  0.671787  0.499539  1
  Ir  Ir24  1  0.329557  0.671787  0.000461  1
  Ir  Ir25  1  0.670430  0.328771  0.000471  1
  Ir  Ir26  1  0.000695  0.000023  0.499214  1
  Ir  Ir27  1  0.000695  0.000023  0.000786  1
