# generated using pymatgen
data_Sm10Si16Au
_symmetry_space_group_name_H-M   'P 1'
_cell_length_a   11.27387423
_cell_length_b   11.21058913
_cell_length_c   11.27386284
_cell_angle_alpha   144.44868543
_cell_angle_beta   135.91744317
_cell_angle_gamma   57.97132317
_symmetry_Int_Tables_number   1
_chemical_formula_structural   Sm10Si16Au
_chemical_formula_sum   'Sm10 Si16 Au1'
_cell_volume   571.18016282
_cell_formula_units_Z   1
loop_
 _symmetry_equiv_pos_site_id
 _symmetry_equiv_pos_as_xyz
  1  'x, y, z'
loop_
 _atom_site_type_symbol
 _atom_site_label
 _atom_site_symmetry_multiplicity
 _atom_site_fract_x
 _atom_site_fract_y
 _atom_site_fract_z
 _atom_site_occupancy
  Sm  Sm0  1  0.754422  0.761429  0.515634  1
  Sm  Sm1  1  0.447890  0.967266  0.016483  1
  Sm  Sm2  1  0.850128  0.364950  0.019240  1
  Sm  Sm3  1  0.950782  0.967267  0.519376  1
  Sm  Sm4  1  0.152813  0.166581  0.519337  1
  Sm  Sm5  1  0.345710  0.364953  0.514826  1
  Sm  Sm6  1  0.245795  0.761429  0.007006  1
  Sm  Sm7  1  0.546178  0.562614  0.503633  1
  Sm  Sm8  1  0.058981  0.562614  0.016437  1
  Sm  Sm9  1  0.647244  0.166584  0.013771  1
  Si  Si10  1  0.199198  0.591630  0.392433  1
  Si  Si11  1  0.999914  0.083987  0.084074  1
  Si  Si12  1  0.702219  0.290741  0.588523  1
  Si  Si13  1  0.801322  0.187236  0.385913  1
  Si  Si14  1  0.896442  0.503984  0.607542  1
  Si  Si15  1  0.413036  0.860889  0.447855  1
  Si  Si16  1  0.103055  0.709785  0.606731  1
  Si  Si17  1  0.300812  0.896426  0.595613  1
  Si  Si18  1  0.588178  0.044252  0.456072  1
  Si  Si19  1  0.999222  0.429701  0.430480  1
  Si  Si20  1  0.882681  0.838652  0.955972  1
  Si  Si21  1  0.400008  0.500278  0.100271  1
  Si  Si22  1  0.115841  0.072171  0.956329  1
  Si  Si23  1  0.289488  0.236203  0.946714  1
  Si  Si24  1  0.500254  0.407296  0.907041  1
  Si  Si25  1  0.599327  0.710476  0.111149  1
  Au  Au26  1  0.709059  0.652105  0.943046  1
