# generated using pymatgen
data_Li5Rh3O8
_symmetry_space_group_name_H-M   'P 1'
_cell_length_a   5.90139860
_cell_length_b   5.90139874
_cell_length_c   5.90139885
_cell_angle_alpha   61.82635648
_cell_angle_beta   61.82635590
_cell_angle_gamma   61.82635420
_symmetry_Int_Tables_number   1
_chemical_formula_structural   Li5Rh3O8
_chemical_formula_sum   'Li5 Rh3 O8'
_cell_volume   151.27245104
_cell_formula_units_Z   1
loop_
 _symmetry_equiv_pos_site_id
 _symmetry_equiv_pos_as_xyz
  1  'x, y, z'
loop_
 _atom_site_type_symbol
 _atom_site_label
 _atom_site_symmetry_multiplicity
 _atom_site_fract_x
 _atom_site_fract_y
 _atom_site_fract_z
 _atom_site_occupancy
  Li  Li0  1  0.000000  0.500000  0.500000  1
  Li  Li1  1  0.500000  0.500000  0.500000  1
  Li  Li2  1  0.500000  0.000000  0.500000  1
  Li  Li3  1  0.500000  0.500000  0.000000  1
  Li  Li4  1  0.000000  0.000000  0.000000  1
  Rh  Rh5  1  0.000000  0.000000  0.500000  1
  Rh  Rh6  1  0.000000  0.500000  0.000000  1
  Rh  Rh7  1  0.500000  0.000000  0.000000  1
  O  O8  1  0.754980  0.754980  0.754980  1
  O  O9  1  0.228862  0.750681  0.750681  1
  O  O10  1  0.750681  0.750681  0.228862  1
  O  O11  1  0.249319  0.771138  0.249319  1
  O  O12  1  0.249319  0.249319  0.771138  1
  O  O13  1  0.750681  0.228862  0.750681  1
  O  O14  1  0.771138  0.249319  0.249319  1
  O  O15  1  0.245020  0.245020  0.245020  1
