# generated using pymatgen
data_Dy5Si12IrRh18
_symmetry_space_group_name_H-M   'P 1'
_cell_length_a   12.79490700
_cell_length_b   12.79490632
_cell_length_c   3.96937700
_cell_angle_alpha   90.00000000
_cell_angle_beta   90.00000000
_cell_angle_gamma   119.99999918
_symmetry_Int_Tables_number   1
_chemical_formula_structural   Dy5Si12IrRh18
_chemical_formula_sum   'Dy5 Si12 Ir1 Rh18'
_cell_volume   562.76519245
_cell_formula_units_Z   1
loop_
 _symmetry_equiv_pos_site_id
 _symmetry_equiv_pos_as_xyz
  1  'x, y, z'
loop_
 _atom_site_type_symbol
 _atom_site_label
 _atom_site_symmetry_multiplicity
 _atom_site_fract_x
 _atom_site_fract_y
 _atom_site_fract_z
 _atom_site_occupancy
  Dy  Dy0  1  0.333333  0.666667  0.500000  1
  Dy  Dy1  1  0.666667  0.333333  0.500000  1
  Dy  Dy2  1  0.000000  0.814745  0.000000  1
  Dy  Dy3  1  0.185255  0.185255  0.000000  1
  Dy  Dy4  1  0.814745  0.000000  0.000000  1
  Si  Si5  1  0.000000  0.629232  0.500000  1
  Si  Si6  1  0.370768  0.370768  0.500000  1
  Si  Si7  1  0.629232  0.000000  0.500000  1
  Si  Si8  1  0.521074  0.686290  0.000000  1
  Si  Si9  1  0.313710  0.834784  0.000000  1
  Si  Si10  1  0.165216  0.478926  0.000000  1
  Si  Si11  1  0.478926  0.165216  0.000000  1
  Si  Si12  1  0.686290  0.521074  0.000000  1
  Si  Si13  1  0.834784  0.313710  0.000000  1
  Si  Si14  1  0.000000  0.183664  0.500000  1
  Si  Si15  1  0.816336  0.816336  0.500000  1
  Si  Si16  1  0.183664  0.000000  0.500000  1
  Ir  Ir17  1  0.000000  0.000000  0.500000  1
  Rh  Rh18  1  0.513681  0.873375  0.000000  1
  Rh  Rh19  1  0.126625  0.640306  0.000000  1
  Rh  Rh20  1  0.359694  0.486319  0.000000  1
  Rh  Rh21  1  0.486319  0.359694  0.000000  1
  Rh  Rh22  1  0.873375  0.513681  0.000000  1
  Rh  Rh23  1  0.640306  0.126625  0.000000  1
  Rh  Rh24  1  0.000000  0.446085  0.500000  1
  Rh  Rh25  1  0.553915  0.553915  0.500000  1
  Rh  Rh26  1  0.446085  0.000000  0.500000  1
  Rh  Rh27  1  0.000000  0.280615  0.000000  1
  Rh  Rh28  1  0.719385  0.719385  0.000000  1
  Rh  Rh29  1  0.280615  0.000000  0.000000  1
  Rh  Rh30  1  0.623537  0.806245  0.500000  1
  Rh  Rh31  1  0.193755  0.817291  0.500000  1
  Rh  Rh32  1  0.182709  0.376463  0.500000  1
  Rh  Rh33  1  0.376463  0.182709  0.500000  1
  Rh  Rh34  1  0.806245  0.623537  0.500000  1
  Rh  Rh35  1  0.817291  0.193755  0.500000  1
