# generated using pymatgen
data_Ho3Tm(ScSb5)4
_symmetry_space_group_name_H-M   'P 1'
_cell_length_a   4.19948400
_cell_length_b   13.03725930
_cell_length_c   14.21554721
_cell_angle_alpha   78.83404076
_cell_angle_beta   90.00000000
_cell_angle_gamma   90.00000000
_symmetry_Int_Tables_number   1
_chemical_formula_structural   Ho3Tm(ScSb5)4
_chemical_formula_sum   'Ho3 Tm1 Sc4 Sb20'
_cell_volume   763.56494330
_cell_formula_units_Z   1
loop_
 _symmetry_equiv_pos_site_id
 _symmetry_equiv_pos_as_xyz
  1  'x, y, z'
loop_
 _atom_site_type_symbol
 _atom_site_label
 _atom_site_symmetry_multiplicity
 _atom_site_fract_x
 _atom_site_fract_y
 _atom_site_fract_z
 _atom_site_occupancy
  Ho  Ho0  1  0.750000  0.330846  0.423750  1
  Ho  Ho1  1  0.250000  0.953597  0.355150  1
  Ho  Ho2  1  0.750000  0.046347  0.644811  1
  Tm  Tm3  1  0.250000  0.669261  0.576374  1
  Sc  Sc4  1  0.250000  0.396677  0.772507  1
  Sc  Sc5  1  0.750000  0.603393  0.227544  1
  Sc  Sc6  1  0.250000  0.657444  0.858521  1
  Sc  Sc7  1  0.750000  0.342553  0.141346  1
  Sb  Sb8  1  0.250000  0.147527  0.779906  1
  Sb  Sb9  1  0.750000  0.852480  0.220042  1
  Sb  Sb10  1  0.250000  0.143274  0.483444  1
  Sb  Sb11  1  0.750000  0.856204  0.516681  1
  Sb  Sb12  1  0.250000  0.162685  0.161473  1
  Sb  Sb13  1  0.750000  0.837318  0.838535  1
  Sb  Sb14  1  0.250000  0.422084  0.974945  1
  Sb  Sb15  1  0.750000  0.577872  0.025076  1
  Sb  Sb16  1  0.750000  0.028366  0.913633  1
  Sb  Sb17  1  0.250000  0.971648  0.086399  1
  Sb  Sb18  1  0.750000  0.142586  0.316311  1
  Sb  Sb19  1  0.250000  0.857097  0.683538  1
  Sb  Sb20  1  0.750000  0.279853  0.936427  1
  Sb  Sb21  1  0.250000  0.720161  0.063594  1
  Sb  Sb22  1  0.750000  0.289167  0.658712  1
  Sb  Sb23  1  0.250000  0.710858  0.341423  1
  Sb  Sb24  1  0.750000  0.573588  0.740743  1
  Sb  Sb25  1  0.250000  0.426661  0.258819  1
  Sb  Sb26  1  0.750000  0.570401  0.444220  1
  Sb  Sb27  1  0.250000  0.430051  0.556076  1
