# generated using pymatgen
data_Ce2Nd3AgBi3
_symmetry_space_group_name_H-M   'P 1'
_cell_length_a   6.54128200
_cell_length_b   9.70933632
_cell_length_c   9.70933500
_cell_angle_alpha   119.99999891
_cell_angle_beta   90.00000000
_cell_angle_gamma   90.00000000
_symmetry_Int_Tables_number   1
_chemical_formula_structural   Ce2Nd3AgBi3
_chemical_formula_sum   'Ce4 Nd6 Ag2 Bi6'
_cell_volume   534.03846555
_cell_formula_units_Z   2
loop_
 _symmetry_equiv_pos_site_id
 _symmetry_equiv_pos_as_xyz
  1  'x, y, z'
loop_
 _atom_site_type_symbol
 _atom_site_label
 _atom_site_symmetry_multiplicity
 _atom_site_fract_x
 _atom_site_fract_y
 _atom_site_fract_z
 _atom_site_occupancy
  Ce  Ce0  1  0.000000  0.666667  0.333333  1
  Ce  Ce1  1  0.000000  0.333333  0.666667  1
  Ce  Ce2  1  0.500000  0.333333  0.666667  1
  Ce  Ce3  1  0.500000  0.666667  0.333333  1
  Nd  Nd4  1  0.750000  0.721041  0.721041  1
  Nd  Nd5  1  0.250000  0.278959  0.278959  1
  Nd  Nd6  1  0.750000  0.000000  0.278959  1
  Nd  Nd7  1  0.250000  0.000000  0.721041  1
  Nd  Nd8  1  0.750000  0.278959  0.000000  1
  Nd  Nd9  1  0.250000  0.721041  0.000000  1
  Ag  Ag10  1  0.000000  0.000000  0.000000  1
  Ag  Ag11  1  0.500000  0.000000  0.000000  1
  Bi  Bi12  1  0.750000  0.375094  0.375094  1
  Bi  Bi13  1  0.250000  0.624906  0.624906  1
  Bi  Bi14  1  0.750000  0.000000  0.624906  1
  Bi  Bi15  1  0.250000  0.000000  0.375094  1
  Bi  Bi16  1  0.750000  0.624906  0.000000  1
  Bi  Bi17  1  0.250000  0.375094  0.000000  1
