# generated using pymatgen
data_AgPd2F12
_symmetry_space_group_name_H-M   'P 1'
_cell_length_a   5.33343856
_cell_length_b   5.51210835
_cell_length_c   8.75612085
_cell_angle_alpha   104.27636367
_cell_angle_beta   89.25825649
_cell_angle_gamma   114.96744203
_symmetry_Int_Tables_number   1
_chemical_formula_structural   AgPd2F12
_chemical_formula_sum   'Ag1 Pd2 F12'
_cell_volume   224.93350214
_cell_formula_units_Z   1
loop_
 _symmetry_equiv_pos_site_id
 _symmetry_equiv_pos_as_xyz
  1  'x, y, z'
loop_
 _atom_site_type_symbol
 _atom_site_label
 _atom_site_symmetry_multiplicity
 _atom_site_fract_x
 _atom_site_fract_y
 _atom_site_fract_z
 _atom_site_occupancy
  Ag  Ag0  1  0.500000  0.500000  0.500000  1
  Pd  Pd1  1  0.268164  0.008214  0.754581  1
  Pd  Pd2  1  0.731836  0.991786  0.245419  1
  F  F3  1  0.784407  0.761948  0.374897  1
  F  F4  1  0.215593  0.238052  0.625103  1
  F  F5  1  0.341822  0.771466  0.218074  1
  F  F6  1  0.298397  0.775893  0.871529  1
  F  F7  1  0.701603  0.224107  0.128471  1
  F  F8  1  0.869290  0.780737  0.717826  1
  F  F9  1  0.130710  0.219263  0.282174  1
  F  F10  1  0.301315  0.764532  0.553344  1
  F  F11  1  0.698685  0.235468  0.446656  1
  F  F12  1  0.218921  0.245278  0.935347  1
  F  F13  1  0.781079  0.754722  0.064653  1
  F  F14  1  0.658178  0.228534  0.781926  1
