# generated using pymatgen
data_Nd2ThTe4Cl
_symmetry_space_group_name_H-M   'P 1'
_cell_length_a   4.26096900
_cell_length_b   14.02171500
_cell_length_c   16.13615200
_cell_angle_alpha   90.00000000
_cell_angle_beta   90.00000000
_cell_angle_gamma   90.00000000
_symmetry_Int_Tables_number   1
_chemical_formula_structural   Nd2ThTe4Cl
_chemical_formula_sum   'Nd8 Th4 Te16 Cl4'
_cell_volume   964.07203712
_cell_formula_units_Z   4
loop_
 _symmetry_equiv_pos_site_id
 _symmetry_equiv_pos_as_xyz
  1  'x, y, z'
loop_
 _atom_site_type_symbol
 _atom_site_label
 _atom_site_symmetry_multiplicity
 _atom_site_fract_x
 _atom_site_fract_y
 _atom_site_fract_z
 _atom_site_occupancy
  Nd  Nd0  1  0.750000  0.256553  0.616436  1
  Nd  Nd1  1  0.750000  0.243447  0.116436  1
  Nd  Nd2  1  0.250000  0.743447  0.383564  1
  Nd  Nd3  1  0.250000  0.756553  0.883564  1
  Nd  Nd4  1  0.750000  0.574519  0.632568  1
  Nd  Nd5  1  0.750000  0.925481  0.132568  1
  Nd  Nd6  1  0.250000  0.425481  0.367432  1
  Nd  Nd7  1  0.250000  0.074519  0.867432  1
  Th  Th8  1  0.250000  0.904780  0.628497  1
  Th  Th9  1  0.250000  0.595220  0.128497  1
  Th  Th10  1  0.750000  0.095220  0.371503  1
  Th  Th11  1  0.750000  0.404780  0.871503  1
  Te  Te12  1  0.250000  0.420289  0.570937  1
  Te  Te13  1  0.250000  0.079711  0.070937  1
  Te  Te14  1  0.750000  0.579711  0.429063  1
  Te  Te15  1  0.750000  0.920289  0.929063  1
  Te  Te16  1  0.750000  0.048857  0.715033  1
  Te  Te17  1  0.750000  0.451143  0.215033  1
  Te  Te18  1  0.250000  0.951143  0.284967  1
  Te  Te19  1  0.250000  0.548857  0.784967  1
  Te  Te20  1  0.750000  0.777450  0.732990  1
  Te  Te21  1  0.750000  0.722550  0.232990  1
  Te  Te22  1  0.250000  0.222550  0.267010  1
  Te  Te23  1  0.250000  0.277450  0.767010  1
  Te  Te24  1  0.250000  0.110210  0.523062  1
  Te  Te25  1  0.250000  0.389790  0.023062  1
  Te  Te26  1  0.750000  0.889790  0.476938  1
  Te  Te27  1  0.750000  0.610210  0.976938  1
  Cl  Cl28  1  0.250000  0.704301  0.568223  1
  Cl  Cl29  1  0.250000  0.795699  0.068223  1
  Cl  Cl30  1  0.750000  0.295699  0.431777  1
  Cl  Cl31  1  0.750000  0.204301  0.931777  1
