# generated using pymatgen
data_Ce3Zn3IrPt2
_symmetry_space_group_name_H-M   'P 1'
_cell_length_a   7.36802500
_cell_length_b   7.36802627
_cell_length_c   3.91921600
_cell_angle_alpha   90.00000000
_cell_angle_beta   90.00000000
_cell_angle_gamma   119.99999880
_symmetry_Int_Tables_number   1
_chemical_formula_structural   Ce3Zn3IrPt2
_chemical_formula_sum   'Ce3 Zn3 Ir1 Pt2'
_cell_volume   184.26043521
_cell_formula_units_Z   1
loop_
 _symmetry_equiv_pos_site_id
 _symmetry_equiv_pos_as_xyz
  1  'x, y, z'
loop_
 _atom_site_type_symbol
 _atom_site_label
 _atom_site_symmetry_multiplicity
 _atom_site_fract_x
 _atom_site_fract_y
 _atom_site_fract_z
 _atom_site_occupancy
  Ce  Ce0  1  0.992519  0.410920  0.000000  1
  Ce  Ce1  1  0.589080  0.581599  0.000000  1
  Ce  Ce2  1  0.418401  0.007481  0.000000  1
  Zn  Zn3  1  0.000636  0.755302  0.500000  1
  Zn  Zn4  1  0.244698  0.245334  0.500000  1
  Zn  Zn5  1  0.754666  0.999364  0.500000  1
  Ir  Ir6  1  0.666667  0.333333  0.500000  1
  Pt  Pt7  1  0.000000  0.000000  0.000000  1
  Pt  Pt8  1  0.333333  0.666667  0.500000  1
