# generated using pymatgen
data_NdS23
_symmetry_space_group_name_H-M   'P 1'
_cell_length_a   5.59544714
_cell_length_b   9.59366147
_cell_length_c   16.29899500
_cell_angle_alpha   82.42591977
_cell_angle_beta   85.98404499
_cell_angle_gamma   91.36398319
_symmetry_Int_Tables_number   1
_chemical_formula_structural   NdS23
_chemical_formula_sum   'Nd1 S23'
_cell_volume   864.69732289
_cell_formula_units_Z   1
loop_
 _symmetry_equiv_pos_site_id
 _symmetry_equiv_pos_as_xyz
  1  'x, y, z'
loop_
 _atom_site_type_symbol
 _atom_site_label
 _atom_site_symmetry_multiplicity
 _atom_site_fract_x
 _atom_site_fract_y
 _atom_site_fract_z
 _atom_site_occupancy
  Nd  Nd0  1  0.626165  0.173390  0.429827  1
  S  S1  1  0.743054  0.909734  0.398037  1
  S  S2  1  0.018606  0.302459  0.099763  1
  S  S3  1  0.783777  0.225935  0.577010  1
  S  S4  1  0.470054  0.882902  0.489730  1
  S  S5  1  0.172194  0.279859  0.983564  1
  S  S6  1  0.815838  0.741840  0.026358  1
  S  S7  1  0.138759  0.199297  0.375908  1
  S  S8  1  0.592705  0.419242  0.305141  1
  S  S9  1  0.854548  0.112773  0.152005  1
  S  S10  1  0.267098  0.875081  0.118834  1
  S  S11  1  0.701201  0.646827  0.630702  1
  S  S12  1  0.306427  0.436725  0.565056  1
  S  S13  1  0.148891  0.901787  0.860753  1
  S  S14  1  0.733513  0.140155  0.886810  1
  S  S15  1  0.062960  0.694617  0.113406  1
  S  S16  1  0.608980  0.852301  0.607739  1
  S  S17  1  0.418360  0.227811  0.592117  1
  S  S18  1  0.968426  0.716055  0.910453  1
  S  S19  1  0.924696  0.323647  0.896271  1
  S  S20  1  0.238760  0.388079  0.307006  1
  S  S21  1  0.108221  0.985852  0.207173  1
  S  S22  1  0.384701  0.529975  0.666202  1
  S  S23  1  0.912066  0.033655  0.800137  1
