# generated using pymatgen
data_U2Pa3Se10
_symmetry_space_group_name_H-M   'P 1'
_cell_length_a   10.73525500
_cell_length_b   10.73525500
_cell_length_c   6.60738700
_cell_angle_alpha   90.00000000
_cell_angle_beta   90.00000000
_cell_angle_gamma   90.00000000
_symmetry_Int_Tables_number   1
_chemical_formula_structural   U2Pa3Se10
_chemical_formula_sum   'U4 Pa6 Se20'
_cell_volume   761.47293943
_cell_formula_units_Z   2
loop_
 _symmetry_equiv_pos_site_id
 _symmetry_equiv_pos_as_xyz
  1  'x, y, z'
loop_
 _atom_site_type_symbol
 _atom_site_label
 _atom_site_symmetry_multiplicity
 _atom_site_fract_x
 _atom_site_fract_y
 _atom_site_fract_z
 _atom_site_occupancy
  U  U0  1  0.341238  0.654374  0.750260  1
  U  U1  1  0.154374  0.158762  0.750260  1
  U  U2  1  0.845626  0.841238  0.750260  1
  U  U3  1  0.658762  0.345626  0.750260  1
  Pa  Pa4  1  0.840520  0.154669  0.248833  1
  Pa  Pa5  1  0.654669  0.659480  0.248833  1
  Pa  Pa6  1  0.345331  0.340520  0.248833  1
  Pa  Pa7  1  0.159480  0.845331  0.248833  1
  Pa  Pa8  1  0.500000  0.000000  0.858463  1
  Pa  Pa9  1  0.000000  0.500000  0.139910  1
  Se  Se10  1  0.709518  0.087291  0.618342  1
  Se  Se11  1  0.587291  0.790482  0.618342  1
  Se  Se12  1  0.412709  0.209518  0.618342  1
  Se  Se13  1  0.290482  0.912709  0.618342  1
  Se  Se14  1  0.707203  0.912929  0.115855  1
  Se  Se15  1  0.587071  0.207203  0.115855  1
  Se  Se16  1  0.412929  0.792797  0.115855  1
  Se  Se17  1  0.292797  0.087071  0.115855  1
  Se  Se18  1  0.500000  0.500000  0.002772  1
  Se  Se19  1  0.000000  0.000000  0.002772  1
  Se  Se20  1  0.209138  0.413044  0.889960  1
  Se  Se21  1  0.086956  0.709138  0.889960  1
  Se  Se22  1  0.913044  0.290862  0.889960  1
  Se  Se23  1  0.790862  0.586956  0.889960  1
  Se  Se24  1  0.500000  0.500000  0.497697  1
  Se  Se25  1  0.000000  0.000000  0.497697  1
  Se  Se26  1  0.208960  0.587241  0.376923  1
  Se  Se27  1  0.087241  0.291040  0.376923  1
  Se  Se28  1  0.912759  0.708960  0.376923  1
  Se  Se29  1  0.791040  0.412759  0.376923  1
