# generated using pymatgen
data_K12In2AsP5
_symmetry_space_group_name_H-M   'P 1'
_cell_length_a   9.02564852
_cell_length_b   9.04755697
_cell_length_c   10.06390468
_cell_angle_alpha   81.83479741
_cell_angle_beta   107.05454125
_cell_angle_gamma   119.38797559
_symmetry_Int_Tables_number   1
_chemical_formula_structural   K12In2AsP5
_chemical_formula_sum   'K12 In2 As1 P5'
_cell_volume   684.57485068
_cell_formula_units_Z   1
loop_
 _symmetry_equiv_pos_site_id
 _symmetry_equiv_pos_as_xyz
  1  'x, y, z'
loop_
 _atom_site_type_symbol
 _atom_site_label
 _atom_site_symmetry_multiplicity
 _atom_site_fract_x
 _atom_site_fract_y
 _atom_site_fract_z
 _atom_site_occupancy
  K  K0  1  0.734311  0.128103  0.616520  1
  K  K1  1  0.259310  0.858819  0.393033  1
  K  K2  1  0.970064  0.815607  0.625792  1
  K  K3  1  0.020655  0.191620  0.392557  1
  K  K4  1  0.622928  0.447643  0.400185  1
  K  K5  1  0.394024  0.560878  0.595916  1
  K  K6  1  0.868759  0.486202  0.140421  1
  K  K7  1  0.113478  0.504074  0.848911  1
  K  K8  1  0.751068  0.093231  0.984969  1
  K  K9  1  0.238350  0.877435  0.002378  1
  K  K10  1  0.576220  0.626700  0.944701  1
  K  K11  1  0.246399  0.207012  0.109041  1
  In  In12  1  0.591346  0.832367  0.257300  1
  In  In13  1  0.419133  0.176729  0.749462  1
  As  As14  1  0.284259  0.549415  0.232010  1
  P  P15  1  0.713795  0.443000  0.761982  1
  P  P16  1  0.597854  0.117666  0.259626  1
  P  P17  1  0.389197  0.877558  0.740829  1
  P  P18  1  0.865093  0.823315  0.244331  1
  P  P19  1  0.153134  0.199366  0.761417  1
