# generated using pymatgen
data_SmEr3(MgRh)4
_symmetry_space_group_name_H-M   'P 1'
_cell_length_a   4.10560800
_cell_length_b   7.11059398
_cell_length_c   8.54952525
_cell_angle_alpha   89.81610645
_cell_angle_beta   90.00000000
_cell_angle_gamma   90.00000000
_symmetry_Int_Tables_number   1
_chemical_formula_structural   SmEr3(MgRh)4
_chemical_formula_sum   'Sm1 Er3 Mg4 Rh4'
_cell_volume   249.58766835
_cell_formula_units_Z   1
loop_
 _symmetry_equiv_pos_site_id
 _symmetry_equiv_pos_as_xyz
  1  'x, y, z'
loop_
 _atom_site_type_symbol
 _atom_site_label
 _atom_site_symmetry_multiplicity
 _atom_site_fract_x
 _atom_site_fract_y
 _atom_site_fract_z
 _atom_site_occupancy
  Sm  Sm0  1  0.750000  0.462583  0.823404  1
  Er  Er1  1  0.250000  0.039026  0.324962  1
  Er  Er2  1  0.750000  0.960752  0.673460  1
  Er  Er3  1  0.250000  0.538597  0.177953  1
  Mg  Mg4  1  0.250000  0.134665  0.943743  1
  Mg  Mg5  1  0.750000  0.865193  0.059706  1
  Mg  Mg6  1  0.250000  0.636805  0.556184  1
  Mg  Mg7  1  0.750000  0.363214  0.441163  1
  Rh  Rh8  1  0.750000  0.249147  0.134428  1
  Rh  Rh9  1  0.250000  0.757586  0.868892  1
  Rh  Rh10  1  0.750000  0.749351  0.368799  1
  Rh  Rh11  1  0.250000  0.243080  0.627306  1
