# generated using pymatgen
data_Dy3Nb3(B2Ru5)2
_symmetry_space_group_name_H-M   'P 1'
_cell_length_a   9.61087601
_cell_length_b   9.61087610
_cell_length_c   3.12735600
_cell_angle_alpha   90.00000000
_cell_angle_beta   90.00000000
_cell_angle_gamma   89.62736629
_symmetry_Int_Tables_number   1
_chemical_formula_structural   Dy3Nb3(B2Ru5)2
_chemical_formula_sum   'Dy3 Nb3 B4 Ru10'
_cell_volume   288.86444476
_cell_formula_units_Z   1
loop_
 _symmetry_equiv_pos_site_id
 _symmetry_equiv_pos_as_xyz
  1  'x, y, z'
loop_
 _atom_site_type_symbol
 _atom_site_label
 _atom_site_symmetry_multiplicity
 _atom_site_fract_x
 _atom_site_fract_y
 _atom_site_fract_z
 _atom_site_occupancy
  Dy  Dy0  1  0.174451  0.825549  0.000000  1
  Dy  Dy1  1  0.324930  0.324237  0.000000  1
  Dy  Dy2  1  0.675763  0.675070  0.000000  1
  Nb  Nb3  1  0.497450  0.998383  0.000000  1
  Nb  Nb4  1  0.001617  0.502550  0.000000  1
  Nb  Nb5  1  0.824210  0.175790  0.000000  1
  B  B6  1  0.623863  0.376137  0.000000  1
  B  B7  1  0.380680  0.619320  0.000000  1
  B  B8  1  0.118919  0.123222  0.000000  1
  B  B9  1  0.876778  0.881081  0.000000  1
  Ru  Ru10  1  0.504005  0.495995  0.500000  1
  Ru  Ru11  1  0.990605  0.009395  0.500000  1
  Ru  Ru12  1  0.584372  0.213636  0.500000  1
  Ru  Ru13  1  0.430569  0.780248  0.500000  1
  Ru  Ru14  1  0.059133  0.280004  0.500000  1
  Ru  Ru15  1  0.928787  0.722246  0.500000  1
  Ru  Ru16  1  0.277754  0.071213  0.500000  1
  Ru  Ru17  1  0.719996  0.940867  0.500000  1
  Ru  Ru18  1  0.219752  0.569431  0.500000  1
  Ru  Ru19  1  0.786364  0.415628  0.500000  1
