# generated using pymatgen
data_LaPr7(Y3Si4)4
_symmetry_space_group_name_H-M   'P 1'
_cell_length_a   7.54982229
_cell_length_b   7.83874742
_cell_length_c   14.91462727
_cell_angle_alpha   89.96377275
_cell_angle_beta   89.96969130
_cell_angle_gamma   90.01027872
_symmetry_Int_Tables_number   1
_chemical_formula_structural   LaPr7(Y3Si4)4
_chemical_formula_sum   'La1 Pr7 Y12 Si16'
_cell_volume   882.66448016
_cell_formula_units_Z   1
loop_
 _symmetry_equiv_pos_site_id
 _symmetry_equiv_pos_as_xyz
  1  'x, y, z'
loop_
 _atom_site_type_symbol
 _atom_site_label
 _atom_site_symmetry_multiplicity
 _atom_site_fract_x
 _atom_site_fract_y
 _atom_site_fract_z
 _atom_site_occupancy
  La  La0  1  0.022978  0.178795  0.402392  1
  Pr  Pr1  1  0.522855  0.320841  0.402227  1
  Pr  Pr2  1  0.476793  0.679318  0.902135  1
  Pr  Pr3  1  0.476923  0.679371  0.597901  1
  Pr  Pr4  1  0.976676  0.820476  0.598151  1
  Pr  Pr5  1  0.976789  0.820693  0.902124  1
  Pr  Pr6  1  0.523227  0.320753  0.097715  1
  Pr  Pr7  1  0.023077  0.179337  0.097861  1
  Y  Y8  1  0.321744  0.179245  0.623043  1
  Y  Y9  1  0.678462  0.820529  0.377081  1
  Y  Y10  1  0.652511  0.988275  0.749941  1
  Y  Y11  1  0.178712  0.679056  0.377102  1
  Y  Y12  1  0.821519  0.320658  0.877109  1
  Y  Y13  1  0.821225  0.320849  0.623009  1
  Y  Y14  1  0.847277  0.488444  0.249869  1
  Y  Y15  1  0.347608  0.011641  0.249856  1
  Y  Y16  1  0.321469  0.179292  0.877103  1
  Y  Y17  1  0.178550  0.679346  0.122756  1
  Y  Y18  1  0.678550  0.820613  0.122715  1
  Y  Y19  1  0.152484  0.511791  0.750022  1
  Si  Si20  1  0.270064  0.880623  0.750029  1
  Si  Si21  1  0.472301  0.611114  0.249896  1
  Si  Si22  1  0.027865  0.111103  0.750033  1
  Si  Si23  1  0.527792  0.388949  0.749969  1
  Si  Si24  1  0.144829  0.470286  0.539757  1
  Si  Si25  1  0.972074  0.888474  0.249780  1
  Si  Si26  1  0.729466  0.119329  0.249680  1
  Si  Si27  1  0.855404  0.530367  0.039547  1
  Si  Si28  1  0.355361  0.969604  0.039550  1
  Si  Si29  1  0.144627  0.469616  0.960426  1
  Si  Si30  1  0.644554  0.030149  0.539702  1
  Si  Si31  1  0.356049  0.969477  0.460690  1
  Si  Si32  1  0.855206  0.530988  0.460621  1
  Si  Si33  1  0.770019  0.619458  0.749985  1
  Si  Si34  1  0.230357  0.380799  0.249803  1
  Si  Si35  1  0.644603  0.030339  0.960420  1
