# generated using pymatgen
data_Nb3ZnGa2N
_symmetry_space_group_name_H-M   'P 1'
_cell_length_a   8.30363401
_cell_length_b   8.30363400
_cell_length_c   8.30363500
_cell_angle_alpha   59.99999999
_cell_angle_beta   60.00000004
_cell_angle_gamma   60.00000457
_symmetry_Int_Tables_number   1
_chemical_formula_structural   Nb3ZnGa2N
_chemical_formula_sum   'Nb12 Zn4 Ga8 N4'
_cell_volume   404.84582542
_cell_formula_units_Z   4
loop_
 _symmetry_equiv_pos_site_id
 _symmetry_equiv_pos_as_xyz
  1  'x, y, z'
loop_
 _atom_site_type_symbol
 _atom_site_label
 _atom_site_symmetry_multiplicity
 _atom_site_fract_x
 _atom_site_fract_y
 _atom_site_fract_z
 _atom_site_occupancy
  Nb  Nb0  1  0.440780  0.440780  0.059220  1
  Nb  Nb1  1  0.059220  0.440780  0.059220  1
  Nb  Nb2  1  0.440780  0.059220  0.059220  1
  Nb  Nb3  1  0.059220  0.059220  0.440780  1
  Nb  Nb4  1  0.440780  0.059220  0.440780  1
  Nb  Nb5  1  0.059220  0.440780  0.440780  1
  Nb  Nb6  1  0.809220  0.809220  0.190780  1
  Nb  Nb7  1  0.190780  0.809220  0.190780  1
  Nb  Nb8  1  0.809220  0.190780  0.190780  1
  Nb  Nb9  1  0.190780  0.190780  0.809220  1
  Nb  Nb10  1  0.809220  0.190780  0.809220  1
  Nb  Nb11  1  0.190780  0.809220  0.809220  1
  Zn  Zn12  1  0.625000  0.625000  0.125000  1
  Zn  Zn13  1  0.625000  0.125000  0.625000  1
  Zn  Zn14  1  0.125000  0.625000  0.625000  1
  Zn  Zn15  1  0.625000  0.625000  0.625000  1
  Ga  Ga16  1  0.838214  0.838214  0.485359  1
  Ga  Ga17  1  0.838214  0.485359  0.838214  1
  Ga  Ga18  1  0.485359  0.838214  0.838214  1
  Ga  Ga19  1  0.838214  0.838214  0.838214  1
  Ga  Ga20  1  0.411786  0.411786  0.764641  1
  Ga  Ga21  1  0.411786  0.764641  0.411786  1
  Ga  Ga22  1  0.764641  0.411786  0.411786  1
  Ga  Ga23  1  0.411786  0.411786  0.411786  1
  N  N24  1  0.125000  0.125000  0.625000  1
  N  N25  1  0.125000  0.625000  0.125000  1
  N  N26  1  0.625000  0.125000  0.125000  1
  N  N27  1  0.125000  0.125000  0.125000  1
