# generated using pymatgen
data_Bi2IrRhS2
_symmetry_space_group_name_H-M   'P 1'
_cell_length_a   6.22253700
_cell_length_b   6.22280278
_cell_length_c   6.22359578
_cell_angle_alpha   90.14208865
_cell_angle_beta   90.00000000
_cell_angle_gamma   90.00000000
_symmetry_Int_Tables_number   1
_chemical_formula_structural   Bi2IrRhS2
_chemical_formula_sum   'Bi4 Ir2 Rh2 S4'
_cell_volume   240.98697348
_cell_formula_units_Z   2
loop_
 _symmetry_equiv_pos_site_id
 _symmetry_equiv_pos_as_xyz
  1  'x, y, z'
loop_
 _atom_site_type_symbol
 _atom_site_label
 _atom_site_symmetry_multiplicity
 _atom_site_fract_x
 _atom_site_fract_y
 _atom_site_fract_z
 _atom_site_occupancy
  Bi  Bi0  1  0.129127  0.629155  0.873028  1
  Bi  Bi1  1  0.629127  0.870845  0.126972  1
  Bi  Bi2  1  0.871690  0.128203  0.630281  1
  Bi  Bi3  1  0.371690  0.371797  0.369719  1
  Ir  Ir4  1  0.476867  0.976546  0.522001  1
  Ir  Ir5  1  0.976867  0.523454  0.477999  1
  Rh  Rh6  1  0.522760  0.477460  0.976481  1
  Rh  Rh7  1  0.022760  0.022540  0.023519  1
  S  S8  1  0.880953  0.383818  0.121473  1
  S  S9  1  0.380953  0.116182  0.878527  1
  S  S10  1  0.118603  0.878965  0.383781  1
  S  S11  1  0.618603  0.621035  0.616219  1
