# generated using pymatgen
data_Dy7ErVOs3C8
_symmetry_space_group_name_H-M   'P 1'
_cell_length_a   5.09701400
_cell_length_b   6.51447536
_cell_length_c   9.80988477
_cell_angle_alpha   89.86920084
_cell_angle_beta   90.00000000
_cell_angle_gamma   90.00000000
_symmetry_Int_Tables_number   1
_chemical_formula_structural   Dy7ErVOs3C8
_chemical_formula_sum   'Dy7 Er1 V1 Os3 C8'
_cell_volume   325.73021525
_cell_formula_units_Z   1
loop_
 _symmetry_equiv_pos_site_id
 _symmetry_equiv_pos_as_xyz
  1  'x, y, z'
loop_
 _atom_site_type_symbol
 _atom_site_label
 _atom_site_symmetry_multiplicity
 _atom_site_fract_x
 _atom_site_fract_y
 _atom_site_fract_z
 _atom_site_occupancy
  Dy  Dy0  1  0.250000  0.684246  0.556980  1
  Dy  Dy1  1  0.750000  0.818189  0.054512  1
  Dy  Dy2  1  0.250000  0.177764  0.943126  1
  Dy  Dy3  1  0.250000  0.531925  0.213387  1
  Dy  Dy4  1  0.750000  0.468792  0.779006  1
  Dy  Dy5  1  0.750000  0.973566  0.716049  1
  Dy  Dy6  1  0.250000  0.028822  0.284083  1
  Er  Er7  1  0.750000  0.321571  0.444428  1
  V  V8  1  0.250000  0.723986  0.865557  1
  Os  Os9  1  0.750000  0.276713  0.135920  1
  Os  Os10  1  0.750000  0.776084  0.364104  1
  Os  Os11  1  0.250000  0.226205  0.634940  1
  C  C12  1  0.250000  0.459851  0.761755  1
  C  C13  1  0.750000  0.540516  0.243169  1
  C  C14  1  0.750000  0.042162  0.259898  1
  C  C15  1  0.250000  0.958007  0.741425  1
  C  C16  1  0.250000  0.818065  0.050019  1
  C  C17  1  0.750000  0.175980  0.952377  1
  C  C18  1  0.750000  0.675407  0.549746  1
  C  C19  1  0.250000  0.322150  0.449520  1
