# generated using pymatgen
data_Tb2AsPd7Pt
_symmetry_space_group_name_H-M   'P 1'
_cell_length_a   4.13293500
_cell_length_b   4.13308400
_cell_length_c   11.23870300
_cell_angle_alpha   90.00000000
_cell_angle_beta   90.00000000
_cell_angle_gamma   90.00000000
_symmetry_Int_Tables_number   1
_chemical_formula_structural   Tb2AsPd7Pt
_chemical_formula_sum   'Tb2 As1 Pd7 Pt1'
_cell_volume   191.97691189
_cell_formula_units_Z   1
loop_
 _symmetry_equiv_pos_site_id
 _symmetry_equiv_pos_as_xyz
  1  'x, y, z'
loop_
 _atom_site_type_symbol
 _atom_site_label
 _atom_site_symmetry_multiplicity
 _atom_site_fract_x
 _atom_site_fract_y
 _atom_site_fract_z
 _atom_site_occupancy
  Tb  Tb0  1  0.500000  0.500000  0.818848  1
  Tb  Tb1  1  0.500000  0.500000  0.181152  1
  As  As2  1  0.000000  0.000000  0.500000  1
  Pd  Pd3  1  0.500000  0.000000  0.000000  1
  Pd  Pd4  1  0.500000  0.000000  0.630925  1
  Pd  Pd5  1  0.000000  0.500000  0.630995  1
  Pd  Pd6  1  0.500000  0.000000  0.369075  1
  Pd  Pd7  1  0.000000  0.500000  0.369005  1
  Pd  Pd8  1  0.000000  0.000000  0.817406  1
  Pd  Pd9  1  0.000000  0.000000  0.182594  1
  Pt  Pt10  1  0.000000  0.500000  0.000000  1
