# generated using pymatgen
data_CaTbNi9P7Ir3
_symmetry_space_group_name_H-M   'P 1'
_cell_length_a   9.20017300
_cell_length_b   9.20017365
_cell_length_c   3.80011100
_cell_angle_alpha   90.00000000
_cell_angle_beta   90.00000000
_cell_angle_gamma   120.00000126
_symmetry_Int_Tables_number   1
_chemical_formula_structural   CaTbNi9P7Ir3
_chemical_formula_sum   'Ca1 Tb1 Ni9 P7 Ir3'
_cell_volume   278.56011118
_cell_formula_units_Z   1
loop_
 _symmetry_equiv_pos_site_id
 _symmetry_equiv_pos_as_xyz
  1  'x, y, z'
loop_
 _atom_site_type_symbol
 _atom_site_label
 _atom_site_symmetry_multiplicity
 _atom_site_fract_x
 _atom_site_fract_y
 _atom_site_fract_z
 _atom_site_occupancy
  Ca  Ca0  1  0.666667  0.333333  0.000000  1
  Tb  Tb1  1  0.333333  0.666667  0.500000  1
  Ni  Ni2  1  0.063512  0.632192  0.000000  1
  Ni  Ni3  1  0.568681  0.936488  0.000000  1
  Ni  Ni4  1  0.367808  0.431319  0.000000  1
  Ni  Ni5  1  0.272095  0.119157  0.000000  1
  Ni  Ni6  1  0.847062  0.727905  0.000000  1
  Ni  Ni7  1  0.880843  0.152938  0.000000  1
  Ni  Ni8  1  0.073179  0.878974  0.500000  1
  Ni  Ni9  1  0.805795  0.926821  0.500000  1
  Ni  Ni10  1  0.121026  0.194205  0.500000  1
  P  P11  1  0.293195  0.881799  0.000000  1
  P  P12  1  0.588605  0.706805  0.000000  1
  P  P13  1  0.118201  0.411395  0.000000  1
  P  P14  1  0.399437  0.292673  0.500000  1
  P  P15  1  0.893237  0.600563  0.500000  1
  P  P16  1  0.707327  0.106763  0.500000  1
  P  P17  1  0.000000  0.000000  0.000000  1
  Ir  Ir18  1  0.425040  0.041587  0.500000  1
  Ir  Ir19  1  0.616547  0.574960  0.500000  1
  Ir  Ir20  1  0.958413  0.383453  0.500000  1
