# generated using pymatgen
data_TbHo2Tm2CoSb2
_symmetry_space_group_name_H-M   'P 1'
_cell_length_a   7.80718500
_cell_length_b   8.77460600
_cell_length_c   12.11408000
_cell_angle_alpha   90.00000000
_cell_angle_beta   90.00000000
_cell_angle_gamma   90.00000000
_symmetry_Int_Tables_number   1
_chemical_formula_structural   TbHo2Tm2CoSb2
_chemical_formula_sum   'Tb4 Ho8 Tm8 Co4 Sb8'
_cell_volume   829.87471537
_cell_formula_units_Z   4
loop_
 _symmetry_equiv_pos_site_id
 _symmetry_equiv_pos_as_xyz
  1  'x, y, z'
loop_
 _atom_site_type_symbol
 _atom_site_label
 _atom_site_symmetry_multiplicity
 _atom_site_fract_x
 _atom_site_fract_y
 _atom_site_fract_z
 _atom_site_occupancy
  Tb  Tb0  1  0.622344  0.750000  0.306784  1
  Tb  Tb1  1  0.122344  0.250000  0.193216  1
  Tb  Tb2  1  0.377656  0.250000  0.693216  1
  Tb  Tb3  1  0.877656  0.750000  0.806784  1
  Ho  Ho4  1  0.154781  0.750000  0.204149  1
  Ho  Ho5  1  0.654781  0.250000  0.295851  1
  Ho  Ho6  1  0.845219  0.250000  0.795851  1
  Ho  Ho7  1  0.345219  0.750000  0.704149  1
  Ho  Ho8  1  0.451053  0.750000  0.997702  1
  Ho  Ho9  1  0.951053  0.250000  0.502298  1
  Ho  Ho10  1  0.548947  0.250000  0.002298  1
  Ho  Ho11  1  0.048947  0.750000  0.497702  1
  Tm  Tm12  1  0.823286  0.963289  0.064986  1
  Tm  Tm13  1  0.323286  0.036711  0.435014  1
  Tm  Tm14  1  0.176714  0.463289  0.935014  1
  Tm  Tm15  1  0.676714  0.536711  0.564986  1
  Tm  Tm16  1  0.176714  0.036711  0.935014  1
  Tm  Tm17  1  0.676714  0.963289  0.564986  1
  Tm  Tm18  1  0.823286  0.536711  0.064986  1
  Tm  Tm19  1  0.323286  0.463289  0.435014  1
  Co  Co20  1  0.432903  0.750000  0.491201  1
  Co  Co21  1  0.932903  0.250000  0.008799  1
  Co  Co22  1  0.567097  0.250000  0.508799  1
  Co  Co23  1  0.067097  0.750000  0.991201  1
  Sb  Sb24  1  0.929651  0.991823  0.327936  1
  Sb  Sb25  1  0.429651  0.008177  0.172064  1
  Sb  Sb26  1  0.070349  0.491823  0.672064  1
  Sb  Sb27  1  0.570349  0.508177  0.827936  1
  Sb  Sb28  1  0.070349  0.008177  0.672064  1
  Sb  Sb29  1  0.570349  0.991823  0.827936  1
  Sb  Sb30  1  0.929651  0.508177  0.327936  1
  Sb  Sb31  1  0.429651  0.491823  0.172064  1
