# generated using pymatgen
data_Hf3ZrB4(MoRu5)2
_symmetry_space_group_name_H-M   'P 1'
_cell_length_a   9.45385617
_cell_length_b   9.45385617
_cell_length_c   3.08216700
_cell_angle_alpha   90.00000000
_cell_angle_beta   90.00000000
_cell_angle_gamma   90.09385403
_symmetry_Int_Tables_number   1
_chemical_formula_structural   Hf3ZrB4(MoRu5)2
_chemical_formula_sum   'Hf3 Zr1 B4 Mo2 Ru10'
_cell_volume   275.46952813
_cell_formula_units_Z   1
loop_
 _symmetry_equiv_pos_site_id
 _symmetry_equiv_pos_as_xyz
  1  'x, y, z'
loop_
 _atom_site_type_symbol
 _atom_site_label
 _atom_site_symmetry_multiplicity
 _atom_site_fract_x
 _atom_site_fract_y
 _atom_site_fract_z
 _atom_site_occupancy
  Hf  Hf0  1  0.676484  0.176774  0.000000  1
  Hf  Hf1  1  0.323226  0.823516  0.000000  1
  Hf  Hf2  1  0.176950  0.323050  0.000000  1
  Zr  Zr3  1  0.823142  0.676858  0.000000  1
  B  B4  1  0.121472  0.621250  0.000000  1
  B  B5  1  0.878750  0.378528  0.000000  1
  B  B6  1  0.620798  0.879202  0.000000  1
  B  B7  1  0.378712  0.121288  0.000000  1
  Mo  Mo8  1  0.000095  0.000416  0.000000  1
  Mo  Mo9  1  0.499584  0.499905  0.000000  1
  Ru  Ru10  1  0.216333  0.071673  0.500000  1
  Ru  Ru11  1  0.783208  0.930084  0.500000  1
  Ru  Ru12  1  0.072901  0.783723  0.500000  1
  Ru  Ru13  1  0.716277  0.427099  0.500000  1
  Ru  Ru14  1  0.928844  0.215899  0.500000  1
  Ru  Ru15  1  0.284101  0.571156  0.500000  1
  Ru  Ru16  1  0.569916  0.716792  0.500000  1
  Ru  Ru17  1  0.428327  0.283667  0.500000  1
  Ru  Ru18  1  0.499659  0.000341  0.500000  1
  Ru  Ru19  1  0.001221  0.498779  0.500000  1
