# generated using pymatgen
data_Dy7NiSn23Os5
_symmetry_space_group_name_H-M   'P 1'
_cell_length_a   9.85008581
_cell_length_b   9.86785723
_cell_length_c   10.09243911
_cell_angle_alpha   89.99999854
_cell_angle_beta   89.78516910
_cell_angle_gamma   120.05969992
_symmetry_Int_Tables_number   1
_chemical_formula_structural   Dy7NiSn23Os5
_chemical_formula_sum   'Dy7 Ni1 Sn23 Os5'
_cell_volume   849.03186504
_cell_formula_units_Z   1
loop_
 _symmetry_equiv_pos_site_id
 _symmetry_equiv_pos_as_xyz
  1  'x, y, z'
loop_
 _atom_site_type_symbol
 _atom_site_label
 _atom_site_symmetry_multiplicity
 _atom_site_fract_x
 _atom_site_fract_y
 _atom_site_fract_z
 _atom_site_occupancy
  Dy  Dy0  1  0.484480  0.514992  0.302994  1
  Dy  Dy1  1  0.515203  0.481675  0.694094  1
  Dy  Dy2  1  0.484480  0.969489  0.302994  1
  Dy  Dy3  1  0.515203  0.033527  0.694094  1
  Dy  Dy4  1  0.030203  0.515102  0.302843  1
  Dy  Dy5  1  0.964285  0.482142  0.695650  1
  Dy  Dy6  1  0.015926  0.007962  0.007959  1
  Ni  Ni7  1  0.657748  0.828873  0.798853  1
  Sn  Sn8  1  0.115451  0.882897  0.283106  1
  Sn  Sn9  1  0.879932  0.112672  0.723489  1
  Sn  Sn10  1  0.115451  0.232555  0.283106  1
  Sn  Sn11  1  0.879932  0.767261  0.723489  1
  Sn  Sn12  1  0.765301  0.882650  0.275634  1
  Sn  Sn13  1  0.233548  0.116774  0.721711  1
  Sn  Sn14  1  0.778571  0.220620  0.461510  1
  Sn  Sn15  1  0.219962  0.777994  0.538274  1
  Sn  Sn16  1  0.778571  0.557951  0.461510  1
  Sn  Sn17  1  0.219962  0.441968  0.538274  1
  Sn  Sn18  1  0.441627  0.220814  0.461176  1
  Sn  Sn19  1  0.559485  0.779742  0.540930  1
  Sn  Sn20  1  0.351688  0.998700  0.000118  1
  Sn  Sn21  1  0.653726  0.999339  0.995536  1
  Sn  Sn22  1  0.001325  0.349766  0.000201  1
  Sn  Sn23  1  0.001325  0.651560  0.000201  1
  Sn  Sn24  1  0.653726  0.654387  0.995536  1
  Sn  Sn25  1  0.351688  0.352988  0.000118  1
  Sn  Sn26  1  0.335211  0.667606  0.126728  1
  Sn  Sn27  1  0.665092  0.332546  0.872616  1
  Sn  Sn28  1  0.330940  0.665470  0.822649  1
  Sn  Sn29  1  0.666305  0.333152  0.172814  1
  Sn  Sn30  1  0.996865  0.998433  0.503093  1
  Os  Os31  1  0.829693  0.169236  0.200929  1
  Os  Os32  1  0.170163  0.830748  0.798367  1
  Os  Os33  1  0.829693  0.660458  0.200929  1
  Os  Os34  1  0.170163  0.339414  0.798367  1
  Os  Os35  1  0.337071  0.168537  0.200109  1
