# generated using pymatgen
data_Nd15Pa5(Ir3Rh)4
_symmetry_space_group_name_H-M   'P 1'
_cell_length_a   7.62238992
_cell_length_b   7.67105198
_cell_length_c   14.77733618
_cell_angle_alpha   90.19380583
_cell_angle_beta   90.42464549
_cell_angle_gamma   90.23268320
_symmetry_Int_Tables_number   1
_chemical_formula_structural   Nd15Pa5(Ir3Rh)4
_chemical_formula_sum   'Nd15 Pa5 Ir12 Rh4'
_cell_volume   864.02080933
_cell_formula_units_Z   1
loop_
 _symmetry_equiv_pos_site_id
 _symmetry_equiv_pos_as_xyz
  1  'x, y, z'
loop_
 _atom_site_type_symbol
 _atom_site_label
 _atom_site_symmetry_multiplicity
 _atom_site_fract_x
 _atom_site_fract_y
 _atom_site_fract_z
 _atom_site_occupancy
  Nd  Nd0  1  0.836006  0.661471  0.122782  1
  Nd  Nd1  1  0.662770  0.162766  0.879139  1
  Nd  Nd2  1  0.160321  0.335374  0.617259  1
  Nd  Nd3  1  0.509193  0.675237  0.589961  1
  Nd  Nd4  1  0.014232  0.819405  0.906902  1
  Nd  Nd5  1  0.484783  0.317566  0.092718  1
  Nd  Nd6  1  0.991780  0.176427  0.409189  1
  Nd  Nd7  1  0.489407  0.321488  0.407906  1
  Nd  Nd8  1  0.984565  0.177880  0.086820  1
  Nd  Nd9  1  0.515221  0.677726  0.912578  1
  Nd  Nd10  1  0.008104  0.823238  0.591046  1
  Nd  Nd11  1  0.817951  0.514629  0.747594  1
  Nd  Nd12  1  0.317159  0.982857  0.749752  1
  Nd  Nd13  1  0.179831  0.482766  0.248951  1
  Nd  Nd14  1  0.690455  0.019436  0.251246  1
  Pa  Pa15  1  0.657732  0.154734  0.620489  1
  Pa  Pa16  1  0.161354  0.342367  0.875662  1
  Pa  Pa17  1  0.338162  0.845366  0.123923  1
  Pa  Pa18  1  0.841340  0.658136  0.379950  1
  Pa  Pa19  1  0.342048  0.843145  0.377957  1
  Ir  Ir20  1  0.687722  0.948582  0.464638  1
  Ir  Ir21  1  0.207817  0.558316  0.034986  1
  Ir  Ir22  1  0.291948  0.058189  0.967214  1
  Ir  Ir23  1  0.801284  0.447426  0.533599  1
  Ir  Ir24  1  0.326915  0.028222  0.532382  1
  Ir  Ir25  1  0.855625  0.462682  0.953487  1
  Ir  Ir26  1  0.645217  0.960607  0.047764  1
  Ir  Ir27  1  0.167498  0.557946  0.452897  1
  Ir  Ir28  1  0.462670  0.356335  0.742221  1
  Ir  Ir29  1  0.959539  0.131388  0.749314  1
  Ir  Ir30  1  0.536212  0.644024  0.262267  1
  Ir  Ir31  1  0.048961  0.860575  0.258280  1
  Rh  Rh32  1  0.696285  0.882861  0.737138  1
  Rh  Rh33  1  0.209250  0.609962  0.761974  1
  Rh  Rh34  1  0.307602  0.112143  0.247216  1
  Rh  Rh35  1  0.793040  0.388723  0.262800  1
