# generated using pymatgen
data_Pr8CdHgOsPd
_symmetry_space_group_name_H-M   'P 1'
_cell_length_a   10.04213994
_cell_length_b   10.04214130
_cell_length_c   10.17106600
_cell_angle_alpha   59.57440028
_cell_angle_beta   59.57439572
_cell_angle_gamma   59.63426530
_symmetry_Int_Tables_number   1
_chemical_formula_structural   Pr8CdHgOsPd
_chemical_formula_sum   'Pr16 Cd2 Hg2 Os2 Pd2'
_cell_volume   718.58955696
_cell_formula_units_Z   2
loop_
 _symmetry_equiv_pos_site_id
 _symmetry_equiv_pos_as_xyz
  1  'x, y, z'
loop_
 _atom_site_type_symbol
 _atom_site_label
 _atom_site_symmetry_multiplicity
 _atom_site_fract_x
 _atom_site_fract_y
 _atom_site_fract_z
 _atom_site_occupancy
  Pr  Pr0  1  0.349011  0.349011  0.355085  1
  Pr  Pr1  1  0.349011  0.349011  0.946893  1
  Pr  Pr2  1  0.344800  0.954470  0.350365  1
  Pr  Pr3  1  0.954470  0.344800  0.350365  1
  Pr  Pr4  1  0.815128  0.188743  0.192842  1
  Pr  Pr5  1  0.188743  0.815128  0.803286  1
  Pr  Pr6  1  0.188743  0.815128  0.192842  1
  Pr  Pr7  1  0.815128  0.188743  0.803286  1
  Pr  Pr8  1  0.188743  0.188743  0.811257  1
  Pr  Pr9  1  0.803332  0.803332  0.196668  1
  Pr  Pr10  1  0.937667  0.555915  0.565970  1
  Pr  Pr11  1  0.555915  0.937667  0.940448  1
  Pr  Pr12  1  0.555915  0.937667  0.565970  1
  Pr  Pr13  1  0.937667  0.555915  0.940448  1
  Pr  Pr14  1  0.562592  0.562592  0.937408  1
  Pr  Pr15  1  0.938859  0.938859  0.561141  1
  Cd  Cd16  1  0.580005  0.259534  0.580229  1
  Cd  Cd17  1  0.259534  0.580005  0.580229  1
  Hg  Hg18  1  0.582500  0.582500  0.584656  1
  Hg  Hg19  1  0.582500  0.582500  0.250343  1
  Os  Os20  1  0.144482  0.144482  0.136500  1
  Os  Os21  1  0.144482  0.144482  0.574536  1
  Pd  Pd22  1  0.146865  0.573903  0.139616  1
  Pd  Pd23  1  0.573903  0.146865  0.139616  1
