# generated using pymatgen
data_Sm2Tm3Co19Si11P
_symmetry_space_group_name_H-M   'P 1'
_cell_length_a   12.16796737
_cell_length_b   12.20108107
_cell_length_c   3.73525200
_cell_angle_alpha   90.00000000
_cell_angle_beta   90.00000000
_cell_angle_gamma   120.09006479
_symmetry_Int_Tables_number   1
_chemical_formula_structural   Sm2Tm3Co19Si11P
_chemical_formula_sum   'Sm2 Tm3 Co19 Si11 P1'
_cell_volume   479.81301808
_cell_formula_units_Z   1
loop_
 _symmetry_equiv_pos_site_id
 _symmetry_equiv_pos_as_xyz
  1  'x, y, z'
loop_
 _atom_site_type_symbol
 _atom_site_label
 _atom_site_symmetry_multiplicity
 _atom_site_fract_x
 _atom_site_fract_y
 _atom_site_fract_z
 _atom_site_occupancy
  Sm  Sm0  1  0.667306  0.333443  0.000000  1
  Sm  Sm1  1  0.332694  0.666138  0.000000  1
  Tm  Tm2  1  0.185366  0.186183  0.500000  1
  Tm  Tm3  1  0.814634  0.000817  0.500000  1
  Tm  Tm4  1  0.000000  0.813463  0.500000  1
  Co  Co5  1  0.824589  0.196085  0.000000  1
  Co  Co6  1  0.803930  0.624672  0.000000  1
  Co  Co7  1  0.375153  0.179316  0.000000  1
  Co  Co8  1  0.196070  0.820743  0.000000  1
  Co  Co9  1  0.624847  0.804164  0.000000  1
  Co  Co10  1  0.175411  0.371497  0.000000  1
  Co  Co11  1  0.558709  0.559201  0.000000  1
  Co  Co12  1  0.441291  0.000492  0.000000  1
  Co  Co13  1  0.000000  0.441257  0.000000  1
  Co  Co14  1  0.645463  0.122716  0.500000  1
  Co  Co15  1  0.878026  0.521582  0.500000  1
  Co  Co16  1  0.477702  0.356065  0.500000  1
  Co  Co17  1  0.121974  0.643557  0.500000  1
  Co  Co18  1  0.522298  0.878363  0.500000  1
  Co  Co19  1  0.354537  0.477253  0.500000  1
  Co  Co20  1  0.721097  0.721044  0.500000  1
  Co  Co21  1  0.278903  0.999947  0.500000  1
  Co  Co22  1  0.000000  0.275628  0.500000  1
  Co  Co23  1  0.000000  0.004932  0.000000  1
  Si  Si24  1  0.370373  0.370779  0.000000  1
  Si  Si25  1  0.629627  0.000406  0.000000  1
  Si  Si26  1  0.000000  0.629145  0.000000  1
  Si  Si27  1  0.843042  0.318245  0.500000  1
  Si  Si28  1  0.682373  0.524474  0.500000  1
  Si  Si29  1  0.476002  0.158355  0.500000  1
  Si  Si30  1  0.317627  0.842102  0.500000  1
  Si  Si31  1  0.523998  0.682354  0.500000  1
  Si  Si32  1  0.156958  0.475203  0.500000  1
  Si  Si33  1  0.818694  0.818421  0.000000  1
  Si  Si34  1  0.181306  0.999727  0.000000  1
  P  P35  1  0.000000  0.182229  0.000000  1
