# generated using pymatgen
data_Na10MnVAs6
_symmetry_space_group_name_H-M   'P 1'
_cell_length_a   7.51908200
_cell_length_b   8.28299141
_cell_length_c   15.81501752
_cell_angle_alpha   58.78721854
_cell_angle_beta   90.00000000
_cell_angle_gamma   90.00000000
_symmetry_Int_Tables_number   1
_chemical_formula_structural   Na10MnVAs6
_chemical_formula_sum   'Na20 Mn2 V2 As12'
_cell_volume   842.39178142
_cell_formula_units_Z   2
loop_
 _symmetry_equiv_pos_site_id
 _symmetry_equiv_pos_as_xyz
  1  'x, y, z'
loop_
 _atom_site_type_symbol
 _atom_site_label
 _atom_site_symmetry_multiplicity
 _atom_site_fract_x
 _atom_site_fract_y
 _atom_site_fract_z
 _atom_site_occupancy
  Na  Na0  1  0.738934  0.943747  0.246198  1
  Na  Na1  1  0.261066  0.943747  0.746198  1
  Na  Na2  1  0.768811  0.053055  0.757434  1
  Na  Na3  1  0.231189  0.053055  0.257434  1
  Na  Na4  1  0.266492  0.240771  0.421637  1
  Na  Na5  1  0.733508  0.240771  0.921637  1
  Na  Na6  1  0.218682  0.758775  0.578019  1
  Na  Na7  1  0.781318  0.758775  0.078019  1
  Na  Na8  1  0.088451  0.344792  0.581613  1
  Na  Na9  1  0.911549  0.344792  0.081613  1
  Na  Na10  1  0.407777  0.654622  0.419063  1
  Na  Na11  1  0.592223  0.654622  0.919063  1
  Na  Na12  1  0.593783  0.334717  0.243073  1
  Na  Na13  1  0.406217  0.334717  0.743073  1
  Na  Na14  1  0.906334  0.665130  0.758600  1
  Na  Na15  1  0.093666  0.665130  0.258600  1
  Na  Na16  1  0.769134  0.414289  0.409793  1
  Na  Na17  1  0.230866  0.414289  0.909793  1
  Na  Na18  1  0.741543  0.586349  0.588917  1
  Na  Na19  1  0.258457  0.586349  0.088917  1
  Mn  Mn20  1  0.884666  0.013251  0.417912  1
  Mn  Mn21  1  0.115334  0.013251  0.917912  1
  V  V22  1  0.610763  0.988837  0.580223  1
  V  V23  1  0.389237  0.988837  0.080223  1
  As  As24  1  0.984019  0.312142  0.272212  1
  As  As25  1  0.015981  0.312142  0.772212  1
  As  As26  1  0.519653  0.698211  0.722384  1
  As  As27  1  0.480347  0.698211  0.222384  1
  As  As28  1  0.933292  0.023327  0.570177  1
  As  As29  1  0.066708  0.023327  0.070177  1
  As  As30  1  0.551853  0.976267  0.434461  1
  As  As31  1  0.448147  0.976267  0.934461  1
  As  As32  1  0.004325  0.732453  0.418737  1
  As  As33  1  0.995675  0.732453  0.918737  1
  As  As34  1  0.492478  0.259267  0.579548  1
  As  As35  1  0.507522  0.259267  0.079548  1
