# generated using pymatgen
data_Pr2OsO5
_symmetry_space_group_name_H-M   'P 1'
_cell_length_a   7.00722885
_cell_length_b   7.00722847
_cell_length_c   7.00722802
_cell_angle_alpha   100.49833357
_cell_angle_beta   100.49833052
_cell_angle_gamma   129.46346313
_symmetry_Int_Tables_number   1
_chemical_formula_structural   Pr2OsO5
_chemical_formula_sum   'Pr4 Os2 O10'
_cell_volume   240.21204132
_cell_formula_units_Z   2
loop_
 _symmetry_equiv_pos_site_id
 _symmetry_equiv_pos_as_xyz
  1  'x, y, z'
loop_
 _atom_site_type_symbol
 _atom_site_label
 _atom_site_symmetry_multiplicity
 _atom_site_fract_x
 _atom_site_fract_y
 _atom_site_fract_z
 _atom_site_occupancy
  Pr  Pr0  1  0.819150  0.395993  0.215143  1
  Pr  Pr1  1  0.604007  0.819150  0.423155  1
  Pr  Pr2  1  0.395993  0.180850  0.576845  1
  Pr  Pr3  1  0.180850  0.604007  0.784857  1
  Os  Os4  1  0.183831  0.183831  0.000000  1
  Os  Os5  1  0.816169  0.816169  0.000000  1
  O  O6  1  0.162234  0.446364  0.093978  1
  O  O7  1  0.647614  0.931744  0.093978  1
  O  O8  1  0.446364  0.352386  0.284130  1
  O  O9  1  0.931744  0.837766  0.284130  1
  O  O10  1  0.750000  0.250000  0.500000  1
  O  O11  1  0.250000  0.750000  0.500000  1
  O  O12  1  0.068256  0.162234  0.715870  1
  O  O13  1  0.553636  0.647614  0.715870  1
  O  O14  1  0.352386  0.068256  0.906022  1
  O  O15  1  0.837766  0.553636  0.906022  1
