# generated using pymatgen
data_Tb2PrIrO7
_symmetry_space_group_name_H-M   'P 1'
_cell_length_a   6.50604475
_cell_length_b   6.50604494
_cell_length_c   7.52150900
_cell_angle_alpha   90.00000000
_cell_angle_beta   90.00000000
_cell_angle_gamma   109.85626701
_symmetry_Int_Tables_number   1
_chemical_formula_structural   Tb2PrIrO7
_chemical_formula_sum   'Tb4 Pr2 Ir2 O14'
_cell_volume   299.44694818
_cell_formula_units_Z   2
loop_
 _symmetry_equiv_pos_site_id
 _symmetry_equiv_pos_as_xyz
  1  'x, y, z'
loop_
 _atom_site_type_symbol
 _atom_site_label
 _atom_site_symmetry_multiplicity
 _atom_site_fract_x
 _atom_site_fract_y
 _atom_site_fract_z
 _atom_site_occupancy
  Tb  Tb0  1  0.481958  0.932071  0.750000  1
  Tb  Tb1  1  0.518042  0.067929  0.250000  1
  Tb  Tb2  1  0.932071  0.481958  0.750000  1
  Tb  Tb3  1  0.067929  0.518042  0.250000  1
  Pr  Pr4  1  0.000000  0.000000  0.000000  1
  Pr  Pr5  1  0.000000  0.000000  0.500000  1
  Ir  Ir6  1  0.500000  0.500000  0.000000  1
  Ir  Ir7  1  0.500000  0.500000  0.500000  1
  O  O8  1  0.591315  0.591315  0.750000  1
  O  O9  1  0.408685  0.408685  0.250000  1
  O  O10  1  0.838260  0.118029  0.750000  1
  O  O11  1  0.161740  0.881971  0.250000  1
  O  O12  1  0.118029  0.838260  0.750000  1
  O  O13  1  0.881971  0.161740  0.250000  1
  O  O14  1  0.440208  0.181746  0.964476  1
  O  O15  1  0.559792  0.818254  0.464476  1
  O  O16  1  0.181746  0.440208  0.964476  1
  O  O17  1  0.818254  0.559792  0.464476  1
  O  O18  1  0.440208  0.181746  0.535524  1
  O  O19  1  0.559792  0.818254  0.035524  1
  O  O20  1  0.818254  0.559792  0.035524  1
  O  O21  1  0.181746  0.440208  0.535524  1
