# generated using pymatgen
data_Pr8Nb(OsO8)3
_symmetry_space_group_name_H-M   'P 1'
_cell_length_a   5.47778763
_cell_length_b   9.45589093
_cell_length_c   10.32632601
_cell_angle_alpha   89.58508267
_cell_angle_beta   89.94640358
_cell_angle_gamma   90.13378008
_symmetry_Int_Tables_number   1
_chemical_formula_structural   Pr8Nb(OsO8)3
_chemical_formula_sum   'Pr8 Nb1 Os3 O24'
_cell_volume   534.86072471
_cell_formula_units_Z   1
loop_
 _symmetry_equiv_pos_site_id
 _symmetry_equiv_pos_as_xyz
  1  'x, y, z'
loop_
 _atom_site_type_symbol
 _atom_site_label
 _atom_site_symmetry_multiplicity
 _atom_site_fract_x
 _atom_site_fract_y
 _atom_site_fract_z
 _atom_site_occupancy
  Pr  Pr0  1  0.034512  0.216616  0.130867  1
  Pr  Pr1  1  0.466304  0.773792  0.632360  1
  Pr  Pr2  1  0.966772  0.716049  0.371537  1
  Pr  Pr3  1  0.530325  0.287104  0.862626  1
  Pr  Pr4  1  0.027855  0.107087  0.536334  1
  Pr  Pr5  1  0.473700  0.898908  0.038447  1
  Pr  Pr6  1  0.979247  0.603516  0.961655  1
  Pr  Pr7  1  0.523491  0.401963  0.463521  1
  Nb  Nb8  1  0.040059  0.493304  0.649684  1
  Os  Os9  1  0.544945  0.001460  0.354746  1
  Os  Os10  1  0.957023  0.997274  0.854494  1
  Os  Os11  1  0.458563  0.502960  0.144817  1
  O  O12  1  0.436788  0.149609  0.469885  1
  O  O13  1  0.062417  0.853972  0.979962  1
  O  O14  1  0.563078  0.649213  0.024479  1
  O  O15  1  0.921361  0.344865  0.520506  1
  O  O16  1  0.721772  0.390247  0.070831  1
  O  O17  1  0.769742  0.611316  0.559430  1
  O  O18  1  0.281484  0.891237  0.433032  1
  O  O19  1  0.218858  0.108829  0.934250  1
  O  O20  1  0.250070  0.409802  0.008785  1
  O  O21  1  0.252071  0.594938  0.507749  1
  O  O22  1  0.754346  0.912740  0.492038  1
  O  O23  1  0.747166  0.090396  0.989792  1
  O  O24  1  0.194187  0.631751  0.179745  1
  O  O25  1  0.312732  0.354510  0.673024  1
  O  O26  1  0.811545  0.126812  0.317003  1
  O  O27  1  0.694926  0.868758  0.824295  1
  O  O28  1  0.337095  0.055319  0.213844  1
  O  O29  1  0.166679  0.948286  0.717700  1
  O  O30  1  0.665957  0.556623  0.281523  1
  O  O31  1  0.821201  0.453888  0.794406  1
  O  O32  1  0.320657  0.364011  0.256068  1
  O  O33  1  0.195745  0.635234  0.765124  1
  O  O34  1  0.672690  0.860634  0.243075  1
  O  O35  1  0.824634  0.136973  0.742368  1
