# generated using pymatgen
data_Sr3PrSmU5O18
_symmetry_space_group_name_H-M   'P 1'
_cell_length_a   6.93348338
_cell_length_b   7.77069235
_cell_length_c   8.72579002
_cell_angle_alpha   101.02347750
_cell_angle_beta   98.07208773
_cell_angle_gamma   107.20302417
_symmetry_Int_Tables_number   1
_chemical_formula_structural   Sr3PrSmU5O18
_chemical_formula_sum   'Sr3 Pr1 Sm1 U5 O18'
_cell_volume   430.97304605
_cell_formula_units_Z   1
loop_
 _symmetry_equiv_pos_site_id
 _symmetry_equiv_pos_as_xyz
  1  'x, y, z'
loop_
 _atom_site_type_symbol
 _atom_site_label
 _atom_site_symmetry_multiplicity
 _atom_site_fract_x
 _atom_site_fract_y
 _atom_site_fract_z
 _atom_site_occupancy
  Sr  Sr0  1  0.596166  0.695125  0.194153  1
  Sr  Sr1  1  0.403969  0.304028  0.805810  1
  Sr  Sr2  1  0.199428  0.895183  0.412200  1
  Pr  Pr3  1  0.805332  0.112641  0.585122  1
  Sm  Sm4  1  0.000935  0.503431  0.001764  1
  U  U5  1  0.998209  0.998301  0.999762  1
  U  U6  1  0.793829  0.584219  0.589357  1
  U  U7  1  0.624238  0.198887  0.195333  1
  U  U8  1  0.376815  0.799839  0.801951  1
  U  U9  1  0.207369  0.419570  0.410692  1
  O  O10  1  0.824611  0.802082  0.477615  1
  O  O11  1  0.998168  0.233648  0.176744  1
  O  O12  1  0.681349  0.403513  0.068572  1
  O  O13  1  0.472146  0.000728  0.678602  1
  O  O14  1  0.856994  0.340680  0.427793  1
  O  O15  1  0.498746  0.394956  0.345058  1
  O  O16  1  0.232276  0.599758  0.262932  1
  O  O17  1  0.977091  0.804578  0.138849  1
  O  O18  1  0.662078  0.934196  0.994628  1
  O  O19  1  0.335294  0.064842  0.005891  1
  O  O20  1  0.013910  0.186614  0.851973  1
  O  O21  1  0.768577  0.394450  0.733864  1
  O  O22  1  0.502492  0.603003  0.656395  1
  O  O23  1  0.140019  0.654790  0.575340  1
  O  O24  1  0.550179  0.002305  0.324383  1
  O  O25  1  0.317351  0.594986  0.930087  1
  O  O26  1  0.997648  0.764348  0.822623  1
  O  O27  1  0.164781  0.209297  0.532508  1
