# generated using pymatgen
data_Na3Sr(U2S5)4
_symmetry_space_group_name_H-M   'P 1'
_cell_length_a   7.30944830
_cell_length_b   8.16249772
_cell_length_c   11.42744400
_cell_angle_alpha   89.66300402
_cell_angle_beta   89.89069077
_cell_angle_gamma   90.16601846
_symmetry_Int_Tables_number   1
_chemical_formula_structural   Na3Sr(U2S5)4
_chemical_formula_sum   'Na3 Sr1 U8 S20'
_cell_volume   681.78373092
_cell_formula_units_Z   1
loop_
 _symmetry_equiv_pos_site_id
 _symmetry_equiv_pos_as_xyz
  1  'x, y, z'
loop_
 _atom_site_type_symbol
 _atom_site_label
 _atom_site_symmetry_multiplicity
 _atom_site_fract_x
 _atom_site_fract_y
 _atom_site_fract_z
 _atom_site_occupancy
  Na  Na0  1  0.550285  0.509691  0.166703  1
  Na  Na1  1  0.949185  0.509883  0.674319  1
  Na  Na2  1  0.451069  0.490307  0.829986  1
  Sr  Sr3  1  0.050203  0.491397  0.332778  1
  U  U4  1  0.023962  0.998915  0.319144  1
  U  U5  1  0.524655  0.998107  0.178747  1
  U  U6  1  0.974890  0.999436  0.680455  1
  U  U7  1  0.475149  0.001390  0.820515  1
  U  U8  1  0.075074  0.746655  0.006253  1
  U  U9  1  0.574472  0.253099  0.490616  1
  U  U10  1  0.925406  0.252630  0.989006  1
  U  U11  1  0.425803  0.750772  0.514417  1
  S  S12  1  0.663720  0.953938  0.404799  1
  S  S13  1  0.163157  0.045091  0.094498  1
  S  S14  1  0.335692  0.048237  0.595194  1
  S  S15  1  0.836199  0.953520  0.905703  1
  S  S16  1  0.454937  0.784498  0.001891  1
  S  S17  1  0.955550  0.213889  0.497276  1
  S  S18  1  0.544870  0.214791  0.997694  1
  S  S19  1  0.043520  0.785294  0.502238  1
  S  S20  1  0.838649  0.776186  0.188379  1
  S  S21  1  0.334909  0.216351  0.311984  1
  S  S22  1  0.165980  0.218265  0.813039  1
  S  S23  1  0.666602  0.782547  0.688731  1
  S  S24  1  0.309332  0.768663  0.284403  1
  S  S25  1  0.806340  0.232889  0.217240  1
  S  S26  1  0.693800  0.231678  0.717060  1
  S  S27  1  0.195160  0.768955  0.779979  1
  S  S28  1  0.176313  0.456898  0.080374  1
  S  S29  1  0.675281  0.545543  0.423531  1
  S  S30  1  0.824019  0.544076  0.921275  1
  S  S31  1  0.315819  0.456410  0.571770  1
