# generated using pymatgen
data_Dy2Lu2TiOs7
_symmetry_space_group_name_H-M   'P 1'
_cell_length_a   5.39250600
_cell_length_b   5.39250620
_cell_length_c   8.62985200
_cell_angle_alpha   90.00000000
_cell_angle_beta   90.00000000
_cell_angle_gamma   119.99998647
_symmetry_Int_Tables_number   1
_chemical_formula_structural   Dy2Lu2TiOs7
_chemical_formula_sum   'Dy2 Lu2 Ti1 Os7'
_cell_volume   217.32782273
_cell_formula_units_Z   1
loop_
 _symmetry_equiv_pos_site_id
 _symmetry_equiv_pos_as_xyz
  1  'x, y, z'
loop_
 _atom_site_type_symbol
 _atom_site_label
 _atom_site_symmetry_multiplicity
 _atom_site_fract_x
 _atom_site_fract_y
 _atom_site_fract_z
 _atom_site_occupancy
  Dy  Dy0  1  0.333333  0.666667  0.438134  1
  Dy  Dy1  1  0.666667  0.333333  0.561866  1
  Lu  Lu2  1  0.666667  0.333333  0.929136  1
  Lu  Lu3  1  0.333333  0.666667  0.070864  1
  Ti  Ti4  1  0.000000  0.000000  0.000000  1
  Os  Os5  1  0.172680  0.345360  0.753082  1
  Os  Os6  1  0.172680  0.827320  0.753082  1
  Os  Os7  1  0.345360  0.172680  0.246918  1
  Os  Os8  1  0.827320  0.654640  0.246918  1
  Os  Os9  1  0.654640  0.827320  0.753082  1
  Os  Os10  1  0.827320  0.172680  0.246918  1
  Os  Os11  1  0.000000  0.000000  0.500000  1
