# generated using pymatgen
data_DyTm5Al24(RuRh3)2
_symmetry_space_group_name_H-M   'P 1'
_cell_length_a   8.80357975
_cell_length_b   8.80357983
_cell_length_c   9.47281000
_cell_angle_alpha   90.00000000
_cell_angle_beta   90.00000000
_cell_angle_gamma   119.92785971
_symmetry_Int_Tables_number   1
_chemical_formula_structural   DyTm5Al24(RuRh3)2
_chemical_formula_sum   'Dy1 Tm5 Al24 Ru2 Rh6'
_cell_volume   636.27273280
_cell_formula_units_Z   1
loop_
 _symmetry_equiv_pos_site_id
 _symmetry_equiv_pos_as_xyz
  1  'x, y, z'
loop_
 _atom_site_type_symbol
 _atom_site_label
 _atom_site_symmetry_multiplicity
 _atom_site_fract_x
 _atom_site_fract_y
 _atom_site_fract_z
 _atom_site_occupancy
  Dy  Dy0  1  0.808315  0.191685  0.750000  1
  Tm  Tm1  1  0.192977  0.807023  0.250000  1
  Tm  Tm2  1  0.384852  0.192581  0.750000  1
  Tm  Tm3  1  0.614105  0.807155  0.250000  1
  Tm  Tm4  1  0.807419  0.615148  0.750000  1
  Tm  Tm5  1  0.192845  0.385895  0.250000  1
  Al  Al6  1  0.666404  0.333596  0.969854  1
  Al  Al7  1  0.333226  0.666774  0.030636  1
  Al  Al8  1  0.333226  0.666774  0.469364  1
  Al  Al9  1  0.666404  0.333596  0.530146  1
  Al  Al10  1  0.837093  0.162907  0.422870  1
  Al  Al11  1  0.162879  0.837121  0.576698  1
  Al  Al12  1  0.325648  0.162808  0.423318  1
  Al  Al13  1  0.162879  0.837121  0.923302  1
  Al  Al14  1  0.674121  0.836703  0.576536  1
  Al  Al15  1  0.837093  0.162907  0.077130  1
  Al  Al16  1  0.837192  0.674352  0.423318  1
  Al  Al17  1  0.674121  0.836703  0.923464  1
  Al  Al18  1  0.163297  0.325879  0.576536  1
  Al  Al19  1  0.325648  0.162808  0.076682  1
  Al  Al20  1  0.163297  0.325879  0.923464  1
  Al  Al21  1  0.837192  0.674352  0.076682  1
  Al  Al22  1  0.438547  0.561453  0.750000  1
  Al  Al23  1  0.561529  0.438471  0.250000  1
  Al  Al24  1  0.123582  0.562261  0.750000  1
  Al  Al25  1  0.877077  0.438475  0.250000  1
  Al  Al26  1  0.437739  0.876418  0.750000  1
  Al  Al27  1  0.561525  0.122923  0.250000  1
  Al  Al28  1  0.000428  0.999572  0.750000  1
  Al  Al29  1  0.000044  0.999956  0.250000  1
  Ru  Ru30  1  0.999969  0.000031  0.000395  1
  Ru  Ru31  1  0.999969  0.000031  0.499605  1
  Rh  Rh32  1  0.499885  0.500115  0.000223  1
  Rh  Rh33  1  0.000202  0.500406  0.000390  1
  Rh  Rh34  1  0.499885  0.500115  0.499777  1
  Rh  Rh35  1  0.499594  0.999798  0.000390  1
  Rh  Rh36  1  0.000202  0.500406  0.499610  1
  Rh  Rh37  1  0.499594  0.999798  0.499610  1
