# generated using pymatgen
data_Sr3C3ICl
_symmetry_space_group_name_H-M   'P 1'
_cell_length_a   7.82508167
_cell_length_b   7.82508172
_cell_length_c   12.08474200
_cell_angle_alpha   90.00000000
_cell_angle_beta   90.00000000
_cell_angle_gamma   148.92153376
_symmetry_Int_Tables_number   1
_chemical_formula_structural   Sr3C3ICl
_chemical_formula_sum   'Sr6 C6 I2 Cl2'
_cell_volume   381.98191353
_cell_formula_units_Z   2
loop_
 _symmetry_equiv_pos_site_id
 _symmetry_equiv_pos_as_xyz
  1  'x, y, z'
loop_
 _atom_site_type_symbol
 _atom_site_label
 _atom_site_symmetry_multiplicity
 _atom_site_fract_x
 _atom_site_fract_y
 _atom_site_fract_z
 _atom_site_occupancy
  Sr  Sr0  1  0.666558  0.333442  0.570283  1
  Sr  Sr1  1  0.333442  0.666558  0.429717  1
  Sr  Sr2  1  0.333442  0.666558  0.070283  1
  Sr  Sr3  1  0.666558  0.333442  0.929717  1
  Sr  Sr4  1  0.115876  0.884124  0.250000  1
  Sr  Sr5  1  0.884124  0.115876  0.750000  1
  C  C6  1  0.272743  0.727257  0.639290  1
  C  C7  1  0.727257  0.272743  0.360710  1
  C  C8  1  0.727257  0.272743  0.139290  1
  C  C9  1  0.272743  0.727257  0.860710  1
  C  C10  1  0.733839  0.266161  0.250000  1
  C  C11  1  0.266161  0.733839  0.750000  1
  I  I12  1  0.000000  0.000000  0.000000  1
  I  I13  1  0.000000  0.000000  0.500000  1
  Cl  Cl14  1  0.531135  0.468865  0.750000  1
  Cl  Cl15  1  0.468865  0.531135  0.250000  1
