# generated using pymatgen
data_TbDy6VO12
_symmetry_space_group_name_H-M   'P 1'
_cell_length_a   6.64351036
_cell_length_b   6.64351124
_cell_length_c   6.64351000
_cell_angle_alpha   93.51394008
_cell_angle_beta   93.51394055
_cell_angle_gamma   93.51394658
_symmetry_Int_Tables_number   1
_chemical_formula_structural   TbDy6VO12
_chemical_formula_sum   'Tb1 Dy6 V1 O12'
_cell_volume   291.49465703
_cell_formula_units_Z   1
loop_
 _symmetry_equiv_pos_site_id
 _symmetry_equiv_pos_as_xyz
  1  'x, y, z'
loop_
 _atom_site_type_symbol
 _atom_site_label
 _atom_site_symmetry_multiplicity
 _atom_site_fract_x
 _atom_site_fract_y
 _atom_site_fract_z
 _atom_site_occupancy
  Tb  Tb0  1  0.000000  0.000000  0.000000  1
  Dy  Dy1  1  0.738088  0.923220  0.434763  1
  Dy  Dy2  1  0.434763  0.738088  0.923220  1
  Dy  Dy3  1  0.076780  0.565237  0.261912  1
  Dy  Dy4  1  0.923220  0.434763  0.738088  1
  Dy  Dy5  1  0.565237  0.261912  0.076780  1
  Dy  Dy6  1  0.261912  0.076780  0.565237  1
  V  V7  1  0.500000  0.500000  0.500000  1
  O  O8  1  0.067734  0.906966  0.320400  1
  O  O9  1  0.679600  0.932266  0.093034  1
  O  O10  1  0.462076  0.800234  0.588851  1
  O  O11  1  0.093034  0.679600  0.932266  1
  O  O12  1  0.800234  0.588851  0.462076  1
  O  O13  1  0.411149  0.537924  0.199766  1
  O  O14  1  0.588851  0.462076  0.800234  1
  O  O15  1  0.199766  0.411149  0.537924  1
  O  O16  1  0.906966  0.320400  0.067734  1
  O  O17  1  0.537924  0.199766  0.411149  1
  O  O18  1  0.320400  0.067734  0.906966  1
  O  O19  1  0.932266  0.093034  0.679600  1
