# generated using pymatgen
data_HoSc5Al16(SiOs)8
_symmetry_space_group_name_H-M   'P 1'
_cell_length_a   8.59365731
_cell_length_b   8.59365626
_cell_length_c   9.32923100
_cell_angle_alpha   90.00000000
_cell_angle_beta   90.00000000
_cell_angle_gamma   120.06423781
_symmetry_Int_Tables_number   1
_chemical_formula_structural   HoSc5Al16(SiOs)8
_chemical_formula_sum   'Ho1 Sc5 Al16 Si8 Os8'
_cell_volume   596.28104475
_cell_formula_units_Z   1
loop_
 _symmetry_equiv_pos_site_id
 _symmetry_equiv_pos_as_xyz
  1  'x, y, z'
loop_
 _atom_site_type_symbol
 _atom_site_label
 _atom_site_symmetry_multiplicity
 _atom_site_fract_x
 _atom_site_fract_y
 _atom_site_fract_z
 _atom_site_occupancy
  Ho  Ho0  1  0.807346  0.192654  0.750000  1
  Sc  Sc1  1  0.193765  0.391621  0.250000  1
  Sc  Sc2  1  0.806452  0.608826  0.750000  1
  Sc  Sc3  1  0.608379  0.806235  0.250000  1
  Sc  Sc4  1  0.391174  0.193548  0.750000  1
  Sc  Sc5  1  0.196803  0.803197  0.250000  1
  Al  Al6  1  0.167027  0.330220  0.576739  1
  Al  Al7  1  0.835150  0.671814  0.419602  1
  Al  Al8  1  0.669780  0.832973  0.576739  1
  Al  Al9  1  0.835150  0.671814  0.080398  1
  Al  Al10  1  0.328186  0.164850  0.419602  1
  Al  Al11  1  0.167027  0.330220  0.923261  1
  Al  Al12  1  0.164172  0.835828  0.576814  1
  Al  Al13  1  0.328186  0.164850  0.080398  1
  Al  Al14  1  0.835258  0.164742  0.416957  1
  Al  Al15  1  0.669780  0.832973  0.923261  1
  Al  Al16  1  0.835258  0.164742  0.083043  1
  Al  Al17  1  0.164172  0.835828  0.923186  1
  Al  Al18  1  0.563446  0.436554  0.250000  1
  Al  Al19  1  0.437673  0.562327  0.750000  1
  Al  Al20  1  0.000371  0.999629  0.250000  1
  Al  Al21  1  0.005094  0.994906  0.750000  1
  Si  Si22  1  0.334598  0.665402  0.049861  1
  Si  Si23  1  0.663588  0.336412  0.954001  1
  Si  Si24  1  0.663588  0.336412  0.545999  1
  Si  Si25  1  0.334598  0.665402  0.450139  1
  Si  Si26  1  0.560493  0.121025  0.250000  1
  Si  Si27  1  0.433294  0.875176  0.750000  1
  Si  Si28  1  0.878975  0.439507  0.250000  1
  Si  Si29  1  0.124824  0.566706  0.750000  1
  Os  Os30  1  0.498669  0.999524  0.000850  1
  Os  Os31  1  0.000476  0.501331  0.000850  1
  Os  Os32  1  0.498669  0.999524  0.499150  1
  Os  Os33  1  0.499783  0.500217  0.000576  1
  Os  Os34  1  0.000476  0.501331  0.499150  1
  Os  Os35  1  0.499783  0.500217  0.499424  1
  Os  Os36  1  0.999268  0.000732  0.999657  1
  Os  Os37  1  0.999268  0.000732  0.500343  1
