# generated using pymatgen
data_NdTm2ThCdIr
_symmetry_space_group_name_H-M   'P 1'
_cell_length_a   9.76766609
_cell_length_b   9.75450906
_cell_length_c   9.75450789
_cell_angle_alpha   60.08925698
_cell_angle_beta   59.95536798
_cell_angle_gamma   59.95537010
_symmetry_Int_Tables_number   1
_chemical_formula_structural   NdTm2ThCdIr
_chemical_formula_sum   'Nd4 Tm8 Th4 Cd4 Ir4'
_cell_volume   657.18098488
_cell_formula_units_Z   4
loop_
 _symmetry_equiv_pos_site_id
 _symmetry_equiv_pos_as_xyz
  1  'x, y, z'
loop_
 _atom_site_type_symbol
 _atom_site_label
 _atom_site_symmetry_multiplicity
 _atom_site_fract_x
 _atom_site_fract_y
 _atom_site_fract_z
 _atom_site_occupancy
  Nd  Nd0  1  0.564635  0.935365  0.564635  1
  Nd  Nd1  1  0.935365  0.564635  0.935365  1
  Nd  Nd2  1  0.564635  0.564635  0.935365  1
  Nd  Nd3  1  0.935365  0.935365  0.564635  1
  Tm  Tm4  1  0.815580  0.184420  0.184420  1
  Tm  Tm5  1  0.184420  0.815580  0.815580  1
  Tm  Tm6  1  0.185600  0.814400  0.185600  1
  Tm  Tm7  1  0.814400  0.185600  0.814400  1
  Tm  Tm8  1  0.185600  0.185600  0.814400  1
  Tm  Tm9  1  0.814400  0.814400  0.185600  1
  Tm  Tm10  1  0.942577  0.557423  0.557423  1
  Tm  Tm11  1  0.557423  0.942577  0.942577  1
  Th  Th12  1  0.351612  0.348989  0.348989  1
  Th  Th13  1  0.348989  0.351612  0.950411  1
  Th  Th14  1  0.348989  0.950411  0.351612  1
  Th  Th15  1  0.950411  0.348989  0.348989  1
  Cd  Cd16  1  0.584542  0.579161  0.579161  1
  Cd  Cd17  1  0.579161  0.584542  0.257133  1
  Cd  Cd18  1  0.579161  0.257133  0.584542  1
  Cd  Cd19  1  0.257133  0.579161  0.579161  1
  Ir  Ir20  1  0.145729  0.141516  0.141516  1
  Ir  Ir21  1  0.141516  0.145729  0.571238  1
  Ir  Ir22  1  0.141516  0.571238  0.145729  1
  Ir  Ir23  1  0.571238  0.141516  0.141516  1
