# generated using pymatgen
data_Dy2YBBr3
_symmetry_space_group_name_H-M   'P 1'
_cell_length_a   9.72907141
_cell_length_b   9.72907042
_cell_length_c   9.72907100
_cell_angle_alpha   109.48506646
_cell_angle_beta   109.48505816
_cell_angle_gamma   109.44354009
_symmetry_Int_Tables_number   1
_chemical_formula_structural   Dy2YBBr3
_chemical_formula_sum   'Dy8 Y4 B4 Br12'
_cell_volume   708.91170649
_cell_formula_units_Z   4
loop_
 _symmetry_equiv_pos_site_id
 _symmetry_equiv_pos_as_xyz
  1  'x, y, z'
loop_
 _atom_site_type_symbol
 _atom_site_label
 _atom_site_symmetry_multiplicity
 _atom_site_fract_x
 _atom_site_fract_y
 _atom_site_fract_z
 _atom_site_occupancy
  Dy  Dy0  1  0.460423  0.480245  0.230187  1
  Dy  Dy1  1  0.750058  0.230236  0.269813  1
  Dy  Dy2  1  0.749942  0.019755  0.480178  1
  Dy  Dy3  1  0.230236  0.460423  0.480178  1
  Dy  Dy4  1  0.269764  0.749942  0.230187  1
  Dy  Dy5  1  0.039577  0.269764  0.019822  1
  Dy  Dy6  1  0.019755  0.039577  0.269813  1
  Dy  Dy7  1  0.480245  0.750058  0.019822  1
  Y  Y8  1  0.480509  0.230509  0.461016  1
  Y  Y9  1  0.019491  0.480509  0.750000  1
  Y  Y10  1  0.269491  0.019491  0.038984  1
  Y  Y11  1  0.230509  0.269491  0.750000  1
  B  B12  1  0.249584  0.250416  0.250000  1
  B  B13  1  0.500416  0.999584  0.250000  1
  B  B14  1  0.999584  0.249584  0.499167  1
  B  B15  1  0.250416  0.500416  0.000833  1
  Br  Br16  1  0.250119  0.758175  0.742205  1
  Br  Br17  1  0.515971  0.507915  0.757795  1
  Br  Br18  1  0.984029  0.741825  0.991945  1
  Br  Br19  1  0.741825  0.249881  0.757795  1
  Br  Br20  1  0.992085  0.984029  0.742205  1
  Br  Br21  1  0.249881  0.992085  0.508055  1
  Br  Br22  1  0.758175  0.515971  0.508055  1
  Br  Br23  1  0.507915  0.250119  0.991945  1
  Br  Br24  1  0.757892  0.742108  0.250000  1
  Br  Br25  1  0.742108  0.992108  0.984214  1
  Br  Br26  1  0.992108  0.507892  0.250000  1
  Br  Br27  1  0.507892  0.757892  0.515786  1
