# generated using pymatgen
data_Y19Ho5Rh14
_symmetry_space_group_name_H-M   'P 1'
_cell_length_a   11.35472200
_cell_length_b   8.41296123
_cell_length_c   11.28387200
_cell_angle_alpha   56.39461678
_cell_angle_beta   89.99865777
_cell_angle_gamma   90.01983139
_symmetry_Int_Tables_number   1
_chemical_formula_structural   Y19Ho5Rh14
_chemical_formula_sum   'Y19 Ho5 Rh14'
_cell_volume   897.76015909
_cell_formula_units_Z   1
loop_
 _symmetry_equiv_pos_site_id
 _symmetry_equiv_pos_as_xyz
  1  'x, y, z'
loop_
 _atom_site_type_symbol
 _atom_site_label
 _atom_site_symmetry_multiplicity
 _atom_site_fract_x
 _atom_site_fract_y
 _atom_site_fract_z
 _atom_site_occupancy
  Y  Y0  1  0.702703  0.236737  0.531987  1
  Y  Y1  1  0.202498  0.762998  0.968130  1
  Y  Y2  1  0.845493  0.506869  0.659159  1
  Y  Y3  1  0.344696  0.492824  0.841088  1
  Y  Y4  1  0.154717  0.493753  0.340023  1
  Y  Y5  1  0.654420  0.506474  0.159391  1
  Y  Y6  1  0.004689  0.850851  0.359576  1
  Y  Y7  1  0.503662  0.149625  0.139879  1
  Y  Y8  1  0.995871  0.150126  0.639540  1
  Y  Y9  1  0.495496  0.849535  0.860549  1
  Y  Y10  1  0.796953  0.236817  0.032061  1
  Y  Y11  1  0.297071  0.763545  0.467323  1
  Y  Y12  1  0.925575  0.777228  0.091555  1
  Y  Y13  1  0.425274  0.222380  0.408623  1
  Y  Y14  1  0.074173  0.222912  0.909154  1
  Y  Y15  1  0.573917  0.777027  0.591683  1
  Y  Y16  1  0.304351  0.245249  0.671014  1
  Y  Y17  1  0.804772  0.754335  0.829250  1
  Y  Y18  1  0.695505  0.754775  0.329038  1
  Ho  Ho19  1  0.195367  0.246205  0.171177  1
  Ho  Ho20  1  0.920911  0.276725  0.292014  1
  Ho  Ho21  1  0.420910  0.722989  0.207920  1
  Ho  Ho22  1  0.079513  0.723882  0.707305  1
  Ho  Ho23  1  0.579227  0.276685  0.792166  1
  Rh  Rh24  1  0.499873  0.499935  0.499951  1
  Rh  Rh25  1  0.001231  0.499206  0.000420  1
  Rh  Rh26  1  0.639127  0.916839  0.049126  1
  Rh  Rh27  1  0.140053  0.083938  0.448802  1
  Rh  Rh28  1  0.361374  0.082612  0.950474  1
  Rh  Rh29  1  0.860714  0.917057  0.549260  1
  Rh  Rh30  1  0.394288  0.487794  0.104055  1
  Rh  Rh31  1  0.896208  0.510975  0.396618  1
  Rh  Rh32  1  0.603614  0.510558  0.897035  1
  Rh  Rh33  1  0.104097  0.489064  0.603352  1
  Rh  Rh34  1  0.821551  0.109185  0.840114  1
  Rh  Rh35  1  0.321194  0.890451  0.660295  1
  Rh  Rh36  1  0.180642  0.892574  0.160869  1
  Rh  Rh37  1  0.678266  0.109263  0.340020  1
