# generated using pymatgen
data_Yb3YEr2(CoSn6)2
_symmetry_space_group_name_H-M   'P 1'
_cell_length_a   8.38440673
_cell_length_b   8.38440675
_cell_length_c   13.24274226
_cell_angle_alpha   90.04759318
_cell_angle_beta   89.95240697
_cell_angle_gamma   147.92472789
_symmetry_Int_Tables_number   1
_chemical_formula_structural   Yb3YEr2(CoSn6)2
_chemical_formula_sum   'Yb3 Y1 Er2 Co2 Sn12'
_cell_volume   494.36064648
_cell_formula_units_Z   1
loop_
 _symmetry_equiv_pos_site_id
 _symmetry_equiv_pos_as_xyz
  1  'x, y, z'
loop_
 _atom_site_type_symbol
 _atom_site_label
 _atom_site_symmetry_multiplicity
 _atom_site_fract_x
 _atom_site_fract_y
 _atom_site_fract_z
 _atom_site_occupancy
  Yb  Yb0  1  0.100217  0.899783  0.597821  1
  Yb  Yb1  1  0.100709  0.899291  0.902708  1
  Yb  Yb2  1  0.900078  0.099922  0.401572  1
  Y  Y3  1  0.898554  0.101446  0.095687  1
  Er  Er4  1  0.901283  0.098717  0.754238  1
  Er  Er5  1  0.098767  0.901233  0.247451  1
  Co  Co6  1  0.298587  0.701413  0.249482  1
  Co  Co7  1  0.703580  0.296420  0.750421  1
  Sn  Sn8  1  0.759221  0.240779  0.572381  1
  Sn  Sn9  1  0.424851  0.575149  0.578672  1
  Sn  Sn10  1  0.573624  0.426376  0.422083  1
  Sn  Sn11  1  0.732351  0.267649  0.248778  1
  Sn  Sn12  1  0.268377  0.731623  0.750294  1
  Sn  Sn13  1  0.241234  0.758766  0.072153  1
  Sn  Sn14  1  0.241855  0.758145  0.427191  1
  Sn  Sn15  1  0.572944  0.427056  0.075314  1
  Sn  Sn16  1  0.455341  0.544659  0.248369  1
  Sn  Sn17  1  0.545120  0.454880  0.750494  1
  Sn  Sn18  1  0.757432  0.242568  0.929427  1
  Sn  Sn19  1  0.425878  0.574122  0.925464  1
