# generated using pymatgen
data_Nd5CuTe4
_symmetry_space_group_name_H-M   'P 1'
_cell_length_a   7.78705360
_cell_length_b   7.78705258
_cell_length_c   10.96509258
_cell_angle_alpha   61.28633469
_cell_angle_beta   61.28634037
_cell_angle_gamma   32.63785489
_symmetry_Int_Tables_number   1
_chemical_formula_structural   Nd5CuTe4
_chemical_formula_sum   'Nd5 Cu1 Te4'
_cell_volume   310.43274546
_cell_formula_units_Z   1
loop_
 _symmetry_equiv_pos_site_id
 _symmetry_equiv_pos_as_xyz
  1  'x, y, z'
loop_
 _atom_site_type_symbol
 _atom_site_label
 _atom_site_symmetry_multiplicity
 _atom_site_fract_x
 _atom_site_fract_y
 _atom_site_fract_z
 _atom_site_occupancy
  Nd  Nd0  1  0.000000  0.000000  0.500000  1
  Nd  Nd1  1  0.585321  0.585321  0.094806  1
  Nd  Nd2  1  0.191141  0.191141  0.720933  1
  Nd  Nd3  1  0.808859  0.808859  0.279067  1
  Nd  Nd4  1  0.414679  0.414679  0.905194  1
  Cu  Cu5  1  0.000000  0.000000  0.000000  1
  Te  Te6  1  0.608842  0.608842  0.589777  1
  Te  Te7  1  0.195260  0.195260  0.191667  1
  Te  Te8  1  0.804740  0.804740  0.808333  1
  Te  Te9  1  0.391158  0.391158  0.410223  1
