# generated using pymatgen
data_La3ClO4
_symmetry_space_group_name_H-M   'P 1'
_cell_length_a   6.58805722
_cell_length_b   6.58805697
_cell_length_c   12.40473200
_cell_angle_alpha   90.00000000
_cell_angle_beta   90.00000000
_cell_angle_gamma   142.36088701
_symmetry_Int_Tables_number   1
_chemical_formula_structural   La3ClO4
_chemical_formula_sum   'La6 Cl2 O8'
_cell_volume   328.79103841
_cell_formula_units_Z   2
loop_
 _symmetry_equiv_pos_site_id
 _symmetry_equiv_pos_as_xyz
  1  'x, y, z'
loop_
 _atom_site_type_symbol
 _atom_site_label
 _atom_site_symmetry_multiplicity
 _atom_site_fract_x
 _atom_site_fract_y
 _atom_site_fract_z
 _atom_site_occupancy
  La  La0  1  0.822857  0.177143  0.399747  1
  La  La1  1  0.177143  0.822857  0.600253  1
  La  La2  1  0.177143  0.822857  0.899747  1
  La  La3  1  0.822857  0.177143  0.100253  1
  La  La4  1  0.879335  0.120665  0.750000  1
  La  La5  1  0.120665  0.879335  0.250000  1
  Cl  Cl6  1  0.500000  0.500000  0.000000  1
  Cl  Cl7  1  0.500000  0.500000  0.500000  1
  O  O8  1  0.299880  0.700120  0.750000  1
  O  O9  1  0.700120  0.299880  0.250000  1
  O  O10  1  0.063533  0.936467  0.750000  1
  O  O11  1  0.936467  0.063533  0.250000  1
  O  O12  1  0.766825  0.233175  0.910582  1
  O  O13  1  0.233175  0.766825  0.089418  1
  O  O14  1  0.233175  0.766825  0.410582  1
  O  O15  1  0.766825  0.233175  0.589418  1
