# generated using pymatgen
data_Er8ReSi16Tc11
_symmetry_space_group_name_H-M   'P 1'
_cell_length_a   6.77917424
_cell_length_b   6.78277961
_cell_length_c   12.63194131
_cell_angle_alpha   89.96674769
_cell_angle_beta   90.35949657
_cell_angle_gamma   90.04539876
_symmetry_Int_Tables_number   1
_chemical_formula_structural   Er8ReSi16Tc11
_chemical_formula_sum   'Er8 Re1 Si16 Tc11'
_cell_volume   580.82572675
_cell_formula_units_Z   1
loop_
 _symmetry_equiv_pos_site_id
 _symmetry_equiv_pos_as_xyz
  1  'x, y, z'
loop_
 _atom_site_type_symbol
 _atom_site_label
 _atom_site_symmetry_multiplicity
 _atom_site_fract_x
 _atom_site_fract_y
 _atom_site_fract_z
 _atom_site_occupancy
  Er  Er0  1  0.339351  0.995024  0.469073  1
  Er  Er1  1  0.503403  0.837136  0.719819  1
  Er  Er2  1  0.494353  0.159365  0.218524  1
  Er  Er3  1  0.836778  0.502695  0.279765  1
  Er  Er4  1  0.160278  0.493881  0.781608  1
  Er  Er5  1  0.661326  0.001718  0.970359  1
  Er  Er6  1  0.996102  0.338855  0.530219  1
  Er  Er7  1  0.004030  0.658804  0.030802  1
  Re  Re8  1  0.018506  0.824310  0.625862  1
  Si  Si9  1  0.195761  0.120129  0.685722  1
  Si  Si10  1  0.384410  0.691900  0.936276  1
  Si  Si11  1  0.616472  0.307880  0.437195  1
  Si  Si12  1  0.691077  0.385641  0.062877  1
  Si  Si13  1  0.305740  0.617965  0.563523  1
  Si  Si14  1  0.807914  0.885638  0.187171  1
  Si  Si15  1  0.116874  0.194292  0.314246  1
  Si  Si16  1  0.883840  0.806148  0.813325  1
  Si  Si17  1  0.267180  0.980793  0.060918  1
  Si  Si18  1  0.521732  0.772336  0.313092  1
  Si  Si19  1  0.477378  0.220432  0.814058  1
  Si  Si20  1  0.780121  0.527023  0.685005  1
  Si  Si21  1  0.228376  0.480349  0.188575  1
  Si  Si22  1  0.718812  0.028072  0.565427  1
  Si  Si23  1  0.980234  0.266734  0.937832  1
  Si  Si24  1  0.025532  0.720059  0.434621  1
  Tc  Tc25  1  0.333119  0.331483  0.999779  1
  Tc  Tc26  1  0.165949  0.833057  0.250100  1
  Tc  Tc27  1  0.834423  0.164802  0.750032  1
  Tc  Tc28  1  0.666356  0.666722  0.500073  1
  Tc  Tc29  1  0.189119  0.973570  0.866895  1
  Tc  Tc30  1  0.520831  0.687151  0.120486  1
  Tc  Tc31  1  0.482235  0.322807  0.623667  1
  Tc  Tc32  1  0.679490  0.517552  0.875015  1
  Tc  Tc33  1  0.314026  0.477220  0.381092  1
  Tc  Tc34  1  0.823097  0.018715  0.375380  1
  Tc  Tc35  1  0.975773  0.189743  0.131584  1
