# generated using pymatgen
data_Sc7TiAl14AsIr3Rh4
_symmetry_space_group_name_H-M   'P 1'
_cell_length_a   8.86630157
_cell_length_b   8.87251315
_cell_length_c   8.86630100
_cell_angle_alpha   120.01543970
_cell_angle_beta   119.86205964
_cell_angle_gamma   90.08603171
_symmetry_Int_Tables_number   1
_chemical_formula_structural   Sc7TiAl14AsIr3Rh4
_chemical_formula_sum   'Sc7 Ti1 Al14 As1 Ir3 Rh4'
_cell_volume   493.73411478
_cell_formula_units_Z   1
loop_
 _symmetry_equiv_pos_site_id
 _symmetry_equiv_pos_as_xyz
  1  'x, y, z'
loop_
 _atom_site_type_symbol
 _atom_site_label
 _atom_site_symmetry_multiplicity
 _atom_site_fract_x
 _atom_site_fract_y
 _atom_site_fract_z
 _atom_site_occupancy
  Sc  Sc0  1  0.795157  0.291393  0.079092  1
  Sc  Sc1  1  0.212300  0.291393  0.496236  1
  Sc  Sc2  1  0.207288  0.707476  0.500188  1
  Sc  Sc3  1  0.215728  0.718672  0.924310  1
  Sc  Sc4  1  0.794364  0.718672  0.502945  1
  Sc  Sc5  1  0.784081  0.281258  0.497177  1
  Sc  Sc6  1  0.380104  0.120523  0.740420  1
  Ti  Ti7  1  0.380644  0.635976  0.255331  1
  Al  Al8  1  0.165099  0.334877  0.169778  1
  Al  Al9  1  0.162644  0.993313  0.830670  1
  Al  Al10  1  0.159623  0.337576  0.826394  1
  Al  Al11  1  0.511180  0.337576  0.177953  1
  Al  Al12  1  0.835213  0.663245  0.828033  1
  Al  Al13  1  0.835527  0.005969  0.170442  1
  Al  Al14  1  0.833685  0.664460  0.167537  1
  Al  Al15  1  0.496924  0.664460  0.830775  1
  Al  Al16  1  0.380455  0.120983  0.260986  1
  Al  Al17  1  0.859998  0.120983  0.740526  1
  Al  Al18  1  0.620343  0.876556  0.256212  1
  Al  Al19  1  0.620816  0.362763  0.741946  1
  Al  Al20  1  0.620095  0.877332  0.740175  1
  Al  Al21  1  0.137157  0.877332  0.257236  1
  As  As22  1  0.995355  0.495859  0.500504  1
  Ir  Ir23  1  0.995242  0.000479  0.500522  1
  Ir  Ir24  1  0.499957  0.000479  0.005237  1
  Ir  Ir25  1  0.498829  0.504446  0.005617  1
  Rh  Rh26  1  0.499453  0.500607  0.499546  1
  Rh  Rh27  1  0.001061  0.500607  0.001153  1
  Rh  Rh28  1  0.000624  0.001287  0.000663  1
  Rh  Rh29  1  0.501048  0.993448  0.492400  1
