# generated using pymatgen
data_Yb2Dy(BiRh)3
_symmetry_space_group_name_H-M   'P 1'
_cell_length_a   7.56739203
_cell_length_b   7.70209567
_cell_length_c   4.07666500
_cell_angle_alpha   90.00000000
_cell_angle_beta   90.00000000
_cell_angle_gamma   120.59059546
_symmetry_Int_Tables_number   1
_chemical_formula_structural   Yb2Dy(BiRh)3
_chemical_formula_sum   'Yb2 Dy1 Bi3 Rh3'
_cell_volume   204.53862196
_cell_formula_units_Z   1
loop_
 _symmetry_equiv_pos_site_id
 _symmetry_equiv_pos_as_xyz
  1  'x, y, z'
loop_
 _atom_site_type_symbol
 _atom_site_label
 _atom_site_symmetry_multiplicity
 _atom_site_fract_x
 _atom_site_fract_y
 _atom_site_fract_z
 _atom_site_occupancy
  Yb  Yb0  1  0.598234  0.998783  0.000000  1
  Yb  Yb1  1  0.401766  0.400549  0.000000  1
  Dy  Dy2  1  0.000000  0.598956  0.000000  1
  Bi  Bi3  1  0.273083  0.006163  0.500000  1
  Bi  Bi4  1  0.726917  0.733080  0.500000  1
  Bi  Bi5  1  0.000000  0.259548  0.500000  1
  Rh  Rh6  1  0.683790  0.349094  0.500000  1
  Rh  Rh7  1  0.000000  0.988522  0.000000  1
  Rh  Rh8  1  0.316210  0.665305  0.500000  1
