# generated using pymatgen
data_LiYBi(P3Pd10)2
_symmetry_space_group_name_H-M   'P 1'
_cell_length_a   8.64364499
_cell_length_b   8.64187993
_cell_length_c   8.64185001
_cell_angle_alpha   60.00022563
_cell_angle_beta   60.01110330
_cell_angle_gamma   60.00837377
_symmetry_Int_Tables_number   1
_chemical_formula_structural   LiYBi(P3Pd10)2
_chemical_formula_sum   'Li1 Y1 Bi1 P6 Pd20'
_cell_volume   456.52180712
_cell_formula_units_Z   1
loop_
 _symmetry_equiv_pos_site_id
 _symmetry_equiv_pos_as_xyz
  1  'x, y, z'
loop_
 _atom_site_type_symbol
 _atom_site_label
 _atom_site_symmetry_multiplicity
 _atom_site_fract_x
 _atom_site_fract_y
 _atom_site_fract_z
 _atom_site_occupancy
  Li  Li0  1  0.999994  0.999998  0.000000  1
  Y  Y1  1  0.250012  0.249994  0.249997  1
  Bi  Bi2  1  0.750005  0.750004  0.750002  1
  P  P3  1  0.739114  0.260876  0.260880  1
  P  P4  1  0.260873  0.739128  0.739127  1
  P  P5  1  0.260878  0.739130  0.260867  1
  P  P6  1  0.739114  0.260869  0.739131  1
  P  P7  1  0.260888  0.260872  0.739122  1
  P  P8  1  0.739107  0.739127  0.260878  1
  Pd  Pd9  1  0.385282  0.385320  0.385299  1
  Pd  Pd10  1  0.615733  0.615806  0.615855  1
  Pd  Pd11  1  0.385289  0.385322  0.844078  1
  Pd  Pd12  1  0.385276  0.844073  0.385320  1
  Pd  Pd13  1  0.615710  0.615817  0.152610  1
  Pd  Pd14  1  0.615776  0.152614  0.615807  1
  Pd  Pd15  1  0.844065  0.385302  0.385318  1
  Pd  Pd16  1  0.152697  0.615809  0.615730  1
  Pd  Pd17  1  0.340757  0.002837  0.002825  1
  Pd  Pd18  1  0.653653  0.002739  0.002769  1
  Pd  Pd19  1  0.002830  0.340745  0.653664  1
  Pd  Pd20  1  0.002808  0.653669  0.340735  1
  Pd  Pd21  1  0.002839  0.340681  0.002791  1
  Pd  Pd22  1  0.653614  0.002754  0.340862  1
  Pd  Pd23  1  0.002807  0.653707  0.002789  1
  Pd  Pd24  1  0.340813  0.002823  0.653562  1
  Pd  Pd25  1  0.002831  0.002800  0.340680  1
  Pd  Pd26  1  0.002822  0.002768  0.653702  1
  Pd  Pd27  1  0.653617  0.340853  0.002771  1
  Pd  Pd28  1  0.340791  0.653565  0.002827  1
