# generated using pymatgen
data_Ta6Be4Co3Ru7
_symmetry_space_group_name_H-M   'P 1'
_cell_length_a   9.22280044
_cell_length_b   9.13623518
_cell_length_c   3.15338100
_cell_angle_alpha   90.00000000
_cell_angle_beta   90.00000000
_cell_angle_gamma   90.26642695
_symmetry_Int_Tables_number   1
_chemical_formula_structural   Ta6Be4Co3Ru7
_chemical_formula_sum   'Ta6 Be4 Co3 Ru7'
_cell_volume   265.70628868
_cell_formula_units_Z   1
loop_
 _symmetry_equiv_pos_site_id
 _symmetry_equiv_pos_as_xyz
  1  'x, y, z'
loop_
 _atom_site_type_symbol
 _atom_site_label
 _atom_site_symmetry_multiplicity
 _atom_site_fract_x
 _atom_site_fract_y
 _atom_site_fract_z
 _atom_site_occupancy
  Ta  Ta0  1  0.825012  0.676930  0.000000  1
  Ta  Ta1  1  0.177121  0.324404  0.000000  1
  Ta  Ta2  1  0.323920  0.825245  0.000000  1
  Ta  Ta3  1  0.674763  0.175123  0.000000  1
  Ta  Ta4  1  0.503737  0.509951  0.000000  1
  Ta  Ta5  1  0.998234  0.999900  0.000000  1
  Be  Be6  1  0.606565  0.875735  0.000000  1
  Be  Be7  1  0.390149  0.111550  0.000000  1
  Be  Be8  1  0.111617  0.610172  0.000000  1
  Be  Be9  1  0.889862  0.389831  0.000000  1
  Co  Co10  1  0.563404  0.718681  0.500000  1
  Co  Co11  1  0.497325  0.992261  0.500000  1
  Co  Co12  1  0.003659  0.498325  0.500000  1
  Ru  Ru13  1  0.439182  0.283522  0.500000  1
  Ru  Ru14  1  0.064574  0.781214  0.500000  1
  Ru  Ru15  1  0.931617  0.218142  0.500000  1
  Ru  Ru16  1  0.285081  0.569302  0.500000  1
  Ru  Ru17  1  0.720274  0.443008  0.500000  1
  Ru  Ru18  1  0.218457  0.066842  0.500000  1
  Ru  Ru19  1  0.775447  0.929860  0.500000  1
