# generated using pymatgen
data_Pr6Co19P13Pt
_symmetry_space_group_name_H-M   'P 1'
_cell_length_a   12.87826600
_cell_length_b   12.87826729
_cell_length_c   3.76434700
_cell_angle_alpha   90.00000000
_cell_angle_beta   90.00000000
_cell_angle_gamma   119.99999669
_symmetry_Int_Tables_number   1
_chemical_formula_structural   Pr6Co19P13Pt
_chemical_formula_sum   'Pr6 Co19 P13 Pt1'
_cell_volume   540.67354741
_cell_formula_units_Z   1
loop_
 _symmetry_equiv_pos_site_id
 _symmetry_equiv_pos_as_xyz
  1  'x, y, z'
loop_
 _atom_site_type_symbol
 _atom_site_label
 _atom_site_symmetry_multiplicity
 _atom_site_fract_x
 _atom_site_fract_y
 _atom_site_fract_z
 _atom_site_occupancy
  Pr  Pr0  1  0.796530  0.947290  0.000000  1
  Pr  Pr1  1  0.052710  0.849241  0.000000  1
  Pr  Pr2  1  0.150759  0.203470  0.000000  1
  Pr  Pr3  1  0.520939  0.136935  0.500000  1
  Pr  Pr4  1  0.863065  0.384004  0.500000  1
  Pr  Pr5  1  0.615996  0.479061  0.500000  1
  Co  Co6  1  0.524789  0.767626  0.000000  1
  Co  Co7  1  0.232374  0.757163  0.000000  1
  Co  Co8  1  0.242837  0.475211  0.000000  1
  Co  Co9  1  0.406755  0.819977  0.500000  1
  Co  Co10  1  0.180023  0.586779  0.500000  1
  Co  Co11  1  0.413221  0.593245  0.500000  1
  Co  Co12  1  0.666667  0.333333  0.000000  1
  Co  Co13  1  0.769665  0.687508  0.000000  1
  Co  Co14  1  0.312492  0.082158  0.000000  1
  Co  Co15  1  0.917842  0.230335  0.000000  1
  Co  Co16  1  0.645462  0.732428  0.500000  1
  Co  Co17  1  0.267572  0.913034  0.500000  1
  Co  Co18  1  0.086966  0.354538  0.500000  1
  Co  Co19  1  0.358333  0.255464  0.500000  1
  Co  Co20  1  0.744536  0.102870  0.500000  1
  Co  Co21  1  0.897130  0.641667  0.500000  1
  Co  Co22  1  0.573811  0.981984  0.000000  1
  Co  Co23  1  0.018016  0.591827  0.000000  1
  Co  Co24  1  0.408173  0.426189  0.000000  1
  P  P25  1  0.842827  0.786485  0.500000  1
  P  P26  1  0.213515  0.056342  0.500000  1
  P  P27  1  0.943658  0.157173  0.500000  1
  P  P28  1  0.602922  0.893716  0.500000  1
  P  P29  1  0.106284  0.709206  0.500000  1
  P  P30  1  0.290794  0.397078  0.500000  1
  P  P31  1  0.465333  0.283320  0.000000  1
  P  P32  1  0.716680  0.182013  0.000000  1
  P  P33  1  0.817987  0.534667  0.000000  1
  P  P34  1  0.379647  0.942588  0.000000  1
  P  P35  1  0.057412  0.437059  0.000000  1
  P  P36  1  0.562941  0.620353  0.000000  1
  P  P37  1  0.333333  0.666667  0.000000  1
  Pt  Pt38  1  0.000000  0.000000  0.500000  1
