# generated using pymatgen
data_Nb3Al2OsN
_symmetry_space_group_name_H-M   'P 1'
_cell_length_a   8.31048104
_cell_length_b   8.31048124
_cell_length_c   8.31048100
_cell_angle_alpha   60.00000493
_cell_angle_beta   60.00000414
_cell_angle_gamma   60.00000585
_symmetry_Int_Tables_number   1
_chemical_formula_structural   Nb3Al2OsN
_chemical_formula_sum   'Nb12 Al8 Os4 N4'
_cell_volume   405.84812940
_cell_formula_units_Z   4
loop_
 _symmetry_equiv_pos_site_id
 _symmetry_equiv_pos_as_xyz
  1  'x, y, z'
loop_
 _atom_site_type_symbol
 _atom_site_label
 _atom_site_symmetry_multiplicity
 _atom_site_fract_x
 _atom_site_fract_y
 _atom_site_fract_z
 _atom_site_occupancy
  Nb  Nb0  1  0.808882  0.808882  0.191118  1
  Nb  Nb1  1  0.191118  0.191118  0.808882  1
  Nb  Nb2  1  0.808882  0.191118  0.808882  1
  Nb  Nb3  1  0.191118  0.808882  0.191118  1
  Nb  Nb4  1  0.191118  0.808882  0.808882  1
  Nb  Nb5  1  0.808882  0.191118  0.191118  1
  Nb  Nb6  1  0.441118  0.441118  0.058882  1
  Nb  Nb7  1  0.058882  0.058882  0.441118  1
  Nb  Nb8  1  0.441118  0.058882  0.441118  1
  Nb  Nb9  1  0.058882  0.441118  0.058882  1
  Nb  Nb10  1  0.058882  0.441118  0.441118  1
  Nb  Nb11  1  0.441118  0.058882  0.058882  1
  Al  Al12  1  0.751551  0.416150  0.416150  1
  Al  Al13  1  0.416150  0.751551  0.416150  1
  Al  Al14  1  0.416150  0.416150  0.751551  1
  Al  Al15  1  0.416150  0.416150  0.416150  1
  Al  Al16  1  0.498449  0.833850  0.833850  1
  Al  Al17  1  0.833850  0.498449  0.833850  1
  Al  Al18  1  0.833850  0.833850  0.498449  1
  Al  Al19  1  0.833850  0.833850  0.833850  1
  Os  Os20  1  0.125000  0.625000  0.625000  1
  Os  Os21  1  0.625000  0.125000  0.625000  1
  Os  Os22  1  0.625000  0.625000  0.125000  1
  Os  Os23  1  0.625000  0.625000  0.625000  1
  N  N24  1  0.625000  0.125000  0.125000  1
  N  N25  1  0.125000  0.625000  0.125000  1
  N  N26  1  0.125000  0.125000  0.625000  1
  N  N27  1  0.125000  0.125000  0.125000  1
