# generated using pymatgen
data_Ho5ErTa2O14
_symmetry_space_group_name_H-M   'P 1'
_cell_length_a   6.34511366
_cell_length_b   6.46417526
_cell_length_c   7.56473033
_cell_angle_alpha   106.74884692
_cell_angle_beta   89.66837752
_cell_angle_gamma   97.49596392
_symmetry_Int_Tables_number   1
_chemical_formula_structural   Ho5ErTa2O14
_chemical_formula_sum   'Ho5 Er1 Ta2 O14'
_cell_volume   294.40724332
_cell_formula_units_Z   1
loop_
 _symmetry_equiv_pos_site_id
 _symmetry_equiv_pos_as_xyz
  1  'x, y, z'
loop_
 _atom_site_type_symbol
 _atom_site_label
 _atom_site_symmetry_multiplicity
 _atom_site_fract_x
 _atom_site_fract_y
 _atom_site_fract_z
 _atom_site_occupancy
  Ho  Ho0  1  0.736765  0.462473  0.114923  1
  Ho  Ho1  1  0.732198  0.453810  0.607682  1
  Ho  Ho2  1  0.545048  0.992390  0.750771  1
  Ho  Ho3  1  0.454571  0.007625  0.249341  1
  Ho  Ho4  1  0.267690  0.546850  0.393262  1
  Er  Er5  1  0.263460  0.537742  0.884837  1
  Ta  Ta6  1  0.000336  0.000147  0.999651  1
  Ta  Ta7  1  0.000147  0.000387  0.500432  1
  O  O8  1  0.707559  0.068844  0.482095  1
  O  O9  1  0.922646  0.678067  0.953719  1
  O  O10  1  0.707215  0.072916  0.051623  1
  O  O11  1  0.927713  0.668109  0.390057  1
  O  O12  1  0.908730  0.949826  0.736696  1
  O  O13  1  0.555880  0.347669  0.834334  1
  O  O14  1  0.540700  0.361788  0.341620  1
  O  O15  1  0.458613  0.638356  0.659304  1
  O  O16  1  0.442256  0.652059  0.165068  1
  O  O17  1  0.090812  0.050566  0.263227  1
  O  O18  1  0.072860  0.331925  0.611331  1
  O  O19  1  0.293350  0.926563  0.948586  1
  O  O20  1  0.078680  0.320699  0.043503  1
  O  O21  1  0.292774  0.931189  0.517936  1
