# generated using pymatgen
data_PrPa3(InRh2)2
_symmetry_space_group_name_H-M   'P 1'
_cell_length_a   7.78459570
_cell_length_b   7.78459617
_cell_length_c   3.63972600
_cell_angle_alpha   90.00000000
_cell_angle_beta   90.00000000
_cell_angle_gamma   92.56332551
_symmetry_Int_Tables_number   1
_chemical_formula_structural   PrPa3(InRh2)2
_chemical_formula_sum   'Pr1 Pa3 In2 Rh4'
_cell_volume   220.34645575
_cell_formula_units_Z   1
loop_
 _symmetry_equiv_pos_site_id
 _symmetry_equiv_pos_as_xyz
  1  'x, y, z'
loop_
 _atom_site_type_symbol
 _atom_site_label
 _atom_site_symmetry_multiplicity
 _atom_site_fract_x
 _atom_site_fract_y
 _atom_site_fract_z
 _atom_site_occupancy
  Pr  Pr0  1  0.828429  0.671571  0.500000  1
  Pa  Pa1  1  0.671269  0.168992  0.500000  1
  Pa  Pa2  1  0.331008  0.828731  0.500000  1
  Pa  Pa3  1  0.170387  0.329613  0.500000  1
  In  In4  1  0.003195  0.995661  0.000000  1
  In  In5  1  0.504339  0.496805  0.000000  1
  Rh  Rh6  1  0.155916  0.627539  0.000000  1
  Rh  Rh7  1  0.872461  0.344084  0.000000  1
  Rh  Rh8  1  0.608428  0.891572  0.000000  1
  Rh  Rh9  1  0.354567  0.145433  0.000000  1
