# generated using pymatgen
data_Y3Ho17Cd3Ag3Ru2
_symmetry_space_group_name_H-M   'P 1'
_cell_length_a   9.57662200
_cell_length_b   9.57662206
_cell_length_c   9.63299400
_cell_angle_alpha   90.00000000
_cell_angle_beta   90.00000000
_cell_angle_gamma   119.99999980
_symmetry_Int_Tables_number   1
_chemical_formula_structural   Y3Ho17Cd3Ag3Ru2
_chemical_formula_sum   'Y3 Ho17 Cd3 Ag3 Ru2'
_cell_volume   765.09720644
_cell_formula_units_Z   1
loop_
 _symmetry_equiv_pos_site_id
 _symmetry_equiv_pos_as_xyz
  1  'x, y, z'
loop_
 _atom_site_type_symbol
 _atom_site_label
 _atom_site_symmetry_multiplicity
 _atom_site_fract_x
 _atom_site_fract_y
 _atom_site_fract_z
 _atom_site_occupancy
  Y  Y0  1  0.458982  0.541018  0.750000  1
  Y  Y1  1  0.458982  0.917964  0.750000  1
  Y  Y2  1  0.082036  0.541018  0.750000  1
  Ho  Ho3  1  0.000000  0.000000  0.477836  1
  Ho  Ho4  1  0.000000  0.000000  0.022164  1
  Ho  Ho5  1  0.210395  0.789605  0.440574  1
  Ho  Ho6  1  0.210395  0.420792  0.440574  1
  Ho  Ho7  1  0.579208  0.789605  0.440574  1
  Ho  Ho8  1  0.790686  0.209314  0.559632  1
  Ho  Ho9  1  0.790686  0.581373  0.559632  1
  Ho  Ho10  1  0.418627  0.209314  0.559632  1
  Ho  Ho11  1  0.790686  0.209314  0.940368  1
  Ho  Ho12  1  0.790686  0.581373  0.940368  1
  Ho  Ho13  1  0.418627  0.209314  0.940368  1
  Ho  Ho14  1  0.210395  0.789605  0.059426  1
  Ho  Ho15  1  0.210395  0.420792  0.059426  1
  Ho  Ho16  1  0.579208  0.789605  0.059426  1
  Ho  Ho17  1  0.540819  0.459181  0.250000  1
  Ho  Ho18  1  0.540819  0.081638  0.250000  1
  Ho  Ho19  1  0.918362  0.459181  0.250000  1
  Cd  Cd20  1  0.111239  0.888761  0.750000  1
  Cd  Cd21  1  0.111239  0.222478  0.750000  1
  Cd  Cd22  1  0.777522  0.888761  0.750000  1
  Ag  Ag23  1  0.876578  0.123422  0.250000  1
  Ag  Ag24  1  0.876578  0.753158  0.250000  1
  Ag  Ag25  1  0.246842  0.123422  0.250000  1
  Ru  Ru26  1  0.333333  0.666667  0.250000  1
  Ru  Ru27  1  0.666667  0.333333  0.750000  1
