# generated using pymatgen
data_Tb7TmSc12(Ga7Si)2
_symmetry_space_group_name_H-M   'P 1'
_cell_length_a   7.27393986
_cell_length_b   7.49183070
_cell_length_c   14.50086925
_cell_angle_alpha   89.97982968
_cell_angle_beta   90.00734614
_cell_angle_gamma   90.26741519
_symmetry_Int_Tables_number   1
_chemical_formula_structural   Tb7TmSc12(Ga7Si)2
_chemical_formula_sum   'Tb7 Tm1 Sc12 Ga14 Si2'
_cell_volume   790.21803425
_cell_formula_units_Z   1
loop_
 _symmetry_equiv_pos_site_id
 _symmetry_equiv_pos_as_xyz
  1  'x, y, z'
loop_
 _atom_site_type_symbol
 _atom_site_label
 _atom_site_symmetry_multiplicity
 _atom_site_fract_x
 _atom_site_fract_y
 _atom_site_fract_z
 _atom_site_occupancy
  Tb  Tb0  1  0.012757  0.178411  0.096565  1
  Tb  Tb1  1  0.987323  0.821394  0.903294  1
  Tb  Tb2  1  0.489499  0.677702  0.904487  1
  Tb  Tb3  1  0.987292  0.821127  0.596534  1
  Tb  Tb4  1  0.510467  0.322293  0.095678  1
  Tb  Tb5  1  0.013014  0.178312  0.403593  1
  Tb  Tb6  1  0.510544  0.322464  0.404710  1
  Tm  Tm7  1  0.489563  0.678591  0.595907  1
  Sc  Sc8  1  0.160808  0.503401  0.749703  1
  Sc  Sc9  1  0.839430  0.497053  0.250057  1
  Sc  Sc10  1  0.336980  0.005206  0.249990  1
  Sc  Sc11  1  0.662952  0.994133  0.749739  1
  Sc  Sc12  1  0.331700  0.174123  0.623015  1
  Sc  Sc13  1  0.668325  0.825922  0.377241  1
  Sc  Sc14  1  0.170751  0.670883  0.376146  1
  Sc  Sc15  1  0.668546  0.826154  0.122975  1
  Sc  Sc16  1  0.828786  0.329349  0.623884  1
  Sc  Sc17  1  0.331528  0.173903  0.876810  1
  Sc  Sc18  1  0.829178  0.329352  0.875753  1
  Sc  Sc19  1  0.170544  0.670806  0.123980  1
  Ga  Ga20  1  0.032801  0.118426  0.749944  1
  Ga  Ga21  1  0.967258  0.881322  0.250019  1
  Ga  Ga22  1  0.467237  0.613139  0.250058  1
  Ga  Ga23  1  0.532677  0.387494  0.749674  1
  Ga  Ga24  1  0.286061  0.871848  0.749626  1
  Ga  Ga25  1  0.714446  0.127681  0.250024  1
  Ga  Ga26  1  0.159959  0.465600  0.540736  1
  Ga  Ga27  1  0.840713  0.535077  0.459629  1
  Ga  Ga28  1  0.339233  0.963862  0.459663  1
  Ga  Ga29  1  0.841022  0.535088  0.040514  1
  Ga  Ga30  1  0.660585  0.034517  0.540930  1
  Ga  Ga31  1  0.158862  0.464941  0.959507  1
  Ga  Ga32  1  0.661028  0.035769  0.959299  1
  Ga  Ga33  1  0.338941  0.964351  0.040606  1
  Si  Si34  1  0.214995  0.374897  0.250124  1
  Si  Si35  1  0.784194  0.625409  0.749590  1
