# generated using pymatgen
data_TaTi5Si2(Ge2Os3)2
_symmetry_space_group_name_H-M   'P 1'
_cell_length_a   6.63593577
_cell_length_b   7.11008438
_cell_length_c   7.49446301
_cell_angle_alpha   118.31743137
_cell_angle_beta   116.20648761
_cell_angle_gamma   89.99999763
_symmetry_Int_Tables_number   1
_chemical_formula_structural   TaTi5Si2(Ge2Os3)2
_chemical_formula_sum   'Ta1 Ti5 Si2 Ge4 Os6'
_cell_volume   269.28980858
_cell_formula_units_Z   1
loop_
 _symmetry_equiv_pos_site_id
 _symmetry_equiv_pos_as_xyz
  1  'x, y, z'
loop_
 _atom_site_type_symbol
 _atom_site_label
 _atom_site_symmetry_multiplicity
 _atom_site_fract_x
 _atom_site_fract_y
 _atom_site_fract_z
 _atom_site_occupancy
  Ta  Ta0  1  0.244166  0.469971  0.439943  1
  Ti  Ti1  1  0.803664  0.528748  0.557496  1
  Ti  Ti2  1  0.653813  0.745389  0.990777  1
  Ti  Ti3  1  0.662713  0.253746  0.007493  1
  Ti  Ti4  1  0.852980  0.056292  0.612585  1
  Ti  Ti5  1  0.239079  0.944122  0.388243  1
  Si  Si6  1  0.288845  0.280845  0.061693  1
  Si  Si7  1  0.224673  0.718119  0.936236  1
  Ge  Ge8  1  0.582100  0.842972  0.668274  1
  Ge  Ge9  1  0.909174  0.157430  0.332727  1
  Ge  Ge10  1  0.909174  0.675298  0.332727  1
  Ge  Ge11  1  0.582100  0.325302  0.668274  1
  Os  Os12  1  0.002749  0.000092  0.001580  1
  Os  Os13  1  0.002749  0.501488  0.001580  1
  Os  Os14  1  0.493951  0.661166  0.248837  1
  Os  Os15  1  0.247260  0.339526  0.751349  1
  Os  Os16  1  0.247260  0.911822  0.751349  1
  Os  Os17  1  0.493951  0.087672  0.248837  1
