# generated using pymatgen
data_DyY19(Ir3Rh)3
_symmetry_space_group_name_H-M   'P 1'
_cell_length_a   10.92524100
_cell_length_b   10.92584200
_cell_length_c   6.40992200
_cell_angle_alpha   90.00000000
_cell_angle_beta   90.00000000
_cell_angle_gamma   90.00059784
_symmetry_Int_Tables_number   1
_chemical_formula_structural   DyY19(Ir3Rh)3
_chemical_formula_sum   'Dy1 Y19 Ir9 Rh3'
_cell_volume   765.13608855
_cell_formula_units_Z   1
loop_
 _symmetry_equiv_pos_site_id
 _symmetry_equiv_pos_as_xyz
  1  'x, y, z'
loop_
 _atom_site_type_symbol
 _atom_site_label
 _atom_site_symmetry_multiplicity
 _atom_site_fract_x
 _atom_site_fract_y
 _atom_site_fract_z
 _atom_site_occupancy
  Dy  Dy0  1  0.500000  0.500000  0.500280  1
  Y  Y1  1  0.290527  0.088748  0.379842  1
  Y  Y2  1  0.290398  0.910748  0.879614  1
  Y  Y3  1  0.709602  0.089252  0.879614  1
  Y  Y4  1  0.709473  0.911252  0.379842  1
  Y  Y5  1  0.589243  0.790415  0.879631  1
  Y  Y6  1  0.588720  0.209506  0.379835  1
  Y  Y7  1  0.411280  0.790494  0.379835  1
  Y  Y8  1  0.410757  0.209585  0.879631  1
  Y  Y9  1  0.208764  0.411256  0.619130  1
  Y  Y10  1  0.209124  0.589130  0.121532  1
  Y  Y11  1  0.790876  0.410870  0.121532  1
  Y  Y12  1  0.791236  0.588744  0.619130  1
  Y  Y13  1  0.910856  0.709144  0.121571  1
  Y  Y14  1  0.911224  0.291261  0.619125  1
  Y  Y15  1  0.088776  0.708739  0.619125  1
  Y  Y16  1  0.089144  0.290856  0.121571  1
  Y  Y17  1  0.000000  0.000000  0.500281  1
  Y  Y18  1  0.000000  0.000000  0.000045  1
  Y  Y19  1  0.500000  0.500000  0.000035  1
  Ir  Ir20  1  0.845530  0.153252  0.249836  1
  Ir  Ir21  1  0.845767  0.846328  0.749846  1
  Ir  Ir22  1  0.154233  0.153672  0.749846  1
  Ir  Ir23  1  0.154470  0.846748  0.249836  1
  Ir  Ir24  1  0.653443  0.346031  0.749382  1
  Ir  Ir25  1  0.652998  0.654233  0.250307  1
  Ir  Ir26  1  0.347002  0.345767  0.250307  1
  Ir  Ir27  1  0.346557  0.653969  0.749382  1
  Ir  Ir28  1  0.000000  0.500000  0.374704  1
  Rh  Rh29  1  0.500000  0.000000  0.124681  1
  Rh  Rh30  1  0.500000  0.000000  0.624979  1
  Rh  Rh31  1  0.000000  0.500000  0.875692  1
