# generated using pymatgen
data_Lu12Ta(Si4Ir)3
_symmetry_space_group_name_H-M   'P 1'
_cell_length_a   4.14053300
_cell_length_b   10.64338480
_cell_length_c   12.13906670
_cell_angle_alpha   90.27680393
_cell_angle_beta   90.00000000
_cell_angle_gamma   90.00000000
_symmetry_Int_Tables_number   1
_chemical_formula_structural   Lu12Ta(Si4Ir)3
_chemical_formula_sum   'Lu12 Ta1 Si12 Ir3'
_cell_volume   534.95375936
_cell_formula_units_Z   1
loop_
 _symmetry_equiv_pos_site_id
 _symmetry_equiv_pos_as_xyz
  1  'x, y, z'
loop_
 _atom_site_type_symbol
 _atom_site_label
 _atom_site_symmetry_multiplicity
 _atom_site_fract_x
 _atom_site_fract_y
 _atom_site_fract_z
 _atom_site_occupancy
  Lu  Lu0  1  0.250000  0.877557  0.021019  1
  Lu  Lu1  1  0.250000  0.624727  0.518825  1
  Lu  Lu2  1  0.750000  0.116850  0.983351  1
  Lu  Lu3  1  0.750000  0.378737  0.477537  1
  Lu  Lu4  1  0.250000  0.922785  0.601243  1
  Lu  Lu5  1  0.250000  0.578850  0.103991  1
  Lu  Lu6  1  0.750000  0.078313  0.392717  1
  Lu  Lu7  1  0.750000  0.420252  0.896240  1
  Lu  Lu8  1  0.250000  0.669173  0.800036  1
  Lu  Lu9  1  0.250000  0.839474  0.299585  1
  Lu  Lu10  1  0.750000  0.341522  0.199553  1
  Lu  Lu11  1  0.750000  0.154801  0.700494  1
  Ta  Ta12  1  0.250000  0.386822  0.680421  1
  Si  Si13  1  0.250000  0.009649  0.822284  1
  Si  Si14  1  0.250000  0.486988  0.321800  1
  Si  Si15  1  0.750000  0.984589  0.178315  1
  Si  Si16  1  0.750000  0.529399  0.677919  1
  Si  Si17  1  0.250000  0.241889  0.849399  1
  Si  Si18  1  0.250000  0.251209  0.340225  1
  Si  Si19  1  0.750000  0.751729  0.158783  1
  Si  Si20  1  0.750000  0.757447  0.657098  1
  Si  Si21  1  0.250000  0.191635  0.538397  1
  Si  Si22  1  0.250000  0.297685  0.045658  1
  Si  Si23  1  0.750000  0.803018  0.454354  1
  Si  Si24  1  0.750000  0.697254  0.957888  1
  Ir  Ir25  1  0.250000  0.108010  0.179778  1
  Ir  Ir26  1  0.750000  0.610752  0.319275  1
  Ir  Ir27  1  0.750000  0.888886  0.823815  1
