# generated using pymatgen
data_Dy3Ho5Ti11Si16Ru
_symmetry_space_group_name_H-M   'P 1'
_cell_length_a   7.02985704
_cell_length_b   7.02975208
_cell_length_c   12.87425915
_cell_angle_alpha   89.96556289
_cell_angle_beta   90.01936061
_cell_angle_gamma   89.88655492
_symmetry_Int_Tables_number   1
_chemical_formula_structural   Dy3Ho5Ti11Si16Ru
_chemical_formula_sum   'Dy3 Ho5 Ti11 Si16 Ru1'
_cell_volume   636.22069862
_cell_formula_units_Z   1
loop_
 _symmetry_equiv_pos_site_id
 _symmetry_equiv_pos_as_xyz
  1  'x, y, z'
loop_
 _atom_site_type_symbol
 _atom_site_label
 _atom_site_symmetry_multiplicity
 _atom_site_fract_x
 _atom_site_fract_y
 _atom_site_fract_z
 _atom_site_occupancy
  Dy  Dy0  1  0.503257  0.159283  0.217910  1
  Dy  Dy1  1  0.499500  0.840453  0.715057  1
  Dy  Dy2  1  0.341538  0.001729  0.468315  1
  Ho  Ho3  1  0.996303  0.659276  0.032772  1
  Ho  Ho4  1  0.001395  0.341838  0.531657  1
  Ho  Ho5  1  0.659343  0.996268  0.967361  1
  Ho  Ho6  1  0.159019  0.502893  0.782106  1
  Ho  Ho7  1  0.840807  0.499915  0.285076  1
  Ti  Ti8  1  0.344183  0.507119  0.374588  1
  Ti  Ti9  1  0.849277  0.996033  0.375837  1
  Ti  Ti10  1  0.006178  0.151855  0.124602  1
  Ti  Ti11  1  0.996086  0.849213  0.624185  1
  Ti  Ti12  1  0.507122  0.344275  0.625450  1
  Ti  Ti13  1  0.151760  0.006237  0.875406  1
  Ti  Ti14  1  0.825143  0.172681  0.748641  1
  Ti  Ti15  1  0.172416  0.824917  0.251331  1
  Ti  Ti16  1  0.326182  0.326287  0.999950  1
  Ti  Ti17  1  0.492982  0.651320  0.127853  1
  Ti  Ti18  1  0.651303  0.493013  0.872175  1
  Si  Si19  1  0.046338  0.712307  0.435437  1
  Si  Si20  1  0.952312  0.291733  0.934421  1
  Si  Si21  1  0.713060  0.046884  0.564470  1
  Si  Si22  1  0.207429  0.453379  0.184279  1
  Si  Si23  1  0.790907  0.549638  0.681974  1
  Si  Si24  1  0.453067  0.207973  0.815843  1
  Si  Si25  1  0.550136  0.790111  0.317938  1
  Si  Si26  1  0.291516  0.952078  0.065477  1
  Si  Si27  1  0.797644  0.868053  0.185122  1
  Si  Si28  1  0.300078  0.626380  0.565743  1
  Si  Si29  1  0.703558  0.369330  0.065387  1
  Si  Si30  1  0.627177  0.300664  0.434238  1
  Si  Si31  1  0.369112  0.703287  0.934514  1
  Si  Si32  1  0.130630  0.203691  0.315963  1
  Si  Si33  1  0.203190  0.131422  0.684040  1
  Si  Si34  1  0.868631  0.797341  0.814994  1
  Ru  Ru35  1  0.671422  0.671126  0.499891  1
