# generated using pymatgen
data_Ca2Yb2Ga15(SiIr2)3
_symmetry_space_group_name_H-M   'P 1'
_cell_length_a   7.54603085
_cell_length_b   7.46258835
_cell_length_c   9.64011116
_cell_angle_alpha   89.93236748
_cell_angle_beta   89.98954563
_cell_angle_gamma   119.71316256
_symmetry_Int_Tables_number   1
_chemical_formula_structural   Ca2Yb2Ga15(SiIr2)3
_chemical_formula_sum   'Ca2 Yb2 Ga15 Si3 Ir6'
_cell_volume   471.48544457
_cell_formula_units_Z   1
loop_
 _symmetry_equiv_pos_site_id
 _symmetry_equiv_pos_as_xyz
  1  'x, y, z'
loop_
 _atom_site_type_symbol
 _atom_site_label
 _atom_site_symmetry_multiplicity
 _atom_site_fract_x
 _atom_site_fract_y
 _atom_site_fract_z
 _atom_site_occupancy
  Ca  Ca0  1  0.996416  0.666547  0.248155  1
  Ca  Ca1  1  0.004376  0.337892  0.750086  1
  Yb  Yb2  1  0.672251  0.003345  0.247983  1
  Yb  Yb3  1  0.325205  0.993225  0.750106  1
  Ga  Ga4  1  0.127461  0.128347  0.250208  1
  Ga  Ga5  1  0.872718  0.868326  0.751260  1
  Ga  Ga6  1  0.341366  0.005609  0.421571  1
  Ga  Ga7  1  0.999737  0.327114  0.423142  1
  Ga  Ga8  1  0.665624  0.001225  0.578624  1
  Ga  Ga9  1  0.661702  0.997785  0.919602  1
  Ga  Ga10  1  0.339800  0.004377  0.078917  1
  Ga  Ga11  1  0.333630  0.329060  0.566956  1
  Ga  Ga12  1  0.659586  0.669666  0.434434  1
  Ga  Ga13  1  0.659513  0.669394  0.067197  1
  Ga  Ga14  1  0.338354  0.329524  0.932085  1
  Ga  Ga15  1  0.336179  0.547190  0.250488  1
  Ga  Ga16  1  0.663441  0.455147  0.752408  1
  Ga  Ga17  1  0.547684  0.338717  0.250472  1
  Ga  Ga18  1  0.453817  0.663391  0.751295  1
  Si  Si19  1  0.002324  0.329112  0.068171  1
  Si  Si20  1  0.997433  0.670370  0.933091  1
  Si  Si21  1  0.999487  0.665632  0.564749  1
  Ir  Ir22  1  0.696542  0.343657  0.003679  1
  Ir  Ir23  1  0.303232  0.656306  0.997416  1
  Ir  Ir24  1  0.315799  0.668401  0.504368  1
  Ir  Ir25  1  0.685514  0.344644  0.501779  1
  Ir  Ir26  1  0.999891  0.999734  0.000174  1
  Ir  Ir27  1  0.000919  0.986263  0.501586  1
