# generated using pymatgen
data_Tm4Si4Ru3Rh
_symmetry_space_group_name_H-M   'P 1'
_cell_length_a   4.28433900
_cell_length_b   6.90090613
_cell_length_c   7.14450715
_cell_angle_alpha   89.86134116
_cell_angle_beta   90.00000000
_cell_angle_gamma   90.00000000
_symmetry_Int_Tables_number   1
_chemical_formula_structural   Tm4Si4Ru3Rh
_chemical_formula_sum   'Tm4 Si4 Ru3 Rh1'
_cell_volume   211.23260289
_cell_formula_units_Z   1
loop_
 _symmetry_equiv_pos_site_id
 _symmetry_equiv_pos_as_xyz
  1  'x, y, z'
loop_
 _atom_site_type_symbol
 _atom_site_label
 _atom_site_symmetry_multiplicity
 _atom_site_fract_x
 _atom_site_fract_y
 _atom_site_fract_z
 _atom_site_occupancy
  Tm  Tm0  1  0.250000  0.988324  0.812777  1
  Tm  Tm1  1  0.750000  0.012909  0.187927  1
  Tm  Tm2  1  0.250000  0.488820  0.688032  1
  Tm  Tm3  1  0.750000  0.508313  0.311492  1
  Si  Si4  1  0.250000  0.301033  0.106841  1
  Si  Si5  1  0.750000  0.699396  0.897086  1
  Si  Si6  1  0.250000  0.800974  0.387221  1
  Si  Si7  1  0.750000  0.201143  0.607380  1
  Ru  Ru8  1  0.250000  0.153289  0.435833  1
  Ru  Ru9  1  0.750000  0.345199  0.933992  1
  Ru  Ru10  1  0.250000  0.655401  0.065316  1
  Rh  Rh11  1  0.750000  0.845198  0.566102  1
