# generated using pymatgen
data_Rb2NaRh3F12
_symmetry_space_group_name_H-M   'P 1'
_cell_length_a   7.45067900
_cell_length_b   7.52361581
_cell_length_c   10.49233174
_cell_angle_alpha   89.27202834
_cell_angle_beta   90.00000000
_cell_angle_gamma   90.00000000
_symmetry_Int_Tables_number   1
_chemical_formula_structural   Rb2NaRh3F12
_chemical_formula_sum   'Rb4 Na2 Rh6 F24'
_cell_volume   588.11116115
_cell_formula_units_Z   2
loop_
 _symmetry_equiv_pos_site_id
 _symmetry_equiv_pos_as_xyz
  1  'x, y, z'
loop_
 _atom_site_type_symbol
 _atom_site_label
 _atom_site_symmetry_multiplicity
 _atom_site_fract_x
 _atom_site_fract_y
 _atom_site_fract_z
 _atom_site_occupancy
  Rb  Rb0  1  0.750000  0.993380  0.109948  1
  Rb  Rb1  1  0.250000  0.006620  0.890052  1
  Rb  Rb2  1  0.250000  0.468786  0.633373  1
  Rb  Rb3  1  0.750000  0.531214  0.366627  1
  Na  Na4  1  0.750000  0.218293  0.754933  1
  Na  Na5  1  0.250000  0.781707  0.245067  1
  Rh  Rh6  1  0.500000  0.000000  0.500000  1
  Rh  Rh7  1  0.000000  0.000000  0.500000  1
  Rh  Rh8  1  0.000000  0.500000  0.000000  1
  Rh  Rh9  1  0.500000  0.500000  0.000000  1
  Rh  Rh10  1  0.750000  0.708996  0.727756  1
  Rh  Rh11  1  0.250000  0.291004  0.272244  1
  F  F12  1  0.750000  0.102339  0.494120  1
  F  F13  1  0.250000  0.897661  0.505880  1
  F  F14  1  0.750000  0.480046  0.632734  1
  F  F15  1  0.250000  0.519954  0.367266  1
  F  F16  1  0.250000  0.473724  0.928057  1
  F  F17  1  0.750000  0.526276  0.071943  1
  F  F18  1  0.250000  0.068908  0.171041  1
  F  F19  1  0.750000  0.931092  0.828959  1
  F  F20  1  0.965157  0.848577  0.346443  1
  F  F21  1  0.465157  0.151423  0.653557  1
  F  F22  1  0.034843  0.151423  0.653557  1
  F  F23  1  0.534843  0.848577  0.346443  1
  F  F24  1  0.952175  0.783932  0.610976  1
  F  F25  1  0.452175  0.216068  0.389024  1
  F  F26  1  0.047825  0.216068  0.389024  1
  F  F27  1  0.547825  0.783932  0.610976  1
  F  F28  1  0.046047  0.739928  0.072975  1
  F  F29  1  0.546047  0.260072  0.927025  1
  F  F30  1  0.953953  0.260072  0.927025  1
  F  F31  1  0.453953  0.739928  0.072975  1
  F  F32  1  0.461820  0.381327  0.170695  1
  F  F33  1  0.961820  0.618673  0.829305  1
  F  F34  1  0.538180  0.618673  0.829305  1
  F  F35  1  0.038180  0.381327  0.170695  1
