# generated using pymatgen
data_Y3MnVC6
_symmetry_space_group_name_H-M   'P 1'
_cell_length_a   8.18059100
_cell_length_b   8.18059071
_cell_length_c   4.97517900
_cell_angle_alpha   90.00000000
_cell_angle_beta   90.00000000
_cell_angle_gamma   120.00000522
_symmetry_Int_Tables_number   1
_chemical_formula_structural   Y3MnVC6
_chemical_formula_sum   'Y6 Mn2 V2 C12'
_cell_volume   288.34250308
_cell_formula_units_Z   2
loop_
 _symmetry_equiv_pos_site_id
 _symmetry_equiv_pos_as_xyz
  1  'x, y, z'
loop_
 _atom_site_type_symbol
 _atom_site_label
 _atom_site_symmetry_multiplicity
 _atom_site_fract_x
 _atom_site_fract_y
 _atom_site_fract_z
 _atom_site_occupancy
  Y  Y0  1  0.621002  0.682102  0.750000  1
  Y  Y1  1  0.938899  0.621002  0.250000  1
  Y  Y2  1  0.682102  0.061101  0.250000  1
  Y  Y3  1  0.317898  0.938899  0.750000  1
  Y  Y4  1  0.061101  0.378998  0.750000  1
  Y  Y5  1  0.378998  0.317898  0.250000  1
  Mn  Mn6  1  0.666667  0.333333  0.750000  1
  Mn  Mn7  1  0.333333  0.666667  0.250000  1
  V  V8  1  0.000000  0.000000  0.500000  1
  V  V9  1  0.000000  0.000000  0.000000  1
  C  C10  1  0.961544  0.766592  0.750000  1
  C  C11  1  0.194952  0.961544  0.250000  1
  C  C12  1  0.766592  0.805048  0.250000  1
  C  C13  1  0.233408  0.194952  0.750000  1
  C  C14  1  0.805048  0.038456  0.750000  1
  C  C15  1  0.038456  0.233408  0.250000  1
  C  C16  1  0.863848  0.573246  0.750000  1
  C  C17  1  0.290602  0.863848  0.250000  1
  C  C18  1  0.573246  0.709398  0.250000  1
  C  C19  1  0.426754  0.290602  0.750000  1
  C  C20  1  0.136152  0.426754  0.250000  1
  C  C21  1  0.709398  0.136152  0.750000  1
