# generated using pymatgen
data_Tb3YP3S
_symmetry_space_group_name_H-M   'P 1'
_cell_length_a   6.93891418
_cell_length_b   6.93891324
_cell_length_c   6.93308247
_cell_angle_alpha   80.26781026
_cell_angle_beta   80.26781149
_cell_angle_gamma   33.58677003
_symmetry_Int_Tables_number   1
_chemical_formula_structural   Tb3YP3S
_chemical_formula_sum   'Tb3 Y1 P3 S1'
_cell_volume   181.76608004
_cell_formula_units_Z   1
loop_
 _symmetry_equiv_pos_site_id
 _symmetry_equiv_pos_as_xyz
  1  'x, y, z'
loop_
 _atom_site_type_symbol
 _atom_site_label
 _atom_site_symmetry_multiplicity
 _atom_site_fract_x
 _atom_site_fract_y
 _atom_site_fract_z
 _atom_site_occupancy
  Tb  Tb0  1  0.248987  0.248987  0.253801  1
  Tb  Tb1  1  0.500558  0.500558  0.496140  1
  Tb  Tb2  1  0.747386  0.747386  0.746424  1
  Y  Y3  1  0.003145  0.003145  0.003646  1
  P  P4  1  0.625334  0.625334  0.122398  1
  P  P5  1  0.874930  0.874930  0.374368  1
  P  P6  1  0.124366  0.124366  0.627805  1
  S  S7  1  0.375294  0.375294  0.875418  1
