# generated using pymatgen
data_Ho2Tm4Al19Si5Os8
_symmetry_space_group_name_H-M   'P 1'
_cell_length_a   8.67748600
_cell_length_b   8.66366794
_cell_length_c   9.55794500
_cell_angle_alpha   90.00000000
_cell_angle_beta   90.00000000
_cell_angle_gamma   120.05323464
_symmetry_Int_Tables_number   1
_chemical_formula_structural   Ho2Tm4Al19Si5Os8
_chemical_formula_sum   'Ho2 Tm4 Al19 Si5 Os8'
_cell_volume   621.95313537
_cell_formula_units_Z   1
loop_
 _symmetry_equiv_pos_site_id
 _symmetry_equiv_pos_as_xyz
  1  'x, y, z'
loop_
 _atom_site_type_symbol
 _atom_site_label
 _atom_site_symmetry_multiplicity
 _atom_site_fract_x
 _atom_site_fract_y
 _atom_site_fract_z
 _atom_site_occupancy
  Ho  Ho0  1  0.805598  0.610946  0.750000  1
  Ho  Ho1  1  0.390099  0.195383  0.750000  1
  Tm  Tm2  1  0.195494  0.390998  0.250000  1
  Tm  Tm3  1  0.606649  0.805707  0.250000  1
  Tm  Tm4  1  0.199072  0.805690  0.250000  1
  Tm  Tm5  1  0.805019  0.196010  0.750000  1
  Al  Al6  1  0.164470  0.329141  0.578859  1
  Al  Al7  1  0.834823  0.669642  0.421124  1
  Al  Al8  1  0.670018  0.835517  0.577494  1
  Al  Al9  1  0.834823  0.669642  0.078876  1
  Al  Al10  1  0.328849  0.165341  0.421278  1
  Al  Al11  1  0.164470  0.329141  0.921141  1
  Al  Al12  1  0.165432  0.835391  0.577440  1
  Al  Al13  1  0.328849  0.165341  0.078722  1
  Al  Al14  1  0.836477  0.165351  0.421392  1
  Al  Al15  1  0.670018  0.835517  0.922506  1
  Al  Al16  1  0.836477  0.165351  0.078608  1
  Al  Al17  1  0.165432  0.835391  0.922560  1
  Al  Al18  1  0.437504  0.874698  0.750000  1
  Al  Al19  1  0.873404  0.433919  0.250000  1
  Al  Al20  1  0.127451  0.564266  0.750000  1
  Al  Al21  1  0.560533  0.433916  0.250000  1
  Al  Al22  1  0.436823  0.564550  0.750000  1
  Al  Al23  1  0.999812  0.999602  0.250000  1
  Al  Al24  1  0.000235  0.000881  0.750000  1
  Si  Si25  1  0.332579  0.665124  0.039028  1
  Si  Si26  1  0.667395  0.334283  0.960114  1
  Si  Si27  1  0.667395  0.334283  0.539886  1
  Si  Si28  1  0.332579  0.665124  0.460972  1
  Si  Si29  1  0.563598  0.127193  0.250000  1
  Os  Os30  1  0.500737  0.001174  0.006516  1
  Os  Os31  1  0.999245  0.498915  0.000614  1
  Os  Os32  1  0.500737  0.001174  0.493484  1
  Os  Os33  1  0.499813  0.499114  0.000773  1
  Os  Os34  1  0.999245  0.498915  0.499386  1
  Os  Os35  1  0.499813  0.499114  0.499227  1
  Os  Os36  1  0.999517  0.999125  0.000061  1
  Os  Os37  1  0.999517  0.999125  0.499939  1
