# generated using pymatgen
data_Nd2YRh2
_symmetry_space_group_name_H-M   'P 1'
_cell_length_a   7.56168308
_cell_length_b   7.56168336
_cell_length_c   7.56168314
_cell_angle_alpha   71.27358855
_cell_angle_beta   71.27358308
_cell_angle_gamma   71.27357774
_symmetry_Int_Tables_number   1
_chemical_formula_structural   Nd2YRh2
_chemical_formula_sum   'Nd6 Y3 Rh6'
_cell_volume   376.17778763
_cell_formula_units_Z   3
loop_
 _symmetry_equiv_pos_site_id
 _symmetry_equiv_pos_as_xyz
  1  'x, y, z'
loop_
 _atom_site_type_symbol
 _atom_site_label
 _atom_site_symmetry_multiplicity
 _atom_site_fract_x
 _atom_site_fract_y
 _atom_site_fract_z
 _atom_site_occupancy
  Nd  Nd0  1  0.162343  0.391940  0.665543  1
  Nd  Nd1  1  0.665543  0.162343  0.391940  1
  Nd  Nd2  1  0.391940  0.665543  0.162343  1
  Nd  Nd3  1  0.837657  0.608060  0.334457  1
  Nd  Nd4  1  0.334457  0.837657  0.608060  1
  Nd  Nd5  1  0.608060  0.334457  0.837657  1
  Y  Y6  1  0.000000  0.000000  0.000000  1
  Y  Y7  1  0.798925  0.798925  0.798925  1
  Y  Y8  1  0.201075  0.201075  0.201075  1
  Rh  Rh9  1  0.959238  0.158779  0.591058  1
  Rh  Rh10  1  0.591058  0.959238  0.158779  1
  Rh  Rh11  1  0.158779  0.591058  0.959238  1
  Rh  Rh12  1  0.040762  0.841221  0.408942  1
  Rh  Rh13  1  0.408942  0.040762  0.841221  1
  Rh  Rh14  1  0.841221  0.408942  0.040762  1
