# generated using pymatgen
data_Na2Ca3(B5Rh7)2
_symmetry_space_group_name_H-M   'P 1'
_cell_length_a   15.09812612
_cell_length_b   14.55054361
_cell_length_c   5.64148902
_cell_angle_alpha   84.55050475
_cell_angle_beta   73.61257659
_cell_angle_gamma   21.83692134
_symmetry_Int_Tables_number   1
_chemical_formula_structural   Na2Ca3(B5Rh7)2
_chemical_formula_sum   'Na2 Ca3 B10 Rh14'
_cell_volume   390.90600597
_cell_formula_units_Z   1
loop_
 _symmetry_equiv_pos_site_id
 _symmetry_equiv_pos_as_xyz
  1  'x, y, z'
loop_
 _atom_site_type_symbol
 _atom_site_label
 _atom_site_symmetry_multiplicity
 _atom_site_fract_x
 _atom_site_fract_y
 _atom_site_fract_z
 _atom_site_occupancy
  Na  Na0  1  0.711121  0.711121  0.288879  1
  Na  Na1  1  0.500959  0.500959  0.499041  1
  Ca  Ca2  1  0.287494  0.287494  0.712506  1
  Ca  Ca3  1  0.603860  0.603860  0.396140  1
  Ca  Ca4  1  0.399741  0.399741  0.600259  1
  B  B5  1  0.040003  0.364516  0.635484  1
  B  B6  1  0.956513  0.636143  0.363857  1
  B  B7  1  0.636143  0.956513  0.043487  1
  B  B8  1  0.364516  0.040003  0.959997  1
  B  B9  1  0.933473  0.268293  0.731707  1
  B  B10  1  0.066325  0.732023  0.267977  1
  B  B11  1  0.732023  0.066325  0.933675  1
  B  B12  1  0.268293  0.933473  0.066527  1
  B  B13  1  0.834788  0.165556  0.834444  1
  B  B14  1  0.165556  0.834788  0.165212  1
  Rh  Rh15  1  0.749471  0.749471  0.750529  1
  Rh  Rh16  1  0.249471  0.249471  0.250529  1
  Rh  Rh17  1  0.651702  0.651702  0.848298  1
  Rh  Rh18  1  0.847997  0.847997  0.652003  1
  Rh  Rh19  1  0.347997  0.347997  0.152003  1
  Rh  Rh20  1  0.151702  0.151702  0.348298  1
  Rh  Rh21  1  0.550516  0.550516  0.949484  1
  Rh  Rh22  1  0.949492  0.949492  0.550508  1
  Rh  Rh23  1  0.449492  0.449492  0.050508  1
  Rh  Rh24  1  0.050516  0.050516  0.449484  1
  Rh  Rh25  1  0.847088  0.847088  0.152912  1
  Rh  Rh26  1  0.153368  0.153368  0.846632  1
  Rh  Rh27  1  0.949594  0.949594  0.050406  1
  Rh  Rh28  1  0.050785  0.050785  0.949215  1
