# generated using pymatgen
data_Y3ThTlPd4Pb
_symmetry_space_group_name_H-M   'P 1'
_cell_length_a   3.70198800
_cell_length_b   7.94905640
_cell_length_c   7.95544330
_cell_angle_alpha   91.03551354
_cell_angle_beta   90.00000000
_cell_angle_gamma   90.00000000
_symmetry_Int_Tables_number   1
_chemical_formula_structural   Y3ThTlPd4Pb
_chemical_formula_sum   'Y3 Th1 Tl1 Pd4 Pb1'
_cell_volume   234.06907425
_cell_formula_units_Z   1
loop_
 _symmetry_equiv_pos_site_id
 _symmetry_equiv_pos_as_xyz
  1  'x, y, z'
loop_
 _atom_site_type_symbol
 _atom_site_label
 _atom_site_symmetry_multiplicity
 _atom_site_fract_x
 _atom_site_fract_y
 _atom_site_fract_z
 _atom_site_occupancy
  Y  Y0  1  0.500000  0.828660  0.322229  1
  Y  Y1  1  0.500000  0.326954  0.169747  1
  Y  Y2  1  0.500000  0.675914  0.833327  1
  Th  Th3  1  0.500000  0.168545  0.673864  1
  Tl  Tl4  1  0.000000  0.995004  0.007139  1
  Pd  Pd5  1  0.000000  0.622739  0.122423  1
  Pd  Pd6  1  0.000000  0.370228  0.871007  1
  Pd  Pd7  1  0.000000  0.877776  0.628161  1
  Pd  Pd8  1  0.000000  0.127125  0.376510  1
  Pb  Pb9  1  0.000000  0.507054  0.495592  1
