# generated using pymatgen
data_Pr19ErSi15Se
_symmetry_space_group_name_H-M   'P 1'
_cell_length_a   7.93715749
_cell_length_b   7.89772611
_cell_length_c   15.35665600
_cell_angle_alpha   89.76499725
_cell_angle_beta   89.22959953
_cell_angle_gamma   89.90263895
_symmetry_Int_Tables_number   1
_chemical_formula_structural   Pr19ErSi15Se
_chemical_formula_sum   'Pr19 Er1 Si15 Se1'
_cell_volume   962.54318041
_cell_formula_units_Z   1
loop_
 _symmetry_equiv_pos_site_id
 _symmetry_equiv_pos_as_xyz
  1  'x, y, z'
loop_
 _atom_site_type_symbol
 _atom_site_label
 _atom_site_symmetry_multiplicity
 _atom_site_fract_x
 _atom_site_fract_y
 _atom_site_fract_z
 _atom_site_occupancy
  Pr  Pr0  1  0.188779  0.807830  0.249279  1
  Pr  Pr1  1  0.800690  0.190784  0.752046  1
  Pr  Pr2  1  0.687649  0.689471  0.497178  1
  Pr  Pr3  1  0.379654  0.006709  0.443046  1
  Pr  Pr4  1  0.491045  0.875767  0.698529  1
  Pr  Pr5  1  0.509280  0.121573  0.195754  1
  Pr  Pr6  1  0.876831  0.486669  0.300762  1
  Pr  Pr7  1  0.124429  0.509951  0.804006  1
  Pr  Pr8  1  0.630133  0.986028  0.950941  1
  Pr  Pr9  1  0.000458  0.380020  0.548326  1
  Pr  Pr10  1  0.990932  0.622137  0.053468  1
  Pr  Pr11  1  0.137314  0.987225  0.874077  1
  Pr  Pr12  1  0.517942  0.628850  0.126096  1
  Pr  Pr13  1  0.477216  0.371000  0.631129  1
  Pr  Pr14  1  0.632712  0.521908  0.876319  1
  Pr  Pr15  1  0.370602  0.478308  0.372859  1
  Pr  Pr16  1  0.871332  0.019683  0.376070  1
  Pr  Pr17  1  0.982187  0.128124  0.124270  1
  Pr  Pr18  1  0.015410  0.868897  0.621471  1
  Er  Er19  1  0.313702  0.310681  0.999863  1
  Si  Si20  1  0.329534  0.693513  0.952594  1
  Si  Si21  1  0.662915  0.304808  0.454753  1
  Si  Si22  1  0.697220  0.332969  0.048639  1
  Si  Si23  1  0.303516  0.667167  0.548727  1
  Si  Si24  1  0.804154  0.831697  0.202456  1
  Si  Si25  1  0.168230  0.194465  0.296096  1
  Si  Si26  1  0.839859  0.804396  0.797102  1
  Si  Si27  1  0.288269  0.926611  0.057513  1
  Si  Si28  1  0.577201  0.785809  0.308535  1
  Si  Si29  1  0.445417  0.213665  0.827102  1
  Si  Si30  1  0.788251  0.578891  0.689310  1
  Si  Si31  1  0.213836  0.419656  0.186826  1
  Si  Si32  1  0.703213  0.075928  0.561162  1
  Si  Si33  1  0.931386  0.290939  0.941413  1
  Si  Si34  1  0.077318  0.711074  0.440320  1
  Se  Se35  1  0.171383  0.176802  0.691957  1
