# generated using pymatgen
data_Zr4Cr2P4IrOs
_symmetry_space_group_name_H-M   'P 1'
_cell_length_a   3.82246800
_cell_length_b   6.46665405
_cell_length_c   7.49650601
_cell_angle_alpha   90.00892707
_cell_angle_beta   90.00000000
_cell_angle_gamma   90.00000000
_symmetry_Int_Tables_number   1
_chemical_formula_structural   Zr4Cr2P4IrOs
_chemical_formula_sum   'Zr4 Cr2 P4 Ir1 Os1'
_cell_volume   185.30296780
_cell_formula_units_Z   1
loop_
 _symmetry_equiv_pos_site_id
 _symmetry_equiv_pos_as_xyz
  1  'x, y, z'
loop_
 _atom_site_type_symbol
 _atom_site_label
 _atom_site_symmetry_multiplicity
 _atom_site_fract_x
 _atom_site_fract_y
 _atom_site_fract_z
 _atom_site_occupancy
  Zr  Zr0  1  0.250000  0.023884  0.824399  1
  Zr  Zr1  1  0.250000  0.521942  0.675699  1
  Zr  Zr2  1  0.750000  0.975737  0.177980  1
  Zr  Zr3  1  0.750000  0.474041  0.322333  1
  Cr  Cr4  1  0.250000  0.146396  0.439993  1
  Cr  Cr5  1  0.250000  0.645856  0.059045  1
  P  P6  1  0.250000  0.769073  0.369905  1
  P  P7  1  0.250000  0.271380  0.124700  1
  P  P8  1  0.750000  0.230727  0.627089  1
  P  P9  1  0.750000  0.726579  0.877035  1
  Ir  Ir10  1  0.750000  0.857661  0.560327  1
  Os  Os11  1  0.750000  0.356727  0.941496  1
