# generated using pymatgen
data_Dy6Ho10CdHg3Pt4
_symmetry_space_group_name_H-M   'P 1'
_cell_length_a   9.64005145
_cell_length_b   9.64247325
_cell_length_c   9.64247500
_cell_angle_alpha   59.99999744
_cell_angle_beta   59.99168669
_cell_angle_gamma   59.99168541
_symmetry_Int_Tables_number   1
_chemical_formula_structural   Dy6Ho10CdHg3Pt4
_chemical_formula_sum   'Dy6 Ho10 Cd1 Hg3 Pt4'
_cell_volume   633.70440037
_cell_formula_units_Z   1
loop_
 _symmetry_equiv_pos_site_id
 _symmetry_equiv_pos_as_xyz
  1  'x, y, z'
loop_
 _atom_site_type_symbol
 _atom_site_label
 _atom_site_symmetry_multiplicity
 _atom_site_fract_x
 _atom_site_fract_y
 _atom_site_fract_z
 _atom_site_occupancy
  Dy  Dy0  1  0.933758  0.565030  0.565030  1
  Dy  Dy1  1  0.564158  0.935648  0.935648  1
  Dy  Dy2  1  0.564158  0.935648  0.564546  1
  Dy  Dy3  1  0.933758  0.565029  0.936183  1
  Dy  Dy4  1  0.564158  0.564546  0.935648  1
  Dy  Dy5  1  0.933758  0.936183  0.565029  1
  Ho  Ho6  1  0.354078  0.353062  0.353062  1
  Ho  Ho7  1  0.354078  0.353062  0.939800  1
  Ho  Ho8  1  0.354078  0.939800  0.353062  1
  Ho  Ho9  1  0.937664  0.354113  0.354113  1
  Ho  Ho10  1  0.810062  0.189783  0.189783  1
  Ho  Ho11  1  0.188705  0.810888  0.810888  1
  Ho  Ho12  1  0.188705  0.810888  0.189520  1
  Ho  Ho13  1  0.810062  0.189783  0.810373  1
  Ho  Ho14  1  0.188705  0.189520  0.810888  1
  Ho  Ho15  1  0.810062  0.810373  0.189783  1
  Cd  Cd16  1  0.254469  0.581844  0.581844  1
  Hg  Hg17  1  0.585298  0.587079  0.587079  1
  Hg  Hg18  1  0.585298  0.587079  0.240542  1
  Hg  Hg19  1  0.585298  0.240542  0.587079  1
  Pt  Pt20  1  0.143335  0.143672  0.143672  1
  Pt  Pt21  1  0.143335  0.143672  0.569323  1
  Pt  Pt22  1  0.143335  0.569323  0.143672  1
  Pt  Pt23  1  0.569690  0.143437  0.143437  1
