# generated using pymatgen
data_Tm11Lu(Si3Rh)4
_symmetry_space_group_name_H-M   'P 1'
_cell_length_a   4.19106900
_cell_length_b   10.56655181
_cell_length_c   12.18267744
_cell_angle_alpha   89.95381391
_cell_angle_beta   90.00000000
_cell_angle_gamma   90.00000000
_symmetry_Int_Tables_number   1
_chemical_formula_structural   Tm11Lu(Si3Rh)4
_chemical_formula_sum   'Tm11 Lu1 Si12 Rh4'
_cell_volume   539.51149463
_cell_formula_units_Z   1
loop_
 _symmetry_equiv_pos_site_id
 _symmetry_equiv_pos_as_xyz
  1  'x, y, z'
loop_
 _atom_site_type_symbol
 _atom_site_label
 _atom_site_symmetry_multiplicity
 _atom_site_fract_x
 _atom_site_fract_y
 _atom_site_fract_z
 _atom_site_occupancy
  Tm  Tm0  1  0.250000  0.879374  0.019786  1
  Tm  Tm1  1  0.250000  0.620764  0.519842  1
  Tm  Tm2  1  0.750000  0.121064  0.979470  1
  Tm  Tm3  1  0.750000  0.378623  0.480536  1
  Tm  Tm4  1  0.250000  0.920528  0.603712  1
  Tm  Tm5  1  0.250000  0.579748  0.103550  1
  Tm  Tm6  1  0.750000  0.079443  0.397062  1
  Tm  Tm7  1  0.750000  0.420223  0.896215  1
  Tm  Tm8  1  0.250000  0.660473  0.800200  1
  Tm  Tm9  1  0.250000  0.839935  0.300255  1
  Tm  Tm10  1  0.750000  0.339008  0.199835  1
  Lu  Lu11  1  0.750000  0.160435  0.700172  1
  Si  Si12  1  0.250000  0.014922  0.821544  1
  Si  Si13  1  0.250000  0.485386  0.321984  1
  Si  Si14  1  0.750000  0.986098  0.177993  1
  Si  Si15  1  0.750000  0.514447  0.677939  1
  Si  Si16  1  0.250000  0.248269  0.841154  1
  Si  Si17  1  0.250000  0.251366  0.342432  1
  Si  Si18  1  0.750000  0.751813  0.158289  1
  Si  Si19  1  0.750000  0.748282  0.657977  1
  Si  Si20  1  0.250000  0.197871  0.544074  1
  Si  Si21  1  0.250000  0.301633  0.042571  1
  Si  Si22  1  0.750000  0.801508  0.457167  1
  Si  Si23  1  0.750000  0.698613  0.957019  1
  Rh  Rh24  1  0.250000  0.390183  0.680823  1
  Rh  Rh25  1  0.250000  0.109179  0.181515  1
  Rh  Rh26  1  0.750000  0.609093  0.319079  1
  Rh  Rh27  1  0.750000  0.891720  0.817803  1
