# generated using pymatgen
data_CaGa2(SiO4)2
_symmetry_space_group_name_H-M   'P 1'
_cell_length_a   5.22106000
_cell_length_b   5.22108027
_cell_length_c   15.20293900
_cell_angle_alpha   89.99990928
_cell_angle_beta   90.00000000
_cell_angle_gamma   60.00012842
_symmetry_Int_Tables_number   1
_chemical_formula_structural   CaGa2(SiO4)2
_chemical_formula_sum   'Ca2 Ga4 Si4 O16'
_cell_volume   358.90358874
_cell_formula_units_Z   2
loop_
 _symmetry_equiv_pos_site_id
 _symmetry_equiv_pos_as_xyz
  1  'x, y, z'
loop_
 _atom_site_type_symbol
 _atom_site_label
 _atom_site_symmetry_multiplicity
 _atom_site_fract_x
 _atom_site_fract_y
 _atom_site_fract_z
 _atom_site_occupancy
  Ca  Ca0  1  0.000000  0.000000  0.500000  1
  Ca  Ca1  1  0.000000  0.000000  0.000000  1
  Ga  Ga2  1  0.666646  0.666666  0.642539  1
  Ga  Ga3  1  0.333354  0.333334  0.357461  1
  Ga  Ga4  1  0.666687  0.666666  0.142539  1
  Ga  Ga5  1  0.333313  0.333334  0.857461  1
  Si  Si6  1  0.333314  0.333330  0.634875  1
  Si  Si7  1  0.666686  0.666670  0.365125  1
  Si  Si8  1  0.333355  0.333330  0.134875  1
  Si  Si9  1  0.666645  0.666670  0.865125  1
  O  O10  1  0.365589  0.022020  0.595548  1
  O  O11  1  0.022004  0.612374  0.595550  1
  O  O12  1  0.612357  0.365602  0.595552  1
  O  O13  1  0.634411  0.977980  0.404452  1
  O  O14  1  0.977996  0.387626  0.404450  1
  O  O15  1  0.387643  0.634398  0.404448  1
  O  O16  1  0.612391  0.022020  0.095548  1
  O  O17  1  0.022040  0.365602  0.095552  1
  O  O18  1  0.365623  0.612374  0.095550  1
  O  O19  1  0.387609  0.977980  0.904452  1
  O  O20  1  0.977960  0.634398  0.904448  1
  O  O21  1  0.634377  0.387626  0.904450  1
  O  O22  1  0.666625  0.666677  0.760229  1
  O  O23  1  0.333302  0.333323  0.739771  1
  O  O24  1  0.333375  0.333323  0.239771  1
  O  O25  1  0.666698  0.666677  0.260229  1
