# generated using pymatgen
data_TcPdF7
_symmetry_space_group_name_H-M   'P 1'
_cell_length_a   10.44051339
_cell_length_b   19.56110392
_cell_length_c   15.29318785
_cell_angle_alpha   140.03059701
_cell_angle_beta   47.89108565
_cell_angle_gamma   140.73859936
_symmetry_Int_Tables_number   1
_chemical_formula_structural   TcPdF7
_chemical_formula_sum   'Tc1 Pd1 F7'
_cell_volume   1246.65404969
_cell_formula_units_Z   1
loop_
 _symmetry_equiv_pos_site_id
 _symmetry_equiv_pos_as_xyz
  1  'x, y, z'
loop_
 _atom_site_type_symbol
 _atom_site_label
 _atom_site_symmetry_multiplicity
 _atom_site_fract_x
 _atom_site_fract_y
 _atom_site_fract_z
 _atom_site_occupancy
  Tc  Tc0  1  0.073146  0.609709  0.443492  1
  Pd  Pd1  1  0.347786  0.476599  0.182440  1
  F  F2  1  0.852748  0.457372  0.432018  1
  F  F3  1  0.540348  0.144447  0.002932  1
  F  F4  1  0.966681  0.259128  0.350965  1
  F  F5  1  0.104072  0.770810  0.585691  1
  F  F6  1  0.405660  0.632225  0.373737  1
  F  F7  1  0.504865  0.426637  0.124395  1
  F  F8  1  0.177393  0.528524  0.241077  1
