# generated using pymatgen
data_Y2CoSi5IrRh
_symmetry_space_group_name_H-M   'P 1'
_cell_length_a   8.09810902
_cell_length_b   8.05991944
_cell_length_c   8.05437037
_cell_angle_alpha   138.62902265
_cell_angle_beta   105.15613947
_cell_angle_gamma   89.34988971
_symmetry_Int_Tables_number   1
_chemical_formula_structural   Y2CoSi5IrRh
_chemical_formula_sum   'Y4 Co2 Si10 Ir2 Rh2'
_cell_volume   320.98359491
_cell_formula_units_Z   2
loop_
 _symmetry_equiv_pos_site_id
 _symmetry_equiv_pos_as_xyz
  1  'x, y, z'
loop_
 _atom_site_type_symbol
 _atom_site_label
 _atom_site_symmetry_multiplicity
 _atom_site_fract_x
 _atom_site_fract_y
 _atom_site_fract_z
 _atom_site_occupancy
  Y  Y0  1  0.865532  0.625369  0.224926  1
  Y  Y1  1  0.136288  0.362715  0.763672  1
  Y  Y2  1  0.600976  0.871835  0.738482  1
  Y  Y3  1  0.400000  0.140756  0.274390  1
  Co  Co4  1  0.005227  0.752616  0.752999  1
  Co  Co5  1  0.240102  0.855178  0.380233  1
  Si  Si6  1  0.058398  0.884693  0.147967  1
  Si  Si7  1  0.950861  0.090314  0.832051  1
  Si  Si8  1  0.263067  0.619214  0.671807  1
  Si  Si9  1  0.746765  0.413847  0.360403  1
  Si  Si10  1  0.224828  0.967657  0.735067  1
  Si  Si11  1  0.781970  0.532349  0.752484  1
  Si  Si12  1  0.782748  0.031689  0.248818  1
  Si  Si13  1  0.482378  0.222495  0.728940  1
  Si  Si14  1  0.480029  0.752712  0.259835  1
  Si  Si15  1  0.225325  0.489676  0.257843  1
  Ir  Ir16  1  0.005490  0.252381  0.252017  1
  Ir  Ir17  1  0.744505  0.130751  0.599770  1
  Rh  Rh18  1  0.532757  0.641868  0.903359  1
  Rh  Rh19  1  0.472757  0.361887  0.114937  1
