# generated using pymatgen
data_NpNb(O2F)2
_symmetry_space_group_name_H-M   'P 1'
_cell_length_a   5.75396521
_cell_length_b   5.65616104
_cell_length_c   5.92534513
_cell_angle_alpha   59.38364461
_cell_angle_beta   60.05536744
_cell_angle_gamma   62.57359056
_symmetry_Int_Tables_number   1
_chemical_formula_structural   NpNb(O2F)2
_chemical_formula_sum   'Np1 Nb1 O4 F2'
_cell_volume   138.18771977
_cell_formula_units_Z   1
loop_
 _symmetry_equiv_pos_site_id
 _symmetry_equiv_pos_as_xyz
  1  'x, y, z'
loop_
 _atom_site_type_symbol
 _atom_site_label
 _atom_site_symmetry_multiplicity
 _atom_site_fract_x
 _atom_site_fract_y
 _atom_site_fract_z
 _atom_site_occupancy
  Np  Np0  1  0.723835  0.211238  0.846551  1
  Nb  Nb1  1  0.183699  0.764277  0.345984  1
  O  O2  1  0.930875  0.495236  0.599681  1
  O  O3  1  0.038746  0.949238  0.588368  1
  O  O4  1  0.526190  0.915517  0.093090  1
  O  O5  1  0.978595  0.009082  0.114150  1
  F  F6  1  0.460230  0.418381  0.574205  1
  F  F7  1  0.400262  0.479462  0.110676  1
