# generated using pymatgen
data_Li4TmLu3Si8
_symmetry_space_group_name_H-M   'P 1'
_cell_length_a   3.73748200
_cell_length_b   7.59414774
_cell_length_c   10.00793498
_cell_angle_alpha   90.04151484
_cell_angle_beta   90.00000000
_cell_angle_gamma   90.00000000
_symmetry_Int_Tables_number   1
_chemical_formula_structural   Li4TmLu3Si8
_chemical_formula_sum   'Li4 Tm1 Lu3 Si8'
_cell_volume   284.05504864
_cell_formula_units_Z   1
loop_
 _symmetry_equiv_pos_site_id
 _symmetry_equiv_pos_as_xyz
  1  'x, y, z'
loop_
 _atom_site_type_symbol
 _atom_site_label
 _atom_site_symmetry_multiplicity
 _atom_site_fract_x
 _atom_site_fract_y
 _atom_site_fract_z
 _atom_site_occupancy
  Li  Li0  1  0.250000  0.988138  0.392013  1
  Li  Li1  1  0.750000  0.010520  0.607117  1
  Li  Li2  1  0.250000  0.489432  0.107286  1
  Li  Li3  1  0.750000  0.512152  0.892516  1
  Tm  Tm4  1  0.250000  0.137650  0.862618  1
  Lu  Lu5  1  0.750000  0.863621  0.137812  1
  Lu  Lu6  1  0.250000  0.636224  0.637414  1
  Lu  Lu7  1  0.750000  0.362761  0.362580  1
  Si  Si8  1  0.750000  0.265356  0.065829  1
  Si  Si9  1  0.250000  0.735803  0.935808  1
  Si  Si10  1  0.750000  0.763857  0.435487  1
  Si  Si11  1  0.250000  0.235546  0.563928  1
  Si  Si12  1  0.750000  0.845301  0.818723  1
  Si  Si13  1  0.250000  0.154091  0.181452  1
  Si  Si14  1  0.750000  0.346497  0.680120  1
  Si  Si15  1  0.250000  0.653050  0.319296  1
