# generated using pymatgen
data_Nb6CrSe12
_symmetry_space_group_name_H-M   'P 1'
_cell_length_a   6.04157686
_cell_length_b   6.04157694
_cell_length_c   13.43930304
_cell_angle_alpha   85.71528134
_cell_angle_beta   85.71528036
_cell_angle_gamma   119.99636812
_symmetry_Int_Tables_number   1
_chemical_formula_structural   Nb6CrSe12
_chemical_formula_sum   'Nb6 Cr1 Se12'
_cell_volume   420.06937545
_cell_formula_units_Z   1
loop_
 _symmetry_equiv_pos_site_id
 _symmetry_equiv_pos_as_xyz
  1  'x, y, z'
loop_
 _atom_site_type_symbol
 _atom_site_label
 _atom_site_symmetry_multiplicity
 _atom_site_fract_x
 _atom_site_fract_y
 _atom_site_fract_z
 _atom_site_occupancy
  Nb  Nb0  1  0.079190  0.079190  0.760906  1
  Nb  Nb1  1  0.413024  0.745904  0.760756  1
  Nb  Nb2  1  0.745904  0.413024  0.760756  1
  Nb  Nb3  1  0.254096  0.586976  0.239244  1
  Nb  Nb4  1  0.586976  0.254096  0.239244  1
  Nb  Nb5  1  0.920810  0.920810  0.239094  1
  Cr  Cr6  1  0.000000  0.000000  0.000000  1
  Se  Se7  1  0.298892  0.298892  0.112557  1
  Se  Se8  1  0.627252  0.962674  0.112729  1
  Se  Se9  1  0.962674  0.627252  0.112729  1
  Se  Se10  1  0.037326  0.372748  0.887271  1
  Se  Se11  1  0.372748  0.037326  0.887271  1
  Se  Se12  1  0.701108  0.701108  0.887443  1
  Se  Se13  1  0.212520  0.212520  0.365805  1
  Se  Se14  1  0.544360  0.878420  0.365613  1
  Se  Se15  1  0.878420  0.544360  0.365613  1
  Se  Se16  1  0.121580  0.455640  0.634387  1
  Se  Se17  1  0.455640  0.121580  0.634387  1
  Se  Se18  1  0.787480  0.787480  0.634195  1
