# generated using pymatgen
data_Ca2Yb2As2O
_symmetry_space_group_name_H-M   'P 1'
_cell_length_a   8.36197326
_cell_length_b   8.36197366
_cell_length_c   8.36197356
_cell_angle_alpha   148.52377432
_cell_angle_beta   148.52377913
_cell_angle_gamma   45.11275734
_symmetry_Int_Tables_number   1
_chemical_formula_structural   Ca2Yb2As2O
_chemical_formula_sum   'Ca2 Yb2 As2 O1'
_cell_volume   158.90380260
_cell_formula_units_Z   1
loop_
 _symmetry_equiv_pos_site_id
 _symmetry_equiv_pos_as_xyz
  1  'x, y, z'
loop_
 _atom_site_type_symbol
 _atom_site_label
 _atom_site_symmetry_multiplicity
 _atom_site_fract_x
 _atom_site_fract_y
 _atom_site_fract_z
 _atom_site_occupancy
  Ca  Ca0  1  0.671455  0.671455  0.000000  1
  Ca  Ca1  1  0.328545  0.328545  0.000000  1
  Yb  Yb2  1  0.000000  0.500000  0.500000  1
  Yb  Yb3  1  0.500000  0.000000  0.500000  1
  As  As4  1  0.863719  0.863719  0.000000  1
  As  As5  1  0.136281  0.136281  0.000000  1
  O  O6  1  0.500000  0.500000  0.000000  1
