# generated using pymatgen
data_Y8Lu4Co4SnRu
_symmetry_space_group_name_H-M   'P 1'
_cell_length_a   8.25369692
_cell_length_b   8.25369662
_cell_length_c   8.25369699
_cell_angle_alpha   111.42349597
_cell_angle_beta   110.40932173
_cell_angle_gamma   106.61964031
_symmetry_Int_Tables_number   1
_chemical_formula_structural   Y8Lu4Co4SnRu
_chemical_formula_sum   'Y8 Lu4 Co4 Sn1 Ru1'
_cell_volume   432.00154831
_cell_formula_units_Z   1
loop_
 _symmetry_equiv_pos_site_id
 _symmetry_equiv_pos_as_xyz
  1  'x, y, z'
loop_
 _atom_site_type_symbol
 _atom_site_label
 _atom_site_symmetry_multiplicity
 _atom_site_fract_x
 _atom_site_fract_y
 _atom_site_fract_z
 _atom_site_occupancy
  Y  Y0  1  0.413525  0.219140  0.194382  1
  Y  Y1  1  0.586475  0.780860  0.805618  1
  Y  Y2  1  0.024758  0.219140  0.805618  1
  Y  Y3  1  0.975242  0.780860  0.194382  1
  Y  Y4  1  0.184930  0.283903  0.468833  1
  Y  Y5  1  0.815070  0.716097  0.531167  1
  Y  Y6  1  0.184930  0.716097  0.901027  1
  Y  Y7  1  0.815070  0.283903  0.098973  1
  Lu  Lu8  1  0.314143  0.624393  0.310249  1
  Lu  Lu9  1  0.685857  0.375607  0.689751  1
  Lu  Lu10  1  0.314143  0.003894  0.689751  1
  Lu  Lu11  1  0.685857  0.996106  0.310249  1
  Co  Co12  1  0.380231  0.000000  0.380231  1
  Co  Co13  1  0.619769  0.000000  0.619769  1
  Co  Co14  1  0.112067  0.612067  0.500000  1
  Co  Co15  1  0.887933  0.387933  0.500000  1
  Sn  Sn16  1  0.500000  0.500000  0.000000  1
  Ru  Ru17  1  0.000000  0.000000  0.000000  1
