# generated using pymatgen
data_Er10In5Sn3Ru4
_symmetry_space_group_name_H-M   'P 1'
_cell_length_a   3.58925300
_cell_length_b   7.98982852
_cell_length_c   18.17313828
_cell_angle_alpha   90.27083122
_cell_angle_beta   90.00000000
_cell_angle_gamma   90.00000000
_symmetry_Int_Tables_number   1
_chemical_formula_structural   Er10In5Sn3Ru4
_chemical_formula_sum   'Er10 In5 Sn3 Ru4'
_cell_volume   521.15464161
_cell_formula_units_Z   1
loop_
 _symmetry_equiv_pos_site_id
 _symmetry_equiv_pos_as_xyz
  1  'x, y, z'
loop_
 _atom_site_type_symbol
 _atom_site_label
 _atom_site_symmetry_multiplicity
 _atom_site_fract_x
 _atom_site_fract_y
 _atom_site_fract_z
 _atom_site_occupancy
  Er  Er0  1  0.000000  0.503622  0.499545  1
  Er  Er1  1  0.000000  0.000059  0.999905  1
  Er  Er2  1  0.000000  0.744442  0.278545  1
  Er  Er3  1  0.000000  0.252923  0.721553  1
  Er  Er4  1  0.000000  0.754229  0.777666  1
  Er  Er5  1  0.000000  0.245507  0.221409  1
  Er  Er6  1  0.000000  0.619921  0.087017  1
  Er  Er7  1  0.000000  0.380167  0.912152  1
  Er  Er8  1  0.000000  0.881489  0.589214  1
  Er  Er9  1  0.000000  0.120993  0.412493  1
  In  In10  1  0.500000  0.207036  0.568768  1
  In  In11  1  0.500000  0.564112  0.650327  1
  In  In12  1  0.500000  0.428683  0.348754  1
  In  In13  1  0.500000  0.928806  0.151565  1
  In  In14  1  0.500000  0.070551  0.848641  1
  Sn  Sn15  1  0.500000  0.704870  0.930425  1
  Sn  Sn16  1  0.500000  0.295378  0.068487  1
  Sn  Sn17  1  0.500000  0.798143  0.431736  1
  Ru  Ru18  1  0.500000  0.518653  0.192608  1
  Ru  Ru19  1  0.500000  0.482969  0.807205  1
  Ru  Ru20  1  0.500000  0.979408  0.695675  1
  Ru  Ru21  1  0.500000  0.018038  0.306309  1
