# generated using pymatgen
data_Ca12Ga5P3Rh8
_symmetry_space_group_name_H-M   'P 1'
_cell_length_a   5.63412600
_cell_length_b   7.66957985
_cell_length_c   13.39273400
_cell_angle_alpha   90.00000000
_cell_angle_beta   90.00000000
_cell_angle_gamma   90.09636980
_symmetry_Int_Tables_number   1
_chemical_formula_structural   Ca12Ga5P3Rh8
_chemical_formula_sum   'Ca12 Ga5 P3 Rh8'
_cell_volume   578.71768926
_cell_formula_units_Z   1
loop_
 _symmetry_equiv_pos_site_id
 _symmetry_equiv_pos_as_xyz
  1  'x, y, z'
loop_
 _atom_site_type_symbol
 _atom_site_label
 _atom_site_symmetry_multiplicity
 _atom_site_fract_x
 _atom_site_fract_y
 _atom_site_fract_z
 _atom_site_occupancy
  Ca  Ca0  1  0.637745  0.247349  0.250000  1
  Ca  Ca1  1  0.359984  0.755395  0.750000  1
  Ca  Ca2  1  0.371898  0.736951  0.250000  1
  Ca  Ca3  1  0.639199  0.254324  0.750000  1
  Ca  Ca4  1  0.137349  0.399656  0.098604  1
  Ca  Ca5  1  0.859980  0.606820  0.893346  1
  Ca  Ca6  1  0.859980  0.606820  0.606654  1
  Ca  Ca7  1  0.857207  0.890613  0.400397  1
  Ca  Ca8  1  0.137349  0.399656  0.401396  1
  Ca  Ca9  1  0.136993  0.106042  0.605746  1
  Ca  Ca10  1  0.136993  0.106042  0.894254  1
  Ca  Ca11  1  0.857207  0.890613  0.099603  1
  Ga  Ga12  1  0.152685  0.091314  0.250000  1
  Ga  Ga13  1  0.615158  0.251400  0.998493  1
  Ga  Ga14  1  0.383976  0.750484  0.998361  1
  Ga  Ga15  1  0.383976  0.750484  0.501639  1
  Ga  Ga16  1  0.615158  0.251400  0.501507  1
  P  P17  1  0.852415  0.900838  0.750000  1
  P  P18  1  0.856470  0.594243  0.250000  1
  P  P19  1  0.151519  0.402729  0.750000  1
  Rh  Rh20  1  0.358024  0.031365  0.090012  1
  Rh  Rh21  1  0.638301  0.969906  0.900553  1
  Rh  Rh22  1  0.638301  0.969906  0.599447  1
  Rh  Rh23  1  0.639362  0.531763  0.405731  1
  Rh  Rh24  1  0.358024  0.031365  0.409988  1
  Rh  Rh25  1  0.362691  0.470379  0.596449  1
  Rh  Rh26  1  0.362691  0.470379  0.903551  1
  Rh  Rh27  1  0.639362  0.531763  0.094269  1
