# generated using pymatgen
data_CePrGeP3Ir4
_symmetry_space_group_name_H-M   'P 1'
_cell_length_a   4.22202900
_cell_length_b   4.22202900
_cell_length_c   9.71906100
_cell_angle_alpha   90.00000000
_cell_angle_beta   90.00000000
_cell_angle_gamma   90.00000000
_symmetry_Int_Tables_number   1
_chemical_formula_structural   CePrGeP3Ir4
_chemical_formula_sum   'Ce1 Pr1 Ge1 P3 Ir4'
_cell_volume   173.24740251
_cell_formula_units_Z   1
loop_
 _symmetry_equiv_pos_site_id
 _symmetry_equiv_pos_as_xyz
  1  'x, y, z'
loop_
 _atom_site_type_symbol
 _atom_site_label
 _atom_site_symmetry_multiplicity
 _atom_site_fract_x
 _atom_site_fract_y
 _atom_site_fract_z
 _atom_site_occupancy
  Ce  Ce0  1  0.000000  0.500000  0.239347  1
  Pr  Pr1  1  0.500000  0.000000  0.763029  1
  Ge  Ge2  1  0.000000  0.500000  0.639774  1
  P  P3  1  0.000000  0.000000  0.005050  1
  P  P4  1  0.500000  0.500000  0.005050  1
  P  P5  1  0.500000  0.000000  0.361491  1
  Ir  Ir6  1  0.000000  0.000000  0.485792  1
  Ir  Ir7  1  0.500000  0.500000  0.485792  1
  Ir  Ir8  1  0.000000  0.500000  0.899380  1
  Ir  Ir9  1  0.500000  0.000000  0.115295  1
