# generated using pymatgen
data_BaNa4(SiSe3)2
_symmetry_space_group_name_H-M   'P 1'
_cell_length_a   7.31727520
_cell_length_b   7.31727452
_cell_length_c   8.09026881
_cell_angle_alpha   81.13004353
_cell_angle_beta   81.13003889
_cell_angle_gamma   119.72430084
_symmetry_Int_Tables_number   1
_chemical_formula_structural   BaNa4(SiSe3)2
_chemical_formula_sum   'Ba1 Na4 Si2 Se6'
_cell_volume   357.99831586
_cell_formula_units_Z   1
loop_
 _symmetry_equiv_pos_site_id
 _symmetry_equiv_pos_as_xyz
  1  'x, y, z'
loop_
 _atom_site_type_symbol
 _atom_site_label
 _atom_site_symmetry_multiplicity
 _atom_site_fract_x
 _atom_site_fract_y
 _atom_site_fract_z
 _atom_site_occupancy
  Ba  Ba0  1  0.334122  0.665878  0.500000  1
  Na  Na1  1  0.499302  0.500698  0.000000  1
  Na  Na2  1  0.828814  0.171186  0.000000  1
  Na  Na3  1  0.171282  0.828718  0.000000  1
  Na  Na4  1  0.665135  0.334865  0.500000  1
  Si  Si5  1  0.049884  0.049785  0.346058  1
  Si  Si6  1  0.950215  0.950116  0.653942  1
  Se  Se7  1  0.792639  0.778355  0.251086  1
  Se  Se8  1  0.221645  0.207361  0.748914  1
  Se  Se9  1  0.070006  0.375243  0.248476  1
  Se  Se10  1  0.387821  0.095622  0.248711  1
  Se  Se11  1  0.904378  0.612179  0.751289  1
  Se  Se12  1  0.624757  0.929994  0.751524  1
