# generated using pymatgen
data_Dy8Hf9Si16Mo3
_symmetry_space_group_name_H-M   'P 1'
_cell_length_a   7.19629121
_cell_length_b   7.19629126
_cell_length_c   13.16022501
_cell_angle_alpha   90.11202256
_cell_angle_beta   90.11202077
_cell_angle_gamma   90.07451219
_symmetry_Int_Tables_number   1
_chemical_formula_structural   Dy8Hf9Si16Mo3
_chemical_formula_sum   'Dy8 Hf9 Si16 Mo3'
_cell_volume   681.52022323
_cell_formula_units_Z   1
loop_
 _symmetry_equiv_pos_site_id
 _symmetry_equiv_pos_as_xyz
  1  'x, y, z'
loop_
 _atom_site_type_symbol
 _atom_site_label
 _atom_site_symmetry_multiplicity
 _atom_site_fract_x
 _atom_site_fract_y
 _atom_site_fract_z
 _atom_site_occupancy
  Dy  Dy0  1  0.999726  0.344217  0.215160  1
  Dy  Dy1  1  0.003220  0.656818  0.714517  1
  Dy  Dy2  1  0.155034  0.500302  0.463990  1
  Dy  Dy3  1  0.499698  0.844966  0.036010  1
  Dy  Dy4  1  0.846221  0.501304  0.967686  1
  Dy  Dy5  1  0.498696  0.153779  0.532314  1
  Dy  Dy6  1  0.343182  0.996780  0.785483  1
  Dy  Dy7  1  0.655783  0.000274  0.284840  1
  Hf  Hf8  1  0.675403  0.324597  0.750000  1
  Hf  Hf9  1  0.146690  0.992930  0.373590  1
  Hf  Hf10  1  0.854783  0.004732  0.876666  1
  Hf  Hf11  1  0.505894  0.649385  0.621591  1
  Hf  Hf12  1  0.350615  0.494106  0.878409  1
  Hf  Hf13  1  0.492726  0.352700  0.125509  1
  Hf  Hf14  1  0.647300  0.507274  0.374491  1
  Hf  Hf15  1  0.995268  0.145217  0.623334  1
  Hf  Hf16  1  0.007070  0.853310  0.126410  1
  Si  Si17  1  0.361321  0.296771  0.317012  1
  Si  Si18  1  0.637635  0.705591  0.817603  1
  Si  Si19  1  0.204452  0.861850  0.566212  1
  Si  Si20  1  0.138150  0.795548  0.933788  1
  Si  Si21  1  0.796112  0.137933  0.067439  1
  Si  Si22  1  0.862067  0.203888  0.432561  1
  Si  Si23  1  0.294409  0.362365  0.682397  1
  Si  Si24  1  0.703229  0.638679  0.182988  1
  Si  Si25  1  0.295804  0.051083  0.184283  1
  Si  Si26  1  0.704774  0.947680  0.682561  1
  Si  Si27  1  0.448493  0.795377  0.432630  1
  Si  Si28  1  0.204623  0.551507  0.067370  1
  Si  Si29  1  0.547861  0.203054  0.936097  1
  Si  Si30  1  0.796946  0.452139  0.563903  1
  Si  Si31  1  0.052320  0.295226  0.817439  1
  Si  Si32  1  0.948917  0.704196  0.315717  1
  Mo  Mo33  1  0.176421  0.175320  0.001318  1
  Mo  Mo34  1  0.824680  0.823579  0.498682  1
  Mo  Mo35  1  0.324478  0.675522  0.250000  1
