# generated using pymatgen
data_Ca2Ac3(Sn5Ir2)2
_symmetry_space_group_name_H-M   'P 1'
_cell_length_a   14.37084400
_cell_length_b   14.37084400
_cell_length_c   4.73198400
_cell_angle_alpha   90.00000000
_cell_angle_beta   90.00000000
_cell_angle_gamma   90.00000000
_symmetry_Int_Tables_number   1
_chemical_formula_structural   Ca2Ac3(Sn5Ir2)2
_chemical_formula_sum   'Ca4 Ac6 Sn20 Ir8'
_cell_volume   977.25481187
_cell_formula_units_Z   2
loop_
 _symmetry_equiv_pos_site_id
 _symmetry_equiv_pos_as_xyz
  1  'x, y, z'
loop_
 _atom_site_type_symbol
 _atom_site_label
 _atom_site_symmetry_multiplicity
 _atom_site_fract_x
 _atom_site_fract_y
 _atom_site_fract_z
 _atom_site_occupancy
  Ca  Ca0  1  0.675035  0.175035  0.500000  1
  Ca  Ca1  1  0.324965  0.824965  0.500000  1
  Ca  Ca2  1  0.175035  0.324965  0.500000  1
  Ca  Ca3  1  0.824965  0.675035  0.500000  1
  Ac  Ac4  1  0.500000  0.500000  0.000000  1
  Ac  Ac5  1  0.000000  0.000000  0.000000  1
  Ac  Ac6  1  0.888810  0.388810  0.500000  1
  Ac  Ac7  1  0.111190  0.611190  0.500000  1
  Ac  Ac8  1  0.388810  0.111190  0.500000  1
  Ac  Ac9  1  0.611190  0.888810  0.500000  1
  Sn  Sn10  1  0.571775  0.071775  0.000000  1
  Sn  Sn11  1  0.428225  0.928225  0.000000  1
  Sn  Sn12  1  0.071775  0.428225  0.000000  1
  Sn  Sn13  1  0.928225  0.571775  0.000000  1
  Sn  Sn14  1  0.657520  0.695064  0.000000  1
  Sn  Sn15  1  0.342480  0.304936  0.000000  1
  Sn  Sn16  1  0.157520  0.804936  0.000000  1
  Sn  Sn17  1  0.842480  0.195064  0.000000  1
  Sn  Sn18  1  0.304936  0.657520  0.000000  1
  Sn  Sn19  1  0.695064  0.342480  0.000000  1
  Sn  Sn20  1  0.195064  0.157520  0.000000  1
  Sn  Sn21  1  0.804936  0.842480  0.000000  1
  Sn  Sn22  1  0.664202  0.509247  0.500000  1
  Sn  Sn23  1  0.335798  0.490753  0.500000  1
  Sn  Sn24  1  0.164202  0.990753  0.500000  1
  Sn  Sn25  1  0.835798  0.009247  0.500000  1
  Sn  Sn26  1  0.490753  0.664202  0.500000  1
  Sn  Sn27  1  0.509247  0.335798  0.500000  1
  Sn  Sn28  1  0.009247  0.164202  0.500000  1
  Sn  Sn29  1  0.990753  0.835798  0.500000  1
  Ir  Ir30  1  0.746540  0.525095  0.000000  1
  Ir  Ir31  1  0.253460  0.474905  0.000000  1
  Ir  Ir32  1  0.246540  0.974905  0.000000  1
  Ir  Ir33  1  0.753460  0.025095  0.000000  1
  Ir  Ir34  1  0.474905  0.746540  0.000000  1
  Ir  Ir35  1  0.525095  0.253460  0.000000  1
  Ir  Ir36  1  0.025095  0.246540  0.000000  1
  Ir  Ir37  1  0.974905  0.753460  0.000000  1
