# generated using pymatgen
data_Tb3Er(CuP2)4
_symmetry_space_group_name_H-M   'P 1'
_cell_length_a   3.70737000
_cell_length_b   3.76710870
_cell_length_c   19.46019220
_cell_angle_alpha   90.20381882
_cell_angle_beta   90.00000000
_cell_angle_gamma   90.00000000
_symmetry_Int_Tables_number   1
_chemical_formula_structural   Tb3Er(CuP2)4
_chemical_formula_sum   'Tb3 Er1 Cu4 P8'
_cell_volume   271.78060497
_cell_formula_units_Z   1
loop_
 _symmetry_equiv_pos_site_id
 _symmetry_equiv_pos_as_xyz
  1  'x, y, z'
loop_
 _atom_site_type_symbol
 _atom_site_label
 _atom_site_symmetry_multiplicity
 _atom_site_fract_x
 _atom_site_fract_y
 _atom_site_fract_z
 _atom_site_occupancy
  Tb  Tb0  1  0.250000  0.714420  0.381394  1
  Tb  Tb1  1  0.250000  0.784127  0.884042  1
  Tb  Tb2  1  0.750000  0.285843  0.617682  1
  Er  Er3  1  0.750000  0.215139  0.117444  1
  Cu  Cu4  1  0.250000  0.213960  0.248401  1
  Cu  Cu5  1  0.750000  0.785986  0.751253  1
  Cu  Cu6  1  0.250000  0.283519  0.750846  1
  Cu  Cu7  1  0.750000  0.716838  0.248320  1
  P  P8  1  0.750000  0.806322  0.501463  1
  P  P9  1  0.750000  0.696965  0.003463  1
  P  P10  1  0.250000  0.194335  0.497580  1
  P  P11  1  0.250000  0.302522  0.000026  1
  P  P12  1  0.250000  0.715317  0.170351  1
  P  P13  1  0.750000  0.215222  0.326260  1
  P  P14  1  0.750000  0.284504  0.828472  1
  P  P15  1  0.250000  0.784981  0.673004  1
