# generated using pymatgen
data_DyHoFe4(SiC)2
_symmetry_space_group_name_H-M   'P 1'
_cell_length_a   3.74771900
_cell_length_b   5.53810158
_cell_length_c   6.74332200
_cell_angle_alpha   90.00000000
_cell_angle_beta   90.00000000
_cell_angle_gamma   70.22315560
_symmetry_Int_Tables_number   1
_chemical_formula_structural   DyHoFe4(SiC)2
_chemical_formula_sum   'Dy1 Ho1 Fe4 Si2 C2'
_cell_volume   131.70418565
_cell_formula_units_Z   1
loop_
 _symmetry_equiv_pos_site_id
 _symmetry_equiv_pos_as_xyz
  1  'x, y, z'
loop_
 _atom_site_type_symbol
 _atom_site_label
 _atom_site_symmetry_multiplicity
 _atom_site_fract_x
 _atom_site_fract_y
 _atom_site_fract_z
 _atom_site_occupancy
  Dy  Dy0  1  0.050669  0.898663  0.749999  1
  Ho  Ho1  1  0.949381  0.101242  0.249999  1
  Fe  Fe2  1  0.665788  0.668424  0.062377  1
  Fe  Fe3  1  0.665788  0.668424  0.437623  1
  Fe  Fe4  1  0.334110  0.331782  0.561540  1
  Fe  Fe5  1  0.334110  0.331782  0.938460  1
  Si  Si6  1  0.229426  0.541148  0.249999  1
  Si  Si7  1  0.771061  0.457880  0.749999  1
  C  C8  1  0.499837  0.000327  0.000918  1
  C  C9  1  0.499837  0.000327  0.499082  1
