# generated using pymatgen
data_TbPrPa4(Ni3Bi4)2
_symmetry_space_group_name_H-M   'P 1'
_cell_length_a   8.38666156
_cell_length_b   8.38666139
_cell_length_c   8.38666025
_cell_angle_alpha   109.73112939
_cell_angle_beta   109.34142256
_cell_angle_gamma   109.34143028
_symmetry_Int_Tables_number   1
_chemical_formula_structural   TbPrPa4(Ni3Bi4)2
_chemical_formula_sum   'Tb1 Pr1 Pa4 Ni6 Bi8'
_cell_volume   454.08655230
_cell_formula_units_Z   1
loop_
 _symmetry_equiv_pos_site_id
 _symmetry_equiv_pos_as_xyz
  1  'x, y, z'
loop_
 _atom_site_type_symbol
 _atom_site_label
 _atom_site_symmetry_multiplicity
 _atom_site_fract_x
 _atom_site_fract_y
 _atom_site_fract_z
 _atom_site_occupancy
  Tb  Tb0  1  0.250000  0.125000  0.875000  1
  Pr  Pr1  1  0.750000  0.375000  0.625000  1
  Pa  Pa2  1  0.127373  0.877214  0.249997  1
  Pa  Pa3  1  0.372627  0.622625  0.749841  1
  Pa  Pa4  1  0.872783  0.250159  0.122786  1
  Pa  Pa5  1  0.627217  0.750003  0.377375  1
  Ni  Ni6  1  0.628263  0.380509  0.246278  1
  Ni  Ni7  1  0.871737  0.118015  0.752246  1
  Ni  Ni8  1  0.365769  0.247754  0.619491  1
  Ni  Ni9  1  0.134231  0.753722  0.881985  1
  Ni  Ni10  1  0.250000  0.625000  0.375000  1
  Ni  Ni11  1  0.750000  0.875000  0.125000  1
  Bi  Bi12  1  0.332569  0.332557  0.331014  1
  Bi  Bi13  1  0.167431  0.498445  0.999990  1
  Bi  Bi14  1  0.999309  0.165095  0.501367  1
  Bi  Bi15  1  0.836272  0.834216  0.834905  1
  Bi  Bi16  1  0.500691  0.002057  0.165784  1
  Bi  Bi17  1  0.663728  0.498633  0.997943  1
  Bi  Bi18  1  0.498454  0.000010  0.667443  1
  Bi  Bi19  1  0.001546  0.668986  0.501555  1
