# generated using pymatgen
data_Dy7Y3(Bi3C)2
_symmetry_space_group_name_H-M   'P 1'
_cell_length_a   9.14525500
_cell_length_b   9.14523328
_cell_length_c   6.51333000
_cell_angle_alpha   90.00014442
_cell_angle_beta   90.00003879
_cell_angle_gamma   119.99546810
_symmetry_Int_Tables_number   1
_chemical_formula_structural   Dy7Y3(Bi3C)2
_chemical_formula_sum   'Dy7 Y3 Bi6 C2'
_cell_volume   471.78502579
_cell_formula_units_Z   1
loop_
 _symmetry_equiv_pos_site_id
 _symmetry_equiv_pos_as_xyz
  1  'x, y, z'
loop_
 _atom_site_type_symbol
 _atom_site_label
 _atom_site_symmetry_multiplicity
 _atom_site_fract_x
 _atom_site_fract_y
 _atom_site_fract_z
 _atom_site_occupancy
  Dy  Dy0  1  0.666603  0.333397  0.500000  1
  Dy  Dy1  1  0.791784  0.791782  0.250002  1
  Dy  Dy2  1  0.208026  0.999901  0.250004  1
  Dy  Dy3  1  0.999895  0.208023  0.250004  1
  Dy  Dy4  1  0.208219  0.208217  0.749993  1
  Dy  Dy5  1  0.791977  0.000105  0.749996  1
  Dy  Dy6  1  0.000100  0.791975  0.749994  1
  Y  Y7  1  0.333398  0.666604  0.500002  1
  Y  Y8  1  0.333397  0.666601  0.000001  1
  Y  Y9  1  0.666601  0.333397  0.000001  1
  Bi  Bi10  1  0.402081  0.402052  0.250046  1
  Bi  Bi11  1  0.597667  0.000076  0.250049  1
  Bi  Bi12  1  0.000018  0.597638  0.250050  1
  Bi  Bi13  1  0.597949  0.597920  0.749954  1
  Bi  Bi14  1  0.402362  0.999982  0.749956  1
  Bi  Bi15  1  0.999925  0.402333  0.749956  1
  C  C16  1  0.000000  0.000000  0.499996  1
  C  C17  1  0.000000  0.999999  0.999993  1
