# generated using pymatgen
data_CeB3F12
_symmetry_space_group_name_H-M   'P 1'
_cell_length_a   9.03224198
_cell_length_b   9.03224233
_cell_length_c   9.03224200
_cell_angle_alpha   60.00000121
_cell_angle_beta   59.99999992
_cell_angle_gamma   59.99999912
_symmetry_Int_Tables_number   1
_chemical_formula_structural   CeB3F12
_chemical_formula_sum   'Ce2 B6 F24'
_cell_volume   521.04077728
_cell_formula_units_Z   2
loop_
 _symmetry_equiv_pos_site_id
 _symmetry_equiv_pos_as_xyz
  1  'x, y, z'
loop_
 _atom_site_type_symbol
 _atom_site_label
 _atom_site_symmetry_multiplicity
 _atom_site_fract_x
 _atom_site_fract_y
 _atom_site_fract_z
 _atom_site_occupancy
  Ce  Ce0  1  0.000000  0.000000  0.000000  1
  Ce  Ce1  1  0.500000  0.500000  0.500000  1
  B  B2  1  0.749995  0.250006  0.250006  1
  B  B3  1  0.250006  0.749995  0.250006  1
  B  B4  1  0.749994  0.749994  0.250007  1
  B  B5  1  0.250006  0.250006  0.749995  1
  B  B6  1  0.749994  0.250007  0.749994  1
  B  B7  1  0.250007  0.749994  0.749994  1
  F  F8  1  0.270432  0.905714  0.094287  1
  F  F9  1  0.729568  0.270433  0.094286  1
  F  F10  1  0.905714  0.729567  0.094287  1
  F  F11  1  0.770405  0.405765  0.229595  1
  F  F12  1  0.405766  0.594234  0.229595  1
  F  F13  1  0.594234  0.770406  0.229595  1
  F  F14  1  0.094286  0.729568  0.270433  1
  F  F15  1  0.905714  0.094287  0.270432  1
  F  F16  1  0.729568  0.905713  0.270433  1
  F  F17  1  0.229595  0.770405  0.405765  1
  F  F18  1  0.594234  0.229595  0.405766  1
  F  F19  1  0.770405  0.594235  0.405765  1
  F  F20  1  0.770406  0.229595  0.594234  1
  F  F21  1  0.405765  0.770405  0.594235  1
  F  F22  1  0.229595  0.405766  0.594234  1
  F  F23  1  0.094287  0.905714  0.729567  1
  F  F24  1  0.270433  0.094286  0.729568  1
  F  F25  1  0.905713  0.270433  0.729568  1
  F  F26  1  0.594235  0.405765  0.770405  1
  F  F27  1  0.229595  0.594234  0.770406  1
  F  F28  1  0.405765  0.229595  0.770405  1
  F  F29  1  0.729567  0.094287  0.905714  1
  F  F30  1  0.094287  0.270432  0.905714  1
  F  F31  1  0.270433  0.729568  0.905713  1
