# generated using pymatgen
data_Rb3AsRhBr9
_symmetry_space_group_name_H-M   'P 1'
_cell_length_a   7.63485000
_cell_length_b   7.63484995
_cell_length_c   19.82217600
_cell_angle_alpha   90.00000000
_cell_angle_beta   90.00000000
_cell_angle_gamma   120.00000020
_symmetry_Int_Tables_number   1
_chemical_formula_structural   Rb3AsRhBr9
_chemical_formula_sum   'Rb6 As2 Rh2 Br18'
_cell_volume   1000.65178412
_cell_formula_units_Z   2
loop_
 _symmetry_equiv_pos_site_id
 _symmetry_equiv_pos_as_xyz
  1  'x, y, z'
loop_
 _atom_site_type_symbol
 _atom_site_label
 _atom_site_symmetry_multiplicity
 _atom_site_fract_x
 _atom_site_fract_y
 _atom_site_fract_z
 _atom_site_occupancy
  Rb  Rb0  1  0.666667  0.333333  0.917917  1
  Rb  Rb1  1  0.333333  0.666667  0.417917  1
  Rb  Rb2  1  0.666667  0.333333  0.554262  1
  Rb  Rb3  1  0.333333  0.666667  0.054262  1
  Rb  Rb4  1  0.000000  0.000000  0.766688  1
  Rb  Rb5  1  0.000000  0.000000  0.266688  1
  As  As6  1  0.333333  0.666667  0.655172  1
  As  As7  1  0.666667  0.333333  0.155172  1
  Rh  Rh8  1  0.666667  0.333333  0.336002  1
  Rh  Rh9  1  0.333333  0.666667  0.836002  1
  Br  Br10  1  0.821840  0.643679  0.408564  1
  Br  Br11  1  0.178160  0.356321  0.908564  1
  Br  Br12  1  0.178160  0.821840  0.908564  1
  Br  Br13  1  0.172183  0.344367  0.587878  1
  Br  Br14  1  0.643679  0.821840  0.908564  1
  Br  Br15  1  0.356321  0.178160  0.408564  1
  Br  Br16  1  0.022952  0.511476  0.760211  1
  Br  Br17  1  0.821840  0.178160  0.408564  1
  Br  Br18  1  0.511476  0.022952  0.260211  1
  Br  Br19  1  0.488524  0.511476  0.760211  1
  Br  Br20  1  0.511476  0.488524  0.260211  1
  Br  Br21  1  0.977048  0.488524  0.260211  1
  Br  Br22  1  0.344367  0.172183  0.087878  1
  Br  Br23  1  0.488524  0.977048  0.760211  1
  Br  Br24  1  0.827817  0.655633  0.087878  1
  Br  Br25  1  0.172183  0.827817  0.587878  1
  Br  Br26  1  0.655633  0.827817  0.587878  1
  Br  Br27  1  0.827817  0.172183  0.087878  1
