# generated using pymatgen
data_Yb2Cu17Si8Ni
_symmetry_space_group_name_H-M   'P 1'
_cell_length_a   8.14706852
_cell_length_b   8.14706891
_cell_length_c   8.10575499
_cell_angle_alpha   120.60848965
_cell_angle_beta   120.60848956
_cell_angle_gamma   89.24709574
_symmetry_Int_Tables_number   1
_chemical_formula_structural   Yb2Cu17Si8Ni
_chemical_formula_sum   'Yb2 Cu17 Si8 Ni1'
_cell_volume   375.89455321
_cell_formula_units_Z   1
loop_
 _symmetry_equiv_pos_site_id
 _symmetry_equiv_pos_as_xyz
  1  'x, y, z'
loop_
 _atom_site_type_symbol
 _atom_site_label
 _atom_site_symmetry_multiplicity
 _atom_site_fract_x
 _atom_site_fract_y
 _atom_site_fract_z
 _atom_site_occupancy
  Yb  Yb0  1  0.249999  0.250001  0.000000  1
  Yb  Yb1  1  0.750001  0.749999  0.000000  1
  Cu  Cu2  1  0.933918  0.202275  0.136188  1
  Cu  Cu3  1  0.201356  0.067701  0.269057  1
  Cu  Cu4  1  0.798644  0.932299  0.730943  1
  Cu  Cu5  1  0.432299  0.298644  0.730943  1
  Cu  Cu6  1  0.066082  0.797725  0.863812  1
  Cu  Cu7  1  0.809695  0.058113  0.500000  1
  Cu  Cu8  1  0.558113  0.309695  0.500000  1
  Cu  Cu9  1  0.190305  0.941887  0.500000  1
  Cu  Cu10  1  0.441887  0.690305  0.500000  1
  Cu  Cu11  1  0.944051  0.444051  0.756990  1
  Cu  Cu12  1  0.687060  0.187060  0.243008  1
  Cu  Cu13  1  0.055949  0.555949  0.243010  1
  Cu  Cu14  1  0.702275  0.433918  0.136188  1
  Cu  Cu15  1  0.567701  0.701356  0.269057  1
  Cu  Cu16  1  0.000000  0.500000  0.500000  1
  Cu  Cu17  1  0.312940  0.812940  0.756992  1
  Cu  Cu18  1  0.297725  0.566082  0.863812  1
  Si  Si19  1  0.785336  0.285336  0.841713  1
  Si  Si20  1  0.556378  0.056378  0.841712  1
  Si  Si21  1  0.056292  0.207448  0.499998  1
  Si  Si22  1  0.292552  0.443708  0.500002  1
  Si  Si23  1  0.943708  0.792552  0.500002  1
  Si  Si24  1  0.443622  0.943622  0.158288  1
  Si  Si25  1  0.214664  0.714664  0.158287  1
  Si  Si26  1  0.707448  0.556292  0.499998  1
  Ni  Ni27  1  0.500000  0.000000  0.500000  1
