# generated using pymatgen
data_Ce3Cu3Sn3Bi
_symmetry_space_group_name_H-M   'P 1'
_cell_length_a   8.44876701
_cell_length_b   8.44249182
_cell_length_c   8.44876720
_cell_angle_alpha   109.48393524
_cell_angle_beta   109.49371017
_cell_angle_gamma   109.46612338
_symmetry_Int_Tables_number   1
_chemical_formula_structural   Ce3Cu3Sn3Bi
_chemical_formula_sum   'Ce6 Cu6 Sn6 Bi2'
_cell_volume   463.73934533
_cell_formula_units_Z   2
loop_
 _symmetry_equiv_pos_site_id
 _symmetry_equiv_pos_as_xyz
  1  'x, y, z'
loop_
 _atom_site_type_symbol
 _atom_site_label
 _atom_site_symmetry_multiplicity
 _atom_site_fract_x
 _atom_site_fract_y
 _atom_site_fract_z
 _atom_site_occupancy
  Ce  Ce0  1  0.878682  0.250000  0.128682  1
  Ce  Ce1  1  0.624346  0.750000  0.374346  1
  Ce  Ce2  1  0.246370  0.124109  0.876476  1
  Ce  Ce3  1  0.752367  0.375891  0.622261  1
  Ce  Ce4  1  0.126853  0.877456  0.249646  1
  Ce  Ce5  1  0.372189  0.622544  0.749396  1
  Cu  Cu6  1  0.368898  0.250000  0.618898  1
  Cu  Cu7  1  0.124836  0.750000  0.874836  1
  Cu  Cu8  1  0.243328  0.617903  0.369713  1
  Cu  Cu9  1  0.751810  0.882097  0.125425  1
  Cu  Cu10  1  0.625443  0.373167  0.254488  1
  Cu  Cu11  1  0.881321  0.126833  0.752276  1
  Sn  Sn12  1  0.999693  0.662440  0.500787  1
  Sn  Sn13  1  0.838347  0.837560  0.837254  1
  Sn  Sn14  1  0.498871  0.998854  0.162439  1
  Sn  Sn15  1  0.163586  0.501146  0.000017  1
  Sn  Sn16  1  0.998808  0.162120  0.500043  1
  Sn  Sn17  1  0.337923  0.337880  0.336688  1
  Bi  Bi18  1  0.666465  0.500846  0.000710  1
  Bi  Bi19  1  0.499864  0.999154  0.665619  1
