# generated using pymatgen
data_Hf3Ta6NbN12
_symmetry_space_group_name_H-M   'P 1'
_cell_length_a   5.29287502
_cell_length_b   5.29367857
_cell_length_c   10.51016003
_cell_angle_alpha   89.99583478
_cell_angle_beta   89.99571998
_cell_angle_gamma   120.11112623
_symmetry_Int_Tables_number   1
_chemical_formula_structural   Hf3Ta6NbN12
_chemical_formula_sum   'Hf3 Ta6 Nb1 N12'
_cell_volume   254.74270555
_cell_formula_units_Z   1
loop_
 _symmetry_equiv_pos_site_id
 _symmetry_equiv_pos_as_xyz
  1  'x, y, z'
loop_
 _atom_site_type_symbol
 _atom_site_label
 _atom_site_symmetry_multiplicity
 _atom_site_fract_x
 _atom_site_fract_y
 _atom_site_fract_z
 _atom_site_occupancy
  Hf  Hf0  1  0.667007  0.334664  0.999768  1
  Hf  Hf1  1  0.334793  0.667043  0.999757  1
  Hf  Hf2  1  0.334562  0.666829  0.499891  1
  Ta  Ta3  1  0.320107  0.997875  0.748228  1
  Ta  Ta4  1  0.000610  0.321427  0.748209  1
  Ta  Ta5  1  0.320462  0.321728  0.251921  1
  Ta  Ta6  1  0.679078  0.999254  0.251914  1
  Ta  Ta7  1  0.001961  0.680333  0.251977  1
  Ta  Ta8  1  0.666588  0.334370  0.500446  1
  Nb  Nb9  1  0.676134  0.677413  0.747705  1
  N  N10  1  0.660340  0.654243  0.377634  1
  N  N11  1  0.347640  0.006511  0.377554  1
  N  N12  1  0.994168  0.341525  0.377595  1
  N  N13  1  0.341670  0.335597  0.621124  1
  N  N14  1  0.658076  0.009821  0.621877  1
  N  N15  1  0.997124  0.652019  0.621914  1
  N  N16  1  0.339330  0.339034  0.873709  1
  N  N17  1  0.654684  0.003759  0.873003  1
  N  N18  1  0.003351  0.654409  0.873046  1
  N  N19  1  0.656590  0.656228  0.127546  1
  N  N20  1  0.345527  0.000686  0.127585  1
  N  N21  1  0.000195  0.345230  0.127596  1
