# generated using pymatgen
data_YHo9(Hg2Pd)4
_symmetry_space_group_name_H-M   'P 1'
_cell_length_a   3.64218900
_cell_length_b   7.92929115
_cell_length_c   18.10567433
_cell_angle_alpha   90.02198225
_cell_angle_beta   90.00000000
_cell_angle_gamma   90.00000000
_symmetry_Int_Tables_number   1
_chemical_formula_structural   YHo9(Hg2Pd)4
_chemical_formula_sum   'Y1 Ho9 Hg8 Pd4'
_cell_volume   522.89141963
_cell_formula_units_Z   1
loop_
 _symmetry_equiv_pos_site_id
 _symmetry_equiv_pos_as_xyz
  1  'x, y, z'
loop_
 _atom_site_type_symbol
 _atom_site_label
 _atom_site_symmetry_multiplicity
 _atom_site_fract_x
 _atom_site_fract_y
 _atom_site_fract_z
 _atom_site_occupancy
  Y  Y0  1  0.000000  0.500000  0.500000  1
  Ho  Ho1  1  0.000000  0.000000  0.000000  1
  Ho  Ho2  1  0.000000  0.735057  0.284256  1
  Ho  Ho3  1  0.000000  0.264943  0.715744  1
  Ho  Ho4  1  0.000000  0.764838  0.784241  1
  Ho  Ho5  1  0.000000  0.235162  0.215759  1
  Ho  Ho6  1  0.000000  0.613495  0.084299  1
  Ho  Ho7  1  0.000000  0.386505  0.915701  1
  Ho  Ho8  1  0.000000  0.886618  0.584403  1
  Ho  Ho9  1  0.000000  0.113382  0.415597  1
  Hg  Hg10  1  0.500000  0.711952  0.935112  1
  Hg  Hg11  1  0.500000  0.288048  0.064888  1
  Hg  Hg12  1  0.500000  0.788905  0.434882  1
  Hg  Hg13  1  0.500000  0.211095  0.565118  1
  Hg  Hg14  1  0.500000  0.581865  0.647863  1
  Hg  Hg15  1  0.500000  0.418135  0.352137  1
  Hg  Hg16  1  0.500000  0.918297  0.147516  1
  Hg  Hg17  1  0.500000  0.081703  0.852484  1
  Pd  Pd18  1  0.500000  0.524357  0.195831  1
  Pd  Pd19  1  0.500000  0.475643  0.804169  1
  Pd  Pd20  1  0.500000  0.975714  0.695819  1
  Pd  Pd21  1  0.500000  0.024286  0.304181  1
