# generated using pymatgen
data_ThGa2Ni2Pt
_symmetry_space_group_name_H-M   'P 1'
_cell_length_a   9.08675400
_cell_length_b   9.08675281
_cell_length_c   4.16447000
_cell_angle_alpha   90.00000000
_cell_angle_beta   90.00000000
_cell_angle_gamma   119.99999707
_symmetry_Int_Tables_number   1
_chemical_formula_structural   ThGa2Ni2Pt
_chemical_formula_sum   'Th3 Ga6 Ni6 Pt3'
_cell_volume   297.78846216
_cell_formula_units_Z   3
loop_
 _symmetry_equiv_pos_site_id
 _symmetry_equiv_pos_as_xyz
  1  'x, y, z'
loop_
 _atom_site_type_symbol
 _atom_site_label
 _atom_site_symmetry_multiplicity
 _atom_site_fract_x
 _atom_site_fract_y
 _atom_site_fract_z
 _atom_site_occupancy
  Th  Th0  1  0.333333  0.666667  0.500000  1
  Th  Th1  1  0.666667  0.333333  0.500000  1
  Th  Th2  1  0.000000  0.000000  0.000000  1
  Ga  Ga3  1  0.463661  0.000000  0.000000  1
  Ga  Ga4  1  0.000000  0.463661  0.000000  1
  Ga  Ga5  1  0.536339  0.536339  0.000000  1
  Ga  Ga6  1  0.714326  0.000000  0.500000  1
  Ga  Ga7  1  0.000000  0.714326  0.500000  1
  Ga  Ga8  1  0.285674  0.285674  0.500000  1
  Ni  Ni9  1  0.223185  0.387052  0.000000  1
  Ni  Ni10  1  0.612948  0.836133  0.000000  1
  Ni  Ni11  1  0.163867  0.776815  0.000000  1
  Ni  Ni12  1  0.836133  0.612948  0.000000  1
  Ni  Ni13  1  0.776815  0.163867  0.000000  1
  Ni  Ni14  1  0.387052  0.223185  0.000000  1
  Pt  Pt15  1  0.280480  0.000000  0.500000  1
  Pt  Pt16  1  0.000000  0.280480  0.500000  1
  Pt  Pt17  1  0.719520  0.719520  0.500000  1
