# generated using pymatgen
data_Ca3GeAs2Pd3
_symmetry_space_group_name_H-M   'P 1'
_cell_length_a   7.05802600
_cell_length_b   7.05802616
_cell_length_c   4.14226500
_cell_angle_alpha   90.00000000
_cell_angle_beta   90.00000000
_cell_angle_gamma   119.99999926
_symmetry_Int_Tables_number   1
_chemical_formula_structural   Ca3GeAs2Pd3
_chemical_formula_sum   'Ca3 Ge1 As2 Pd3'
_cell_volume   178.70431196
_cell_formula_units_Z   1
loop_
 _symmetry_equiv_pos_site_id
 _symmetry_equiv_pos_as_xyz
  1  'x, y, z'
loop_
 _atom_site_type_symbol
 _atom_site_label
 _atom_site_symmetry_multiplicity
 _atom_site_fract_x
 _atom_site_fract_y
 _atom_site_fract_z
 _atom_site_occupancy
  Ca  Ca0  1  0.000000  0.576479  0.500000  1
  Ca  Ca1  1  0.423521  0.423521  0.500000  1
  Ca  Ca2  1  0.576479  0.000000  0.500000  1
  Ge  Ge3  1  0.000000  0.000000  0.500000  1
  As  As4  1  0.666667  0.333333  0.000000  1
  As  As5  1  0.333333  0.666667  0.000000  1
  Pd  Pd6  1  0.235717  0.000000  0.000000  1
  Pd  Pd7  1  0.764283  0.764283  0.000000  1
  Pd  Pd8  1  0.000000  0.235717  0.000000  1
