# generated using pymatgen
data_Yb2Er2B16Os3Ru
_symmetry_space_group_name_H-M   'P 1'
_cell_length_a   3.54053200
_cell_length_b   5.95082182
_cell_length_c   11.50086697
_cell_angle_alpha   89.82780146
_cell_angle_beta   90.00000000
_cell_angle_gamma   90.00000000
_symmetry_Int_Tables_number   1
_chemical_formula_structural   Yb2Er2B16Os3Ru
_chemical_formula_sum   'Yb2 Er2 B16 Os3 Ru1'
_cell_volume   242.31153536
_cell_formula_units_Z   1
loop_
 _symmetry_equiv_pos_site_id
 _symmetry_equiv_pos_as_xyz
  1  'x, y, z'
loop_
 _atom_site_type_symbol
 _atom_site_label
 _atom_site_symmetry_multiplicity
 _atom_site_fract_x
 _atom_site_fract_y
 _atom_site_fract_z
 _atom_site_occupancy
  Yb  Yb0  1  0.500000  0.129255  0.350731  1
  Yb  Yb1  1  0.500000  0.870758  0.649540  1
  Er  Er2  1  0.500000  0.628953  0.150312  1
  Er  Er3  1  0.500000  0.371215  0.849841  1
  B  B4  1  0.000000  0.975056  0.192072  1
  B  B5  1  0.000000  0.024902  0.807777  1
  B  B6  1  0.000000  0.475715  0.308621  1
  B  B7  1  0.000000  0.524757  0.691484  1
  B  B8  1  0.000000  0.789228  0.315165  1
  B  B9  1  0.000000  0.210623  0.684773  1
  B  B10  1  0.000000  0.287737  0.186003  1
  B  B11  1  0.000000  0.711941  0.814206  1
  B  B12  1  0.000000  0.864056  0.469579  1
  B  B13  1  0.000000  0.135997  0.530476  1
  B  B14  1  0.000000  0.364094  0.030335  1
  B  B15  1  0.000000  0.635801  0.969400  1
  B  B16  1  0.000000  0.887674  0.047407  1
  B  B17  1  0.000000  0.112299  0.952411  1
  B  B18  1  0.000000  0.386133  0.453162  1
  B  B19  1  0.000000  0.613925  0.546880  1
  Os  Os20  1  0.500000  0.636824  0.409322  1
  Os  Os21  1  0.500000  0.363068  0.590759  1
  Os  Os22  1  0.500000  0.141380  0.091131  1
  Ru  Ru23  1  0.500000  0.858608  0.908613  1
