# generated using pymatgen
data_Na4TmP12Ir19
_symmetry_space_group_name_H-M   'P 1'
_cell_length_a   12.64332547
_cell_length_b   12.63055484
_cell_length_c   3.95524700
_cell_angle_alpha   90.00000000
_cell_angle_beta   90.00000000
_cell_angle_gamma   119.96659330
_symmetry_Int_Tables_number   1
_chemical_formula_structural   Na4TmP12Ir19
_chemical_formula_sum   'Na4 Tm1 P12 Ir19'
_cell_volume   547.18487635
_cell_formula_units_Z   1
loop_
 _symmetry_equiv_pos_site_id
 _symmetry_equiv_pos_as_xyz
  1  'x, y, z'
loop_
 _atom_site_type_symbol
 _atom_site_label
 _atom_site_symmetry_multiplicity
 _atom_site_fract_x
 _atom_site_fract_y
 _atom_site_fract_z
 _atom_site_occupancy
  Na  Na0  1  0.818562  0.817616  0.500000  1
  Na  Na1  1  0.181438  0.999052  0.500000  1
  Na  Na2  1  0.667352  0.333754  0.000000  1
  Na  Na3  1  0.332648  0.666403  0.000000  1
  Tm  Tm4  1  0.000000  0.176676  0.500000  1
  P  P5  1  0.000000  0.819761  0.000000  1
  P  P6  1  0.182797  0.178131  0.000000  1
  P  P7  1  0.817203  0.995334  0.000000  1
  P  P8  1  0.688084  0.176022  0.500000  1
  P  P9  1  0.823498  0.513485  0.500000  1
  P  P10  1  0.487036  0.311447  0.500000  1
  P  P11  1  0.176502  0.689987  0.500000  1
  P  P12  1  0.512964  0.824411  0.500000  1
  P  P13  1  0.311916  0.487938  0.500000  1
  P  P14  1  0.000000  0.360437  0.000000  1
  P  P15  1  0.639252  0.639593  0.000000  1
  P  P16  1  0.360748  0.000340  0.000000  1
  Ir  Ir17  1  0.000000  0.541848  0.000000  1
  Ir  Ir18  1  0.455293  0.459636  0.000000  1
  Ir  Ir19  1  0.544707  0.004343  0.000000  1
  Ir  Ir20  1  0.000000  0.708814  0.500000  1
  Ir  Ir21  1  0.289428  0.291395  0.500000  1
  Ir  Ir22  1  0.710572  0.001966  0.500000  1
  Ir  Ir23  1  0.808259  0.180753  0.000000  1
  Ir  Ir24  1  0.817333  0.621349  0.000000  1
  Ir  Ir25  1  0.379906  0.197700  0.000000  1
  Ir  Ir26  1  0.182667  0.804016  0.000000  1
  Ir  Ir27  1  0.620094  0.817794  0.000000  1
  Ir  Ir28  1  0.191741  0.372494  0.000000  1
  Ir  Ir29  1  0.870266  0.360655  0.500000  1
  Ir  Ir30  1  0.637470  0.510129  0.500000  1
  Ir  Ir31  1  0.490527  0.130045  0.500000  1
  Ir  Ir32  1  0.362530  0.872659  0.500000  1
  Ir  Ir33  1  0.509473  0.639518  0.500000  1
  Ir  Ir34  1  0.129734  0.490388  0.500000  1
  Ir  Ir35  1  0.000000  0.004109  0.000000  1
