# generated using pymatgen
data_Y2Pa2Cu3Sb8
_symmetry_space_group_name_H-M   'P 1'
_cell_length_a   10.44123667
_cell_length_b   10.44123698
_cell_length_c   10.43675325
_cell_angle_alpha   145.66618629
_cell_angle_beta   145.66618866
_cell_angle_gamma   49.39640885
_symmetry_Int_Tables_number   1
_chemical_formula_structural   Y2Pa2Cu3Sb8
_chemical_formula_sum   'Y2 Pa2 Cu3 Sb8'
_cell_volume   360.21951763
_cell_formula_units_Z   1
loop_
 _symmetry_equiv_pos_site_id
 _symmetry_equiv_pos_as_xyz
  1  'x, y, z'
loop_
 _atom_site_type_symbol
 _atom_site_label
 _atom_site_symmetry_multiplicity
 _atom_site_fract_x
 _atom_site_fract_y
 _atom_site_fract_z
 _atom_site_occupancy
  Y  Y0  1  0.630899  0.630899  0.510513  1
  Y  Y1  1  0.120386  0.120386  0.489487  1
  Pa  Pa2  1  0.365869  0.872500  0.000000  1
  Pa  Pa3  1  0.872500  0.365869  0.000000  1
  Cu  Cu4  1  0.999889  0.999889  0.000000  1
  Cu  Cu5  1  0.002096  0.502096  0.500000  1
  Cu  Cu6  1  0.502096  0.002096  0.500000  1
  Sb  Sb7  1  0.338258  0.338258  0.510681  1
  Sb  Sb8  1  0.827577  0.827577  0.489319  1
  Sb  Sb9  1  0.668185  0.184241  0.000000  1
  Sb  Sb10  1  0.184241  0.668185  0.000000  1
  Sb  Sb11  1  0.246979  0.246979  0.000000  1
  Sb  Sb12  1  0.746517  0.746517  0.000000  1
  Sb  Sb13  1  0.747252  0.247252  0.500000  1
  Sb  Sb14  1  0.247252  0.747252  0.500000  1
