# generated using pymatgen
data_GdZn3Bi(PN2)6
_symmetry_space_group_name_H-M   'P 1'
_cell_length_a   7.33106952
_cell_length_b   7.35701605
_cell_length_c   7.33107000
_cell_angle_alpha   109.54292225
_cell_angle_beta   109.39940881
_cell_angle_gamma   109.54293837
_symmetry_Int_Tables_number   1
_chemical_formula_structural   GdZn3Bi(PN2)6
_chemical_formula_sum   'Gd1 Zn3 Bi1 P6 N12'
_cell_volume   304.10911766
_cell_formula_units_Z   1
loop_
 _symmetry_equiv_pos_site_id
 _symmetry_equiv_pos_as_xyz
  1  'x, y, z'
loop_
 _atom_site_type_symbol
 _atom_site_label
 _atom_site_symmetry_multiplicity
 _atom_site_fract_x
 _atom_site_fract_y
 _atom_site_fract_z
 _atom_site_occupancy
  Gd  Gd0  1  0.000000  0.352587  0.000000  1
  Zn  Zn1  1  0.629047  0.636642  0.629047  1
  Zn  Zn2  1  0.370953  0.007595  0.000000  1
  Zn  Zn3  1  0.000000  0.007595  0.370953  1
  Bi  Bi4  1  0.000000  0.943892  0.000000  1
  P  P5  1  0.743804  0.250881  0.491965  1
  P  P6  1  0.251838  0.758916  0.508035  1
  P  P7  1  0.508035  0.758916  0.251838  1
  P  P8  1  0.491965  0.250881  0.743804  1
  P  P9  1  0.748162  0.507076  0.256196  1
  P  P10  1  0.256196  0.507076  0.748162  1
  N  N11  1  0.582185  0.287766  0.000000  1
  N  N12  1  0.425353  0.427804  0.698269  1
  N  N13  1  0.000000  0.287766  0.582185  1
  N  N14  1  0.272915  0.002451  0.574647  1
  N  N15  1  0.698269  0.427804  0.425353  1
  N  N16  1  0.000000  0.573024  0.301822  1
  N  N17  1  0.574647  0.002451  0.272915  1
  N  N18  1  0.417815  0.705581  0.417815  1
  N  N19  1  0.301822  0.573024  0.000000  1
  N  N20  1  0.698178  0.271202  0.698178  1
  N  N21  1  0.727085  0.729536  0.301731  1
  N  N22  1  0.301731  0.729536  0.727085  1
