# generated using pymatgen
data_Pr5ZrIrO12
_symmetry_space_group_name_H-M   'P 1'
_cell_length_a   7.16486157
_cell_length_b   7.16486292
_cell_length_c   7.80299341
_cell_angle_alpha   74.24365207
_cell_angle_beta   74.24363954
_cell_angle_gamma   50.52692739
_symmetry_Int_Tables_number   1
_chemical_formula_structural   Pr5ZrIrO12
_chemical_formula_sum   'Pr5 Zr1 Ir1 O12'
_cell_volume   294.94003199
_cell_formula_units_Z   1
loop_
 _symmetry_equiv_pos_site_id
 _symmetry_equiv_pos_as_xyz
  1  'x, y, z'
loop_
 _atom_site_type_symbol
 _atom_site_label
 _atom_site_symmetry_multiplicity
 _atom_site_fract_x
 _atom_site_fract_y
 _atom_site_fract_z
 _atom_site_occupancy
  Pr  Pr0  1  0.303350  0.306425  0.359823  1
  Pr  Pr1  1  0.693575  0.696650  0.640177  1
  Pr  Pr2  1  0.682583  0.699540  0.170463  1
  Pr  Pr3  1  0.300460  0.317417  0.829537  1
  Pr  Pr4  1  0.006158  0.993842  0.500000  1
  Zr  Zr5  1  0.782458  0.217542  0.000000  1
  Ir  Ir6  1  0.250129  0.749871  0.000000  1
  O  O7  1  0.092872  0.596615  0.574590  1
  O  O8  1  0.019741  0.979747  0.191162  1
  O  O9  1  0.403385  0.907128  0.425410  1
  O  O10  1  0.494343  0.506805  0.177801  1
  O  O11  1  0.096524  0.591389  0.080017  1
  O  O12  1  0.902452  0.409202  0.420166  1
  O  O13  1  0.020253  0.980259  0.808838  1
  O  O14  1  0.590798  0.097547  0.579834  1
  O  O15  1  0.493195  0.505657  0.822199  1
  O  O16  1  0.562903  0.103789  0.081136  1
  O  O17  1  0.408611  0.903476  0.919983  1
  O  O18  1  0.896211  0.437097  0.918864  1
