# generated using pymatgen
data_Ho3Pa(ZnRh)4
_symmetry_space_group_name_H-M   'P 1'
_cell_length_a   3.85797400
_cell_length_b   7.09335001
_cell_length_c   8.29284635
_cell_angle_alpha   90.54776279
_cell_angle_beta   90.00000000
_cell_angle_gamma   90.00000000
_symmetry_Int_Tables_number   1
_chemical_formula_structural   Ho3Pa(ZnRh)4
_chemical_formula_sum   'Ho3 Pa1 Zn4 Rh4'
_cell_volume   226.93132988
_cell_formula_units_Z   1
loop_
 _symmetry_equiv_pos_site_id
 _symmetry_equiv_pos_as_xyz
  1  'x, y, z'
loop_
 _atom_site_type_symbol
 _atom_site_label
 _atom_site_symmetry_multiplicity
 _atom_site_fract_x
 _atom_site_fract_y
 _atom_site_fract_z
 _atom_site_occupancy
  Ho  Ho0  1  0.750000  0.445900  0.807760  1
  Ho  Ho1  1  0.250000  0.049937  0.319755  1
  Ho  Ho2  1  0.750000  0.943391  0.688140  1
  Pa  Pa3  1  0.250000  0.551147  0.180124  1
  Zn  Zn4  1  0.250000  0.129106  0.935112  1
  Zn  Zn5  1  0.750000  0.892961  0.063228  1
  Zn  Zn6  1  0.250000  0.622891  0.563790  1
  Zn  Zn7  1  0.750000  0.366423  0.442485  1
  Rh  Rh8  1  0.750000  0.739196  0.356069  1
  Rh  Rh9  1  0.250000  0.236290  0.625635  1
  Rh  Rh10  1  0.750000  0.281969  0.128399  1
  Rh  Rh11  1  0.250000  0.740790  0.889504  1
