# generated using pymatgen
data_Tm2Mn5Fe3(MoP3)2
_symmetry_space_group_name_H-M   'P 1'
_cell_length_a   3.67043300
_cell_length_b   10.55497600
_cell_length_c   12.20433200
_cell_angle_alpha   90.00000000
_cell_angle_beta   90.00000000
_cell_angle_gamma   90.00000000
_symmetry_Int_Tables_number   1
_chemical_formula_structural   Tm2Mn5Fe3(MoP3)2
_chemical_formula_sum   'Tm4 Mn10 Fe6 Mo4 P12'
_cell_volume   472.81208059
_cell_formula_units_Z   2
loop_
 _symmetry_equiv_pos_site_id
 _symmetry_equiv_pos_as_xyz
  1  'x, y, z'
loop_
 _atom_site_type_symbol
 _atom_site_label
 _atom_site_symmetry_multiplicity
 _atom_site_fract_x
 _atom_site_fract_y
 _atom_site_fract_z
 _atom_site_occupancy
  Tm  Tm0  1  0.250000  0.581213  0.710429  1
  Tm  Tm1  1  0.250000  0.918787  0.210429  1
  Tm  Tm2  1  0.750000  0.415700  0.291227  1
  Tm  Tm3  1  0.750000  0.084300  0.791227  1
  Mn  Mn4  1  0.250000  0.408976  0.493209  1
  Mn  Mn5  1  0.250000  0.091024  0.993209  1
  Mn  Mn6  1  0.750000  0.589512  0.507075  1
  Mn  Mn7  1  0.750000  0.910488  0.007075  1
  Mn  Mn8  1  0.250000  0.216222  0.177815  1
  Mn  Mn9  1  0.250000  0.283778  0.677815  1
  Mn  Mn10  1  0.750000  0.781800  0.822692  1
  Mn  Mn11  1  0.750000  0.718200  0.322692  1
  Mn  Mn12  1  0.250000  0.877433  0.698245  1
  Mn  Mn13  1  0.250000  0.622567  0.198245  1
  Fe  Fe14  1  0.750000  0.123434  0.300576  1
  Fe  Fe15  1  0.750000  0.376566  0.800576  1
  Fe  Fe16  1  0.250000  0.463105  0.933765  1
  Fe  Fe17  1  0.250000  0.036895  0.433765  1
  Fe  Fe18  1  0.750000  0.536837  0.066716  1
  Fe  Fe19  1  0.750000  0.963163  0.566716  1
  Mo  Mo20  1  0.250000  0.706783  0.986686  1
  Mo  Mo21  1  0.250000  0.793217  0.486686  1
  Mo  Mo22  1  0.750000  0.293574  0.012854  1
  Mo  Mo23  1  0.750000  0.206426  0.512854  1
  P  P24  1  0.250000  0.425364  0.113023  1
  P  P25  1  0.250000  0.074636  0.613023  1
  P  P26  1  0.750000  0.571174  0.886331  1
  P  P27  1  0.750000  0.928826  0.386331  1
  P  P28  1  0.250000  0.267077  0.867515  1
  P  P29  1  0.250000  0.232923  0.367515  1
  P  P30  1  0.750000  0.737619  0.131252  1
  P  P31  1  0.750000  0.762381  0.631252  1
  P  P32  1  0.250000  0.591082  0.385050  1
  P  P33  1  0.250000  0.908918  0.885050  1
  P  P34  1  0.750000  0.407895  0.615541  1
  P  P35  1  0.750000  0.092105  0.115541  1
