# generated using pymatgen
data_Ac4GeTe3
_symmetry_space_group_name_H-M   'P 1'
_cell_length_a   8.18745858
_cell_length_b   8.18745757
_cell_length_c   8.18745893
_cell_angle_alpha   132.04813998
_cell_angle_beta   132.04812883
_cell_angle_gamma   70.15301451
_symmetry_Int_Tables_number   1
_chemical_formula_structural   Ac4GeTe3
_chemical_formula_sum   'Ac4 Ge1 Te3'
_cell_volume   296.66878240
_cell_formula_units_Z   1
loop_
 _symmetry_equiv_pos_site_id
 _symmetry_equiv_pos_as_xyz
  1  'x, y, z'
loop_
 _atom_site_type_symbol
 _atom_site_label
 _atom_site_symmetry_multiplicity
 _atom_site_fract_x
 _atom_site_fract_y
 _atom_site_fract_z
 _atom_site_occupancy
  Ac  Ac0  1  0.000000  0.500000  0.500000  1
  Ac  Ac1  1  0.500000  0.000000  0.500000  1
  Ac  Ac2  1  0.234788  0.234788  0.000000  1
  Ac  Ac3  1  0.765212  0.765212  0.000000  1
  Ge  Ge4  1  0.000000  0.000000  0.000000  1
  Te  Te5  1  0.500000  0.500000  0.000000  1
  Te  Te6  1  0.750000  0.250000  0.500000  1
  Te  Te7  1  0.250000  0.750000  0.500000  1
