# generated using pymatgen
data_La20Ir8Os3Ru
_symmetry_space_group_name_H-M   'P 1'
_cell_length_a   11.40352400
_cell_length_b   11.40352400
_cell_length_c   6.68152500
_cell_angle_alpha   90.00000000
_cell_angle_beta   90.00000000
_cell_angle_gamma   90.00000000
_symmetry_Int_Tables_number   1
_chemical_formula_structural   La20Ir8Os3Ru
_chemical_formula_sum   'La20 Ir8 Os3 Ru1'
_cell_volume   868.86791380
_cell_formula_units_Z   1
loop_
 _symmetry_equiv_pos_site_id
 _symmetry_equiv_pos_as_xyz
  1  'x, y, z'
loop_
 _atom_site_type_symbol
 _atom_site_label
 _atom_site_symmetry_multiplicity
 _atom_site_fract_x
 _atom_site_fract_y
 _atom_site_fract_z
 _atom_site_occupancy
  La  La0  1  0.294630  0.089877  0.388233  1
  La  La1  1  0.294929  0.910235  0.887204  1
  La  La2  1  0.705071  0.089765  0.887204  1
  La  La3  1  0.705370  0.910123  0.388233  1
  La  La4  1  0.589765  0.794929  0.887204  1
  La  La5  1  0.589877  0.205370  0.388233  1
  La  La6  1  0.410123  0.794630  0.388233  1
  La  La7  1  0.410235  0.205071  0.887204  1
  La  La8  1  0.204932  0.410318  0.612852  1
  La  La9  1  0.204943  0.589719  0.112721  1
  La  La10  1  0.795057  0.410281  0.112721  1
  La  La11  1  0.795068  0.589682  0.612852  1
  La  La12  1  0.910281  0.704943  0.112721  1
  La  La13  1  0.910318  0.295068  0.612852  1
  La  La14  1  0.089682  0.704932  0.612852  1
  La  La15  1  0.089719  0.295057  0.112721  1
  La  La16  1  0.000000  0.000000  0.500038  1
  La  La17  1  0.000000  0.000000  0.000269  1
  La  La18  1  0.500000  0.500000  0.000269  1
  La  La19  1  0.500000  0.500000  0.500038  1
  Ir  Ir20  1  0.847815  0.151481  0.249603  1
  Ir  Ir21  1  0.847915  0.848460  0.749840  1
  Ir  Ir22  1  0.152085  0.151540  0.749840  1
  Ir  Ir23  1  0.152185  0.848519  0.249603  1
  Ir  Ir24  1  0.651540  0.347915  0.749840  1
  Ir  Ir25  1  0.651481  0.652185  0.249603  1
  Ir  Ir26  1  0.348519  0.347815  0.249603  1
  Ir  Ir27  1  0.348460  0.652085  0.749840  1
  Os  Os28  1  0.500000  0.000000  0.624176  1
  Os  Os29  1  0.000000  0.500000  0.875752  1
  Os  Os30  1  0.000000  0.500000  0.375790  1
  Ru  Ru31  1  0.500000  0.000000  0.121855  1
