# generated using pymatgen
data_Hf6Al16FePt6
_symmetry_space_group_name_H-M   'P 1'
_cell_length_a   8.73138233
_cell_length_b   8.72094255
_cell_length_c   8.72094320
_cell_angle_alpha   60.19962114
_cell_angle_beta   59.96039150
_cell_angle_gamma   59.96039374
_symmetry_Int_Tables_number   1
_chemical_formula_structural   Hf6Al16FePt6
_chemical_formula_sum   'Hf6 Al16 Fe1 Pt6'
_cell_volume   469.98582237
_cell_formula_units_Z   1
loop_
 _symmetry_equiv_pos_site_id
 _symmetry_equiv_pos_as_xyz
  1  'x, y, z'
loop_
 _atom_site_type_symbol
 _atom_site_label
 _atom_site_symmetry_multiplicity
 _atom_site_fract_x
 _atom_site_fract_y
 _atom_site_fract_z
 _atom_site_occupancy
  Hf  Hf0  1  0.683225  0.679569  0.320431  1
  Hf  Hf1  1  0.316775  0.679569  0.320431  1
  Hf  Hf2  1  0.683386  0.316614  0.316614  1
  Hf  Hf3  1  0.316775  0.320431  0.679569  1
  Hf  Hf4  1  0.683225  0.320431  0.679569  1
  Hf  Hf5  1  0.316614  0.683386  0.683386  1
  Al  Al6  1  0.885674  0.866140  0.362510  1
  Al  Al7  1  0.885674  0.362510  0.866140  1
  Al  Al8  1  0.361374  0.878526  0.878526  1
  Al  Al9  1  0.881572  0.878526  0.878526  1
  Al  Al10  1  0.114326  0.133860  0.637490  1
  Al  Al11  1  0.114326  0.637490  0.133860  1
  Al  Al12  1  0.638626  0.121474  0.121474  1
  Al  Al13  1  0.118428  0.121474  0.121474  1
  Al  Al14  1  0.663360  0.662111  0.011169  1
  Al  Al15  1  0.663360  0.011169  0.662111  1
  Al  Al16  1  0.008774  0.658463  0.658463  1
  Al  Al17  1  0.674298  0.658463  0.658463  1
  Al  Al18  1  0.336640  0.337889  0.988831  1
  Al  Al19  1  0.336640  0.988831  0.337889  1
  Al  Al20  1  0.991226  0.341537  0.341537  1
  Al  Al21  1  0.325702  0.341537  0.341537  1
  Fe  Fe22  1  0.000000  0.500000  0.500000  1
  Pt  Pt23  1  0.000000  0.000000  0.000000  1
  Pt  Pt24  1  0.000000  0.000000  0.500000  1
  Pt  Pt25  1  0.500000  0.000000  0.500000  1
  Pt  Pt26  1  0.500000  0.500000  0.000000  1
  Pt  Pt27  1  0.000000  0.500000  0.000000  1
  Pt  Pt28  1  0.500000  0.000000  0.000000  1
