# generated using pymatgen
data_Na(TiS2)3
_symmetry_space_group_name_H-M   'P 1'
_cell_length_a   5.93595954
_cell_length_b   5.93595927
_cell_length_c   7.36936439
_cell_angle_alpha   82.36434521
_cell_angle_beta   82.36435276
_cell_angle_gamma   119.98633621
_symmetry_Int_Tables_number   1
_chemical_formula_structural   Na(TiS2)3
_chemical_formula_sum   'Na1 Ti3 S6'
_cell_volume   216.82308130
_cell_formula_units_Z   1
loop_
 _symmetry_equiv_pos_site_id
 _symmetry_equiv_pos_as_xyz
  1  'x, y, z'
loop_
 _atom_site_type_symbol
 _atom_site_label
 _atom_site_symmetry_multiplicity
 _atom_site_fract_x
 _atom_site_fract_y
 _atom_site_fract_z
 _atom_site_occupancy
  Na  Na0  1  0.500000  0.500000  0.500000  1
  Ti  Ti1  1  0.665373  0.334627  0.000000  1
  Ti  Ti2  1  0.334627  0.665373  0.000000  1
  Ti  Ti3  1  0.000000  0.000000  0.000000  1
  S  S4  1  0.399463  0.064320  0.798797  1
  S  S5  1  0.064320  0.399463  0.798797  1
  S  S6  1  0.735648  0.735648  0.796877  1
  S  S7  1  0.600537  0.935680  0.201203  1
  S  S8  1  0.264352  0.264352  0.203123  1
  S  S9  1  0.935680  0.600537  0.201203  1
