# generated using pymatgen
data_DyEr2Cd3Pt2
_symmetry_space_group_name_H-M   'P 1'
_cell_length_a   7.63329008
_cell_length_b   7.61404801
_cell_length_c   3.68296900
_cell_angle_alpha   90.00000000
_cell_angle_beta   90.00000000
_cell_angle_gamma   119.91664537
_symmetry_Int_Tables_number   1
_chemical_formula_structural   DyEr2Cd3Pt2
_chemical_formula_sum   'Dy1 Er2 Cd3 Pt2'
_cell_volume   185.53260383
_cell_formula_units_Z   1
loop_
 _symmetry_equiv_pos_site_id
 _symmetry_equiv_pos_as_xyz
  1  'x, y, z'
loop_
 _atom_site_type_symbol
 _atom_site_label
 _atom_site_symmetry_multiplicity
 _atom_site_fract_x
 _atom_site_fract_y
 _atom_site_fract_z
 _atom_site_occupancy
  Dy  Dy0  1  0.000000  0.574306  0.500000  1
  Er  Er1  1  0.573972  0.000118  0.500000  1
  Er  Er2  1  0.426028  0.426145  0.500000  1
  Cd  Cd3  1  0.228492  0.000889  0.000000  1
  Cd  Cd4  1  0.000000  0.226804  0.000000  1
  Cd  Cd5  1  0.771508  0.772396  0.000000  1
  Pt  Pt6  1  0.664436  0.331888  0.000000  1
  Pt  Pt7  1  0.335563  0.667452  0.000000  1
