# generated using pymatgen
data_Th3GaHg3
_symmetry_space_group_name_H-M   'P 1'
_cell_length_a   8.50631984
_cell_length_b   8.50631983
_cell_length_c   8.50631981
_cell_angle_alpha   113.84195957
_cell_angle_beta   113.84195690
_cell_angle_gamma   113.84193689
_symmetry_Int_Tables_number   1
_chemical_formula_structural   Th3GaHg3
_chemical_formula_sum   'Th6 Ga2 Hg6'
_cell_volume   378.28774214
_cell_formula_units_Z   2
loop_
 _symmetry_equiv_pos_site_id
 _symmetry_equiv_pos_as_xyz
  1  'x, y, z'
loop_
 _atom_site_type_symbol
 _atom_site_label
 _atom_site_symmetry_multiplicity
 _atom_site_fract_x
 _atom_site_fract_y
 _atom_site_fract_z
 _atom_site_occupancy
  Th  Th0  1  0.041921  0.398740  0.284273  1
  Th  Th1  1  0.398740  0.284273  0.041921  1
  Th  Th2  1  0.715727  0.958079  0.601260  1
  Th  Th3  1  0.284273  0.041921  0.398740  1
  Th  Th4  1  0.601260  0.715727  0.958079  1
  Th  Th5  1  0.958079  0.601260  0.715727  1
  Ga  Ga6  1  0.000000  0.000000  0.000000  1
  Ga  Ga7  1  0.500000  0.500000  0.500000  1
  Hg  Hg8  1  0.432973  0.927417  0.763942  1
  Hg  Hg9  1  0.927417  0.763942  0.432973  1
  Hg  Hg10  1  0.236058  0.567027  0.072583  1
  Hg  Hg11  1  0.763942  0.432973  0.927417  1
  Hg  Hg12  1  0.072583  0.236058  0.567027  1
  Hg  Hg13  1  0.567027  0.072583  0.236058  1
