# generated using pymatgen
data_La4Nd3YSe12
_symmetry_space_group_name_H-M   'P 1'
_cell_length_a   4.26064900
_cell_length_b   11.20703416
_cell_length_c   11.58509700
_cell_angle_alpha   90.00981597
_cell_angle_beta   90.00000000
_cell_angle_gamma   90.00000000
_symmetry_Int_Tables_number   1
_chemical_formula_structural   La4Nd3YSe12
_chemical_formula_sum   'La4 Nd3 Y1 Se12'
_cell_volume   553.17955628
_cell_formula_units_Z   1
loop_
 _symmetry_equiv_pos_site_id
 _symmetry_equiv_pos_as_xyz
  1  'x, y, z'
loop_
 _atom_site_type_symbol
 _atom_site_label
 _atom_site_symmetry_multiplicity
 _atom_site_fract_x
 _atom_site_fract_y
 _atom_site_fract_z
 _atom_site_occupancy
  La  La0  1  0.250000  0.998310  0.694446  1
  La  La1  1  0.750000  0.003356  0.306064  1
  La  La2  1  0.750000  0.496492  0.807282  1
  La  La3  1  0.250000  0.501190  0.192341  1
  Nd  Nd4  1  0.250000  0.313845  0.510136  1
  Nd  Nd5  1  0.750000  0.686115  0.489606  1
  Nd  Nd6  1  0.750000  0.814180  0.989835  1
  Y  Y7  1  0.250000  0.186080  0.009557  1
  Se  Se8  1  0.750000  0.059728  0.885388  1
  Se  Se9  1  0.250000  0.947088  0.116273  1
  Se  Se10  1  0.250000  0.556261  0.618682  1
  Se  Se11  1  0.750000  0.443282  0.381498  1
  Se  Se12  1  0.250000  0.872476  0.454779  1
  Se  Se13  1  0.750000  0.128063  0.545353  1
  Se  Se14  1  0.750000  0.366255  0.044335  1
  Se  Se15  1  0.250000  0.627364  0.954838  1
  Se  Se16  1  0.250000  0.297884  0.773126  1
  Se  Se17  1  0.750000  0.700736  0.229226  1
  Se  Se18  1  0.750000  0.799838  0.729925  1
  Se  Se19  1  0.250000  0.201456  0.267314  1
