# generated using pymatgen
data_CaNp7(B6Ru)4
_symmetry_space_group_name_H-M   'P 1'
_cell_length_a   3.56857700
_cell_length_b   9.35008823
_cell_length_c   11.38516862
_cell_angle_alpha   89.99123982
_cell_angle_beta   90.00000000
_cell_angle_gamma   90.00000000
_symmetry_Int_Tables_number   1
_chemical_formula_structural   CaNp7(B6Ru)4
_chemical_formula_sum   'Ca1 Np7 B24 Ru4'
_cell_volume   379.88333587
_cell_formula_units_Z   1
loop_
 _symmetry_equiv_pos_site_id
 _symmetry_equiv_pos_as_xyz
  1  'x, y, z'
loop_
 _atom_site_type_symbol
 _atom_site_label
 _atom_site_symmetry_multiplicity
 _atom_site_fract_x
 _atom_site_fract_y
 _atom_site_fract_z
 _atom_site_occupancy
  Ca  Ca0  1  0.000000  0.338817  0.406876  1
  Np  Np1  1  0.000000  0.660830  0.593599  1
  Np  Np2  1  0.000000  0.838016  0.093243  1
  Np  Np3  1  0.000000  0.162117  0.906959  1
  Np  Np4  1  0.000000  0.960552  0.400771  1
  Np  Np5  1  0.000000  0.041709  0.598526  1
  Np  Np6  1  0.000000  0.459431  0.099050  1
  Np  Np7  1  0.000000  0.539966  0.901464  1
  B  B8  1  0.500000  0.553456  0.431332  1
  B  B9  1  0.500000  0.447396  0.569396  1
  B  B10  1  0.500000  0.051762  0.068156  1
  B  B11  1  0.500000  0.947886  0.931576  1
  B  B12  1  0.500000  0.743307  0.423279  1
  B  B13  1  0.500000  0.256038  0.577301  1
  B  B14  1  0.500000  0.242709  0.076436  1
  B  B15  1  0.500000  0.756966  0.923511  1
  B  B16  1  0.500000  0.806134  0.274438  1
  B  B17  1  0.500000  0.194409  0.725653  1
  B  B18  1  0.500000  0.304658  0.224662  1
  B  B19  1  0.500000  0.694003  0.774446  1
  B  B20  1  0.500000  0.647184  0.188903  1
  B  B21  1  0.500000  0.352805  0.811484  1
  B  B22  1  0.500000  0.145676  0.310938  1
  B  B23  1  0.500000  0.853193  0.688420  1
  B  B24  1  0.500000  0.989581  0.220040  1
  B  B25  1  0.500000  0.010909  0.779523  1
  B  B26  1  0.500000  0.490614  0.279527  1
  B  B27  1  0.500000  0.510579  0.720471  1
  B  B28  1  0.500000  0.644729  0.040139  1
  B  B29  1  0.500000  0.355335  0.960052  1
  B  B30  1  0.500000  0.143220  0.460214  1
  B  B31  1  0.500000  0.855239  0.540192  1
  Ru  Ru32  1  0.000000  0.646774  0.319136  1
  Ru  Ru33  1  0.000000  0.354002  0.681459  1
  Ru  Ru34  1  0.000000  0.147474  0.179647  1
  Ru  Ru35  1  0.000000  0.852526  0.819181  1
