# generated using pymatgen
data_DyEr2Zr(Co4P3)2
_symmetry_space_group_name_H-M   'P 1'
_cell_length_a   3.71073400
_cell_length_b   10.66872100
_cell_length_c   12.37664100
_cell_angle_alpha   90.00000000
_cell_angle_beta   90.00000000
_cell_angle_gamma   90.00000000
_symmetry_Int_Tables_number   1
_chemical_formula_structural   DyEr2Zr(Co4P3)2
_chemical_formula_sum   'Dy2 Er4 Zr2 Co16 P12'
_cell_volume   489.97618887
_cell_formula_units_Z   2
loop_
 _symmetry_equiv_pos_site_id
 _symmetry_equiv_pos_as_xyz
  1  'x, y, z'
loop_
 _atom_site_type_symbol
 _atom_site_label
 _atom_site_symmetry_multiplicity
 _atom_site_fract_x
 _atom_site_fract_y
 _atom_site_fract_z
 _atom_site_occupancy
  Dy  Dy0  1  0.750000  0.250000  0.470280  1
  Dy  Dy1  1  0.250000  0.750000  0.529720  1
  Er  Er2  1  0.250000  0.928009  0.795313  1
  Er  Er3  1  0.250000  0.571991  0.795313  1
  Er  Er4  1  0.750000  0.071991  0.204687  1
  Er  Er5  1  0.750000  0.428009  0.204687  1
  Zr  Zr6  1  0.250000  0.250000  0.841712  1
  Zr  Zr7  1  0.750000  0.750000  0.158288  1
  Co  Co8  1  0.250000  0.250000  0.296373  1
  Co  Co9  1  0.750000  0.750000  0.703627  1
  Co  Co10  1  0.750000  0.250000  0.014421  1
  Co  Co11  1  0.250000  0.750000  0.985579  1
  Co  Co12  1  0.250000  0.418055  0.007328  1
  Co  Co13  1  0.250000  0.081945  0.007328  1
  Co  Co14  1  0.750000  0.581945  0.992672  1
  Co  Co15  1  0.750000  0.918055  0.992672  1
  Co  Co16  1  0.250000  0.455059  0.566672  1
  Co  Co17  1  0.250000  0.044941  0.566672  1
  Co  Co18  1  0.750000  0.544941  0.433328  1
  Co  Co19  1  0.750000  0.955059  0.433328  1
  Co  Co20  1  0.250000  0.873036  0.298600  1
  Co  Co21  1  0.250000  0.626964  0.298600  1
  Co  Co22  1  0.750000  0.126964  0.701400  1
  Co  Co23  1  0.750000  0.373036  0.701400  1
  P  P24  1  0.250000  0.250000  0.117088  1
  P  P25  1  0.750000  0.750000  0.882912  1
  P  P26  1  0.250000  0.250000  0.636534  1
  P  P27  1  0.750000  0.750000  0.363466  1
  P  P28  1  0.250000  0.439665  0.383951  1
  P  P29  1  0.250000  0.060335  0.383951  1
  P  P30  1  0.750000  0.560335  0.616049  1
  P  P31  1  0.750000  0.939665  0.616049  1
  P  P32  1  0.250000  0.912409  0.106636  1
  P  P33  1  0.250000  0.587591  0.106636  1
  P  P34  1  0.750000  0.087591  0.893364  1
  P  P35  1  0.750000  0.412409  0.893364  1
