# generated using pymatgen
data_Lu3Hf(AsRh5)2
_symmetry_space_group_name_H-M   'P 1'
_cell_length_a   4.10116800
_cell_length_b   5.63334043
_cell_length_c   11.03957986
_cell_angle_alpha   89.95505124
_cell_angle_beta   90.00000000
_cell_angle_gamma   90.00000000
_symmetry_Int_Tables_number   1
_chemical_formula_structural   Lu3Hf(AsRh5)2
_chemical_formula_sum   'Lu3 Hf1 As2 Rh10'
_cell_volume   255.05037638
_cell_formula_units_Z   1
loop_
 _symmetry_equiv_pos_site_id
 _symmetry_equiv_pos_as_xyz
  1  'x, y, z'
loop_
 _atom_site_type_symbol
 _atom_site_label
 _atom_site_symmetry_multiplicity
 _atom_site_fract_x
 _atom_site_fract_y
 _atom_site_fract_z
 _atom_site_occupancy
  Lu  Lu0  1  0.500000  0.321098  0.360214  1
  Lu  Lu1  1  0.500000  0.681753  0.640720  1
  Lu  Lu2  1  0.500000  0.179971  0.859421  1
  Hf  Hf3  1  0.500000  0.822779  0.142465  1
  As  As4  1  0.000000  0.999598  0.499249  1
  As  As5  1  0.000000  0.499004  0.000237  1
  Rh  Rh6  1  0.500000  0.311332  0.105804  1
  Rh  Rh7  1  0.500000  0.684558  0.899189  1
  Rh  Rh8  1  0.500000  0.815693  0.389983  1
  Rh  Rh9  1  0.500000  0.184889  0.605154  1
  Rh  Rh10  1  0.000000  0.939075  0.745222  1
  Rh  Rh11  1  0.000000  0.060151  0.253091  1
  Rh  Rh12  1  0.000000  0.440207  0.756637  1
  Rh  Rh13  1  0.000000  0.567233  0.239383  1
  Rh  Rh14  1  0.000000  0.503024  0.499316  1
  Rh  Rh15  1  0.000000  0.989635  0.003917  1
