# generated using pymatgen
data_Er4MgCu2Sb
_symmetry_space_group_name_H-M   'P 1'
_cell_length_a   8.48224795
_cell_length_b   8.48224921
_cell_length_c   8.48224768
_cell_angle_alpha   127.01288830
_cell_angle_beta   127.01289816
_cell_angle_gamma   78.22965907
_symmetry_Int_Tables_number   1
_chemical_formula_structural   Er4MgCu2Sb
_chemical_formula_sum   'Er8 Mg2 Cu4 Sb2'
_cell_volume   376.91904655
_cell_formula_units_Z   2
loop_
 _symmetry_equiv_pos_site_id
 _symmetry_equiv_pos_as_xyz
  1  'x, y, z'
loop_
 _atom_site_type_symbol
 _atom_site_label
 _atom_site_symmetry_multiplicity
 _atom_site_fract_x
 _atom_site_fract_y
 _atom_site_fract_z
 _atom_site_occupancy
  Er  Er0  1  0.799412  0.299412  0.824277  1
  Er  Er1  1  0.200588  0.700588  0.175723  1
  Er  Er2  1  0.475135  0.975135  0.175723  1
  Er  Er3  1  0.299412  0.475135  0.500000  1
  Er  Er4  1  0.024865  0.200588  0.500000  1
  Er  Er5  1  0.524865  0.024865  0.824277  1
  Er  Er6  1  0.700588  0.524865  0.500000  1
  Er  Er7  1  0.975135  0.799412  0.500000  1
  Mg  Mg8  1  0.000000  0.000000  0.000000  1
  Mg  Mg9  1  0.500000  0.500000  0.000000  1
  Cu  Cu10  1  0.124920  0.624920  0.749840  1
  Cu  Cu11  1  0.875080  0.375080  0.250160  1
  Cu  Cu12  1  0.624920  0.875080  0.500000  1
  Cu  Cu13  1  0.375080  0.124920  0.500000  1
  Sb  Sb14  1  0.250000  0.250000  0.000000  1
  Sb  Sb15  1  0.750000  0.750000  0.000000  1
