# generated using pymatgen
data_Hf7Nb(Si4Ru3)4
_symmetry_space_group_name_H-M   'P 1'
_cell_length_a   9.85340860
_cell_length_b   9.89466883
_cell_length_c   13.30326072
_cell_angle_alpha   54.06190097
_cell_angle_beta   54.02877744
_cell_angle_gamma   31.45194175
_symmetry_Int_Tables_number   1
_chemical_formula_structural   Hf7Nb(Si4Ru3)4
_chemical_formula_sum   'Hf7 Nb1 Si16 Ru12'
_cell_volume   536.27886819
_cell_formula_units_Z   1
loop_
 _symmetry_equiv_pos_site_id
 _symmetry_equiv_pos_as_xyz
  1  'x, y, z'
loop_
 _atom_site_type_symbol
 _atom_site_label
 _atom_site_symmetry_multiplicity
 _atom_site_fract_x
 _atom_site_fract_y
 _atom_site_fract_z
 _atom_site_occupancy
  Hf  Hf0  1  0.442829  0.703746  0.850342  1
  Hf  Hf1  1  0.695176  0.444268  0.359882  1
  Hf  Hf2  1  0.555531  0.295559  0.146984  1
  Hf  Hf3  1  0.037124  0.296412  0.637525  1
  Hf  Hf4  1  0.705406  0.967287  0.858585  1
  Hf  Hf5  1  0.959741  0.705046  0.365022  1
  Hf  Hf6  1  0.293661  0.038894  0.136289  1
  Nb  Nb7  1  0.297707  0.551638  0.658173  1
  Si  Si8  1  0.873613  0.126070  0.249045  1
  Si  Si9  1  0.132233  0.864352  0.751355  1
  Si  Si10  1  0.381885  0.618359  0.249217  1
  Si  Si11  1  0.618628  0.383233  0.740424  1
  Si  Si12  1  0.972705  0.253879  0.892594  1
  Si  Si13  1  0.740521  0.037504  0.602371  1
  Si  Si14  1  0.026297  0.744891  0.106110  1
  Si  Si15  1  0.256451  0.971982  0.392712  1
  Si  Si16  1  0.572073  0.083305  0.064668  1
  Si  Si17  1  0.905162  0.430514  0.440848  1
  Si  Si18  1  0.428865  0.914643  0.934010  1
  Si  Si19  1  0.090518  0.573491  0.567290  1
  Si  Si20  1  0.385452  0.144526  0.394819  1
  Si  Si21  1  0.857867  0.608986  0.105467  1
  Si  Si22  1  0.616833  0.857296  0.603032  1
  Si  Si23  1  0.146155  0.391681  0.892439  1
  Ru  Ru24  1  0.653083  0.822530  0.279970  1
  Ru  Ru25  1  0.174867  0.347081  0.221400  1
  Ru  Ru26  1  0.762542  0.479296  0.069708  1
  Ru  Ru27  1  0.829683  0.644536  0.781743  1
  Ru  Ru28  1  0.926748  0.114606  0.582087  1
  Ru  Ru29  1  0.851689  0.106225  0.913472  1
  Ru  Ru30  1  0.096199  0.863423  0.412863  1
  Ru  Ru31  1  0.140182  0.900972  0.082785  1
  Ru  Ru32  1  0.235696  0.518463  0.938673  1
  Ru  Ru33  1  0.466154  0.786845  0.568982  1
  Ru  Ru34  1  0.517466  0.239181  0.430512  1
  Ru  Ru35  1  0.353258  0.169284  0.718602  1
