# generated using pymatgen
data_TmTh2(AlCo)3
_symmetry_space_group_name_H-M   'P 1'
_cell_length_a   6.95072400
_cell_length_b   7.10118177
_cell_length_c   3.85679700
_cell_angle_alpha   90.00000000
_cell_angle_beta   90.00000000
_cell_angle_gamma   119.30155671
_symmetry_Int_Tables_number   1
_chemical_formula_structural   TmTh2(AlCo)3
_chemical_formula_sum   'Tm1 Th2 Al3 Co3'
_cell_volume   166.00907000
_cell_formula_units_Z   1
loop_
 _symmetry_equiv_pos_site_id
 _symmetry_equiv_pos_as_xyz
  1  'x, y, z'
loop_
 _atom_site_type_symbol
 _atom_site_label
 _atom_site_symmetry_multiplicity
 _atom_site_fract_x
 _atom_site_fract_y
 _atom_site_fract_z
 _atom_site_occupancy
  Tm  Tm0  1  0.585450  0.000000  0.000000  1
  Th  Th1  1  0.999867  0.576703  0.000000  1
  Th  Th2  1  0.423164  0.423297  0.000000  1
  Al  Al3  1  0.241967  0.000000  0.500000  1
  Al  Al4  1  0.989918  0.221074  0.500000  1
  Al  Al5  1  0.768844  0.778926  0.500000  1
  Co  Co6  1  0.317287  0.648083  0.500000  1
  Co  Co7  1  0.669204  0.351917  0.500000  1
  Co  Co8  1  0.004299  0.000000  0.000000  1
