# generated using pymatgen
data_Dy8Tm2Ru3Rh
_symmetry_space_group_name_H-M   'P 1'
_cell_length_a   6.34466371
_cell_length_b   7.25715201
_cell_length_c   8.48763200
_cell_angle_alpha   96.66500596
_cell_angle_beta   111.99485886
_cell_angle_gamma   90.10654666
_symmetry_Int_Tables_number   1
_chemical_formula_structural   Dy8Tm2Ru3Rh
_chemical_formula_sum   'Dy8 Tm2 Ru3 Rh1'
_cell_volume   359.47711422
_cell_formula_units_Z   1
loop_
 _symmetry_equiv_pos_site_id
 _symmetry_equiv_pos_as_xyz
  1  'x, y, z'
loop_
 _atom_site_type_symbol
 _atom_site_label
 _atom_site_symmetry_multiplicity
 _atom_site_fract_x
 _atom_site_fract_y
 _atom_site_fract_z
 _atom_site_occupancy
  Dy  Dy0  1  0.978427  0.917632  0.184406  1
  Dy  Dy1  1  0.792095  0.584855  0.811452  1
  Dy  Dy2  1  0.021939  0.084857  0.814587  1
  Dy  Dy3  1  0.208775  0.414049  0.184394  1
  Dy  Dy4  1  0.640599  0.816455  0.435207  1
  Dy  Dy5  1  0.210580  0.686081  0.568907  1
  Dy  Dy6  1  0.357120  0.185732  0.566322  1
  Dy  Dy7  1  0.792235  0.312270  0.434997  1
  Tm  Tm8  1  0.421552  0.750892  0.999842  1
  Tm  Tm9  1  0.576398  0.247668  0.998080  1
  Ru  Ru10  1  0.604474  0.924111  0.781293  1
  Ru  Ru11  1  0.177164  0.426157  0.780187  1
  Ru  Ru12  1  0.398323  0.074880  0.219500  1
  Rh  Rh13  1  0.820317  0.574359  0.220826  1
