# generated using pymatgen
data_TbNb3(Co4P3)2
_symmetry_space_group_name_H-M   'P 1'
_cell_length_a   11.99217600
_cell_length_b   11.99217508
_cell_length_c   3.65416800
_cell_angle_alpha   90.00000000
_cell_angle_beta   90.00000000
_cell_angle_gamma   120.00000254
_symmetry_Int_Tables_number   1
_chemical_formula_structural   TbNb3(Co4P3)2
_chemical_formula_sum   'Tb2 Nb6 Co16 P12'
_cell_volume   455.10864454
_cell_formula_units_Z   2
loop_
 _symmetry_equiv_pos_site_id
 _symmetry_equiv_pos_as_xyz
  1  'x, y, z'
loop_
 _atom_site_type_symbol
 _atom_site_label
 _atom_site_symmetry_multiplicity
 _atom_site_fract_x
 _atom_site_fract_y
 _atom_site_fract_z
 _atom_site_occupancy
  Tb  Tb0  1  0.333333  0.666667  0.000000  1
  Tb  Tb1  1  0.666667  0.333333  0.000000  1
  Nb  Nb2  1  0.821056  0.000000  0.500000  1
  Nb  Nb3  1  0.000000  0.821056  0.500000  1
  Nb  Nb4  1  0.178944  0.178944  0.500000  1
  Nb  Nb5  1  0.445646  0.000000  0.000000  1
  Nb  Nb6  1  0.000000  0.445646  0.000000  1
  Nb  Nb7  1  0.554354  0.554354  0.000000  1
  Co  Co8  1  0.272061  0.000000  0.500000  1
  Co  Co9  1  0.000000  0.272061  0.500000  1
  Co  Co10  1  0.727939  0.727939  0.500000  1
  Co  Co11  1  0.634639  0.810479  0.000000  1
  Co  Co12  1  0.189521  0.824161  0.000000  1
  Co  Co13  1  0.175839  0.365361  0.000000  1
  Co  Co14  1  0.365361  0.175839  0.000000  1
  Co  Co15  1  0.810479  0.634639  0.000000  1
  Co  Co16  1  0.824161  0.189521  0.000000  1
  Co  Co17  1  0.522523  0.875126  0.500000  1
  Co  Co18  1  0.124874  0.647398  0.500000  1
  Co  Co19  1  0.352602  0.477477  0.500000  1
  Co  Co20  1  0.477477  0.352602  0.500000  1
  Co  Co21  1  0.875126  0.522523  0.500000  1
  Co  Co22  1  0.647398  0.124874  0.500000  1
  Co  Co23  1  0.000000  0.000000  0.000000  1
  P  P24  1  0.172760  0.000000  0.000000  1
  P  P25  1  0.000000  0.172760  0.000000  1
  P  P26  1  0.827240  0.827240  0.000000  1
  P  P27  1  0.523988  0.690588  0.500000  1
  P  P28  1  0.309412  0.833400  0.500000  1
  P  P29  1  0.166600  0.476012  0.500000  1
  P  P30  1  0.476012  0.166600  0.500000  1
  P  P31  1  0.690588  0.523988  0.500000  1
  P  P32  1  0.833400  0.309412  0.500000  1
  P  P33  1  0.648771  0.000000  0.000000  1
  P  P34  1  0.000000  0.648771  0.000000  1
  P  P35  1  0.351229  0.351229  0.000000  1
