# generated using pymatgen
data_YLu3B12RhW
_symmetry_space_group_name_H-M   'P 1'
_cell_length_a   3.59978300
_cell_length_b   9.12241738
_cell_length_c   11.53567133
_cell_angle_alpha   90.41476897
_cell_angle_beta   90.00000000
_cell_angle_gamma   90.00000000
_symmetry_Int_Tables_number   1
_chemical_formula_structural   YLu3B12RhW
_chemical_formula_sum   'Y2 Lu6 B24 Rh2 W2'
_cell_volume   378.80678971
_cell_formula_units_Z   2
loop_
 _symmetry_equiv_pos_site_id
 _symmetry_equiv_pos_as_xyz
  1  'x, y, z'
loop_
 _atom_site_type_symbol
 _atom_site_label
 _atom_site_symmetry_multiplicity
 _atom_site_fract_x
 _atom_site_fract_y
 _atom_site_fract_z
 _atom_site_occupancy
  Y  Y0  1  0.500000  0.319290  0.412260  1
  Y  Y1  1  0.500000  0.680710  0.587740  1
  Lu  Lu2  1  0.500000  0.176095  0.916819  1
  Lu  Lu3  1  0.500000  0.823905  0.083181  1
  Lu  Lu4  1  0.500000  0.444284  0.126220  1
  Lu  Lu5  1  0.500000  0.555716  0.873780  1
  Lu  Lu6  1  0.500000  0.055518  0.627843  1
  Lu  Lu7  1  0.500000  0.944482  0.372157  1
  B  B8  1  0.000000  0.103587  0.472930  1
  B  B9  1  0.000000  0.896413  0.527070  1
  B  B10  1  0.000000  0.396451  0.970519  1
  B  B11  1  0.000000  0.603549  0.029481  1
  B  B12  1  0.000000  0.131257  0.317949  1
  B  B13  1  0.000000  0.868743  0.682051  1
  B  B14  1  0.000000  0.367801  0.817082  1
  B  B15  1  0.000000  0.632199  0.182918  1
  B  B16  1  0.000000  0.051115  0.064947  1
  B  B17  1  0.000000  0.948885  0.935053  1
  B  B18  1  0.000000  0.445838  0.566071  1
  B  B19  1  0.000000  0.554162  0.433929  1
  B  B20  1  0.000000  0.483817  0.287644  1
  B  B21  1  0.000000  0.516183  0.712356  1
  B  B22  1  0.000000  0.022432  0.786237  1
  B  B23  1  0.000000  0.977568  0.213763  1
  B  B24  1  0.000000  0.251853  0.078048  1
  B  B25  1  0.000000  0.748147  0.921952  1
  B  B26  1  0.000000  0.249765  0.579931  1
  B  B27  1  0.000000  0.750235  0.420069  1
  B  B28  1  0.000000  0.297071  0.236036  1
  B  B29  1  0.000000  0.702929  0.763964  1
  B  B30  1  0.000000  0.208393  0.735458  1
  B  B31  1  0.000000  0.791607  0.264542  1
  Rh  Rh32  1  0.500000  0.360422  0.680106  1
  Rh  Rh33  1  0.500000  0.639578  0.319894  1
  W  W34  1  0.500000  0.138677  0.180271  1
  W  W35  1  0.500000  0.861323  0.819729  1
