# generated using pymatgen
data_Nd3Er(Lu3Pt4)2
_symmetry_space_group_name_H-M   'P 1'
_cell_length_a   7.53919600
_cell_length_b   7.56681851
_cell_length_c   14.53849500
_cell_angle_alpha   90.03618648
_cell_angle_beta   90.00000000
_cell_angle_gamma   90.00000000
_symmetry_Int_Tables_number   1
_chemical_formula_structural   Nd3Er(Lu3Pt4)2
_chemical_formula_sum   'Nd6 Er2 Lu12 Pt16'
_cell_volume   829.38794050
_cell_formula_units_Z   2
loop_
 _symmetry_equiv_pos_site_id
 _symmetry_equiv_pos_as_xyz
  1  'x, y, z'
loop_
 _atom_site_type_symbol
 _atom_site_label
 _atom_site_symmetry_multiplicity
 _atom_site_fract_x
 _atom_site_fract_y
 _atom_site_fract_z
 _atom_site_occupancy
  Nd  Nd0  1  0.999016  0.823174  0.405508  1
  Nd  Nd1  1  0.499016  0.676826  0.094492  1
  Nd  Nd2  1  0.501444  0.326533  0.593419  1
  Nd  Nd3  1  0.001444  0.173467  0.906581  1
  Nd  Nd4  1  0.001660  0.176276  0.594675  1
  Nd  Nd5  1  0.501660  0.323724  0.905325  1
  Er  Er6  1  0.497752  0.677740  0.402777  1
  Er  Er7  1  0.997752  0.822260  0.097223  1
  Lu  Lu8  1  0.678964  0.993537  0.249879  1
  Lu  Lu9  1  0.178964  0.506463  0.250121  1
  Lu  Lu10  1  0.821954  0.494197  0.749893  1
  Lu  Lu11  1  0.321954  0.005803  0.750107  1
  Lu  Lu12  1  0.655443  0.832389  0.621388  1
  Lu  Lu13  1  0.155443  0.667611  0.878612  1
  Lu  Lu14  1  0.840622  0.334494  0.377096  1
  Lu  Lu15  1  0.340622  0.165506  0.122904  1
  Lu  Lu16  1  0.342333  0.165674  0.376314  1
  Lu  Lu17  1  0.842333  0.334326  0.123686  1
  Lu  Lu18  1  0.158188  0.665151  0.622824  1
  Lu  Lu19  1  0.658188  0.834849  0.877176  1
  Pt  Pt20  1  0.812265  0.640448  0.248867  1
  Pt  Pt21  1  0.312265  0.859552  0.251133  1
  Pt  Pt22  1  0.688237  0.136887  0.749470  1
  Pt  Pt23  1  0.188237  0.363113  0.750530  1
  Pt  Pt24  1  0.544153  0.376134  0.251147  1
  Pt  Pt25  1  0.044153  0.123866  0.248853  1
  Pt  Pt26  1  0.954675  0.871230  0.749503  1
  Pt  Pt27  1  0.454675  0.628770  0.750497  1
  Pt  Pt28  1  0.822794  0.540143  0.541595  1
  Pt  Pt29  1  0.322794  0.959857  0.958405  1
  Pt  Pt30  1  0.673091  0.032042  0.454229  1
  Pt  Pt31  1  0.173091  0.467958  0.045771  1
  Pt  Pt32  1  0.184070  0.466794  0.454961  1
  Pt  Pt33  1  0.684070  0.033206  0.045039  1
  Pt  Pt34  1  0.323337  0.958200  0.541425  1
  Pt  Pt35  1  0.823337  0.541800  0.958575  1
