# generated using pymatgen
data_HoLu5HfCo17P12
_symmetry_space_group_name_H-M   'P 1'
_cell_length_a   3.67314100
_cell_length_b   10.52039600
_cell_length_c   12.19424100
_cell_angle_alpha   90.00000000
_cell_angle_beta   90.00000000
_cell_angle_gamma   90.00000000
_symmetry_Int_Tables_number   1
_chemical_formula_structural   HoLu5HfCo17P12
_chemical_formula_sum   'Ho1 Lu5 Hf1 Co17 P12'
_cell_volume   471.22080973
_cell_formula_units_Z   1
loop_
 _symmetry_equiv_pos_site_id
 _symmetry_equiv_pos_as_xyz
  1  'x, y, z'
loop_
 _atom_site_type_symbol
 _atom_site_label
 _atom_site_symmetry_multiplicity
 _atom_site_fract_x
 _atom_site_fract_y
 _atom_site_fract_z
 _atom_site_occupancy
  Ho  Ho0  1  0.500000  0.000000  0.476330  1
  Lu  Lu1  1  0.000000  0.500000  0.529487  1
  Lu  Lu2  1  0.500000  0.822274  0.207454  1
  Lu  Lu3  1  0.500000  0.177726  0.207454  1
  Lu  Lu4  1  0.000000  0.681950  0.796010  1
  Lu  Lu5  1  0.000000  0.318050  0.796010  1
  Hf  Hf6  1  0.500000  0.500000  0.155059  1
  Co  Co7  1  0.000000  0.000000  0.835786  1
  Co  Co8  1  0.500000  0.500000  0.702672  1
  Co  Co9  1  0.000000  0.000000  0.295109  1
  Co  Co10  1  0.000000  0.500000  0.984409  1
  Co  Co11  1  0.500000  0.000000  0.013844  1
  Co  Co12  1  0.500000  0.327439  0.988572  1
  Co  Co13  1  0.500000  0.672561  0.988572  1
  Co  Co14  1  0.000000  0.162089  0.001753  1
  Co  Co15  1  0.000000  0.837911  0.001753  1
  Co  Co16  1  0.500000  0.295246  0.434532  1
  Co  Co17  1  0.500000  0.704754  0.434532  1
  Co  Co18  1  0.000000  0.202778  0.570664  1
  Co  Co19  1  0.000000  0.797222  0.570664  1
  Co  Co20  1  0.500000  0.879035  0.707560  1
  Co  Co21  1  0.500000  0.120965  0.707560  1
  Co  Co22  1  0.000000  0.623525  0.295635  1
  Co  Co23  1  0.000000  0.376475  0.295635  1
  P  P24  1  0.500000  0.500000  0.880600  1
  P  P25  1  0.000000  0.000000  0.117123  1
  P  P26  1  0.500000  0.500000  0.363318  1
  P  P27  1  0.000000  0.000000  0.653656  1
  P  P28  1  0.500000  0.311146  0.618745  1
  P  P29  1  0.500000  0.688854  0.618745  1
  P  P30  1  0.000000  0.187984  0.385066  1
  P  P31  1  0.000000  0.812016  0.385066  1
  P  P32  1  0.500000  0.851288  0.887632  1
  P  P33  1  0.500000  0.148712  0.887632  1
  P  P34  1  0.000000  0.665691  0.102679  1
  P  P35  1  0.000000  0.334309  0.102679  1
