# generated using pymatgen
data_YbTm3B16
_symmetry_space_group_name_H-M   'P 1'
_cell_length_a   7.07087214
_cell_length_b   7.07087214
_cell_length_c   3.99820700
_cell_angle_alpha   90.00000000
_cell_angle_beta   90.00000000
_cell_angle_gamma   90.23711224
_symmetry_Int_Tables_number   1
_chemical_formula_structural   YbTm3B16
_chemical_formula_sum   'Yb1 Tm3 B16'
_cell_volume   199.89757432
_cell_formula_units_Z   1
loop_
 _symmetry_equiv_pos_site_id
 _symmetry_equiv_pos_as_xyz
  1  'x, y, z'
loop_
 _atom_site_type_symbol
 _atom_site_label
 _atom_site_symmetry_multiplicity
 _atom_site_fract_x
 _atom_site_fract_y
 _atom_site_fract_z
 _atom_site_occupancy
  Yb  Yb0  1  0.817354  0.317354  0.000000  1
  Tm  Tm1  1  0.180616  0.680616  0.000000  1
  Tm  Tm2  1  0.318284  0.181873  0.000000  1
  Tm  Tm3  1  0.681873  0.818284  0.000000  1
  B  B4  1  0.500825  0.500139  0.797347  1
  B  B5  1  0.000139  0.000825  0.797347  1
  B  B6  1  0.500825  0.500139  0.202653  1
  B  B7  1  0.000139  0.000825  0.202653  1
  B  B8  1  0.586716  0.086716  0.500000  1
  B  B9  1  0.413046  0.913046  0.500000  1
  B  B10  1  0.086981  0.413988  0.500000  1
  B  B11  1  0.913988  0.586981  0.500000  1
  B  B12  1  0.676442  0.539098  0.500000  1
  B  B13  1  0.322535  0.462522  0.500000  1
  B  B14  1  0.176381  0.961229  0.500000  1
  B  B15  1  0.824013  0.036995  0.500000  1
  B  B16  1  0.461229  0.676381  0.500000  1
  B  B17  1  0.536995  0.324013  0.500000  1
  B  B18  1  0.039098  0.176442  0.500000  1
  B  B19  1  0.962522  0.822535  0.500000  1
