# generated using pymatgen
data_Y5Ho13Sc2(Cd3Ru)2
_symmetry_space_group_name_H-M   'P 1'
_cell_length_a   9.51333900
_cell_length_b   9.51333915
_cell_length_c   9.75146700
_cell_angle_alpha   90.00000000
_cell_angle_beta   90.00000000
_cell_angle_gamma   120.00066105
_symmetry_Int_Tables_number   1
_chemical_formula_structural   Y5Ho13Sc2(Cd3Ru)2
_chemical_formula_sum   'Y5 Ho13 Sc2 Cd6 Ru2'
_cell_volume   764.29962513
_cell_formula_units_Z   1
loop_
 _symmetry_equiv_pos_site_id
 _symmetry_equiv_pos_as_xyz
  1  'x, y, z'
loop_
 _atom_site_type_symbol
 _atom_site_label
 _atom_site_symmetry_multiplicity
 _atom_site_fract_x
 _atom_site_fract_y
 _atom_site_fract_z
 _atom_site_occupancy
  Y  Y0  1  0.540845  0.081862  0.250000  1
  Y  Y1  1  0.918138  0.459155  0.250000  1
  Y  Y2  1  0.459177  0.540823  0.750000  1
  Y  Y3  1  0.459171  0.918365  0.750000  1
  Y  Y4  1  0.081635  0.540829  0.750000  1
  Ho  Ho5  1  0.208496  0.791504  0.440685  1
  Ho  Ho6  1  0.208669  0.416988  0.440590  1
  Ho  Ho7  1  0.583012  0.791331  0.440590  1
  Ho  Ho8  1  0.791515  0.208485  0.559352  1
  Ho  Ho9  1  0.791366  0.582955  0.559219  1
  Ho  Ho10  1  0.417045  0.208634  0.559219  1
  Ho  Ho11  1  0.791515  0.208485  0.940648  1
  Ho  Ho12  1  0.791366  0.582955  0.940781  1
  Ho  Ho13  1  0.417045  0.208634  0.940781  1
  Ho  Ho14  1  0.208496  0.791504  0.059315  1
  Ho  Ho15  1  0.208669  0.416988  0.059410  1
  Ho  Ho16  1  0.583012  0.791331  0.059410  1
  Ho  Ho17  1  0.540713  0.459287  0.250000  1
  Sc  Sc18  1  0.000018  0.999982  0.500010  1
  Sc  Sc19  1  0.000018  0.999982  0.999990  1
  Cd  Cd20  1  0.889102  0.110898  0.250000  1
  Cd  Cd21  1  0.888896  0.778010  0.250000  1
  Cd  Cd22  1  0.221990  0.111104  0.250000  1
  Cd  Cd23  1  0.110922  0.889078  0.750000  1
  Cd  Cd24  1  0.110917  0.221832  0.750000  1
  Cd  Cd25  1  0.778168  0.889083  0.750000  1
  Ru  Ru26  1  0.333405  0.666595  0.250000  1
  Ru  Ru27  1  0.666679  0.333321  0.750000  1
