# generated using pymatgen
data_Dy3Sn3RuPtRh
_symmetry_space_group_name_H-M   'P 1'
_cell_length_a   7.65616200
_cell_length_b   7.65616168
_cell_length_c   3.80317400
_cell_angle_alpha   90.00000000
_cell_angle_beta   90.00000000
_cell_angle_gamma   119.99999272
_symmetry_Int_Tables_number   1
_chemical_formula_structural   Dy3Sn3RuPtRh
_chemical_formula_sum   'Dy3 Sn3 Ru1 Pt1 Rh1'
_cell_volume   193.06300853
_cell_formula_units_Z   1
loop_
 _symmetry_equiv_pos_site_id
 _symmetry_equiv_pos_as_xyz
  1  'x, y, z'
loop_
 _atom_site_type_symbol
 _atom_site_label
 _atom_site_symmetry_multiplicity
 _atom_site_fract_x
 _atom_site_fract_y
 _atom_site_fract_z
 _atom_site_occupancy
  Dy  Dy0  1  0.403038  0.407197  0.500000  1
  Dy  Dy1  1  0.592803  0.995841  0.500000  1
  Dy  Dy2  1  0.004159  0.596962  0.500000  1
  Sn  Sn3  1  0.737257  0.741332  0.000000  1
  Sn  Sn4  1  0.258668  0.995925  0.000000  1
  Sn  Sn5  1  0.004075  0.262743  0.000000  1
  Ru  Ru6  1  0.000000  0.000000  0.500000  1
  Pt  Pt7  1  0.666667  0.333333  0.000000  1
  Rh  Rh8  1  0.333333  0.666667  0.000000  1
