# generated using pymatgen
data_K4VIn3I16
_symmetry_space_group_name_H-M   'P 1'
_cell_length_a   8.32921396
_cell_length_b   8.58975829
_cell_length_c   16.88633700
_cell_angle_alpha   85.10592294
_cell_angle_beta   89.79186485
_cell_angle_gamma   89.98928694
_symmetry_Int_Tables_number   1
_chemical_formula_structural   K4VIn3I16
_chemical_formula_sum   'K4 V1 In3 I16'
_cell_volume   1203.73604668
_cell_formula_units_Z   1
loop_
 _symmetry_equiv_pos_site_id
 _symmetry_equiv_pos_as_xyz
  1  'x, y, z'
loop_
 _atom_site_type_symbol
 _atom_site_label
 _atom_site_symmetry_multiplicity
 _atom_site_fract_x
 _atom_site_fract_y
 _atom_site_fract_z
 _atom_site_occupancy
  K  K0  1  0.501160  0.256493  0.639463  1
  K  K1  1  0.002047  0.742973  0.860958  1
  K  K2  1  0.498419  0.743471  0.361293  1
  K  K3  1  0.998783  0.255981  0.138203  1
  V  V4  1  0.141094  0.244720  0.860864  1
  In  In5  1  0.358761  0.243335  0.361149  1
  In  In6  1  0.858584  0.756822  0.138874  1
  In  In7  1  0.641929  0.756929  0.638862  1
  I  I8  1  0.863766  0.136104  0.908260  1
  I  I9  1  0.346032  0.872114  0.589274  1
  I  I10  1  0.154347  0.870881  0.088136  1
  I  I11  1  0.653964  0.127349  0.411495  1
  I  I12  1  0.387368  0.425636  0.218124  1
  I  I13  1  0.887358  0.574271  0.281210  1
  I  I14  1  0.611459  0.575163  0.781267  1
  I  I15  1  0.112317  0.414229  0.726938  1
  I  I16  1  0.647888  0.997357  0.161760  1
  I  I17  1  0.147958  0.002826  0.337925  1
  I  I18  1  0.340314  0.019717  0.839747  1
  I  I19  1  0.851609  0.997198  0.662166  1
  I  I20  1  0.244355  0.432606  0.473597  1
  I  I21  1  0.744690  0.567633  0.026904  1
  I  I22  1  0.755419  0.566791  0.527034  1
  I  I23  1  0.250381  0.419403  0.966502  1
