# generated using pymatgen
data_Nd4Ge5Rh9
_symmetry_space_group_name_H-M   'P 1'
_cell_length_a   12.16991578
_cell_length_b   12.16991576
_cell_length_c   12.16991525
_cell_angle_alpha   26.86869712
_cell_angle_beta   26.86869879
_cell_angle_gamma   26.86869643
_symmetry_Int_Tables_number   1
_chemical_formula_structural   Nd4Ge5Rh9
_chemical_formula_sum   'Nd4 Ge5 Rh9'
_cell_volume   324.67491385
_cell_formula_units_Z   1
loop_
 _symmetry_equiv_pos_site_id
 _symmetry_equiv_pos_as_xyz
  1  'x, y, z'
loop_
 _atom_site_type_symbol
 _atom_site_label
 _atom_site_symmetry_multiplicity
 _atom_site_fract_x
 _atom_site_fract_y
 _atom_site_fract_z
 _atom_site_occupancy
  Nd  Nd0  1  0.948729  0.948729  0.948729  1
  Nd  Nd1  1  0.852097  0.852097  0.852097  1
  Nd  Nd2  1  0.147903  0.147903  0.147903  1
  Nd  Nd3  1  0.051271  0.051271  0.051271  1
  Ge  Ge4  1  0.278259  0.278259  0.278259  1
  Ge  Ge5  1  0.500000  0.500000  0.500000  1
  Ge  Ge6  1  0.388186  0.388186  0.388186  1
  Ge  Ge7  1  0.721741  0.721741  0.721741  1
  Ge  Ge8  1  0.611814  0.611814  0.611814  1
  Rh  Rh9  1  0.609503  0.609503  0.107418  1
  Rh  Rh10  1  0.892582  0.390497  0.390497  1
  Rh  Rh11  1  0.500000  0.000000  0.500000  1
  Rh  Rh12  1  0.390497  0.892582  0.390497  1
  Rh  Rh13  1  0.500000  0.500000  0.000000  1
  Rh  Rh14  1  0.107418  0.609503  0.609503  1
  Rh  Rh15  1  0.000000  0.500000  0.500000  1
  Rh  Rh16  1  0.390497  0.390497  0.892582  1
  Rh  Rh17  1  0.609503  0.107418  0.609503  1
