# generated using pymatgen
data_Ta3Mn(BRu2)2
_symmetry_space_group_name_H-M   'P 1'
_cell_length_a   9.30591300
_cell_length_b   9.30591300
_cell_length_c   3.02890500
_cell_angle_alpha   90.00000000
_cell_angle_beta   90.00000000
_cell_angle_gamma   90.00000000
_symmetry_Int_Tables_number   1
_chemical_formula_structural   Ta3Mn(BRu2)2
_chemical_formula_sum   'Ta6 Mn2 B4 Ru8'
_cell_volume   262.30322378
_cell_formula_units_Z   2
loop_
 _symmetry_equiv_pos_site_id
 _symmetry_equiv_pos_as_xyz
  1  'x, y, z'
loop_
 _atom_site_type_symbol
 _atom_site_label
 _atom_site_symmetry_multiplicity
 _atom_site_fract_x
 _atom_site_fract_y
 _atom_site_fract_z
 _atom_site_occupancy
  Ta  Ta0  1  0.830579  0.669421  0.000000  1
  Ta  Ta1  1  0.169421  0.330579  0.000000  1
  Ta  Ta2  1  0.330579  0.830579  0.000000  1
  Ta  Ta3  1  0.669421  0.169421  0.000000  1
  Ta  Ta4  1  0.500000  0.500000  0.000000  1
  Ta  Ta5  1  0.000000  0.000000  0.000000  1
  Mn  Mn6  1  0.500000  0.000000  0.500000  1
  Mn  Mn7  1  0.000000  0.500000  0.500000  1
  B  B8  1  0.612722  0.887278  0.000000  1
  B  B9  1  0.387278  0.112722  0.000000  1
  B  B10  1  0.112722  0.612722  0.000000  1
  B  B11  1  0.887278  0.387278  0.000000  1
  Ru  Ru12  1  0.571021  0.720129  0.500000  1
  Ru  Ru13  1  0.428979  0.279871  0.500000  1
  Ru  Ru14  1  0.071021  0.779871  0.500000  1
  Ru  Ru15  1  0.928979  0.220129  0.500000  1
  Ru  Ru16  1  0.279871  0.571021  0.500000  1
  Ru  Ru17  1  0.720129  0.428979  0.500000  1
  Ru  Ru18  1  0.220129  0.071021  0.500000  1
  Ru  Ru19  1  0.779871  0.928979  0.500000  1
