# generated using pymatgen
data_Ca2Np5UH24
_symmetry_space_group_name_H-M   'P 1'
_cell_length_a   6.62871000
_cell_length_b   6.64550200
_cell_length_c   6.63978500
_cell_angle_alpha   90.00000000
_cell_angle_beta   90.00000000
_cell_angle_gamma   90.00000000
_symmetry_Int_Tables_number   1
_chemical_formula_structural   Ca2Np5UH24
_chemical_formula_sum   'Ca2 Np5 U1 H24'
_cell_volume   292.48986995
_cell_formula_units_Z   1
loop_
 _symmetry_equiv_pos_site_id
 _symmetry_equiv_pos_as_xyz
  1  'x, y, z'
loop_
 _atom_site_type_symbol
 _atom_site_label
 _atom_site_symmetry_multiplicity
 _atom_site_fract_x
 _atom_site_fract_y
 _atom_site_fract_z
 _atom_site_occupancy
  Ca  Ca0  1  0.251613  0.000000  0.500000  1
  Ca  Ca1  1  0.748387  0.000000  0.500000  1
  Np  Np2  1  0.000000  0.000000  0.000000  1
  Np  Np3  1  0.000000  0.500000  0.252328  1
  Np  Np4  1  0.000000  0.500000  0.747672  1
  Np  Np5  1  0.500000  0.751193  0.000000  1
  Np  Np6  1  0.500000  0.248807  0.000000  1
  U  U7  1  0.500000  0.500000  0.500000  1
  H  H8  1  0.000000  0.162267  0.288811  1
  H  H9  1  0.500000  0.212363  0.660852  1
  H  H10  1  0.500000  0.787637  0.339148  1
  H  H11  1  0.807655  0.646693  0.500000  1
  H  H12  1  0.192345  0.646693  0.500000  1
  H  H13  1  0.344953  0.500000  0.801980  1
  H  H14  1  0.655047  0.500000  0.801980  1
  H  H15  1  0.310277  0.000000  0.147636  1
  H  H16  1  0.154801  0.304117  0.000000  1
  H  H17  1  0.845199  0.695883  0.000000  1
  H  H18  1  0.310277  0.000000  0.852364  1
  H  H19  1  0.845199  0.304117  0.000000  1
  H  H20  1  0.689723  0.000000  0.147636  1
  H  H21  1  0.689723  0.000000  0.852364  1
  H  H22  1  0.154801  0.695883  0.000000  1
  H  H23  1  0.000000  0.837733  0.711189  1
  H  H24  1  0.000000  0.162267  0.711189  1
  H  H25  1  0.000000  0.837733  0.288811  1
  H  H26  1  0.655047  0.500000  0.198020  1
  H  H27  1  0.344953  0.500000  0.198020  1
  H  H28  1  0.807655  0.353307  0.500000  1
  H  H29  1  0.192345  0.353307  0.500000  1
  H  H30  1  0.500000  0.787637  0.660852  1
  H  H31  1  0.500000  0.212363  0.339148  1
