# generated using pymatgen
data_NdDy4Er(Al3Os)8
_symmetry_space_group_name_H-M   'P 1'
_cell_length_a   8.83158200
_cell_length_b   8.83008610
_cell_length_c   9.61813600
_cell_angle_alpha   90.00000000
_cell_angle_beta   90.00000000
_cell_angle_gamma   120.00560419
_symmetry_Int_Tables_number   1
_chemical_formula_structural   NdDy4Er(Al3Os)8
_chemical_formula_sum   'Nd1 Dy4 Er1 Al24 Os8'
_cell_volume   649.53186422
_cell_formula_units_Z   1
loop_
 _symmetry_equiv_pos_site_id
 _symmetry_equiv_pos_as_xyz
  1  'x, y, z'
loop_
 _atom_site_type_symbol
 _atom_site_label
 _atom_site_symmetry_multiplicity
 _atom_site_fract_x
 _atom_site_fract_y
 _atom_site_fract_z
 _atom_site_occupancy
  Nd  Nd0  1  0.191520  0.383040  0.250000  1
  Dy  Dy1  1  0.612818  0.806902  0.250000  1
  Dy  Dy2  1  0.386237  0.193332  0.750000  1
  Dy  Dy3  1  0.194083  0.806902  0.250000  1
  Dy  Dy4  1  0.807096  0.193332  0.750000  1
  Er  Er5  1  0.806335  0.612670  0.750000  1
  Al  Al6  1  0.333752  0.667504  0.015116  1
  Al  Al7  1  0.666735  0.333470  0.981208  1
  Al  Al8  1  0.666735  0.333470  0.518792  1
  Al  Al9  1  0.333752  0.667504  0.484884  1
  Al  Al10  1  0.163563  0.327128  0.577638  1
  Al  Al11  1  0.836642  0.673282  0.426269  1
  Al  Al12  1  0.673651  0.836554  0.575022  1
  Al  Al13  1  0.836642  0.673282  0.073731  1
  Al  Al14  1  0.328048  0.163161  0.426907  1
  Al  Al15  1  0.163563  0.327128  0.922362  1
  Al  Al16  1  0.162903  0.836554  0.575022  1
  Al  Al17  1  0.328048  0.163161  0.073093  1
  Al  Al18  1  0.835113  0.163161  0.426907  1
  Al  Al19  1  0.673651  0.836554  0.924978  1
  Al  Al20  1  0.835113  0.163161  0.073093  1
  Al  Al21  1  0.162903  0.836554  0.924978  1
  Al  Al22  1  0.561411  0.122824  0.250000  1
  Al  Al23  1  0.438950  0.877900  0.750000  1
  Al  Al24  1  0.875726  0.439400  0.250000  1
  Al  Al25  1  0.121806  0.561679  0.750000  1
  Al  Al26  1  0.563675  0.439400  0.250000  1
  Al  Al27  1  0.439872  0.561679  0.750000  1
  Al  Al28  1  0.997649  0.995298  0.250000  1
  Al  Al29  1  0.999281  0.998562  0.750000  1
  Os  Os30  1  0.500210  0.000419  0.999576  1
  Os  Os31  1  0.999030  0.500861  0.998539  1
  Os  Os32  1  0.500210  0.000419  0.500424  1
  Os  Os33  1  0.501831  0.500861  0.998539  1
  Os  Os34  1  0.999030  0.500861  0.501461  1
  Os  Os35  1  0.501831  0.500861  0.501461  1
  Os  Os36  1  0.000292  0.000585  0.999751  1
  Os  Os37  1  0.000292  0.000585  0.500249  1
