# generated using pymatgen
data_Tb8Si12NiAu3
_symmetry_space_group_name_H-M   'P 1'
_cell_length_a   8.15077700
_cell_length_b   8.15077643
_cell_length_c   8.24531300
_cell_angle_alpha   90.00000000
_cell_angle_beta   90.00000000
_cell_angle_gamma   120.00000636
_symmetry_Int_Tables_number   1
_chemical_formula_structural   Tb8Si12NiAu3
_chemical_formula_sum   'Tb8 Si12 Ni1 Au3'
_cell_volume   474.39023719
_cell_formula_units_Z   1
loop_
 _symmetry_equiv_pos_site_id
 _symmetry_equiv_pos_as_xyz
  1  'x, y, z'
loop_
 _atom_site_type_symbol
 _atom_site_label
 _atom_site_symmetry_multiplicity
 _atom_site_fract_x
 _atom_site_fract_y
 _atom_site_fract_z
 _atom_site_occupancy
  Tb  Tb0  1  0.497890  0.995778  0.254330  1
  Tb  Tb1  1  0.496736  0.993473  0.745287  1
  Tb  Tb2  1  0.004222  0.502110  0.254330  1
  Tb  Tb3  1  0.006527  0.503264  0.745287  1
  Tb  Tb4  1  0.497890  0.502110  0.254330  1
  Tb  Tb5  1  0.496736  0.503264  0.745287  1
  Tb  Tb6  1  0.000000  0.000000  0.252772  1
  Tb  Tb7  1  0.000000  0.000000  0.747122  1
  Si  Si8  1  0.163214  0.326429  0.995587  1
  Si  Si9  1  0.835936  0.671871  0.003996  1
  Si  Si10  1  0.673571  0.836786  0.995587  1
  Si  Si11  1  0.838718  0.677436  0.502045  1
  Si  Si12  1  0.328129  0.164064  0.003996  1
  Si  Si13  1  0.173761  0.347520  0.497564  1
  Si  Si14  1  0.163214  0.836786  0.995587  1
  Si  Si15  1  0.322564  0.161282  0.502045  1
  Si  Si16  1  0.835936  0.164064  0.003996  1
  Si  Si17  1  0.652480  0.826239  0.497564  1
  Si  Si18  1  0.838718  0.161282  0.502045  1
  Si  Si19  1  0.173761  0.826239  0.497564  1
  Ni  Ni20  1  0.333333  0.666667  0.500206  1
  Au  Au21  1  0.333333  0.666667  0.004037  1
  Au  Au22  1  0.666667  0.333333  0.997915  1
  Au  Au23  1  0.666667  0.333333  0.501524  1
