# generated using pymatgen
data_Hf16Ta2Ni4MoW
_symmetry_space_group_name_H-M   'P 1'
_cell_length_a   8.74538685
_cell_length_b   8.74038950
_cell_length_c   8.75575100
_cell_angle_alpha   59.94168072
_cell_angle_beta   59.95969881
_cell_angle_gamma   59.95759705
_symmetry_Int_Tables_number   1
_chemical_formula_structural   Hf16Ta2Ni4MoW
_chemical_formula_sum   'Hf16 Ta2 Ni4 Mo1 W1'
_cell_volume   472.74282175
_cell_formula_units_Z   1
loop_
 _symmetry_equiv_pos_site_id
 _symmetry_equiv_pos_as_xyz
  1  'x, y, z'
loop_
 _atom_site_type_symbol
 _atom_site_label
 _atom_site_symmetry_multiplicity
 _atom_site_fract_x
 _atom_site_fract_y
 _atom_site_fract_z
 _atom_site_occupancy
  Hf  Hf0  1  0.691262  0.101695  0.103521  1
  Hf  Hf1  1  0.101854  0.691171  0.103483  1
  Hf  Hf2  1  0.101778  0.102926  0.691882  1
  Hf  Hf3  1  0.101780  0.102922  0.103420  1
  Hf  Hf4  1  0.315585  0.315293  0.684562  1
  Hf  Hf5  1  0.685774  0.684673  0.314777  1
  Hf  Hf6  1  0.315593  0.687736  0.314526  1
  Hf  Hf7  1  0.687690  0.315180  0.682448  1
  Hf  Hf8  1  0.687690  0.315181  0.314685  1
  Hf  Hf9  1  0.315591  0.687735  0.682149  1
  Hf  Hf10  1  0.950402  0.951599  0.549000  1
  Hf  Hf11  1  0.551299  0.551539  0.948585  1
  Hf  Hf12  1  0.949542  0.549961  0.950303  1
  Hf  Hf13  1  0.551558  0.948426  0.551803  1
  Hf  Hf14  1  0.551557  0.948426  0.948218  1
  Hf  Hf15  1  0.949544  0.549955  0.550204  1
  Ta  Ta16  1  0.331123  0.332280  0.002906  1
  Ta  Ta17  1  0.331124  0.332277  0.333695  1
  Ni  Ni18  1  0.321797  0.892624  0.892787  1
  Ni  Ni19  1  0.891768  0.321277  0.893495  1
  Ni  Ni20  1  0.892497  0.892850  0.321010  1
  Ni  Ni21  1  0.892457  0.892935  0.893568  1
  Mo  Mo22  1  0.333300  0.996963  0.334869  1
  W  W23  1  0.997431  0.334373  0.334098  1
