# generated using pymatgen
data_Ti5Zn4Pd11
_symmetry_space_group_name_H-M   'P 1'
_cell_length_a   7.34523126
_cell_length_b   7.34507120
_cell_length_c   7.35822069
_cell_angle_alpha   105.65134097
_cell_angle_beta   105.43984536
_cell_angle_gamma   117.59158630
_symmetry_Int_Tables_number   1
_chemical_formula_structural   Ti5Zn4Pd11
_chemical_formula_sum   'Ti5 Zn4 Pd11'
_cell_volume   301.10372481
_cell_formula_units_Z   1
loop_
 _symmetry_equiv_pos_site_id
 _symmetry_equiv_pos_as_xyz
  1  'x, y, z'
loop_
 _atom_site_type_symbol
 _atom_site_label
 _atom_site_symmetry_multiplicity
 _atom_site_fract_x
 _atom_site_fract_y
 _atom_site_fract_z
 _atom_site_occupancy
  Ti  Ti0  1  0.211935  0.403599  0.615570  1
  Ti  Ti1  1  0.788065  0.596401  0.384430  1
  Ti  Ti2  1  0.596550  0.212081  0.808494  1
  Ti  Ti3  1  0.403450  0.787919  0.191506  1
  Ti  Ti4  1  0.000000  0.000000  0.000000  1
  Zn  Zn5  1  0.304572  0.097504  0.402082  1
  Zn  Zn6  1  0.695428  0.902496  0.597918  1
  Zn  Zn7  1  0.902365  0.304563  0.206980  1
  Zn  Zn8  1  0.097635  0.695437  0.793020  1
  Pd  Pd9  1  0.343065  0.443301  0.303282  1
  Pd  Pd10  1  0.656935  0.556699  0.696718  1
  Pd  Pd11  1  0.140052  0.039776  0.696728  1
  Pd  Pd12  1  0.039862  0.343214  0.899849  1
  Pd  Pd13  1  0.859948  0.960224  0.303272  1
  Pd  Pd14  1  0.960138  0.656786  0.100151  1
  Pd  Pd15  1  0.443416  0.140081  0.100110  1
  Pd  Pd16  1  0.556584  0.859919  0.899890  1
  Pd  Pd17  1  0.250058  0.750057  0.499965  1
  Pd  Pd18  1  0.749942  0.249943  0.500035  1
  Pd  Pd19  1  0.500000  0.500000  0.000000  1
