# generated using pymatgen
data_NdDy2Th(Al3Rh)6
_symmetry_space_group_name_H-M   'P 1'
_cell_length_a   7.59398975
_cell_length_b   7.60443085
_cell_length_c   9.49983700
_cell_angle_alpha   90.00000000
_cell_angle_beta   90.00000000
_cell_angle_gamma   119.34235600
_symmetry_Int_Tables_number   1
_chemical_formula_structural   NdDy2Th(Al3Rh)6
_chemical_formula_sum   'Nd1 Dy2 Th1 Al18 Rh6'
_cell_volume   478.21537766
_cell_formula_units_Z   1
loop_
 _symmetry_equiv_pos_site_id
 _symmetry_equiv_pos_as_xyz
  1  'x, y, z'
loop_
 _atom_site_type_symbol
 _atom_site_label
 _atom_site_symmetry_multiplicity
 _atom_site_fract_x
 _atom_site_fract_y
 _atom_site_fract_z
 _atom_site_occupancy
  Nd  Nd0  1  0.671505  0.994009  0.750000  1
  Dy  Dy1  1  0.004551  0.327609  0.250000  1
  Dy  Dy2  1  0.327347  0.004778  0.250000  1
  Th  Th3  1  0.994759  0.671519  0.750000  1
  Al  Al4  1  0.133176  0.133111  0.750000  1
  Al  Al5  1  0.872589  0.873524  0.250000  1
  Al  Al6  1  0.002907  0.332784  0.570377  1
  Al  Al7  1  0.999527  0.663820  0.418211  1
  Al  Al8  1  0.999527  0.663820  0.081789  1
  Al  Al9  1  0.338463  0.005363  0.929741  1
  Al  Al10  1  0.002907  0.332784  0.929623  1
  Al  Al11  1  0.664137  0.000445  0.079153  1
  Al  Al12  1  0.664137  0.000445  0.420847  1
  Al  Al13  1  0.338463  0.005363  0.570259  1
  Al  Al14  1  0.332162  0.332182  0.055172  1
  Al  Al15  1  0.663736  0.665781  0.960399  1
  Al  Al16  1  0.663736  0.665781  0.539601  1
  Al  Al17  1  0.332162  0.332182  0.444828  1
  Al  Al18  1  0.341263  0.546878  0.750000  1
  Al  Al19  1  0.658181  0.447781  0.250000  1
  Al  Al20  1  0.545808  0.339396  0.750000  1
  Al  Al21  1  0.447748  0.659759  0.250000  1
  Rh  Rh22  1  0.672686  0.329178  0.499057  1
  Rh  Rh23  1  0.326722  0.671173  0.499007  1
  Rh  Rh24  1  0.326722  0.671173  0.000993  1
  Rh  Rh25  1  0.672686  0.329178  0.000943  1
  Rh  Rh26  1  0.001197  0.000091  0.498522  1
  Rh  Rh27  1  0.001197  0.000091  0.001478  1
