# generated using pymatgen
data_Ho9Tm3Ga20
_symmetry_space_group_name_H-M   'P 1'
_cell_length_a   6.07162300
_cell_length_b   9.60024700
_cell_length_c   11.49230200
_cell_angle_alpha   90.00000000
_cell_angle_beta   89.99951089
_cell_angle_gamma   90.00000000
_symmetry_Int_Tables_number   1
_chemical_formula_structural   Ho9Tm3Ga20
_chemical_formula_sum   'Ho9 Tm3 Ga20'
_cell_volume   669.87571629
_cell_formula_units_Z   1
loop_
 _symmetry_equiv_pos_site_id
 _symmetry_equiv_pos_as_xyz
  1  'x, y, z'
loop_
 _atom_site_type_symbol
 _atom_site_label
 _atom_site_symmetry_multiplicity
 _atom_site_fract_x
 _atom_site_fract_y
 _atom_site_fract_z
 _atom_site_occupancy
  Ho  Ho0  1  0.848813  0.750000  0.074122  1
  Ho  Ho1  1  0.890789  0.509880  0.351870  1
  Ho  Ho2  1  0.609106  0.990330  0.851522  1
  Ho  Ho3  1  0.109272  0.010104  0.648191  1
  Ho  Ho4  1  0.390495  0.489968  0.148239  1
  Ho  Ho5  1  0.109272  0.489896  0.648191  1
  Ho  Ho6  1  0.390495  0.010032  0.148239  1
  Ho  Ho7  1  0.890789  0.990120  0.351870  1
  Ho  Ho8  1  0.609106  0.509670  0.851522  1
  Tm  Tm9  1  0.651317  0.750000  0.573995  1
  Tm  Tm10  1  0.151454  0.250000  0.925823  1
  Tm  Tm11  1  0.348710  0.250000  0.425815  1
  Ga  Ga12  1  0.875016  0.053208  0.090533  1
  Ga  Ga13  1  0.624804  0.447372  0.590374  1
  Ga  Ga14  1  0.125011  0.552356  0.909383  1
  Ga  Ga15  1  0.375220  0.947483  0.409733  1
  Ga  Ga16  1  0.125011  0.947644  0.909383  1
  Ga  Ga17  1  0.375220  0.552517  0.409733  1
  Ga  Ga18  1  0.875016  0.446792  0.090533  1
  Ga  Ga19  1  0.624804  0.052628  0.590374  1
  Ga  Ga20  1  0.173127  0.750000  0.251654  1
  Ga  Ga21  1  0.328120  0.750000  0.751200  1
  Ga  Ga22  1  0.827981  0.250000  0.748760  1
  Ga  Ga23  1  0.671976  0.250000  0.248657  1
  Ga  Ga24  1  0.372451  0.750000  0.004993  1
  Ga  Ga25  1  0.126655  0.750000  0.505442  1
  Ga  Ga26  1  0.626316  0.250000  0.994738  1
  Ga  Ga27  1  0.873342  0.250000  0.494721  1
  Ga  Ga28  1  0.603425  0.750000  0.299618  1
  Ga  Ga29  1  0.896479  0.750000  0.798472  1
  Ga  Ga30  1  0.396551  0.250000  0.701093  1
  Ga  Ga31  1  0.103855  0.250000  0.201207  1
