# generated using pymatgen
data_Li8La7Dy(Sn3Bi)2
_symmetry_space_group_name_H-M   'P 1'
_cell_length_a   9.68533764
_cell_length_b   9.68435403
_cell_length_c   7.79567025
_cell_angle_alpha   89.99997237
_cell_angle_beta   90.08295349
_cell_angle_gamma   119.99672526
_symmetry_Int_Tables_number   1
_chemical_formula_structural   Li8La7Dy(Sn3Bi)2
_chemical_formula_sum   'Li8 La7 Dy1 Sn6 Bi2'
_cell_volume   633.26172361
_cell_formula_units_Z   1
loop_
 _symmetry_equiv_pos_site_id
 _symmetry_equiv_pos_as_xyz
  1  'x, y, z'
loop_
 _atom_site_type_symbol
 _atom_site_label
 _atom_site_symmetry_multiplicity
 _atom_site_fract_x
 _atom_site_fract_y
 _atom_site_fract_z
 _atom_site_occupancy
  Li  Li0  1  0.166673  0.332257  0.275897  1
  Li  Li1  1  0.166672  0.834416  0.275897  1
  Li  Li2  1  0.666490  0.833245  0.282836  1
  Li  Li3  1  0.831990  0.668761  0.791861  1
  Li  Li4  1  0.831990  0.163230  0.791862  1
  Li  Li5  1  0.333598  0.166799  0.798690  1
  Li  Li6  1  0.337362  0.668681  0.671453  1
  Li  Li7  1  0.665591  0.332794  0.172202  1
  La  La8  1  0.515456  0.024762  0.492229  1
  La  La9  1  0.515457  0.490695  0.492229  1
  La  La10  1  0.973788  0.486895  0.490106  1
  La  La11  1  0.493616  0.979963  0.997903  1
  La  La12  1  0.493616  0.513654  0.997902  1
  La  La13  1  0.016967  0.508484  0.999419  1
  La  La14  1  0.996204  0.998102  0.492921  1
  Dy  Dy15  1  0.994278  0.997139  0.006077  1
  Sn  Sn16  1  0.669844  0.834922  0.732049  1
  Sn  Sn17  1  0.836351  0.672040  0.224924  1
  Sn  Sn18  1  0.836351  0.164311  0.224925  1
  Sn  Sn19  1  0.327767  0.163883  0.222779  1
  Sn  Sn20  1  0.332314  0.666158  0.268469  1
  Sn  Sn21  1  0.667573  0.333787  0.765705  1
  Bi  Bi22  1  0.165025  0.330161  0.736829  1
  Bi  Bi23  1  0.165025  0.834863  0.736829  1
