# generated using pymatgen
data_Y3ScHgAu4
_symmetry_space_group_name_H-M   'P 1'
_cell_length_a   8.01688755
_cell_length_b   8.01688765
_cell_length_c   8.01688632
_cell_angle_alpha   65.71869148
_cell_angle_beta   65.71869354
_cell_angle_gamma   65.71868050
_symmetry_Int_Tables_number   1
_chemical_formula_structural   Y3ScHgAu4
_chemical_formula_sum   'Y6 Sc2 Hg2 Au8'
_cell_volume   409.54200467
_cell_formula_units_Z   2
loop_
 _symmetry_equiv_pos_site_id
 _symmetry_equiv_pos_as_xyz
  1  'x, y, z'
loop_
 _atom_site_type_symbol
 _atom_site_label
 _atom_site_symmetry_multiplicity
 _atom_site_fract_x
 _atom_site_fract_y
 _atom_site_fract_z
 _atom_site_occupancy
  Y  Y0  1  0.893056  0.190148  0.609900  1
  Y  Y1  1  0.609900  0.893056  0.190148  1
  Y  Y2  1  0.190148  0.609900  0.893056  1
  Y  Y3  1  0.106944  0.809852  0.390100  1
  Y  Y4  1  0.390100  0.106944  0.809852  1
  Y  Y5  1  0.809852  0.390100  0.106944  1
  Sc  Sc6  1  0.662349  0.662349  0.662349  1
  Sc  Sc7  1  0.337651  0.337651  0.337651  1
  Hg  Hg8  1  0.000000  0.000000  0.000000  1
  Hg  Hg9  1  0.500000  0.500000  0.500000  1
  Au  Au10  1  0.807146  0.807146  0.807146  1
  Au  Au11  1  0.192854  0.192854  0.192854  1
  Au  Au12  1  0.936894  0.552335  0.320277  1
  Au  Au13  1  0.320277  0.936894  0.552335  1
  Au  Au14  1  0.552335  0.320277  0.936894  1
  Au  Au15  1  0.063106  0.447665  0.679723  1
  Au  Au16  1  0.679723  0.063106  0.447665  1
  Au  Au17  1  0.447665  0.679723  0.063106  1
