# generated using pymatgen
data_Pr8Lu9Sc3Si15As
_symmetry_space_group_name_H-M   'P 1'
_cell_length_a   7.38292054
_cell_length_b   7.70591817
_cell_length_c   14.52738600
_cell_angle_alpha   90.00000000
_cell_angle_beta   90.00000000
_cell_angle_gamma   90.47798194
_symmetry_Int_Tables_number   1
_chemical_formula_structural   Pr8Lu9Sc3Si15As
_chemical_formula_sum   'Pr8 Lu9 Sc3 Si15 As1'
_cell_volume   826.46592251
_cell_formula_units_Z   1
loop_
 _symmetry_equiv_pos_site_id
 _symmetry_equiv_pos_as_xyz
  1  'x, y, z'
loop_
 _atom_site_type_symbol
 _atom_site_label
 _atom_site_symmetry_multiplicity
 _atom_site_fract_x
 _atom_site_fract_y
 _atom_site_fract_z
 _atom_site_occupancy
  Pr  Pr0  1  0.019825  0.176149  0.402630  1
  Pr  Pr1  1  0.515612  0.322254  0.402300  1
  Pr  Pr2  1  0.487116  0.670536  0.903928  1
  Pr  Pr3  1  0.487116  0.670536  0.596072  1
  Pr  Pr4  1  0.984724  0.825606  0.601647  1
  Pr  Pr5  1  0.984724  0.825606  0.898353  1
  Pr  Pr6  1  0.515612  0.322254  0.097700  1
  Pr  Pr7  1  0.019825  0.176149  0.097370  1
  Lu  Lu8  1  0.319383  0.173046  0.626592  1
  Lu  Lu9  1  0.677023  0.826015  0.375528  1
  Lu  Lu10  1  0.177587  0.678326  0.376561  1
  Lu  Lu11  1  0.818250  0.326898  0.875654  1
  Lu  Lu12  1  0.818250  0.326898  0.624346  1
  Lu  Lu13  1  0.844775  0.492847  0.250000  1
  Lu  Lu14  1  0.319383  0.173046  0.873408  1
  Lu  Lu15  1  0.177587  0.678326  0.123439  1
  Lu  Lu16  1  0.677023  0.826015  0.124472  1
  Sc  Sc17  1  0.658097  0.993947  0.750000  1
  Sc  Sc18  1  0.346075  0.006337  0.250000  1
  Sc  Sc19  1  0.150697  0.500545  0.750000  1
  Si  Si20  1  0.471443  0.617346  0.250000  1
  Si  Si21  1  0.011285  0.132303  0.750000  1
  Si  Si22  1  0.519764  0.382131  0.750000  1
  Si  Si23  1  0.148086  0.467661  0.541834  1
  Si  Si24  1  0.976817  0.886259  0.250000  1
  Si  Si25  1  0.719078  0.122126  0.250000  1
  Si  Si26  1  0.851167  0.535603  0.039323  1
  Si  Si27  1  0.352953  0.967029  0.039232  1
  Si  Si28  1  0.148086  0.467661  0.958166  1
  Si  Si29  1  0.647345  0.031545  0.542151  1
  Si  Si30  1  0.352953  0.967029  0.460768  1
  Si  Si31  1  0.851167  0.535603  0.460677  1
  Si  Si32  1  0.783475  0.627151  0.750000  1
  Si  Si33  1  0.222850  0.376859  0.250000  1
  Si  Si34  1  0.647345  0.031545  0.957849  1
  As  As35  1  0.297502  0.860805  0.750000  1
