# generated using pymatgen
data_Nd4Al4IrPt3
_symmetry_space_group_name_H-M   'P 1'
_cell_length_a   4.50404700
_cell_length_b   7.08756004
_cell_length_c   7.90875705
_cell_angle_alpha   90.01221997
_cell_angle_beta   90.00000000
_cell_angle_gamma   90.00000000
_symmetry_Int_Tables_number   1
_chemical_formula_structural   Nd4Al4IrPt3
_chemical_formula_sum   'Nd4 Al4 Ir1 Pt3'
_cell_volume   252.46890075
_cell_formula_units_Z   1
loop_
 _symmetry_equiv_pos_site_id
 _symmetry_equiv_pos_as_xyz
  1  'x, y, z'
loop_
 _atom_site_type_symbol
 _atom_site_label
 _atom_site_symmetry_multiplicity
 _atom_site_fract_x
 _atom_site_fract_y
 _atom_site_fract_z
 _atom_site_occupancy
  Nd  Nd0  1  0.750000  0.468019  0.181720  1
  Nd  Nd1  1  0.250000  0.026357  0.681637  1
  Nd  Nd2  1  0.750000  0.964652  0.320058  1
  Nd  Nd3  1  0.250000  0.534014  0.815594  1
  Al  Al4  1  0.750000  0.852663  0.932359  1
  Al  Al5  1  0.250000  0.646536  0.436779  1
  Al  Al6  1  0.750000  0.359408  0.565773  1
  Al  Al7  1  0.250000  0.145684  0.064563  1
  Ir  Ir8  1  0.750000  0.721911  0.614087  1
  Pt  Pt9  1  0.750000  0.217573  0.886698  1
  Pt  Pt10  1  0.250000  0.280971  0.385941  1
  Pt  Pt11  1  0.250000  0.782212  0.114789  1
