# generated using pymatgen
data_LiCaNdNi11As7
_symmetry_space_group_name_H-M   'P 1'
_cell_length_a   3.87762600
_cell_length_b   9.39709633
_cell_length_c   9.43609208
_cell_angle_alpha   120.36207871
_cell_angle_beta   90.00000000
_cell_angle_gamma   90.00000000
_symmetry_Int_Tables_number   1
_chemical_formula_structural   LiCaNdNi11As7
_chemical_formula_sum   'Li1 Ca1 Nd1 Ni11 As7'
_cell_volume   296.67863034
_cell_formula_units_Z   1
loop_
 _symmetry_equiv_pos_site_id
 _symmetry_equiv_pos_as_xyz
  1  'x, y, z'
loop_
 _atom_site_type_symbol
 _atom_site_label
 _atom_site_symmetry_multiplicity
 _atom_site_fract_x
 _atom_site_fract_y
 _atom_site_fract_z
 _atom_site_occupancy
  Li  Li0  1  0.500000  0.104686  0.892760  1
  Ca  Ca1  1  0.500000  0.331782  0.664495  1
  Nd  Nd2  1  0.000000  0.671009  0.339030  1
  Ni  Ni3  1  0.000000  0.876539  0.725534  1
  Ni  Ni4  1  0.000000  0.281769  0.154521  1
  Ni  Ni5  1  0.000000  0.841060  0.126185  1
  Ni  Ni6  1  0.500000  0.951612  0.570718  1
  Ni  Ni7  1  0.500000  0.426803  0.379529  1
  Ni  Ni8  1  0.500000  0.618771  0.044065  1
  Ni  Ni9  1  0.000000  0.378809  0.946351  1
  Ni  Ni10  1  0.000000  0.055282  0.429847  1
  Ni  Ni11  1  0.000000  0.565716  0.620210  1
  Ni  Ni12  1  0.500000  0.096046  0.205403  1
  Ni  Ni13  1  0.500000  0.796811  0.896758  1
  As  As14  1  0.500000  0.708030  0.605535  1
  As  As15  1  0.500000  0.407894  0.110847  1
  As  As16  1  0.500000  0.894210  0.293560  1
  As  As17  1  0.000000  0.997807  0.005881  1
  As  As18  1  0.000000  0.112936  0.701869  1
  As  As19  1  0.000000  0.291319  0.405020  1
  As  As20  1  0.000000  0.591111  0.881887  1
