# generated using pymatgen
data_Tb3Lu5Hf12Si15As
_symmetry_space_group_name_H-M   'P 1'
_cell_length_a   7.24714772
_cell_length_b   7.25789664
_cell_length_c   13.31219001
_cell_angle_alpha   89.66514797
_cell_angle_beta   89.96639002
_cell_angle_gamma   89.94915886
_symmetry_Int_Tables_number   1
_chemical_formula_structural   Tb3Lu5Hf12Si15As
_chemical_formula_sum   'Tb3 Lu5 Hf12 Si15 As1'
_cell_volume   700.19618423
_cell_formula_units_Z   1
loop_
 _symmetry_equiv_pos_site_id
 _symmetry_equiv_pos_as_xyz
  1  'x, y, z'
loop_
 _atom_site_type_symbol
 _atom_site_label
 _atom_site_symmetry_multiplicity
 _atom_site_fract_x
 _atom_site_fract_y
 _atom_site_fract_z
 _atom_site_occupancy
  Tb  Tb0  1  0.495534  0.155729  0.535321  1
  Tb  Tb1  1  0.344821  0.994782  0.785516  1
  Tb  Tb2  1  0.655710  0.005021  0.283490  1
  Lu  Lu3  1  0.995853  0.347062  0.214339  1
  Lu  Lu4  1  0.003509  0.654668  0.715330  1
  Lu  Lu5  1  0.150891  0.501664  0.467085  1
  Lu  Lu6  1  0.506034  0.842186  0.033361  1
  Lu  Lu7  1  0.845388  0.502653  0.965177  1
  Hf  Hf8  1  0.174152  0.175462  0.000062  1
  Hf  Hf9  1  0.827505  0.825426  0.500102  1
  Hf  Hf10  1  0.324057  0.676777  0.249210  1
  Hf  Hf11  1  0.675752  0.326449  0.750585  1
  Hf  Hf12  1  0.148245  0.995310  0.372330  1
  Hf  Hf13  1  0.852090  0.002129  0.875750  1
  Hf  Hf14  1  0.503564  0.648968  0.625128  1
  Hf  Hf15  1  0.353041  0.497642  0.875848  1
  Hf  Hf16  1  0.495039  0.350511  0.125088  1
  Hf  Hf17  1  0.652440  0.505356  0.376089  1
  Hf  Hf18  1  0.997913  0.149310  0.625648  1
  Hf  Hf19  1  0.998863  0.848806  0.123528  1
  Si  Si20  1  0.641784  0.703765  0.818019  1
  Si  Si21  1  0.202257  0.859624  0.566997  1
  Si  Si22  1  0.137849  0.792730  0.932476  1
  Si  Si23  1  0.795236  0.141084  0.068136  1
  Si  Si24  1  0.864400  0.206802  0.432291  1
  Si  Si25  1  0.293656  0.363729  0.682512  1
  Si  Si26  1  0.703644  0.636497  0.181630  1
  Si  Si27  1  0.294787  0.038318  0.178822  1
  Si  Si28  1  0.706458  0.949634  0.685912  1
  Si  Si29  1  0.450204  0.794773  0.435770  1
  Si  Si30  1  0.201514  0.546910  0.064600  1
  Si  Si31  1  0.550016  0.203403  0.936572  1
  Si  Si32  1  0.798378  0.453154  0.565172  1
  Si  Si33  1  0.047287  0.299028  0.814484  1
  Si  Si34  1  0.953266  0.701467  0.314530  1
  As  As35  1  0.358865  0.303172  0.323086  1
