# generated using pymatgen
data_Ac2HoMg3Tl2Cd
_symmetry_space_group_name_H-M   'P 1'
_cell_length_a   7.94416400
_cell_length_b   7.82487501
_cell_length_c   4.90095200
_cell_angle_alpha   90.00000000
_cell_angle_beta   90.00000000
_cell_angle_gamma   120.50558980
_symmetry_Int_Tables_number   1
_chemical_formula_structural   Ac2HoMg3Tl2Cd
_chemical_formula_sum   'Ac2 Ho1 Mg3 Tl2 Cd1'
_cell_volume   262.48318508
_cell_formula_units_Z   1
loop_
 _symmetry_equiv_pos_site_id
 _symmetry_equiv_pos_as_xyz
  1  'x, y, z'
loop_
 _atom_site_type_symbol
 _atom_site_label
 _atom_site_symmetry_multiplicity
 _atom_site_fract_x
 _atom_site_fract_y
 _atom_site_fract_z
 _atom_site_occupancy
  Ac  Ac0  1  0.004476  0.576955  0.000000  1
  Ac  Ac1  1  0.427521  0.423045  0.000000  1
  Ho  Ho2  1  0.574631  0.000000  0.000000  1
  Mg  Mg3  1  0.765201  0.767085  0.500000  1
  Mg  Mg4  1  0.234822  0.000000  0.500000  1
  Mg  Mg5  1  0.998115  0.232915  0.500000  1
  Tl  Tl6  1  0.663067  0.312536  0.500000  1
  Tl  Tl7  1  0.350530  0.687464  0.500000  1
  Cd  Cd8  1  0.981636  0.000000  0.000000  1
