# generated using pymatgen
data_TmSe27
_symmetry_space_group_name_H-M   'P 1'
_cell_length_a   15.81446432
_cell_length_b   15.81446404
_cell_length_c   15.81446336
_cell_angle_alpha   119.13300048
_cell_angle_beta   119.13299772
_cell_angle_gamma   119.13299847
_symmetry_Int_Tables_number   1
_chemical_formula_structural   TmSe27
_chemical_formula_sum   'Tm1 Se27'
_cell_volume   954.10082738
_cell_formula_units_Z   1
loop_
 _symmetry_equiv_pos_site_id
 _symmetry_equiv_pos_as_xyz
  1  'x, y, z'
loop_
 _atom_site_type_symbol
 _atom_site_label
 _atom_site_symmetry_multiplicity
 _atom_site_fract_x
 _atom_site_fract_y
 _atom_site_fract_z
 _atom_site_occupancy
  Tm  Tm0  1  0.450252  0.450252  0.450252  1
  Se  Se1  1  0.993262  0.605626  0.605626  1
  Se  Se2  1  0.605626  0.605626  0.993262  1
  Se  Se3  1  0.605626  0.993262  0.605626  1
  Se  Se4  1  0.279567  0.900190  0.763016  1
  Se  Se5  1  0.900190  0.763016  0.279567  1
  Se  Se6  1  0.763016  0.279567  0.900190  1
  Se  Se7  1  0.900190  0.279567  0.763016  1
  Se  Se8  1  0.279567  0.763016  0.900190  1
  Se  Se9  1  0.763016  0.900190  0.279567  1
  Se  Se10  1  0.060650  0.594451  0.399855  1
  Se  Se11  1  0.594451  0.399855  0.060650  1
  Se  Se12  1  0.399855  0.060650  0.594451  1
  Se  Se13  1  0.594451  0.060650  0.399855  1
  Se  Se14  1  0.060650  0.399855  0.594451  1
  Se  Se15  1  0.399855  0.594451  0.060650  1
  Se  Se16  1  0.384998  0.765843  0.623817  1
  Se  Se17  1  0.765843  0.623817  0.384998  1
  Se  Se18  1  0.623817  0.384998  0.765843  1
  Se  Se19  1  0.765843  0.384998  0.623817  1
  Se  Se20  1  0.384998  0.623817  0.765843  1
  Se  Se21  1  0.623817  0.765843  0.384998  1
  Se  Se22  1  0.161103  0.421059  0.421059  1
  Se  Se23  1  0.421059  0.421059  0.161103  1
  Se  Se24  1  0.421059  0.161103  0.421059  1
  Se  Se25  1  0.023927  0.910206  0.910206  1
  Se  Se26  1  0.910206  0.910206  0.023927  1
  Se  Se27  1  0.910206  0.023927  0.910206  1
