# generated using pymatgen
data_PaTi3(InPd2)2
_symmetry_space_group_name_H-M   'P 1'
_cell_length_a   7.33028492
_cell_length_b   7.33028573
_cell_length_c   6.88354600
_cell_angle_alpha   90.00000000
_cell_angle_beta   90.00000000
_cell_angle_gamma   91.76002079
_symmetry_Int_Tables_number   1
_chemical_formula_structural   PaTi3(InPd2)2
_chemical_formula_sum   'Pa2 Ti6 In4 Pd8'
_cell_volume   369.69965417
_cell_formula_units_Z   2
loop_
 _symmetry_equiv_pos_site_id
 _symmetry_equiv_pos_as_xyz
  1  'x, y, z'
loop_
 _atom_site_type_symbol
 _atom_site_label
 _atom_site_symmetry_multiplicity
 _atom_site_fract_x
 _atom_site_fract_y
 _atom_site_fract_z
 _atom_site_occupancy
  Pa  Pa0  1  0.141858  0.141858  0.000000  1
  Pa  Pa1  1  0.858142  0.858142  0.000000  1
  Ti  Ti2  1  0.644201  0.355799  0.500000  1
  Ti  Ti3  1  0.355799  0.644201  0.500000  1
  Ti  Ti4  1  0.685687  0.314313  0.000000  1
  Ti  Ti5  1  0.314313  0.685687  0.000000  1
  Ti  Ti6  1  0.807747  0.807747  0.500000  1
  Ti  Ti7  1  0.192253  0.192253  0.500000  1
  In  In8  1  0.500000  0.000000  0.263150  1
  In  In9  1  0.500000  0.000000  0.736850  1
  In  In10  1  0.000000  0.500000  0.263150  1
  In  In11  1  0.000000  0.500000  0.736850  1
  Pd  Pd12  1  0.368962  0.368962  0.214120  1
  Pd  Pd13  1  0.631038  0.631038  0.785880  1
  Pd  Pd14  1  0.631038  0.631038  0.214120  1
  Pd  Pd15  1  0.863170  0.136830  0.699774  1
  Pd  Pd16  1  0.863170  0.136830  0.300226  1
  Pd  Pd17  1  0.368962  0.368962  0.785880  1
  Pd  Pd18  1  0.136830  0.863170  0.300226  1
  Pd  Pd19  1  0.136830  0.863170  0.699774  1
