# generated using pymatgen
data_Y17Ho3IrRh11
_symmetry_space_group_name_H-M   'P 1'
_cell_length_a   10.94505315
_cell_length_b   10.94551430
_cell_length_c   6.37132304
_cell_angle_alpha   89.99299221
_cell_angle_beta   89.99569014
_cell_angle_gamma   90.06112967
_symmetry_Int_Tables_number   1
_chemical_formula_structural   Y17Ho3IrRh11
_chemical_formula_sum   'Y17 Ho3 Ir1 Rh11'
_cell_volume   763.27918809
_cell_formula_units_Z   1
loop_
 _symmetry_equiv_pos_site_id
 _symmetry_equiv_pos_as_xyz
  1  'x, y, z'
loop_
 _atom_site_type_symbol
 _atom_site_label
 _atom_site_symmetry_multiplicity
 _atom_site_fract_x
 _atom_site_fract_y
 _atom_site_fract_z
 _atom_site_occupancy
  Y  Y0  1  0.290744  0.088677  0.378411  1
  Y  Y1  1  0.290871  0.909812  0.878540  1
  Y  Y2  1  0.709387  0.088297  0.878463  1
  Y  Y3  1  0.708953  0.911167  0.378100  1
  Y  Y4  1  0.586761  0.789921  0.878080  1
  Y  Y5  1  0.588723  0.209504  0.378880  1
  Y  Y6  1  0.410935  0.789905  0.379610  1
  Y  Y7  1  0.411305  0.209177  0.878140  1
  Y  Y8  1  0.210111  0.413135  0.621904  1
  Y  Y9  1  0.210078  0.588959  0.120407  1
  Y  Y10  1  0.790511  0.411372  0.121113  1
  Y  Y11  1  0.790799  0.588808  0.621837  1
  Y  Y12  1  0.911529  0.709535  0.121455  1
  Y  Y13  1  0.911494  0.290877  0.621659  1
  Y  Y14  1  0.090393  0.708866  0.621571  1
  Y  Y15  1  0.088637  0.290770  0.121781  1
  Y  Y16  1  0.999732  0.999877  0.500146  1
  Ho  Ho17  1  0.000171  0.000281  0.999858  1
  Ho  Ho18  1  0.499582  0.500050  0.999913  1
  Ho  Ho19  1  0.499948  0.500404  0.500096  1
  Ir  Ir20  1  0.347851  0.652133  0.750043  1
  Rh  Rh21  1  0.846513  0.153544  0.248611  1
  Rh  Rh22  1  0.846175  0.846678  0.751684  1
  Rh  Rh23  1  0.153388  0.153739  0.751174  1
  Rh  Rh24  1  0.152721  0.847226  0.248541  1
  Rh  Rh25  1  0.652693  0.347303  0.750042  1
  Rh  Rh26  1  0.653561  0.652818  0.250048  1
  Rh  Rh27  1  0.347186  0.346423  0.249857  1
  Rh  Rh28  1  0.500152  0.000500  0.124591  1
  Rh  Rh29  1  0.500286  0.000695  0.623844  1
  Rh  Rh30  1  0.999307  0.499713  0.876127  1
  Rh  Rh31  1  0.999503  0.499835  0.375476  1
