# generated using pymatgen
data_Ta3In2Br9
_symmetry_space_group_name_H-M   'P 1'
_cell_length_a   10.36274967
_cell_length_b   10.36274952
_cell_length_c   10.23662669
_cell_angle_alpha   77.52134298
_cell_angle_beta   77.52134655
_cell_angle_gamma   117.51926820
_symmetry_Int_Tables_number   1
_chemical_formula_structural   Ta3In2Br9
_chemical_formula_sum   'Ta6 In4 Br18'
_cell_volume   886.25827334
_cell_formula_units_Z   2
loop_
 _symmetry_equiv_pos_site_id
 _symmetry_equiv_pos_as_xyz
  1  'x, y, z'
loop_
 _atom_site_type_symbol
 _atom_site_label
 _atom_site_symmetry_multiplicity
 _atom_site_fract_x
 _atom_site_fract_y
 _atom_site_fract_z
 _atom_site_occupancy
  Ta  Ta0  1  0.543804  0.708736  0.368021  1
  Ta  Ta1  1  0.291264  0.456196  0.631979  1
  Ta  Ta2  1  0.456196  0.291264  0.631979  1
  Ta  Ta3  1  0.708736  0.543804  0.368021  1
  Ta  Ta4  1  0.385783  0.385783  0.378895  1
  Ta  Ta5  1  0.614217  0.614217  0.621105  1
  In  In6  1  0.271618  0.950462  0.166461  1
  In  In7  1  0.049538  0.728382  0.833539  1
  In  In8  1  0.728382  0.049538  0.833539  1
  In  In9  1  0.950462  0.271618  0.166461  1
  Br  Br10  1  0.999904  0.394081  0.820416  1
  Br  Br11  1  0.605919  0.000096  0.179584  1
  Br  Br12  1  0.183434  0.183434  0.827078  1
  Br  Br13  1  0.816566  0.816566  0.172922  1
  Br  Br14  1  0.381305  0.586141  0.813881  1
  Br  Br15  1  0.413859  0.618695  0.186119  1
  Br  Br16  1  0.618695  0.413859  0.186119  1
  Br  Br17  1  0.586141  0.381305  0.813881  1
  Br  Br18  1  0.694559  0.901669  0.486425  1
  Br  Br19  1  0.098331  0.305441  0.513575  1
  Br  Br20  1  0.305441  0.098331  0.513575  1
  Br  Br21  1  0.901669  0.694559  0.486425  1
  Br  Br22  1  0.705657  0.294343  0.500000  1
  Br  Br23  1  0.294343  0.705657  0.500000  1
  Br  Br24  1  0.228920  0.228920  0.213584  1
  Br  Br25  1  0.771080  0.771080  0.786416  1
  Br  Br26  1  0.394081  0.999904  0.820416  1
  Br  Br27  1  0.000096  0.605919  0.179584  1
