# generated using pymatgen
data_Dy2YEr(Mo2O7)2
_symmetry_space_group_name_H-M   'P 1'
_cell_length_a   7.39804422
_cell_length_b   7.33212871
_cell_length_c   7.29637700
_cell_angle_alpha   60.16117176
_cell_angle_beta   60.45356912
_cell_angle_gamma   60.32169147
_symmetry_Int_Tables_number   1
_chemical_formula_structural   Dy2YEr(Mo2O7)2
_chemical_formula_sum   'Dy2 Y1 Er1 Mo4 O14'
_cell_volume   281.83200022
_cell_formula_units_Z   1
loop_
 _symmetry_equiv_pos_site_id
 _symmetry_equiv_pos_as_xyz
  1  'x, y, z'
loop_
 _atom_site_type_symbol
 _atom_site_label
 _atom_site_symmetry_multiplicity
 _atom_site_fract_x
 _atom_site_fract_y
 _atom_site_fract_z
 _atom_site_occupancy
  Dy  Dy0  1  0.125000  0.125000  0.625000  1
  Dy  Dy1  1  0.125000  0.125000  0.125000  1
  Y  Y2  1  0.625000  0.125000  0.125000  1
  Er  Er3  1  0.125000  0.625000  0.125000  1
  Mo  Mo4  1  0.125000  0.625000  0.625000  1
  Mo  Mo5  1  0.625000  0.125000  0.625000  1
  Mo  Mo6  1  0.625000  0.625000  0.125000  1
  Mo  Mo7  1  0.625000  0.625000  0.625000  1
  O  O8  1  0.725824  0.704574  0.284801  1
  O  O9  1  0.284366  0.277435  0.719100  1
  O  O10  1  0.714302  0.288437  0.711748  1
  O  O11  1  0.284168  0.717030  0.286491  1
  O  O12  1  0.284168  0.717030  0.712312  1
  O  O13  1  0.714302  0.288437  0.285512  1
  O  O14  1  0.524176  0.545426  0.965199  1
  O  O15  1  0.965634  0.972565  0.530900  1
  O  O16  1  0.535698  0.961563  0.538252  1
  O  O17  1  0.965832  0.532970  0.963509  1
  O  O18  1  0.965832  0.532970  0.537688  1
  O  O19  1  0.535698  0.961563  0.964488  1
  O  O20  1  0.253954  0.252414  0.246816  1
  O  O21  1  0.996046  0.997586  0.003184  1
