# generated using pymatgen
data_Y2B10Pt
_symmetry_space_group_name_H-M   'P 1'
_cell_length_a   4.17467900
_cell_length_b   5.70235300
_cell_length_c   11.37622500
_cell_angle_alpha   90.00000000
_cell_angle_beta   90.00000000
_cell_angle_gamma   90.00000000
_symmetry_Int_Tables_number   1
_chemical_formula_structural   Y2B10Pt
_chemical_formula_sum   'Y4 B20 Pt2'
_cell_volume   270.81664824
_cell_formula_units_Z   2
loop_
 _symmetry_equiv_pos_site_id
 _symmetry_equiv_pos_as_xyz
  1  'x, y, z'
loop_
 _atom_site_type_symbol
 _atom_site_label
 _atom_site_symmetry_multiplicity
 _atom_site_fract_x
 _atom_site_fract_y
 _atom_site_fract_z
 _atom_site_occupancy
  Y  Y0  1  0.500000  0.186671  0.359149  1
  Y  Y1  1  0.500000  0.813329  0.640851  1
  Y  Y2  1  0.500000  0.313329  0.859149  1
  Y  Y3  1  0.500000  0.686671  0.140851  1
  B  B4  1  0.000000  0.383863  0.043695  1
  B  B5  1  0.000000  0.616137  0.956305  1
  B  B6  1  0.000000  0.116137  0.543695  1
  B  B7  1  0.000000  0.883863  0.456305  1
  B  B8  1  0.000000  0.362783  0.197504  1
  B  B9  1  0.000000  0.637217  0.802496  1
  B  B10  1  0.000000  0.137217  0.697504  1
  B  B11  1  0.000000  0.862783  0.302496  1
  B  B12  1  0.000000  0.055840  0.193952  1
  B  B13  1  0.000000  0.944160  0.806048  1
  B  B14  1  0.000000  0.444160  0.693952  1
  B  B15  1  0.000000  0.555840  0.306048  1
  B  B16  1  0.303029  0.220892  0.120571  1
  B  B17  1  0.696971  0.779108  0.879429  1
  B  B18  1  0.303029  0.779108  0.879429  1
  B  B19  1  0.696971  0.279108  0.620571  1
  B  B20  1  0.696971  0.220892  0.120571  1
  B  B21  1  0.303029  0.720892  0.379429  1
  B  B22  1  0.696971  0.720892  0.379429  1
  B  B23  1  0.303029  0.279108  0.620571  1
  Pt  Pt24  1  0.000000  0.000000  0.000000  1
  Pt  Pt25  1  0.000000  0.500000  0.500000  1
