# generated using pymatgen
data_Nd3In3Ni2Ag
_symmetry_space_group_name_H-M   'P 1'
_cell_length_a   7.68742200
_cell_length_b   7.68742222
_cell_length_c   4.05522600
_cell_angle_alpha   90.00000000
_cell_angle_beta   90.00000000
_cell_angle_gamma   119.99999904
_symmetry_Int_Tables_number   1
_chemical_formula_structural   Nd3In3Ni2Ag
_chemical_formula_sum   'Nd3 In3 Ni2 Ag1'
_cell_volume   207.54255350
_cell_formula_units_Z   1
loop_
 _symmetry_equiv_pos_site_id
 _symmetry_equiv_pos_as_xyz
  1  'x, y, z'
loop_
 _atom_site_type_symbol
 _atom_site_label
 _atom_site_symmetry_multiplicity
 _atom_site_fract_x
 _atom_site_fract_y
 _atom_site_fract_z
 _atom_site_occupancy
  Nd  Nd0  1  0.397577  0.418536  0.500000  1
  Nd  Nd1  1  0.581464  0.979041  0.500000  1
  Nd  Nd2  1  0.020959  0.602423  0.500000  1
  In  In3  1  0.757173  0.757883  0.000000  1
  In  In4  1  0.242117  0.999289  0.000000  1
  In  In5  1  0.000711  0.242827  0.000000  1
  Ni  Ni6  1  0.000000  0.000000  0.500000  1
  Ni  Ni7  1  0.333333  0.666667  0.000000  1
  Ag  Ag8  1  0.666667  0.333333  0.000000  1
