# generated using pymatgen
data_Pr2Eu6Si13Pd3
_symmetry_space_group_name_H-M   'P 1'
_cell_length_a   8.33244300
_cell_length_b   8.33244521
_cell_length_c   8.71840800
_cell_angle_alpha   90.00000000
_cell_angle_beta   90.00000000
_cell_angle_gamma   120.00000313
_symmetry_Int_Tables_number   1
_chemical_formula_structural   Pr2Eu6Si13Pd3
_chemical_formula_sum   'Pr2 Eu6 Si13 Pd3'
_cell_volume   524.21884010
_cell_formula_units_Z   1
loop_
 _symmetry_equiv_pos_site_id
 _symmetry_equiv_pos_as_xyz
  1  'x, y, z'
loop_
 _atom_site_type_symbol
 _atom_site_label
 _atom_site_symmetry_multiplicity
 _atom_site_fract_x
 _atom_site_fract_y
 _atom_site_fract_z
 _atom_site_occupancy
  Pr  Pr0  1  0.000000  0.000000  0.747894  1
  Pr  Pr1  1  0.000000  0.000000  0.252172  1
  Eu  Eu2  1  0.501443  0.498557  0.749199  1
  Eu  Eu3  1  0.501740  0.498260  0.250735  1
  Eu  Eu4  1  0.997115  0.498557  0.749199  1
  Eu  Eu5  1  0.996518  0.498260  0.250735  1
  Eu  Eu6  1  0.501443  0.002885  0.749199  1
  Eu  Eu7  1  0.501740  0.003482  0.250735  1
  Si  Si8  1  0.837737  0.162263  0.000029  1
  Si  Si9  1  0.167356  0.832644  0.000020  1
  Si  Si10  1  0.324528  0.162263  0.000029  1
  Si  Si11  1  0.165197  0.834803  0.500014  1
  Si  Si12  1  0.665287  0.832644  0.000020  1
  Si  Si13  1  0.835022  0.164978  0.500036  1
  Si  Si14  1  0.837737  0.675472  0.000029  1
  Si  Si15  1  0.669605  0.834803  0.500014  1
  Si  Si16  1  0.167356  0.334713  0.000020  1
  Si  Si17  1  0.329956  0.164978  0.500036  1
  Si  Si18  1  0.165197  0.330395  0.500014  1
  Si  Si19  1  0.835022  0.670044  0.500036  1
  Si  Si20  1  0.666667  0.333333  0.999486  1
  Pd  Pd21  1  0.333333  0.666667  0.000215  1
  Pd  Pd22  1  0.333333  0.666667  0.499805  1
  Pd  Pd23  1  0.666667  0.333333  0.500329  1
