# generated using pymatgen
data_Nb4CrSi3H
_symmetry_space_group_name_H-M   'P 1'
_cell_length_a   7.44822700
_cell_length_b   7.44822606
_cell_length_c   5.12869800
_cell_angle_alpha   90.00000000
_cell_angle_beta   90.00000000
_cell_angle_gamma   119.99999973
_symmetry_Int_Tables_number   1
_chemical_formula_structural   Nb4CrSi3H
_chemical_formula_sum   'Nb8 Cr2 Si6 H2'
_cell_volume   246.40159412
_cell_formula_units_Z   2
loop_
 _symmetry_equiv_pos_site_id
 _symmetry_equiv_pos_as_xyz
  1  'x, y, z'
loop_
 _atom_site_type_symbol
 _atom_site_label
 _atom_site_symmetry_multiplicity
 _atom_site_fract_x
 _atom_site_fract_y
 _atom_site_fract_z
 _atom_site_occupancy
  Nb  Nb0  1  0.666667  0.333333  0.000000  1
  Nb  Nb1  1  0.333333  0.666667  0.000000  1
  Nb  Nb2  1  0.757024  0.757024  0.759211  1
  Nb  Nb3  1  0.242976  0.000000  0.759211  1
  Nb  Nb4  1  0.000000  0.242976  0.759211  1
  Nb  Nb5  1  0.242976  0.242976  0.240789  1
  Nb  Nb6  1  0.757024  0.000000  0.240789  1
  Nb  Nb7  1  0.000000  0.757024  0.240789  1
  Cr  Cr8  1  0.333333  0.666667  0.500000  1
  Cr  Cr9  1  0.666667  0.333333  0.500000  1
  Si  Si10  1  0.402628  0.402628  0.721962  1
  Si  Si11  1  0.597372  0.000000  0.721962  1
  Si  Si12  1  0.000000  0.597372  0.721962  1
  Si  Si13  1  0.597372  0.597372  0.278038  1
  Si  Si14  1  0.402628  0.000000  0.278038  1
  Si  Si15  1  0.000000  0.402628  0.278038  1
  H  H16  1  0.000000  0.000000  0.000000  1
  H  H17  1  0.000000  0.000000  0.500000  1
