# generated using pymatgen
data_Th10Ga2SnSb5
_symmetry_space_group_name_H-M   'P 1'
_cell_length_a   9.55502690
_cell_length_b   9.55502820
_cell_length_c   6.49613300
_cell_angle_alpha   90.00000000
_cell_angle_beta   90.00000000
_cell_angle_gamma   119.97405135
_symmetry_Int_Tables_number   1
_chemical_formula_structural   Th10Ga2SnSb5
_chemical_formula_sum   'Th10 Ga2 Sn1 Sb5'
_cell_volume   513.76311946
_cell_formula_units_Z   1
loop_
 _symmetry_equiv_pos_site_id
 _symmetry_equiv_pos_as_xyz
  1  'x, y, z'
loop_
 _atom_site_type_symbol
 _atom_site_label
 _atom_site_symmetry_multiplicity
 _atom_site_fract_x
 _atom_site_fract_y
 _atom_site_fract_z
 _atom_site_occupancy
  Th  Th0  1  0.999681  0.266379  0.250000  1
  Th  Th1  1  0.732380  0.000568  0.750000  1
  Th  Th2  1  0.733929  0.733929  0.250000  1
  Th  Th3  1  0.667264  0.333189  0.500582  1
  Th  Th4  1  0.000568  0.732380  0.750000  1
  Th  Th5  1  0.266125  0.266125  0.750000  1
  Th  Th6  1  0.333189  0.667264  0.999418  1
  Th  Th7  1  0.667264  0.333189  0.999418  1
  Th  Th8  1  0.333189  0.667264  0.500582  1
  Th  Th9  1  0.266379  0.999681  0.250000  1
  Ga  Ga10  1  0.999732  0.999732  0.999659  1
  Ga  Ga11  1  0.999732  0.999732  0.500341  1
  Sn  Sn12  1  0.615747  0.615747  0.750000  1
  Sb  Sb13  1  0.614382  0.999421  0.250000  1
  Sb  Sb14  1  0.384626  0.999972  0.750000  1
  Sb  Sb15  1  0.386421  0.386421  0.250000  1
  Sb  Sb16  1  0.999421  0.614382  0.250000  1
  Sb  Sb17  1  0.999972  0.384626  0.750000  1
