# generated using pymatgen
data_RbNaV2O6
_symmetry_space_group_name_H-M   'P 1'
_cell_length_a   7.58626495
_cell_length_b   7.58626488
_cell_length_c   5.97582321
_cell_angle_alpha   79.92803653
_cell_angle_beta   79.92803722
_cell_angle_gamma   88.27002966
_symmetry_Int_Tables_number   1
_chemical_formula_structural   RbNaV2O6
_chemical_formula_sum   'Rb2 Na2 V4 O12'
_cell_volume   333.39843859
_cell_formula_units_Z   2
loop_
 _symmetry_equiv_pos_site_id
 _symmetry_equiv_pos_as_xyz
  1  'x, y, z'
loop_
 _atom_site_type_symbol
 _atom_site_label
 _atom_site_symmetry_multiplicity
 _atom_site_fract_x
 _atom_site_fract_y
 _atom_site_fract_z
 _atom_site_occupancy
  Rb  Rb0  1  0.700662  0.299338  0.750000  1
  Rb  Rb1  1  0.299338  0.700662  0.250000  1
  Na  Na2  1  0.905030  0.094970  0.250000  1
  Na  Na3  1  0.094970  0.905030  0.750000  1
  V  V4  1  0.796297  0.633842  0.214743  1
  V  V5  1  0.633842  0.796297  0.714743  1
  V  V6  1  0.366158  0.203703  0.285257  1
  V  V7  1  0.203703  0.366158  0.785257  1
  O  O8  1  0.954219  0.794446  0.144145  1
  O  O9  1  0.884774  0.429476  0.268927  1
  O  O10  1  0.794446  0.954219  0.644145  1
  O  O11  1  0.666239  0.646354  0.981012  1
  O  O12  1  0.570524  0.115226  0.231073  1
  O  O13  1  0.646354  0.666239  0.481012  1
  O  O14  1  0.353646  0.333761  0.518988  1
  O  O15  1  0.429476  0.884774  0.768927  1
  O  O16  1  0.333761  0.353646  0.018988  1
  O  O17  1  0.205554  0.045781  0.355855  1
  O  O18  1  0.115226  0.570524  0.731073  1
  O  O19  1  0.045781  0.205554  0.855855  1
