# generated using pymatgen
data_LaPr3Nd4(HgIr)2
_symmetry_space_group_name_H-M   'P 1'
_cell_length_a   9.98112538
_cell_length_b   9.98112497
_cell_length_c   10.00052909
_cell_angle_alpha   60.01844755
_cell_angle_beta   60.01844673
_cell_angle_gamma   59.99690976
_symmetry_Int_Tables_number   1
_chemical_formula_structural   LaPr3Nd4(HgIr)2
_chemical_formula_sum   'La2 Pr6 Nd8 Hg4 Ir4'
_cell_volume   704.65716485
_cell_formula_units_Z   2
loop_
 _symmetry_equiv_pos_site_id
 _symmetry_equiv_pos_as_xyz
  1  'x, y, z'
loop_
 _atom_site_type_symbol
 _atom_site_label
 _atom_site_symmetry_multiplicity
 _atom_site_fract_x
 _atom_site_fract_y
 _atom_site_fract_z
 _atom_site_occupancy
  La  La0  1  0.347356  0.347356  0.348098  1
  La  La1  1  0.348117  0.348117  0.955300  1
  Pr  Pr2  1  0.939605  0.561238  0.561253  1
  Pr  Pr3  1  0.560141  0.939207  0.939282  1
  Pr  Pr4  1  0.561238  0.939605  0.561253  1
  Pr  Pr5  1  0.939207  0.560141  0.939282  1
  Pr  Pr6  1  0.561958  0.561958  0.938790  1
  Pr  Pr7  1  0.939511  0.939511  0.560185  1
  Nd  Nd8  1  0.349756  0.949683  0.350286  1
  Nd  Nd9  1  0.949683  0.349756  0.350286  1
  Nd  Nd10  1  0.810399  0.190109  0.189957  1
  Nd  Nd11  1  0.189642  0.809842  0.808575  1
  Nd  Nd12  1  0.190109  0.810399  0.189957  1
  Nd  Nd13  1  0.809842  0.189642  0.808575  1
  Nd  Nd14  1  0.190141  0.190141  0.809757  1
  Nd  Nd15  1  0.809292  0.809292  0.189439  1
  Hg  Hg16  1  0.584004  0.584004  0.582733  1
  Hg  Hg17  1  0.584370  0.584370  0.248577  1
  Hg  Hg18  1  0.584652  0.248640  0.583690  1
  Hg  Hg19  1  0.248640  0.584652  0.583690  1
  Ir  Ir20  1  0.141964  0.141964  0.141520  1
  Ir  Ir21  1  0.142746  0.142746  0.574769  1
  Ir  Ir22  1  0.142774  0.574851  0.142372  1
  Ir  Ir23  1  0.574851  0.142774  0.142372  1
