# generated using pymatgen
data_Na2(PuS2)3
_symmetry_space_group_name_H-M   'P 1'
_cell_length_a   6.98808361
_cell_length_b   6.98808341
_cell_length_c   7.03505989
_cell_angle_alpha   80.46547783
_cell_angle_beta   80.46547946
_cell_angle_gamma   120.04807672
_symmetry_Int_Tables_number   1
_chemical_formula_structural   Na2(PuS2)3
_chemical_formula_sum   'Na2 Pu3 S6'
_cell_volume   280.55713520
_cell_formula_units_Z   1
loop_
 _symmetry_equiv_pos_site_id
 _symmetry_equiv_pos_as_xyz
  1  'x, y, z'
loop_
 _atom_site_type_symbol
 _atom_site_label
 _atom_site_symmetry_multiplicity
 _atom_site_fract_x
 _atom_site_fract_y
 _atom_site_fract_z
 _atom_site_occupancy
  Na  Na0  1  0.166909  0.833091  0.500000  1
  Na  Na1  1  0.833091  0.166909  0.500000  1
  Pu  Pu2  1  0.000000  0.000000  0.000000  1
  Pu  Pu3  1  0.334613  0.665387  0.000000  1
  Pu  Pu4  1  0.665387  0.334613  0.000000  1
  S  S5  1  0.932556  0.594272  0.216981  1
  S  S6  1  0.255923  0.255923  0.218153  1
  S  S7  1  0.594272  0.932556  0.216981  1
  S  S8  1  0.744077  0.744077  0.781847  1
  S  S9  1  0.067444  0.405728  0.783019  1
  S  S10  1  0.405728  0.067444  0.783019  1
