# generated using pymatgen
data_Cr6Ga5AsRu12
_symmetry_space_group_name_H-M   'P 1'
_cell_length_a   4.25559600
_cell_length_b   6.02023900
_cell_length_c   12.70908300
_cell_angle_alpha   90.00000000
_cell_angle_beta   89.99852465
_cell_angle_gamma   90.00000000
_symmetry_Int_Tables_number   1
_chemical_formula_structural   Cr6Ga5AsRu12
_chemical_formula_sum   'Cr6 Ga5 As1 Ru12'
_cell_volume   325.60295732
_cell_formula_units_Z   1
loop_
 _symmetry_equiv_pos_site_id
 _symmetry_equiv_pos_as_xyz
  1  'x, y, z'
loop_
 _atom_site_type_symbol
 _atom_site_label
 _atom_site_symmetry_multiplicity
 _atom_site_fract_x
 _atom_site_fract_y
 _atom_site_fract_z
 _atom_site_occupancy
  Cr  Cr0  1  0.000000  0.000000  0.000000  1
  Cr  Cr1  1  0.499828  0.500000  0.172804  1
  Cr  Cr2  1  0.999786  0.000000  0.334586  1
  Cr  Cr3  1  0.500000  0.500000  0.500000  1
  Cr  Cr4  1  0.000213  0.000000  0.665414  1
  Cr  Cr5  1  0.500174  0.500000  0.827196  1
  Ga  Ga6  1  0.499812  0.000000  0.165799  1
  Ga  Ga7  1  0.999794  0.500000  0.332721  1
  Ga  Ga8  1  0.500000  0.000000  0.500000  1
  Ga  Ga9  1  0.000205  0.500000  0.667279  1
  Ga  Ga10  1  0.500187  0.000000  0.834201  1
  As  As11  1  0.000000  0.500000  0.000000  1
  Ru  Ru12  1  0.500000  0.254806  0.000000  1
  Ru  Ru13  1  0.500000  0.745195  0.000000  1
  Ru  Ru14  1  0.999809  0.252047  0.164327  1
  Ru  Ru15  1  0.999809  0.747954  0.164327  1
  Ru  Ru16  1  0.499801  0.248584  0.333362  1
  Ru  Ru17  1  0.499801  0.751415  0.333362  1
  Ru  Ru18  1  0.000000  0.250148  0.500000  1
  Ru  Ru19  1  0.000000  0.749851  0.500000  1
  Ru  Ru20  1  0.500198  0.248584  0.666638  1
  Ru  Ru21  1  0.500198  0.751415  0.666638  1
  Ru  Ru22  1  0.000193  0.252047  0.835673  1
  Ru  Ru23  1  0.000193  0.747954  0.835673  1
