# generated using pymatgen
data_Tb8Lu2Ir5Pt
_symmetry_space_group_name_H-M   'P 1'
_cell_length_a   10.94173602
_cell_length_b   10.94985400
_cell_length_c   6.34632401
_cell_angle_alpha   90.00000000
_cell_angle_beta   90.00718451
_cell_angle_gamma   90.00000000
_symmetry_Int_Tables_number   1
_chemical_formula_structural   Tb8Lu2Ir5Pt
_chemical_formula_sum   'Tb16 Lu4 Ir10 Pt2'
_cell_volume   760.35568827
_cell_formula_units_Z   2
loop_
 _symmetry_equiv_pos_site_id
 _symmetry_equiv_pos_as_xyz
  1  'x, y, z'
loop_
 _atom_site_type_symbol
 _atom_site_label
 _atom_site_symmetry_multiplicity
 _atom_site_fract_x
 _atom_site_fract_y
 _atom_site_fract_z
 _atom_site_occupancy
  Tb  Tb0  1  0.290089  0.087698  0.377529  1
  Tb  Tb1  1  0.290089  0.912302  0.877529  1
  Tb  Tb2  1  0.706992  0.088994  0.875365  1
  Tb  Tb3  1  0.706992  0.911006  0.375365  1
  Tb  Tb4  1  0.584561  0.789298  0.879880  1
  Tb  Tb5  1  0.584561  0.210702  0.379880  1
  Tb  Tb6  1  0.412049  0.789784  0.378419  1
  Tb  Tb7  1  0.412049  0.210216  0.878419  1
  Tb  Tb8  1  0.210192  0.412327  0.621156  1
  Tb  Tb9  1  0.210192  0.587673  0.121156  1
  Tb  Tb10  1  0.789172  0.415006  0.120937  1
  Tb  Tb11  1  0.789172  0.584994  0.620937  1
  Tb  Tb12  1  0.913508  0.708198  0.125250  1
  Tb  Tb13  1  0.913508  0.291802  0.625250  1
  Tb  Tb14  1  0.090249  0.708553  0.621593  1
  Tb  Tb15  1  0.090249  0.291447  0.121593  1
  Lu  Lu16  1  0.003114  0.000059  0.500130  1
  Lu  Lu17  1  0.003114  0.999941  0.000130  1
  Lu  Lu18  1  0.499750  0.500000  0.999958  1
  Lu  Lu19  1  0.499750  0.500000  0.499958  1
  Ir  Ir20  1  0.149876  0.150583  0.750091  1
  Ir  Ir21  1  0.149876  0.849417  0.250091  1
  Ir  Ir22  1  0.651460  0.348931  0.749795  1
  Ir  Ir23  1  0.651460  0.651069  0.249795  1
  Ir  Ir24  1  0.349371  0.349189  0.250030  1
  Ir  Ir25  1  0.349371  0.650811  0.750030  1
  Ir  Ir26  1  0.500685  0.999922  0.123345  1
  Ir  Ir27  1  0.500685  0.000078  0.623345  1
  Ir  Ir28  1  0.999684  0.500132  0.876717  1
  Ir  Ir29  1  0.999684  0.499868  0.376717  1
  Pt  Pt30  1  0.849247  0.150055  0.249806  1
  Pt  Pt31  1  0.849247  0.849945  0.749806  1
