# generated using pymatgen
data_Ho3Tm2Pb3S
_symmetry_space_group_name_H-M   'P 1'
_cell_length_a   9.04845500
_cell_length_b   9.04845534
_cell_length_c   6.65185500
_cell_angle_alpha   90.00000000
_cell_angle_beta   90.00000000
_cell_angle_gamma   120.00000241
_symmetry_Int_Tables_number   1
_chemical_formula_structural   Ho3Tm2Pb3S
_chemical_formula_sum   'Ho6 Tm4 Pb6 S2'
_cell_volume   471.65264362
_cell_formula_units_Z   2
loop_
 _symmetry_equiv_pos_site_id
 _symmetry_equiv_pos_as_xyz
  1  'x, y, z'
loop_
 _atom_site_type_symbol
 _atom_site_label
 _atom_site_symmetry_multiplicity
 _atom_site_fract_x
 _atom_site_fract_y
 _atom_site_fract_z
 _atom_site_occupancy
  Ho  Ho0  1  0.756281  0.756281  0.750000  1
  Ho  Ho1  1  0.243719  0.000000  0.750000  1
  Ho  Ho2  1  0.000000  0.243719  0.750000  1
  Ho  Ho3  1  0.243719  0.243719  0.250000  1
  Ho  Ho4  1  0.756281  0.000000  0.250000  1
  Ho  Ho5  1  0.000000  0.756281  0.250000  1
  Tm  Tm6  1  0.666667  0.333333  0.000000  1
  Tm  Tm7  1  0.333333  0.666667  0.000000  1
  Tm  Tm8  1  0.333333  0.666667  0.500000  1
  Tm  Tm9  1  0.666667  0.333333  0.500000  1
  Pb  Pb10  1  0.397508  0.397508  0.750000  1
  Pb  Pb11  1  0.602492  0.000000  0.750000  1
  Pb  Pb12  1  0.000000  0.602492  0.750000  1
  Pb  Pb13  1  0.602492  0.602492  0.250000  1
  Pb  Pb14  1  0.397508  0.000000  0.250000  1
  Pb  Pb15  1  0.000000  0.397508  0.250000  1
  S  S16  1  0.000000  0.000000  0.000000  1
  S  S17  1  0.000000  0.000000  0.500000  1
