# generated using pymatgen
data_Ce2Er3Os2
_symmetry_space_group_name_H-M   'P 1'
_cell_length_a   6.38359912
_cell_length_b   7.15409651
_cell_length_c   8.68573637
_cell_angle_alpha   96.10532380
_cell_angle_beta   111.56004417
_cell_angle_gamma   90.00000675
_symmetry_Int_Tables_number   1
_chemical_formula_structural   Ce2Er3Os2
_chemical_formula_sum   'Ce4 Er6 Os4'
_cell_volume   366.49400240
_cell_formula_units_Z   2
loop_
 _symmetry_equiv_pos_site_id
 _symmetry_equiv_pos_as_xyz
  1  'x, y, z'
loop_
 _atom_site_type_symbol
 _atom_site_label
 _atom_site_symmetry_multiplicity
 _atom_site_fract_x
 _atom_site_fract_y
 _atom_site_fract_z
 _atom_site_occupancy
  Ce  Ce0  1  0.793773  0.592777  0.811651  1
  Ce  Ce1  1  0.982122  0.907223  0.188349  1
  Ce  Ce2  1  0.206227  0.407223  0.188349  1
  Ce  Ce3  1  0.017878  0.092777  0.811651  1
  Er  Er4  1  0.207543  0.681811  0.566330  1
  Er  Er5  1  0.641213  0.818189  0.433670  1
  Er  Er6  1  0.792457  0.318189  0.433670  1
  Er  Er7  1  0.358787  0.181811  0.566330  1
  Er  Er8  1  0.423297  0.750000  0.000000  1
  Er  Er9  1  0.576703  0.250000  0.000000  1
  Os  Os10  1  0.618437  0.913884  0.778779  1
  Os  Os11  1  0.839656  0.586116  0.221221  1
  Os  Os12  1  0.381563  0.086116  0.221221  1
  Os  Os13  1  0.160344  0.413884  0.778779  1
