# generated using pymatgen
data_Sc3Nb3Co2(BRu2)4
_symmetry_space_group_name_H-M   'P 1'
_cell_length_a   9.30737310
_cell_length_b   9.30737310
_cell_length_c   3.09043600
_cell_angle_alpha   90.00000000
_cell_angle_beta   90.00000000
_cell_angle_gamma   90.14151315
_symmetry_Int_Tables_number   1
_chemical_formula_structural   Sc3Nb3Co2(BRu2)4
_chemical_formula_sum   'Sc3 Nb3 Co2 B4 Ru8'
_cell_volume   267.71498226
_cell_formula_units_Z   1
loop_
 _symmetry_equiv_pos_site_id
 _symmetry_equiv_pos_as_xyz
  1  'x, y, z'
loop_
 _atom_site_type_symbol
 _atom_site_label
 _atom_site_symmetry_multiplicity
 _atom_site_fract_x
 _atom_site_fract_y
 _atom_site_fract_z
 _atom_site_occupancy
  Sc  Sc0  1  0.823263  0.676064  0.000000  1
  Sc  Sc1  1  0.176064  0.323263  0.000000  1
  Sc  Sc2  1  0.322958  0.822958  0.000000  1
  Nb  Nb3  1  0.674719  0.174719  0.000000  1
  Nb  Nb4  1  0.498192  0.504322  0.000000  1
  Nb  Nb5  1  0.004322  0.998192  0.000000  1
  Co  Co6  1  0.504326  0.004326  0.500000  1
  Co  Co7  1  0.997570  0.497570  0.500000  1
  B  B8  1  0.613212  0.888247  0.000000  1
  B  B9  1  0.388247  0.113212  0.000000  1
  B  B10  1  0.112370  0.612370  0.000000  1
  B  B11  1  0.886950  0.386950  0.000000  1
  Ru  Ru12  1  0.566518  0.726759  0.500000  1
  Ru  Ru13  1  0.443588  0.274108  0.500000  1
  Ru  Ru14  1  0.062987  0.774038  0.500000  1
  Ru  Ru15  1  0.928246  0.221562  0.500000  1
  Ru  Ru16  1  0.274038  0.562987  0.500000  1
  Ru  Ru17  1  0.721562  0.428246  0.500000  1
  Ru  Ru18  1  0.226759  0.066518  0.500000  1
  Ru  Ru19  1  0.774108  0.943588  0.500000  1
