# generated using pymatgen
data_Ca2LaTaO6
_symmetry_space_group_name_H-M   'P 1'
_cell_length_a   5.95584806
_cell_length_b   5.69614472
_cell_length_c   10.02350294
_cell_angle_alpha   55.48211727
_cell_angle_beta   89.60268285
_cell_angle_gamma   89.74149588
_symmetry_Int_Tables_number   1
_chemical_formula_structural   Ca2LaTaO6
_chemical_formula_sum   'Ca4 La2 Ta2 O12'
_cell_volume   280.17805776
_cell_formula_units_Z   2
loop_
 _symmetry_equiv_pos_site_id
 _symmetry_equiv_pos_as_xyz
  1  'x, y, z'
loop_
 _atom_site_type_symbol
 _atom_site_label
 _atom_site_symmetry_multiplicity
 _atom_site_fract_x
 _atom_site_fract_y
 _atom_site_fract_z
 _atom_site_occupancy
  Ca  Ca0  1  0.550468  0.272821  0.741739  1
  Ca  Ca1  1  0.449532  0.727179  0.258261  1
  Ca  Ca2  1  0.500000  0.500000  0.000000  1
  Ca  Ca3  1  0.000000  0.500000  0.500000  1
  La  La4  1  0.057251  0.730964  0.753720  1
  La  La5  1  0.942749  0.269036  0.246280  1
  Ta  Ta6  1  0.500000  0.000000  0.500000  1
  Ta  Ta7  1  0.000000  0.000000  0.000000  1
  O  O8  1  0.449556  0.892885  0.727925  1
  O  O9  1  0.550444  0.107115  0.272075  1
  O  O10  1  0.939940  0.116618  0.771818  1
  O  O11  1  0.060060  0.883382  0.228182  1
  O  O12  1  0.783806  0.762577  0.565861  1
  O  O13  1  0.216194  0.237423  0.434139  1
  O  O14  1  0.275949  0.250997  0.923513  1
  O  O15  1  0.724051  0.749003  0.076487  1
  O  O16  1  0.317656  0.660578  0.558661  1
  O  O17  1  0.682344  0.339422  0.441339  1
  O  O18  1  0.825825  0.339449  0.954613  1
  O  O19  1  0.174175  0.660551  0.045387  1
