# generated using pymatgen
data_Yb2Al3Cd4
_symmetry_space_group_name_H-M   'P 1'
_cell_length_a   5.54712949
_cell_length_b   5.54713025
_cell_length_c   14.89177500
_cell_angle_alpha   90.00000000
_cell_angle_beta   90.00000000
_cell_angle_gamma   119.70639570
_symmetry_Int_Tables_number   1
_chemical_formula_structural   Yb2Al3Cd4
_chemical_formula_sum   'Yb4 Al6 Cd8'
_cell_volume   398.00732063
_cell_formula_units_Z   2
loop_
 _symmetry_equiv_pos_site_id
 _symmetry_equiv_pos_as_xyz
  1  'x, y, z'
loop_
 _atom_site_type_symbol
 _atom_site_label
 _atom_site_symmetry_multiplicity
 _atom_site_fract_x
 _atom_site_fract_y
 _atom_site_fract_z
 _atom_site_occupancy
  Yb  Yb0  1  0.825480  0.825480  0.130207  1
  Yb  Yb1  1  0.174520  0.174520  0.869793  1
  Yb  Yb2  1  0.825480  0.825480  0.369793  1
  Yb  Yb3  1  0.174520  0.174520  0.630207  1
  Al  Al4  1  0.174316  0.673983  0.750000  1
  Al  Al5  1  0.673983  0.174316  0.750000  1
  Al  Al6  1  0.677020  0.677020  0.750000  1
  Al  Al7  1  0.326017  0.825684  0.250000  1
  Al  Al8  1  0.825684  0.326017  0.250000  1
  Al  Al9  1  0.322980  0.322980  0.250000  1
  Cd  Cd10  1  0.158861  0.486581  0.079268  1
  Cd  Cd11  1  0.513419  0.841139  0.920732  1
  Cd  Cd12  1  0.486581  0.158861  0.079268  1
  Cd  Cd13  1  0.841139  0.513419  0.579268  1
  Cd  Cd14  1  0.486581  0.158861  0.420732  1
  Cd  Cd15  1  0.841139  0.513419  0.920732  1
  Cd  Cd16  1  0.513419  0.841139  0.579268  1
  Cd  Cd17  1  0.158861  0.486581  0.420732  1
