# generated using pymatgen
data_Lu6GaTe2
_symmetry_space_group_name_H-M   'P 1'
_cell_length_a   4.18281100
_cell_length_b   11.17363000
_cell_length_c   20.56102400
_cell_angle_alpha   90.00000000
_cell_angle_beta   90.00000000
_cell_angle_gamma   90.00000000
_symmetry_Int_Tables_number   1
_chemical_formula_structural   Lu6GaTe2
_chemical_formula_sum   'Lu24 Ga4 Te8'
_cell_volume   960.96433054
_cell_formula_units_Z   4
loop_
 _symmetry_equiv_pos_site_id
 _symmetry_equiv_pos_as_xyz
  1  'x, y, z'
loop_
 _atom_site_type_symbol
 _atom_site_label
 _atom_site_symmetry_multiplicity
 _atom_site_fract_x
 _atom_site_fract_y
 _atom_site_fract_z
 _atom_site_occupancy
  Lu  Lu0  1  0.750000  0.569603  0.859347  1
  Lu  Lu1  1  0.250000  0.171610  0.392301  1
  Lu  Lu2  1  0.250000  0.891211  0.493223  1
  Lu  Lu3  1  0.750000  0.828390  0.607699  1
  Lu  Lu4  1  0.750000  0.875772  0.977509  1
  Lu  Lu5  1  0.750000  0.624228  0.477509  1
  Lu  Lu6  1  0.750000  0.391211  0.006777  1
  Lu  Lu7  1  0.250000  0.430397  0.140653  1
  Lu  Lu8  1  0.250000  0.069603  0.640653  1
  Lu  Lu9  1  0.250000  0.747265  0.228082  1
  Lu  Lu10  1  0.250000  0.040978  0.845599  1
  Lu  Lu11  1  0.250000  0.752735  0.728082  1
  Lu  Lu12  1  0.750000  0.252735  0.771918  1
  Lu  Lu13  1  0.750000  0.671610  0.107699  1
  Lu  Lu14  1  0.250000  0.124228  0.022491  1
  Lu  Lu15  1  0.750000  0.247265  0.271918  1
  Lu  Lu16  1  0.750000  0.540978  0.654401  1
  Lu  Lu17  1  0.250000  0.459022  0.345599  1
  Lu  Lu18  1  0.750000  0.959022  0.154401  1
  Lu  Lu19  1  0.750000  0.108789  0.506777  1
  Lu  Lu20  1  0.250000  0.328390  0.892301  1
  Lu  Lu21  1  0.750000  0.930397  0.359347  1
  Lu  Lu22  1  0.250000  0.608789  0.993223  1
  Lu  Lu23  1  0.250000  0.375772  0.522491  1
  Ga  Ga24  1  0.750000  0.144108  0.923753  1
  Ga  Ga25  1  0.250000  0.855892  0.076247  1
  Ga  Ga26  1  0.250000  0.644108  0.576247  1
  Ga  Ga27  1  0.750000  0.355892  0.423753  1
  Te  Te28  1  0.750000  0.968611  0.739485  1
  Te  Te29  1  0.750000  0.276492  0.625068  1
  Te  Te30  1  0.250000  0.776492  0.874932  1
  Te  Te31  1  0.250000  0.031389  0.260515  1
  Te  Te32  1  0.250000  0.723508  0.374932  1
  Te  Te33  1  0.250000  0.468611  0.760515  1
  Te  Te34  1  0.750000  0.223508  0.125068  1
  Te  Te35  1  0.750000  0.531389  0.239485  1
