# generated using pymatgen
data_Er9TmZn3Bi2Pt
_symmetry_space_group_name_H-M   'P 1'
_cell_length_a   8.62145404
_cell_length_b   8.62145371
_cell_length_c   8.58042622
_cell_angle_alpha   124.21730856
_cell_angle_beta   124.20468558
_cell_angle_gamma   83.15793170
_symmetry_Int_Tables_number   1
_chemical_formula_structural   Er9TmZn3Bi2Pt
_chemical_formula_sum   'Er9 Tm1 Zn3 Bi2 Pt1'
_cell_volume   417.68146572
_cell_formula_units_Z   1
loop_
 _symmetry_equiv_pos_site_id
 _symmetry_equiv_pos_as_xyz
  1  'x, y, z'
loop_
 _atom_site_type_symbol
 _atom_site_label
 _atom_site_symmetry_multiplicity
 _atom_site_fract_x
 _atom_site_fract_y
 _atom_site_fract_z
 _atom_site_occupancy
  Er  Er0  1  0.495781  0.502462  0.998243  1
  Er  Er1  1  0.794261  0.293991  0.808451  1
  Er  Er2  1  0.294310  0.492737  0.506448  1
  Er  Er3  1  0.993060  0.794602  0.507019  1
  Er  Er4  1  0.712418  0.513959  0.507019  1
  Er  Er5  1  0.013711  0.212139  0.506448  1
  Er  Er6  1  0.514460  0.014190  0.808451  1
  Er  Er7  1  0.199710  0.700024  0.177204  1
  Er  Er8  1  0.477180  0.977494  0.177204  1
  Tm  Tm9  1  0.002426  0.995646  0.998072  1
  Zn  Zn10  1  0.862381  0.362178  0.224558  1
  Zn  Zn11  1  0.363467  0.139093  0.502560  1
  Zn  Zn12  1  0.639364  0.863727  0.503091  1
  Bi  Bi13  1  0.252592  0.252613  0.005516  1
  Bi  Bi14  1  0.752903  0.752924  0.005516  1
  Pt  Pt15  1  0.131974  0.632223  0.764197  1
