# generated using pymatgen
data_Ce4ReTc5B12
_symmetry_space_group_name_H-M   'P 1'
_cell_length_a   6.26742882
_cell_length_b   6.27665391
_cell_length_c   7.53587853
_cell_angle_alpha   89.39985687
_cell_angle_beta   89.37044831
_cell_angle_gamma   114.47692841
_symmetry_Int_Tables_number   1
_chemical_formula_structural   Ce4ReTc5B12
_chemical_formula_sum   'Ce4 Re1 Tc5 B12'
_cell_volume   269.75445113
_cell_formula_units_Z   1
loop_
 _symmetry_equiv_pos_site_id
 _symmetry_equiv_pos_as_xyz
  1  'x, y, z'
loop_
 _atom_site_type_symbol
 _atom_site_label
 _atom_site_symmetry_multiplicity
 _atom_site_fract_x
 _atom_site_fract_y
 _atom_site_fract_z
 _atom_site_occupancy
  Ce  Ce0  1  0.902742  0.554036  0.330381  1
  Ce  Ce1  1  0.444343  0.097080  0.168666  1
  Ce  Ce2  1  0.096955  0.448122  0.669295  1
  Ce  Ce3  1  0.557357  0.903429  0.831388  1
  Re  Re4  1  0.194198  0.010837  0.588993  1
  Tc  Tc5  1  0.410161  0.589676  0.249970  1
  Tc  Tc6  1  0.590022  0.410553  0.749621  1
  Tc  Tc7  1  0.010654  0.194849  0.088370  1
  Tc  Tc8  1  0.805494  0.988799  0.411630  1
  Tc  Tc9  1  0.989315  0.804334  0.912178  1
  B  B10  1  0.755154  0.844601  0.134590  1
  B  B11  1  0.155577  0.244450  0.367017  1
  B  B12  1  0.243270  0.155198  0.864298  1
  B  B13  1  0.844325  0.752822  0.633347  1
  B  B14  1  0.417184  0.842592  0.484101  1
  B  B15  1  0.158450  0.582019  0.016822  1
  B  B16  1  0.583123  0.158626  0.516079  1
  B  B17  1  0.841675  0.417289  0.983686  1
  B  B18  1  0.555446  0.650631  0.534800  1
  B  B19  1  0.349854  0.444332  0.964907  1
  B  B20  1  0.444743  0.350562  0.464858  1
  B  B21  1  0.649960  0.555165  0.035002  1
