# generated using pymatgen
data_La2Lu4FeCl10
_symmetry_space_group_name_H-M   'P 1'
_cell_length_a   7.11045358
_cell_length_b   8.93751166
_cell_length_c   8.77437900
_cell_angle_alpha   107.04862422
_cell_angle_beta   94.93009380
_cell_angle_gamma   106.83740857
_symmetry_Int_Tables_number   1
_chemical_formula_structural   La2Lu4FeCl10
_chemical_formula_sum   'La2 Lu4 Fe1 Cl10'
_cell_volume   501.27850742
_cell_formula_units_Z   1
loop_
 _symmetry_equiv_pos_site_id
 _symmetry_equiv_pos_as_xyz
  1  'x, y, z'
loop_
 _atom_site_type_symbol
 _atom_site_label
 _atom_site_symmetry_multiplicity
 _atom_site_fract_x
 _atom_site_fract_y
 _atom_site_fract_z
 _atom_site_occupancy
  La  La0  1  0.374715  0.949932  0.734506  1
  La  La1  1  0.625285  0.050068  0.265494  1
  Lu  Lu2  1  0.474468  0.303575  0.596756  1
  Lu  Lu3  1  0.525532  0.696425  0.403244  1
  Lu  Lu4  1  0.865543  0.141591  0.677677  1
  Lu  Lu5  1  0.134457  0.858409  0.322323  1
  Fe  Fe6  1  0.500000  0.000000  0.500000  1
  Cl  Cl7  1  0.423540  0.617839  0.660526  1
  Cl  Cl8  1  0.576460  0.382161  0.339474  1
  Cl  Cl9  1  0.275736  0.263939  0.831081  1
  Cl  Cl10  1  0.724264  0.736061  0.168919  1
  Cl  Cl11  1  0.842665  0.441702  0.762698  1
  Cl  Cl12  1  0.157335  0.558298  0.237302  1
  Cl  Cl13  1  0.054690  0.172795  0.424758  1
  Cl  Cl14  1  0.228555  0.911038  0.056425  1
  Cl  Cl15  1  0.771445  0.088962  0.943575  1
  Cl  Cl16  1  0.945310  0.827205  0.575242  1
