# generated using pymatgen
data_SmYAg2(Pt2O7)2
_symmetry_space_group_name_H-M   'P 1'
_cell_length_a   7.27079252
_cell_length_b   7.42092064
_cell_length_c   7.27079230
_cell_angle_alpha   59.20406669
_cell_angle_beta   59.32386137
_cell_angle_gamma   59.20407054
_symmetry_Int_Tables_number   1
_chemical_formula_structural   SmYAg2(Pt2O7)2
_chemical_formula_sum   'Sm1 Y1 Ag2 Pt4 O14'
_cell_volume   272.62226294
_cell_formula_units_Z   1
loop_
 _symmetry_equiv_pos_site_id
 _symmetry_equiv_pos_as_xyz
  1  'x, y, z'
loop_
 _atom_site_type_symbol
 _atom_site_label
 _atom_site_symmetry_multiplicity
 _atom_site_fract_x
 _atom_site_fract_y
 _atom_site_fract_z
 _atom_site_occupancy
  Sm  Sm0  1  0.125000  0.625000  0.125000  1
  Y  Y1  1  0.125000  0.125000  0.125000  1
  Ag  Ag2  1  0.125000  0.125000  0.625000  1
  Ag  Ag3  1  0.625000  0.125000  0.125000  1
  Pt  Pt4  1  0.625000  0.625000  0.625000  1
  Pt  Pt5  1  0.125000  0.625000  0.625000  1
  Pt  Pt6  1  0.625000  0.625000  0.125000  1
  Pt  Pt7  1  0.625000  0.125000  0.625000  1
  O  O8  1  0.290817  0.696561  0.716712  1
  O  O9  1  0.528928  0.955573  0.959898  1
  O  O10  1  0.716712  0.696561  0.290817  1
  O  O11  1  0.290102  0.294427  0.721072  1
  O  O12  1  0.985917  0.018768  0.985917  1
  O  O13  1  0.282486  0.720180  0.282486  1
  O  O14  1  0.704005  0.295636  0.704005  1
  O  O15  1  0.967514  0.529820  0.967514  1
  O  O16  1  0.533288  0.553439  0.959183  1
  O  O17  1  0.959898  0.955573  0.528928  1
  O  O18  1  0.264083  0.231232  0.264083  1
  O  O19  1  0.545995  0.954364  0.545995  1
  O  O20  1  0.721072  0.294427  0.290102  1
  O  O21  1  0.959183  0.553439  0.533288  1
