# generated using pymatgen
data_La4Nd4Ga3Tc
_symmetry_space_group_name_H-M   'P 1'
_cell_length_a   10.54590300
_cell_length_b   10.54592931
_cell_length_c   7.14707100
_cell_angle_alpha   90.00000000
_cell_angle_beta   90.00000000
_cell_angle_gamma   119.99870356
_symmetry_Int_Tables_number   1
_chemical_formula_structural   La4Nd4Ga3Tc
_chemical_formula_sum   'La8 Nd8 Ga6 Tc2'
_cell_volume   688.38758604
_cell_formula_units_Z   2
loop_
 _symmetry_equiv_pos_site_id
 _symmetry_equiv_pos_as_xyz
  1  'x, y, z'
loop_
 _atom_site_type_symbol
 _atom_site_label
 _atom_site_symmetry_multiplicity
 _atom_site_fract_x
 _atom_site_fract_y
 _atom_site_fract_z
 _atom_site_occupancy
  La  La0  1  0.463356  0.536570  0.295485  1
  La  La1  1  0.926839  0.463499  0.795793  1
  La  La2  1  0.536552  0.072906  0.795409  1
  La  La3  1  0.463448  0.927094  0.295409  1
  La  La4  1  0.073161  0.536501  0.295793  1
  La  La5  1  0.536644  0.463430  0.795485  1
  La  La6  1  0.999961  0.999952  0.272457  1
  La  La7  1  0.000039  0.000048  0.772457  1
  Nd  Nd8  1  0.168921  0.831198  0.989071  1
  Nd  Nd9  1  0.337662  0.168802  0.489097  1
  Nd  Nd10  1  0.831156  0.662306  0.489009  1
  Nd  Nd11  1  0.168844  0.337694  0.989009  1
  Nd  Nd12  1  0.662338  0.831198  0.989097  1
  Nd  Nd13  1  0.831079  0.168802  0.489071  1
  Nd  Nd14  1  0.333373  0.666718  0.666343  1
  Nd  Nd15  1  0.666627  0.333282  0.166343  1
  Ga  Ga16  1  0.165137  0.834872  0.539531  1
  Ga  Ga17  1  0.330268  0.165122  0.039538  1
  Ga  Ga18  1  0.834861  0.669726  0.039561  1
  Ga  Ga19  1  0.165139  0.330274  0.539561  1
  Ga  Ga20  1  0.669732  0.834878  0.539538  1
  Ga  Ga21  1  0.834863  0.165128  0.039531  1
  Tc  Tc22  1  0.333335  0.666625  0.051707  1
  Tc  Tc23  1  0.666665  0.333375  0.551707  1
