# generated using pymatgen
data_BaVF7
_symmetry_space_group_name_H-M   'P 1'
_cell_length_a   4.87951558
_cell_length_b   7.66272460
_cell_length_c   7.95624326
_cell_angle_alpha   106.59157991
_cell_angle_beta   101.11118448
_cell_angle_gamma   90.96078827
_symmetry_Int_Tables_number   1
_chemical_formula_structural   BaVF7
_chemical_formula_sum   'Ba2 V2 F14'
_cell_volume   278.94025579
_cell_formula_units_Z   2
loop_
 _symmetry_equiv_pos_site_id
 _symmetry_equiv_pos_as_xyz
  1  'x, y, z'
loop_
 _atom_site_type_symbol
 _atom_site_label
 _atom_site_symmetry_multiplicity
 _atom_site_fract_x
 _atom_site_fract_y
 _atom_site_fract_z
 _atom_site_occupancy
  Ba  Ba0  1  0.172701  0.341453  0.785294  1
  Ba  Ba1  1  0.827299  0.658547  0.214706  1
  V  V2  1  0.647408  0.813907  0.709291  1
  V  V3  1  0.352592  0.186093  0.290709  1
  F  F4  1  0.142284  0.179249  0.075442  1
  F  F5  1  0.436169  0.791172  0.486216  1
  F  F6  1  0.563831  0.208828  0.513784  1
  F  F7  1  0.493394  0.022623  0.803205  1
  F  F8  1  0.506606  0.977377  0.196795  1
  F  F9  1  0.375665  0.678495  0.751035  1
  F  F10  1  0.857716  0.820751  0.924558  1
  F  F11  1  0.283882  0.580359  0.097452  1
  F  F12  1  0.082884  0.050668  0.339162  1
  F  F13  1  0.191969  0.391892  0.396456  1
  F  F14  1  0.716118  0.419641  0.902548  1
  F  F15  1  0.808031  0.608108  0.603544  1
  F  F16  1  0.624335  0.321505  0.248965  1
  F  F17  1  0.917116  0.949332  0.660838  1
