# generated using pymatgen
data_Pr16Nd4Si15Te
_symmetry_space_group_name_H-M   'P 1'
_cell_length_a   7.97593561
_cell_length_b   7.96305106
_cell_length_c   15.33682000
_cell_angle_alpha   90.02795337
_cell_angle_beta   89.68490500
_cell_angle_gamma   89.93521078
_symmetry_Int_Tables_number   1
_chemical_formula_structural   Pr16Nd4Si15Te
_chemical_formula_sum   'Pr16 Nd4 Si15 Te1'
_cell_volume   974.06864199
_cell_formula_units_Z   1
loop_
 _symmetry_equiv_pos_site_id
 _symmetry_equiv_pos_as_xyz
  1  'x, y, z'
loop_
 _atom_site_type_symbol
 _atom_site_label
 _atom_site_symmetry_multiplicity
 _atom_site_fract_x
 _atom_site_fract_y
 _atom_site_fract_z
 _atom_site_occupancy
  Pr  Pr0  1  0.379096  0.010059  0.445585  1
  Pr  Pr1  1  0.494162  0.874199  0.697637  1
  Pr  Pr2  1  0.511206  0.121165  0.197343  1
  Pr  Pr3  1  0.878274  0.488222  0.299870  1
  Pr  Pr4  1  0.120132  0.515111  0.806967  1
  Pr  Pr5  1  0.625525  0.985862  0.950079  1
  Pr  Pr6  1  0.997997  0.384313  0.545147  1
  Pr  Pr7  1  0.990191  0.620483  0.054203  1
  Pr  Pr8  1  0.132676  0.985101  0.877863  1
  Pr  Pr9  1  0.518954  0.627855  0.126891  1
  Pr  Pr10  1  0.488510  0.378701  0.627607  1
  Pr  Pr11  1  0.629865  0.521554  0.876398  1
  Pr  Pr12  1  0.371471  0.479777  0.372984  1
  Pr  Pr13  1  0.873497  0.019929  0.376161  1
  Pr  Pr14  1  0.982423  0.127878  0.124376  1
  Pr  Pr15  1  0.008475  0.855848  0.620899  1
  Nd  Nd16  1  0.310216  0.310664  0.000714  1
  Nd  Nd17  1  0.190830  0.810032  0.249659  1
  Nd  Nd18  1  0.797313  0.189131  0.752821  1
  Nd  Nd19  1  0.685535  0.690475  0.495222  1
  Si  Si20  1  0.329585  0.695037  0.953399  1
  Si  Si21  1  0.665240  0.304209  0.451795  1
  Si  Si22  1  0.698846  0.333082  0.050120  1
  Si  Si23  1  0.305111  0.670615  0.546691  1
  Si  Si24  1  0.805402  0.831924  0.202424  1
  Si  Si25  1  0.168982  0.195472  0.297081  1
  Si  Si26  1  0.836658  0.804483  0.797994  1
  Si  Si27  1  0.287653  0.922079  0.060374  1
  Si  Si28  1  0.578044  0.789564  0.308962  1
  Si  Si29  1  0.445805  0.210703  0.823092  1
  Si  Si30  1  0.789469  0.575700  0.690580  1
  Si  Si31  1  0.212143  0.422986  0.190164  1
  Si  Si32  1  0.704945  0.076306  0.560141  1
  Si  Si33  1  0.925547  0.289641  0.940750  1
  Si  Si34  1  0.077873  0.712236  0.438176  1
  Te  Te35  1  0.182342  0.169605  0.689832  1
