# generated using pymatgen
data_Rb8Tm6CoBr20
_symmetry_space_group_name_H-M   'P 1'
_cell_length_a   12.25660003
_cell_length_b   12.25660063
_cell_length_c   12.25660000
_cell_angle_alpha   60.00000171
_cell_angle_beta   60.00000008
_cell_angle_gamma   60.00000480
_symmetry_Int_Tables_number   1
_chemical_formula_structural   Rb8Tm6CoBr20
_chemical_formula_sum   'Rb8 Tm6 Co1 Br20'
_cell_volume   1301.95233872
_cell_formula_units_Z   1
loop_
 _symmetry_equiv_pos_site_id
 _symmetry_equiv_pos_as_xyz
  1  'x, y, z'
loop_
 _atom_site_type_symbol
 _atom_site_label
 _atom_site_symmetry_multiplicity
 _atom_site_fract_x
 _atom_site_fract_y
 _atom_site_fract_z
 _atom_site_occupancy
  Rb  Rb0  1  0.359149  0.359149  0.359149  1
  Rb  Rb1  1  0.640851  0.640851  0.640851  1
  Rb  Rb2  1  0.359149  0.359149  0.922555  1
  Rb  Rb3  1  0.359149  0.922555  0.359149  1
  Rb  Rb4  1  0.640851  0.640851  0.077445  1
  Rb  Rb5  1  0.640851  0.077445  0.640851  1
  Rb  Rb6  1  0.922555  0.359149  0.359149  1
  Rb  Rb7  1  0.077445  0.640851  0.640851  1
  Tm  Tm8  1  0.847843  0.152157  0.152157  1
  Tm  Tm9  1  0.152157  0.847843  0.847843  1
  Tm  Tm10  1  0.152157  0.847843  0.152157  1
  Tm  Tm11  1  0.847843  0.152157  0.847843  1
  Tm  Tm12  1  0.152157  0.152157  0.847843  1
  Tm  Tm13  1  0.847843  0.847843  0.152157  1
  Co  Co14  1  0.000000  0.000000  0.000000  1
  Br  Br15  1  0.328026  0.000000  0.000000  1
  Br  Br16  1  0.671974  0.000000  0.000000  1
  Br  Br17  1  0.000000  0.328026  0.671974  1
  Br  Br18  1  0.000000  0.671974  0.328026  1
  Br  Br19  1  0.000000  0.328026  0.000000  1
  Br  Br20  1  0.671974  0.000000  0.328026  1
  Br  Br21  1  0.000000  0.671974  0.000000  1
  Br  Br22  1  0.328026  0.000000  0.671974  1
  Br  Br23  1  0.000000  0.000000  0.328026  1
  Br  Br24  1  0.000000  0.000000  0.671974  1
  Br  Br25  1  0.671974  0.328026  0.000000  1
  Br  Br26  1  0.328026  0.671974  0.000000  1
  Br  Br27  1  0.681492  0.318508  0.318508  1
  Br  Br28  1  0.318508  0.681492  0.681492  1
  Br  Br29  1  0.318508  0.681492  0.318508  1
  Br  Br30  1  0.681492  0.318508  0.681492  1
  Br  Br31  1  0.318508  0.318508  0.681492  1
  Br  Br32  1  0.681492  0.681492  0.318508  1
  Br  Br33  1  0.250000  0.250000  0.250000  1
  Br  Br34  1  0.750000  0.750000  0.750000  1
