# generated using pymatgen
data_PrNd2Mg3Ge2Au
_symmetry_space_group_name_H-M   'P 1'
_cell_length_a   7.48986858
_cell_length_b   7.48986942
_cell_length_c   4.44797600
_cell_angle_alpha   90.00000000
_cell_angle_beta   90.00000000
_cell_angle_gamma   120.02675528
_symmetry_Int_Tables_number   1
_chemical_formula_structural   PrNd2Mg3Ge2Au
_chemical_formula_sum   'Pr1 Nd2 Mg3 Ge2 Au1'
_cell_volume   216.03512097
_cell_formula_units_Z   1
loop_
 _symmetry_equiv_pos_site_id
 _symmetry_equiv_pos_as_xyz
  1  'x, y, z'
loop_
 _atom_site_type_symbol
 _atom_site_label
 _atom_site_symmetry_multiplicity
 _atom_site_fract_x
 _atom_site_fract_y
 _atom_site_fract_z
 _atom_site_occupancy
  Pr  Pr0  1  0.416349  0.416349  0.000000  1
  Nd  Nd1  1  0.583831  0.000031  0.000000  1
  Nd  Nd2  1  0.000031  0.583831  0.000000  1
  Mg  Mg3  1  0.242022  0.999696  0.500000  1
  Mg  Mg4  1  0.999696  0.242022  0.500000  1
  Mg  Mg5  1  0.758192  0.758192  0.500000  1
  Ge  Ge6  1  0.333155  0.667035  0.500000  1
  Ge  Ge7  1  0.667035  0.333155  0.500000  1
  Au  Au8  1  0.999689  0.999689  0.000000  1
