# generated using pymatgen
data_Yb3Ce(Os2O7)2
_symmetry_space_group_name_H-M   'P 1'
_cell_length_a   7.25102505
_cell_length_b   7.25102474
_cell_length_c   7.25102612
_cell_angle_alpha   60.18561434
_cell_angle_beta   60.18561646
_cell_angle_gamma   60.18561319
_symmetry_Int_Tables_number   1
_chemical_formula_structural   Yb3Ce(Os2O7)2
_chemical_formula_sum   'Yb3 Ce1 Os4 O14'
_cell_volume   270.71040599
_cell_formula_units_Z   1
loop_
 _symmetry_equiv_pos_site_id
 _symmetry_equiv_pos_as_xyz
  1  'x, y, z'
loop_
 _atom_site_type_symbol
 _atom_site_label
 _atom_site_symmetry_multiplicity
 _atom_site_fract_x
 _atom_site_fract_y
 _atom_site_fract_z
 _atom_site_occupancy
  Yb  Yb0  1  0.625000  0.125000  0.125000  1
  Yb  Yb1  1  0.125000  0.625000  0.125000  1
  Yb  Yb2  1  0.125000  0.125000  0.625000  1
  Ce  Ce3  1  0.125000  0.125000  0.125000  1
  Os  Os4  1  0.625000  0.625000  0.625000  1
  Os  Os5  1  0.125000  0.625000  0.625000  1
  Os  Os6  1  0.625000  0.125000  0.625000  1
  Os  Os7  1  0.625000  0.625000  0.125000  1
  O  O8  1  0.243902  0.243902  0.243902  1
  O  O9  1  0.006098  0.006098  0.006098  1
  O  O10  1  0.549396  0.950627  0.549396  1
  O  O11  1  0.297587  0.702586  0.297587  1
  O  O12  1  0.549396  0.549396  0.950627  1
  O  O13  1  0.950627  0.549396  0.549396  1
  O  O14  1  0.547414  0.952413  0.952413  1
  O  O15  1  0.952413  0.952413  0.547414  1
  O  O16  1  0.952413  0.547414  0.952413  1
  O  O17  1  0.702586  0.297587  0.297587  1
  O  O18  1  0.299373  0.700604  0.700604  1
  O  O19  1  0.700604  0.299373  0.700604  1
  O  O20  1  0.297587  0.297587  0.702586  1
  O  O21  1  0.700604  0.700604  0.299373  1
