# generated using pymatgen
data_Li4PrTh3Si8
_symmetry_space_group_name_H-M   'P 1'
_cell_length_a   3.86743600
_cell_length_b   7.79429936
_cell_length_c   10.47654108
_cell_angle_alpha   89.74078686
_cell_angle_beta   90.00000000
_cell_angle_gamma   90.00000000
_symmetry_Int_Tables_number   1
_chemical_formula_structural   Li4PrTh3Si8
_chemical_formula_sum   'Li4 Pr1 Th3 Si8'
_cell_volume   315.80114006
_cell_formula_units_Z   1
loop_
 _symmetry_equiv_pos_site_id
 _symmetry_equiv_pos_as_xyz
  1  'x, y, z'
loop_
 _atom_site_type_symbol
 _atom_site_label
 _atom_site_symmetry_multiplicity
 _atom_site_fract_x
 _atom_site_fract_y
 _atom_site_fract_z
 _atom_site_occupancy
  Li  Li0  1  0.250000  0.996020  0.394744  1
  Li  Li1  1  0.750000  0.010819  0.605361  1
  Li  Li2  1  0.250000  0.488497  0.108380  1
  Li  Li3  1  0.750000  0.508023  0.896488  1
  Pr  Pr4  1  0.750000  0.365069  0.362793  1
  Th  Th5  1  0.250000  0.134429  0.862233  1
  Th  Th6  1  0.750000  0.860757  0.135210  1
  Th  Th7  1  0.250000  0.637052  0.637442  1
  Si  Si8  1  0.750000  0.262768  0.066626  1
  Si  Si9  1  0.250000  0.729915  0.930098  1
  Si  Si10  1  0.750000  0.771188  0.431232  1
  Si  Si11  1  0.250000  0.235926  0.571652  1
  Si  Si12  1  0.750000  0.836655  0.817071  1
  Si  Si13  1  0.250000  0.158224  0.178059  1
  Si  Si14  1  0.750000  0.337065  0.685163  1
  Si  Si15  1  0.250000  0.667591  0.317449  1
