# generated using pymatgen
data_Th4TcSn2Au3
_symmetry_space_group_name_H-M   'P 1'
_cell_length_a   8.03725573
_cell_length_b   8.03725573
_cell_length_c   3.93647200
_cell_angle_alpha   90.00000000
_cell_angle_beta   90.00000000
_cell_angle_gamma   89.90560076
_symmetry_Int_Tables_number   1
_chemical_formula_structural   Th4TcSn2Au3
_chemical_formula_sum   'Th4 Tc1 Sn2 Au3'
_cell_volume   254.28582468
_cell_formula_units_Z   1
loop_
 _symmetry_equiv_pos_site_id
 _symmetry_equiv_pos_as_xyz
  1  'x, y, z'
loop_
 _atom_site_type_symbol
 _atom_site_label
 _atom_site_symmetry_multiplicity
 _atom_site_fract_x
 _atom_site_fract_y
 _atom_site_fract_z
 _atom_site_occupancy
  Th  Th0  1  0.673185  0.173185  0.500000  1
  Th  Th1  1  0.309393  0.809393  0.500000  1
  Th  Th2  1  0.176981  0.347350  0.500000  1
  Th  Th3  1  0.847350  0.676981  0.500000  1
  Tc  Tc4  1  0.132034  0.632034  0.000000  1
  Sn  Sn5  1  0.491534  0.503392  0.000000  1
  Sn  Sn6  1  0.003392  0.991534  0.000000  1
  Au  Au7  1  0.871962  0.371962  0.000000  1
  Au  Au8  1  0.623527  0.870641  0.000000  1
  Au  Au9  1  0.370641  0.123527  0.000000  1
