# generated using pymatgen
data_Na4S3N4
_symmetry_space_group_name_H-M   'P 1'
_cell_length_a   4.48851640
_cell_length_b   8.88106301
_cell_length_c   8.82798860
_cell_angle_alpha   75.17958043
_cell_angle_beta   104.19039127
_cell_angle_gamma   118.13976250
_symmetry_Int_Tables_number   1
_chemical_formula_structural   Na4S3N4
_chemical_formula_sum   'Na4 S3 N4'
_cell_volume   296.77227299
_cell_formula_units_Z   1
loop_
 _symmetry_equiv_pos_site_id
 _symmetry_equiv_pos_as_xyz
  1  'x, y, z'
loop_
 _atom_site_type_symbol
 _atom_site_label
 _atom_site_symmetry_multiplicity
 _atom_site_fract_x
 _atom_site_fract_y
 _atom_site_fract_z
 _atom_site_occupancy
  Na  Na0  1  0.351201  0.332306  0.753978  1
  Na  Na1  1  0.856273  0.007921  0.487686  1
  Na  Na2  1  0.902337  0.552910  0.493411  1
  Na  Na3  1  0.255229  0.798346  0.762886  1
  S  S4  1  0.574344  0.672980  0.621053  1
  S  S5  1  0.693692  0.133231  0.804582  1
  S  S6  1  0.563340  0.189681  0.553035  1
  N  N7  1  0.688419  0.344144  0.145553  1
  N  N8  1  0.050339  0.802595  0.059764  1
  N  N9  1  0.996950  0.815510  0.171516  1
  N  N10  1  0.751279  0.234164  0.207541  1
