# generated using pymatgen
data_Ba2Ac2CuAuSe6
_symmetry_space_group_name_H-M   'P 1'
_cell_length_a   7.47169458
_cell_length_b   7.47169524
_cell_length_c   11.50572100
_cell_angle_alpha   90.00000000
_cell_angle_beta   90.00000000
_cell_angle_gamma   145.57730036
_symmetry_Int_Tables_number   1
_chemical_formula_structural   Ba2Ac2CuAuSe6
_chemical_formula_sum   'Ba2 Ac2 Cu1 Au1 Se6'
_cell_volume   363.10009618
_cell_formula_units_Z   1
loop_
 _symmetry_equiv_pos_site_id
 _symmetry_equiv_pos_as_xyz
  1  'x, y, z'
loop_
 _atom_site_type_symbol
 _atom_site_label
 _atom_site_symmetry_multiplicity
 _atom_site_fract_x
 _atom_site_fract_y
 _atom_site_fract_z
 _atom_site_occupancy
  Ba  Ba0  1  0.248213  0.751787  0.250000  1
  Ba  Ba1  1  0.746775  0.253225  0.750000  1
  Ac  Ac2  1  0.999134  0.000866  0.499464  1
  Ac  Ac3  1  0.999134  0.000866  0.000536  1
  Cu  Cu4  1  0.468167  0.531833  0.750000  1
  Au  Au5  1  0.534586  0.465414  0.250000  1
  Se  Se6  1  0.646211  0.353789  0.434590  1
  Se  Se7  1  0.361392  0.638608  0.579519  1
  Se  Se8  1  0.646211  0.353789  0.065410  1
  Se  Se9  1  0.361392  0.638608  0.920481  1
  Se  Se10  1  0.917523  0.082477  0.250000  1
  Se  Se11  1  0.071263  0.928737  0.750000  1
