# generated using pymatgen
data_Li(Co2Sn3)2
_symmetry_space_group_name_H-M   'P 1'
_cell_length_a   6.63830428
_cell_length_b   6.63830398
_cell_length_c   6.63830451
_cell_angle_alpha   119.83044032
_cell_angle_beta   119.83042966
_cell_angle_gamma   90.29395039
_symmetry_Int_Tables_number   1
_chemical_formula_structural   Li(Co2Sn3)2
_chemical_formula_sum   'Li1 Co4 Sn6'
_cell_volume   207.37763715
_cell_formula_units_Z   1
loop_
 _symmetry_equiv_pos_site_id
 _symmetry_equiv_pos_as_xyz
  1  'x, y, z'
loop_
 _atom_site_type_symbol
 _atom_site_label
 _atom_site_symmetry_multiplicity
 _atom_site_fract_x
 _atom_site_fract_y
 _atom_site_fract_z
 _atom_site_occupancy
  Li  Li0  1  0.000000  0.000000  0.000000  1
  Co  Co1  1  0.590375  0.259568  0.000000  1
  Co  Co2  1  0.259568  0.590375  0.000000  1
  Co  Co3  1  0.740432  0.740432  0.330807  1
  Co  Co4  1  0.409625  0.409625  0.669193  1
  Sn  Sn5  1  0.886917  0.546489  0.000000  1
  Sn  Sn6  1  0.546489  0.886917  0.000000  1
  Sn  Sn7  1  0.453510  0.453510  0.340428  1
  Sn  Sn8  1  0.500000  0.000000  0.500000  1
  Sn  Sn9  1  0.000000  0.500000  0.500000  1
  Sn  Sn10  1  0.113083  0.113083  0.659572  1
