# generated using pymatgen
data_Er5Tm3Os2(WC4)2
_symmetry_space_group_name_H-M   'P 1'
_cell_length_a   5.04114600
_cell_length_b   6.54981703
_cell_length_c   9.80278351
_cell_angle_alpha   89.25806806
_cell_angle_beta   90.00000000
_cell_angle_gamma   90.00000000
_symmetry_Int_Tables_number   1
_chemical_formula_structural   Er5Tm3Os2(WC4)2
_chemical_formula_sum   'Er5 Tm3 Os2 W2 C8'
_cell_volume   323.64689355
_cell_formula_units_Z   1
loop_
 _symmetry_equiv_pos_site_id
 _symmetry_equiv_pos_as_xyz
  1  'x, y, z'
loop_
 _atom_site_type_symbol
 _atom_site_label
 _atom_site_symmetry_multiplicity
 _atom_site_fract_x
 _atom_site_fract_y
 _atom_site_fract_z
 _atom_site_occupancy
  Er  Er0  1  0.250000  0.174542  0.941528  1
  Er  Er1  1  0.250000  0.540315  0.218444  1
  Er  Er2  1  0.750000  0.459865  0.781590  1
  Er  Er3  1  0.750000  0.967033  0.716416  1
  Er  Er4  1  0.250000  0.032745  0.283772  1
  Tm  Tm5  1  0.250000  0.675607  0.558339  1
  Tm  Tm6  1  0.750000  0.324585  0.441555  1
  Tm  Tm7  1  0.750000  0.825980  0.058929  1
  Os  Os8  1  0.750000  0.781885  0.368519  1
  Os  Os9  1  0.250000  0.218089  0.631295  1
  W  W10  1  0.250000  0.713613  0.869711  1
  W  W11  1  0.750000  0.286251  0.130397  1
  C  C12  1  0.250000  0.447481  0.757923  1
  C  C13  1  0.750000  0.552979  0.241615  1
  C  C14  1  0.750000  0.049933  0.260157  1
  C  C15  1  0.250000  0.949765  0.739613  1
  C  C16  1  0.250000  0.827221  0.055834  1
  C  C17  1  0.750000  0.172053  0.944503  1
  C  C18  1  0.750000  0.673377  0.551191  1
  C  C19  1  0.250000  0.326684  0.448668  1
