# generated using pymatgen
data_Sc2Mn3P7Rh7W2
_symmetry_space_group_name_H-M   'P 1'
_cell_length_a   9.39631562
_cell_length_b   9.36523282
_cell_length_c   3.81371400
_cell_angle_alpha   90.00000000
_cell_angle_beta   90.00000000
_cell_angle_gamma   120.18846505
_symmetry_Int_Tables_number   1
_chemical_formula_structural   Sc2Mn3P7Rh7W2
_chemical_formula_sum   'Sc2 Mn3 P7 Rh7 W2'
_cell_volume   290.08616919
_cell_formula_units_Z   1
loop_
 _symmetry_equiv_pos_site_id
 _symmetry_equiv_pos_as_xyz
  1  'x, y, z'
loop_
 _atom_site_type_symbol
 _atom_site_label
 _atom_site_symmetry_multiplicity
 _atom_site_fract_x
 _atom_site_fract_y
 _atom_site_fract_z
 _atom_site_occupancy
  Sc  Sc0  1  0.997863  0.998888  0.000000  1
  Sc  Sc1  1  0.668156  0.330771  0.500000  1
  Mn  Mn2  1  0.604945  0.778968  0.000000  1
  Mn  Mn3  1  0.177437  0.398610  0.000000  1
  Mn  Mn4  1  0.221468  0.829709  0.000000  1
  P  P5  1  0.633398  0.555212  0.000000  1
  P  P6  1  0.925033  0.368751  0.000000  1
  P  P7  1  0.447644  0.077212  0.000000  1
  P  P8  1  0.733646  0.943205  0.500000  1
  P  P9  1  0.208082  0.264802  0.500000  1
  P  P10  1  0.053555  0.789108  0.500000  1
  P  P11  1  0.334518  0.671125  0.000000  1
  Rh  Rh12  1  0.399919  0.302521  0.000000  1
  Rh  Rh13  1  0.900339  0.597132  0.000000  1
  Rh  Rh14  1  0.699436  0.101813  0.000000  1
  Rh  Rh15  1  0.777099  0.721872  0.500000  1
  Rh  Rh16  1  0.946731  0.219746  0.500000  1
  Rh  Rh17  1  0.272498  0.056876  0.500000  1
  Rh  Rh18  1  0.425087  0.541099  0.500000  1
  W  W19  1  0.122345  0.570341  0.500000  1
  W  W20  1  0.450801  0.882237  0.500000  1
