# generated using pymatgen
data_Li2DyTmSi3
_symmetry_space_group_name_H-M   'P 1'
_cell_length_a   9.21598659
_cell_length_b   9.21598642
_cell_length_c   6.68265500
_cell_angle_alpha   90.00000000
_cell_angle_beta   90.00000000
_cell_angle_gamma   153.54578523
_symmetry_Int_Tables_number   1
_chemical_formula_structural   Li2DyTmSi3
_chemical_formula_sum   'Li4 Dy2 Tm2 Si6'
_cell_volume   252.85024248
_cell_formula_units_Z   2
loop_
 _symmetry_equiv_pos_site_id
 _symmetry_equiv_pos_as_xyz
  1  'x, y, z'
loop_
 _atom_site_type_symbol
 _atom_site_label
 _atom_site_symmetry_multiplicity
 _atom_site_fract_x
 _atom_site_fract_y
 _atom_site_fract_z
 _atom_site_occupancy
  Li  Li0  1  0.190815  0.809185  0.059894  1
  Li  Li1  1  0.190815  0.809185  0.440106  1
  Li  Li2  1  0.809185  0.190815  0.940106  1
  Li  Li3  1  0.809185  0.190815  0.559894  1
  Dy  Dy4  1  0.553362  0.446638  0.250000  1
  Dy  Dy5  1  0.446638  0.553362  0.750000  1
  Tm  Tm6  1  0.345413  0.654587  0.250000  1
  Tm  Tm7  1  0.654587  0.345413  0.750000  1
  Si  Si8  1  0.721989  0.278011  0.250000  1
  Si  Si9  1  0.278011  0.721989  0.750000  1
  Si  Si10  1  0.059821  0.940179  0.927390  1
  Si  Si11  1  0.940179  0.059821  0.072610  1
  Si  Si12  1  0.940179  0.059821  0.427390  1
  Si  Si13  1  0.059821  0.940179  0.572610  1
