# generated using pymatgen
data_Ba3ZrSnSe6
_symmetry_space_group_name_H-M   'P 1'
_cell_length_a   8.85134552
_cell_length_b   8.85134503
_cell_length_c   8.85134493
_cell_angle_alpha   91.05974155
_cell_angle_beta   91.05974826
_cell_angle_gamma   91.05973939
_symmetry_Int_Tables_number   1
_chemical_formula_structural   Ba3ZrSnSe6
_chemical_formula_sum   'Ba6 Zr2 Sn2 Se12'
_cell_volume   693.10994581
_cell_formula_units_Z   2
loop_
 _symmetry_equiv_pos_site_id
 _symmetry_equiv_pos_as_xyz
  1  'x, y, z'
loop_
 _atom_site_type_symbol
 _atom_site_label
 _atom_site_symmetry_multiplicity
 _atom_site_fract_x
 _atom_site_fract_y
 _atom_site_fract_z
 _atom_site_occupancy
  Ba  Ba0  1  0.875049  0.624951  0.250000  1
  Ba  Ba1  1  0.250000  0.875049  0.624951  1
  Ba  Ba2  1  0.624951  0.250000  0.875049  1
  Ba  Ba3  1  0.750000  0.124951  0.375049  1
  Ba  Ba4  1  0.375049  0.750000  0.124951  1
  Ba  Ba5  1  0.124951  0.375049  0.750000  1
  Zr  Zr6  1  0.500000  0.500000  0.500000  1
  Zr  Zr7  1  0.000000  0.000000  0.000000  1
  Sn  Sn8  1  0.250000  0.250000  0.250000  1
  Sn  Sn9  1  0.750000  0.750000  0.750000  1
  Se  Se10  1  0.206506  0.550381  0.418611  1
  Se  Se11  1  0.418611  0.206506  0.550381  1
  Se  Se12  1  0.550381  0.418611  0.206506  1
  Se  Se13  1  0.918611  0.050381  0.706506  1
  Se  Se14  1  0.706506  0.918611  0.050381  1
  Se  Se15  1  0.050381  0.706506  0.918611  1
  Se  Se16  1  0.793494  0.449619  0.581389  1
  Se  Se17  1  0.581389  0.793494  0.449619  1
  Se  Se18  1  0.449619  0.581389  0.793494  1
  Se  Se19  1  0.081389  0.949619  0.293494  1
  Se  Se20  1  0.293494  0.081389  0.949619  1
  Se  Se21  1  0.949619  0.293494  0.081389  1
