# generated using pymatgen
data_Dy4Cu3Sb8
_symmetry_space_group_name_H-M   'P 1'
_cell_length_a   10.60443453
_cell_length_b   10.60443471
_cell_length_c   10.60443427
_cell_angle_alpha   146.53187802
_cell_angle_beta   146.53187985
_cell_angle_gamma   48.05741803
_symmetry_Int_Tables_number   1
_chemical_formula_structural   Dy4Cu3Sb8
_chemical_formula_sum   'Dy4 Cu3 Sb8'
_cell_volume   361.18455368
_cell_formula_units_Z   1
loop_
 _symmetry_equiv_pos_site_id
 _symmetry_equiv_pos_as_xyz
  1  'x, y, z'
loop_
 _atom_site_type_symbol
 _atom_site_label
 _atom_site_symmetry_multiplicity
 _atom_site_fract_x
 _atom_site_fract_y
 _atom_site_fract_z
 _atom_site_occupancy
  Dy  Dy0  1  0.633163  0.633163  0.506857  1
  Dy  Dy1  1  0.126306  0.126306  0.493143  1
  Dy  Dy2  1  0.366837  0.873694  0.000000  1
  Dy  Dy3  1  0.873694  0.366837  0.000000  1
  Cu  Cu4  1  0.000000  0.000000  0.000000  1
  Cu  Cu5  1  0.000000  0.500000  0.500000  1
  Cu  Cu6  1  0.500000  0.000000  0.500000  1
  Sb  Sb7  1  0.333957  0.333957  0.515689  1
  Sb  Sb8  1  0.818268  0.818268  0.484311  1
  Sb  Sb9  1  0.666043  0.181732  0.000000  1
  Sb  Sb10  1  0.181732  0.666043  0.000000  1
  Sb  Sb11  1  0.249830  0.249830  0.000000  1
  Sb  Sb12  1  0.750170  0.750170  0.000000  1
  Sb  Sb13  1  0.750000  0.250000  0.500000  1
  Sb  Sb14  1  0.250000  0.750000  0.500000  1
