# generated using pymatgen
data_MgZr3(B4Ru5)2
_symmetry_space_group_name_H-M   'P 1'
_cell_length_a   2.99828000
_cell_length_b   8.76001579
_cell_length_c   10.00160922
_cell_angle_alpha   91.07037966
_cell_angle_beta   90.00000000
_cell_angle_gamma   90.00000000
_symmetry_Int_Tables_number   1
_chemical_formula_structural   MgZr3(B4Ru5)2
_chemical_formula_sum   'Mg1 Zr3 B8 Ru10'
_cell_volume   262.64622879
_cell_formula_units_Z   1
loop_
 _symmetry_equiv_pos_site_id
 _symmetry_equiv_pos_as_xyz
  1  'x, y, z'
loop_
 _atom_site_type_symbol
 _atom_site_label
 _atom_site_symmetry_multiplicity
 _atom_site_fract_x
 _atom_site_fract_y
 _atom_site_fract_z
 _atom_site_occupancy
  Mg  Mg0  1  0.500000  0.842149  0.311000  1
  Zr  Zr1  1  0.500000  0.664933  0.822121  1
  Zr  Zr2  1  0.500000  0.339457  0.185240  1
  Zr  Zr3  1  0.500000  0.160891  0.675974  1
  B  B4  1  0.500000  0.852159  0.597908  1
  B  B5  1  0.500000  0.137511  0.395733  1
  B  B6  1  0.500000  0.357272  0.900271  1
  B  B7  1  0.500000  0.649766  0.109173  1
  B  B8  1  0.500000  0.969526  0.912974  1
  B  B9  1  0.500000  0.032992  0.083014  1
  B  B10  1  0.500000  0.464076  0.586297  1
  B  B11  1  0.500000  0.534488  0.416861  1
  Ru  Ru12  1  0.000000  0.410592  0.737828  1
  Ru  Ru13  1  0.000000  0.594541  0.270051  1
  Ru  Ru14  1  0.000000  0.912112  0.762797  1
  Ru  Ru15  1  0.000000  0.089402  0.232102  1
  Ru  Ru16  1  0.000000  0.992756  0.495706  1
  Ru  Ru17  1  0.000000  0.502093  0.004009  1
  Ru  Ru18  1  0.000000  0.663579  0.557063  1
  Ru  Ru19  1  0.000000  0.326315  0.449735  1
  Ru  Ru20  1  0.000000  0.174570  0.947529  1
  Ru  Ru21  1  0.000000  0.828821  0.046613  1
