# generated using pymatgen
data_Tm3Lu17(ZnBi5)2
_symmetry_space_group_name_H-M   'P 1'
_cell_length_a   8.04630729
_cell_length_b   9.31751300
_cell_length_c   11.76626248
_cell_angle_alpha   90.00000000
_cell_angle_beta   89.99898330
_cell_angle_gamma   90.00000000
_symmetry_Int_Tables_number   1
_chemical_formula_structural   Tm3Lu17(ZnBi5)2
_chemical_formula_sum   'Tm3 Lu17 Zn2 Bi10'
_cell_volume   882.13520285
_cell_formula_units_Z   1
loop_
 _symmetry_equiv_pos_site_id
 _symmetry_equiv_pos_as_xyz
  1  'x, y, z'
loop_
 _atom_site_type_symbol
 _atom_site_label
 _atom_site_symmetry_multiplicity
 _atom_site_fract_x
 _atom_site_fract_y
 _atom_site_fract_z
 _atom_site_occupancy
  Tm  Tm0  1  0.810463  0.750000  0.217049  1
  Tm  Tm1  1  0.310548  0.750000  0.283057  1
  Tm  Tm2  1  0.677189  0.250000  0.711288  1
  Lu  Lu3  1  0.036798  0.250000  0.509294  1
  Lu  Lu4  1  0.982015  0.750000  0.491229  1
  Lu  Lu5  1  0.481798  0.750000  0.008746  1
  Lu  Lu6  1  0.536393  0.250000  0.990648  1
  Lu  Lu7  1  0.354049  0.250000  0.295319  1
  Lu  Lu8  1  0.652891  0.750000  0.718721  1
  Lu  Lu9  1  0.152309  0.750000  0.781493  1
  Lu  Lu10  1  0.853831  0.250000  0.204427  1
  Lu  Lu11  1  0.177590  0.250000  0.788782  1
  Lu  Lu12  1  0.184077  0.073172  0.056125  1
  Lu  Lu13  1  0.809147  0.952327  0.941528  1
  Lu  Lu14  1  0.309511  0.952720  0.558629  1
  Lu  Lu15  1  0.809147  0.547673  0.941528  1
  Lu  Lu16  1  0.684402  0.073022  0.443612  1
  Lu  Lu17  1  0.184077  0.426828  0.056125  1
  Lu  Lu18  1  0.684402  0.426978  0.443612  1
  Lu  Lu19  1  0.309511  0.547280  0.558629  1
  Zn  Zn20  1  0.408033  0.250000  0.540195  1
  Zn  Zn21  1  0.908799  0.250000  0.959370  1
  Bi  Bi22  1  0.596671  0.750000  0.458731  1
  Bi  Bi23  1  0.096630  0.750000  0.041391  1
  Bi  Bi24  1  0.059765  0.002927  0.323989  1
  Bi  Bi25  1  0.938078  0.998686  0.677779  1
  Bi  Bi26  1  0.437209  0.998570  0.822527  1
  Bi  Bi27  1  0.938078  0.501314  0.677779  1
  Bi  Bi28  1  0.559806  0.002921  0.175941  1
  Bi  Bi29  1  0.059765  0.497073  0.323989  1
  Bi  Bi30  1  0.559806  0.497079  0.175941  1
  Bi  Bi31  1  0.437209  0.501430  0.822527  1
