# generated using pymatgen
data_La4Pr6IrRu3
_symmetry_space_group_name_H-M   'P 1'
_cell_length_a   9.12959330
_cell_length_b   9.15855113
_cell_length_c   7.38790754
_cell_angle_alpha   84.55179523
_cell_angle_beta   84.64052453
_cell_angle_gamma   42.94504531
_symmetry_Int_Tables_number   1
_chemical_formula_structural   La4Pr6IrRu3
_chemical_formula_sum   'La4 Pr6 Ir1 Ru3'
_cell_volume   418.69673309
_cell_formula_units_Z   1
loop_
 _symmetry_equiv_pos_site_id
 _symmetry_equiv_pos_as_xyz
  1  'x, y, z'
loop_
 _atom_site_type_symbol
 _atom_site_label
 _atom_site_symmetry_multiplicity
 _atom_site_fract_x
 _atom_site_fract_y
 _atom_site_fract_z
 _atom_site_occupancy
  La  La0  1  0.009740  0.804154  0.912500  1
  La  La1  1  0.201233  0.986818  0.596180  1
  La  La2  1  0.986226  0.202053  0.095298  1
  La  La3  1  0.796029  0.017421  0.404705  1
  Pr  Pr4  1  0.360178  0.210215  0.819053  1
  Pr  Pr5  1  0.787710  0.641136  0.681330  1
  Pr  Pr6  1  0.640547  0.788762  0.181726  1
  Pr  Pr7  1  0.210083  0.358281  0.317541  1
  Pr  Pr8  1  0.571161  0.428789  0.750062  1
  Pr  Pr9  1  0.428683  0.572843  0.249510  1
  Ir  Ir10  1  0.173525  0.602637  0.579680  1
  Ru  Ru11  1  0.383635  0.837656  0.912661  1
  Ru  Ru12  1  0.837123  0.385324  0.414813  1
  Ru  Ru13  1  0.614126  0.163910  0.084941  1
