# generated using pymatgen
data_Y16Ni3Ag4Ir
_symmetry_space_group_name_H-M   'P 1'
_cell_length_a   9.52010796
_cell_length_b   9.52010789
_cell_length_c   9.52010833
_cell_angle_alpha   59.68339728
_cell_angle_beta   59.68339436
_cell_angle_gamma   59.68339516
_symmetry_Int_Tables_number   1
_chemical_formula_structural   Y16Ni3Ag4Ir
_chemical_formula_sum   'Y16 Ni3 Ag4 Ir1'
_cell_volume   605.72533922
_cell_formula_units_Z   1
loop_
 _symmetry_equiv_pos_site_id
 _symmetry_equiv_pos_as_xyz
  1  'x, y, z'
loop_
 _atom_site_type_symbol
 _atom_site_label
 _atom_site_symmetry_multiplicity
 _atom_site_fract_x
 _atom_site_fract_y
 _atom_site_fract_z
 _atom_site_occupancy
  Y  Y0  1  0.598731  0.598731  0.598731  1
  Y  Y1  1  0.605339  0.605339  0.195148  1
  Y  Y2  1  0.605339  0.195148  0.605339  1
  Y  Y3  1  0.195148  0.605339  0.605339  1
  Y  Y4  1  0.058820  0.438466  0.438466  1
  Y  Y5  1  0.437517  0.060769  0.060769  1
  Y  Y6  1  0.438466  0.058820  0.438466  1
  Y  Y7  1  0.060769  0.437517  0.060769  1
  Y  Y8  1  0.438466  0.438466  0.058820  1
  Y  Y9  1  0.060769  0.060769  0.437517  1
  Y  Y10  1  0.185042  0.815439  0.815439  1
  Y  Y11  1  0.811492  0.187166  0.187166  1
  Y  Y12  1  0.815439  0.185042  0.815439  1
  Y  Y13  1  0.187166  0.811492  0.187166  1
  Y  Y14  1  0.815439  0.815439  0.185042  1
  Y  Y15  1  0.187166  0.187166  0.811492  1
  Ni  Ni16  1  0.391989  0.391989  0.822273  1
  Ni  Ni17  1  0.391989  0.822273  0.391989  1
  Ni  Ni18  1  0.822273  0.391989  0.391989  1
  Ag  Ag19  1  0.831961  0.831961  0.831961  1
  Ag  Ag20  1  0.830458  0.830458  0.505730  1
  Ag  Ag21  1  0.830458  0.505730  0.830458  1
  Ag  Ag22  1  0.505730  0.830458  0.830458  1
  Ir  Ir23  1  0.394035  0.394035  0.394035  1
