# generated using pymatgen
data_Ac3Yb(GaPd)4
_symmetry_space_group_name_H-M   'P 1'
_cell_length_a   4.61017800
_cell_length_b   7.36192012
_cell_length_c   8.06458672
_cell_angle_alpha   88.36167318
_cell_angle_beta   90.00000000
_cell_angle_gamma   90.00000000
_symmetry_Int_Tables_number   1
_chemical_formula_structural   Ac3Yb(GaPd)4
_chemical_formula_sum   'Ac3 Yb1 Ga4 Pd4'
_cell_volume   273.59826631
_cell_formula_units_Z   1
loop_
 _symmetry_equiv_pos_site_id
 _symmetry_equiv_pos_as_xyz
  1  'x, y, z'
loop_
 _atom_site_type_symbol
 _atom_site_label
 _atom_site_symmetry_multiplicity
 _atom_site_fract_x
 _atom_site_fract_y
 _atom_site_fract_z
 _atom_site_occupancy
  Ac  Ac0  1  0.250000  0.971510  0.308952  1
  Ac  Ac1  1  0.250000  0.477004  0.182128  1
  Ac  Ac2  1  0.750000  0.027022  0.694614  1
  Yb  Yb3  1  0.750000  0.523501  0.801739  1
  Ga  Ga4  1  0.250000  0.350813  0.578295  1
  Ga  Ga5  1  0.250000  0.831410  0.925662  1
  Ga  Ga6  1  0.750000  0.654047  0.439858  1
  Ga  Ga7  1  0.750000  0.167946  0.067165  1
  Pd  Pd8  1  0.250000  0.217451  0.894245  1
  Pd  Pd9  1  0.250000  0.708065  0.616376  1
  Pd  Pd10  1  0.750000  0.783129  0.098570  1
  Pd  Pd11  1  0.750000  0.288104  0.392396  1
