# generated using pymatgen
data_Tb4Tm2Al24Os7Ru
_symmetry_space_group_name_H-M   'P 1'
_cell_length_a   8.80030800
_cell_length_b   8.82231568
_cell_length_c   9.58735302
_cell_angle_alpha   90.00576482
_cell_angle_beta   90.00000000
_cell_angle_gamma   119.91751530
_symmetry_Int_Tables_number   1
_chemical_formula_structural   Tb4Tm2Al24Os7Ru
_chemical_formula_sum   'Tb4 Tm2 Al24 Os7 Ru1'
_cell_volume   645.16409006
_cell_formula_units_Z   1
loop_
 _symmetry_equiv_pos_site_id
 _symmetry_equiv_pos_as_xyz
  1  'x, y, z'
loop_
 _atom_site_type_symbol
 _atom_site_label
 _atom_site_symmetry_multiplicity
 _atom_site_fract_x
 _atom_site_fract_y
 _atom_site_fract_z
 _atom_site_occupancy
  Tb  Tb0  1  0.614603  0.807823  0.250044  1
  Tb  Tb1  1  0.385397  0.192177  0.749956  1
  Tb  Tb2  1  0.193221  0.807823  0.250044  1
  Tb  Tb3  1  0.806779  0.192177  0.749956  1
  Tm  Tm4  1  0.195959  0.391917  0.249919  1
  Tm  Tm5  1  0.804041  0.608083  0.750081  1
  Al  Al6  1  0.333468  0.666936  0.017747  1
  Al  Al7  1  0.666532  0.333064  0.982253  1
  Al  Al8  1  0.666557  0.333114  0.518680  1
  Al  Al9  1  0.333443  0.666886  0.481320  1
  Al  Al10  1  0.163745  0.327489  0.574319  1
  Al  Al11  1  0.836255  0.672511  0.425681  1
  Al  Al12  1  0.672863  0.835625  0.574057  1
  Al  Al13  1  0.836348  0.672697  0.075124  1
  Al  Al14  1  0.327137  0.164375  0.425943  1
  Al  Al15  1  0.163652  0.327303  0.924876  1
  Al  Al16  1  0.162763  0.835625  0.574057  1
  Al  Al17  1  0.326995  0.164420  0.074661  1
  Al  Al18  1  0.837237  0.164375  0.425943  1
  Al  Al19  1  0.673005  0.835580  0.925339  1
  Al  Al20  1  0.837424  0.164420  0.074661  1
  Al  Al21  1  0.162576  0.835580  0.925339  1
  Al  Al22  1  0.562178  0.124358  0.250086  1
  Al  Al23  1  0.437822  0.875642  0.749914  1
  Al  Al24  1  0.877297  0.438775  0.250088  1
  Al  Al25  1  0.122703  0.561225  0.749912  1
  Al  Al26  1  0.561477  0.438775  0.250088  1
  Al  Al27  1  0.438523  0.561225  0.749912  1
  Al  Al28  1  0.002454  0.004908  0.248347  1
  Al  Al29  1  0.997546  0.995092  0.751653  1
  Os  Os30  1  0.500000  0.000000  0.000000  1
  Os  Os31  1  0.000000  0.500000  0.000000  1
  Os  Os32  1  0.500000  0.000000  0.500000  1
  Os  Os33  1  0.500000  0.500000  0.000000  1
  Os  Os34  1  0.000000  0.500000  0.500000  1
  Os  Os35  1  0.500000  0.500000  0.500000  1
  Os  Os36  1  0.000000  0.000000  0.500000  1
  Ru  Ru37  1  0.000000  0.000000  0.000000  1
