# generated using pymatgen
data_Dy3Y5(HoBi)12
_symmetry_space_group_name_H-M   'P 1'
_cell_length_a   8.25319609
_cell_length_b   9.50607700
_cell_length_c   12.06788414
_cell_angle_alpha   90.00000000
_cell_angle_beta   89.98272286
_cell_angle_gamma   90.00000000
_symmetry_Int_Tables_number   1
_chemical_formula_structural   Dy3Y5(HoBi)12
_chemical_formula_sum   'Dy3 Y5 Ho12 Bi12'
_cell_volume   946.79205284
_cell_formula_units_Z   1
loop_
 _symmetry_equiv_pos_site_id
 _symmetry_equiv_pos_as_xyz
  1  'x, y, z'
loop_
 _atom_site_type_symbol
 _atom_site_label
 _atom_site_symmetry_multiplicity
 _atom_site_fract_x
 _atom_site_fract_y
 _atom_site_fract_z
 _atom_site_occupancy
  Dy  Dy0  1  0.186348  0.750000  0.718986  1
  Dy  Dy1  1  0.686367  0.750000  0.781018  1
  Dy  Dy2  1  0.813653  0.250000  0.281027  1
  Y  Y3  1  0.313702  0.250000  0.219048  1
  Y  Y4  1  0.353797  0.750000  0.215370  1
  Y  Y5  1  0.853789  0.750000  0.284638  1
  Y  Y6  1  0.646224  0.250000  0.784599  1
  Y  Y7  1  0.146172  0.250000  0.715386  1
  Ho  Ho8  1  0.025879  0.750000  0.988686  1
  Ho  Ho9  1  0.525856  0.750000  0.511290  1
  Ho  Ho10  1  0.974000  0.250000  0.011210  1
  Ho  Ho11  1  0.474237  0.250000  0.488901  1
  Ho  Ho12  1  0.306359  0.436489  0.940232  1
  Ho  Ho13  1  0.806342  0.063555  0.559685  1
  Ho  Ho14  1  0.693657  0.936435  0.059687  1
  Ho  Ho15  1  0.193652  0.563582  0.440323  1
  Ho  Ho16  1  0.693657  0.563565  0.059687  1
  Ho  Ho17  1  0.193652  0.936418  0.440323  1
  Ho  Ho18  1  0.306359  0.063511  0.940232  1
  Ho  Ho19  1  0.806342  0.436445  0.559685  1
  Bi  Bi20  1  0.433499  0.003682  0.673474  1
  Bi  Bi21  1  0.933488  0.496308  0.826537  1
  Bi  Bi22  1  0.566563  0.503726  0.326598  1
  Bi  Bi23  1  0.066406  0.996232  0.173415  1
  Bi  Bi24  1  0.566563  0.996274  0.326598  1
  Bi  Bi25  1  0.066406  0.503768  0.173415  1
  Bi  Bi26  1  0.433499  0.496318  0.673474  1
  Bi  Bi27  1  0.933488  0.003692  0.826537  1
  Bi  Bi28  1  0.409034  0.750000  0.957936  1
  Bi  Bi29  1  0.909032  0.750000  0.542074  1
  Bi  Bi30  1  0.590997  0.250000  0.041957  1
  Bi  Bi31  1  0.090977  0.250000  0.457972  1
