# generated using pymatgen
data_Ce2MnAl20Fe3
_symmetry_space_group_name_H-M   'P 1'
_cell_length_a   6.78776102
_cell_length_b   6.79118960
_cell_length_c   9.00065680
_cell_angle_alpha   89.92845767
_cell_angle_beta   89.85701116
_cell_angle_gamma   97.50315582
_symmetry_Int_Tables_number   1
_chemical_formula_structural   Ce2MnAl20Fe3
_chemical_formula_sum   'Ce2 Mn1 Al20 Fe3'
_cell_volume   411.34868846
_cell_formula_units_Z   1
loop_
 _symmetry_equiv_pos_site_id
 _symmetry_equiv_pos_as_xyz
  1  'x, y, z'
loop_
 _atom_site_type_symbol
 _atom_site_label
 _atom_site_symmetry_multiplicity
 _atom_site_fract_x
 _atom_site_fract_y
 _atom_site_fract_z
 _atom_site_occupancy
  Ce  Ce0  1  0.874280  0.122327  0.750756  1
  Ce  Ce1  1  0.125720  0.877673  0.249244  1
  Mn  Mn2  1  0.500000  0.000000  0.000000  1
  Al  Al3  1  0.412244  0.131889  0.749587  1
  Al  Al4  1  0.131930  0.412581  0.250031  1
  Al  Al5  1  0.587756  0.868111  0.250413  1
  Al  Al6  1  0.868070  0.587419  0.749969  1
  Al  Al7  1  0.521426  0.778262  0.750552  1
  Al  Al8  1  0.778636  0.522019  0.250771  1
  Al  Al9  1  0.478574  0.221738  0.249448  1
  Al  Al10  1  0.221364  0.477981  0.749229  1
  Al  Al11  1  0.839215  0.161602  0.401852  1
  Al  Al12  1  0.160785  0.838398  0.598148  1
  Al  Al13  1  0.839005  0.161529  0.098215  1
  Al  Al14  1  0.160995  0.838471  0.901785  1
  Al  Al15  1  0.624003  0.375306  0.948280  1
  Al  Al16  1  0.375997  0.624694  0.051720  1
  Al  Al17  1  0.624441  0.375953  0.552147  1
  Al  Al18  1  0.375559  0.624047  0.447853  1
  Al  Al19  1  0.771685  0.771472  0.999836  1
  Al  Al20  1  0.771923  0.771880  0.500194  1
  Al  Al21  1  0.228315  0.228528  0.000164  1
  Al  Al22  1  0.228077  0.228120  0.499806  1
  Fe  Fe23  1  0.000000  0.500000  0.000000  1
  Fe  Fe24  1  0.500000  0.000000  0.500000  1
  Fe  Fe25  1  0.000000  0.500000  0.500000  1
