# generated using pymatgen
data_Na4TmOsO6
_symmetry_space_group_name_H-M   'P 1'
_cell_length_a   5.63785323
_cell_length_b   5.63786395
_cell_length_c   5.80530616
_cell_angle_alpha   99.27636732
_cell_angle_beta   99.27682573
_cell_angle_gamma   120.03094457
_symmetry_Int_Tables_number   1
_chemical_formula_structural   Na4TmOsO6
_chemical_formula_sum   'Na4 Tm1 Os1 O6'
_cell_volume   151.21432211
_cell_formula_units_Z   1
loop_
 _symmetry_equiv_pos_site_id
 _symmetry_equiv_pos_as_xyz
  1  'x, y, z'
loop_
 _atom_site_type_symbol
 _atom_site_label
 _atom_site_symmetry_multiplicity
 _atom_site_fract_x
 _atom_site_fract_y
 _atom_site_fract_z
 _atom_site_occupancy
  Na  Na0  1  0.499059  0.500943  0.000001  1
  Na  Na1  1  0.011741  0.988259  0.499999  1
  Na  Na2  1  0.656936  0.343066  0.500000  1
  Na  Na3  1  0.337067  0.662937  0.500001  1
  Tm  Tm4  1  0.832890  0.167112  0.999999  1
  Os  Os5  1  0.166824  0.833178  0.000001  1
  O  O6  1  0.949090  0.597152  0.207705  1
  O  O7  1  0.539704  0.922917  0.212390  1
  O  O8  1  0.217106  0.190339  0.212231  1
  O  O9  1  0.809660  0.782896  0.787768  1
  O  O10  1  0.077085  0.460297  0.787613  1
  O  O11  1  0.402846  0.050911  0.792295  1
