# generated using pymatgen
data_Y19Tm(Al3Ru)2
_symmetry_space_group_name_H-M   'P 1'
_cell_length_a   9.56692500
_cell_length_b   9.56692468
_cell_length_c   9.67718700
_cell_angle_alpha   90.00000000
_cell_angle_beta   90.00000000
_cell_angle_gamma   119.99999766
_symmetry_Int_Tables_number   1
_chemical_formula_structural   Y19Tm(Al3Ru)2
_chemical_formula_sum   'Y19 Tm1 Al6 Ru2'
_cell_volume   767.05145694
_cell_formula_units_Z   1
loop_
 _symmetry_equiv_pos_site_id
 _symmetry_equiv_pos_as_xyz
  1  'x, y, z'
loop_
 _atom_site_type_symbol
 _atom_site_label
 _atom_site_symmetry_multiplicity
 _atom_site_fract_x
 _atom_site_fract_y
 _atom_site_fract_z
 _atom_site_occupancy
  Y  Y0  1  0.000000  0.000000  0.000000  1
  Y  Y1  1  0.206340  0.793660  0.440131  1
  Y  Y2  1  0.206340  0.412682  0.440131  1
  Y  Y3  1  0.587318  0.793660  0.440131  1
  Y  Y4  1  0.793660  0.206340  0.559869  1
  Y  Y5  1  0.793660  0.587318  0.559869  1
  Y  Y6  1  0.412682  0.206340  0.559869  1
  Y  Y7  1  0.792944  0.207056  0.939901  1
  Y  Y8  1  0.792944  0.585888  0.939901  1
  Y  Y9  1  0.414112  0.207056  0.939901  1
  Y  Y10  1  0.207056  0.792944  0.060099  1
  Y  Y11  1  0.207056  0.414112  0.060099  1
  Y  Y12  1  0.585888  0.792944  0.060099  1
  Y  Y13  1  0.540211  0.459789  0.250108  1
  Y  Y14  1  0.540211  0.080422  0.250108  1
  Y  Y15  1  0.919578  0.459789  0.250108  1
  Y  Y16  1  0.459789  0.540211  0.749892  1
  Y  Y17  1  0.459789  0.919578  0.749892  1
  Y  Y18  1  0.080422  0.540211  0.749892  1
  Tm  Tm19  1  0.000000  0.000000  0.500000  1
  Al  Al20  1  0.888974  0.111026  0.251156  1
  Al  Al21  1  0.888974  0.777950  0.251156  1
  Al  Al22  1  0.222050  0.111026  0.251156  1
  Al  Al23  1  0.111026  0.888974  0.748844  1
  Al  Al24  1  0.111026  0.222050  0.748844  1
  Al  Al25  1  0.777950  0.888974  0.748844  1
  Ru  Ru26  1  0.333333  0.666667  0.250266  1
  Ru  Ru27  1  0.666667  0.333333  0.749734  1
