# generated using pymatgen
data_TbSm4Y3(ReB6)4
_symmetry_space_group_name_H-M   'P 1'
_cell_length_a   3.71863600
_cell_length_b   9.23969700
_cell_length_c   11.66346400
_cell_angle_alpha   90.00027387
_cell_angle_beta   90.00000000
_cell_angle_gamma   90.00000000
_symmetry_Int_Tables_number   1
_chemical_formula_structural   TbSm4Y3(ReB6)4
_chemical_formula_sum   'Tb1 Sm4 Y3 Re4 B24'
_cell_volume   400.74577490
_cell_formula_units_Z   1
loop_
 _symmetry_equiv_pos_site_id
 _symmetry_equiv_pos_as_xyz
  1  'x, y, z'
loop_
 _atom_site_type_symbol
 _atom_site_label
 _atom_site_symmetry_multiplicity
 _atom_site_fract_x
 _atom_site_fract_y
 _atom_site_fract_z
 _atom_site_occupancy
  Tb  Tb0  1  0.000000  0.442616  0.130238  1
  Sm  Sm1  1  0.000000  0.823139  0.086072  1
  Sm  Sm2  1  0.000000  0.176773  0.913882  1
  Sm  Sm3  1  0.000000  0.323172  0.413940  1
  Sm  Sm4  1  0.000000  0.676857  0.586149  1
  Y  Y5  1  0.000000  0.557401  0.869585  1
  Y  Y6  1  0.000000  0.942711  0.369870  1
  Y  Y7  1  0.000000  0.057325  0.630219  1
  Re  Re8  1  0.000000  0.138444  0.179907  1
  Re  Re9  1  0.000000  0.861418  0.820043  1
  Re  Re10  1  0.000000  0.638773  0.320179  1
  Re  Re11  1  0.000000  0.361350  0.679803  1
  B  B12  1  0.500000  0.053686  0.068428  1
  B  B13  1  0.500000  0.946021  0.931526  1
  B  B14  1  0.500000  0.554033  0.431691  1
  B  B15  1  0.500000  0.446064  0.568425  1
  B  B16  1  0.500000  0.248146  0.083090  1
  B  B17  1  0.500000  0.751392  0.916982  1
  B  B18  1  0.500000  0.748743  0.417139  1
  B  B19  1  0.500000  0.251354  0.582963  1
  B  B20  1  0.500000  0.290620  0.233928  1
  B  B21  1  0.500000  0.709081  0.766005  1
  B  B22  1  0.500000  0.791137  0.266152  1
  B  B23  1  0.500000  0.209017  0.733930  1
  B  B24  1  0.500000  0.129872  0.313701  1
  B  B25  1  0.500000  0.870039  0.686379  1
  B  B26  1  0.500000  0.630249  0.186635  1
  B  B27  1  0.500000  0.369981  0.813582  1
  B  B28  1  0.500000  0.483469  0.287736  1
  B  B29  1  0.500000  0.516835  0.712357  1
  B  B30  1  0.500000  0.983026  0.212472  1
  B  B31  1  0.500000  0.016870  0.787587  1
  B  B32  1  0.500000  0.098398  0.472467  1
  B  B33  1  0.500000  0.901652  0.527601  1
  B  B34  1  0.500000  0.598752  0.027294  1
  B  B35  1  0.500000  0.401584  0.972044  1
