# generated using pymatgen
data_Ba9Nd(PN5)2
_symmetry_space_group_name_H-M   'P 1'
_cell_length_a   7.89287472
_cell_length_b   7.89287395
_cell_length_c   9.01834466
_cell_angle_alpha   75.84276158
_cell_angle_beta   75.84276020
_cell_angle_gamma   94.05882398
_symmetry_Int_Tables_number   1
_chemical_formula_structural   Ba9Nd(PN5)2
_chemical_formula_sum   'Ba9 Nd1 P2 N10'
_cell_volume   523.09011545
_cell_formula_units_Z   1
loop_
 _symmetry_equiv_pos_site_id
 _symmetry_equiv_pos_as_xyz
  1  'x, y, z'
loop_
 _atom_site_type_symbol
 _atom_site_label
 _atom_site_symmetry_multiplicity
 _atom_site_fract_x
 _atom_site_fract_y
 _atom_site_fract_z
 _atom_site_occupancy
  Ba  Ba0  1  0.604079  0.604079  0.628303  1
  Ba  Ba1  1  0.679382  0.679382  0.994335  1
  Ba  Ba2  1  0.326696  0.326696  0.999410  1
  Ba  Ba3  1  0.924136  0.924136  0.207678  1
  Ba  Ba4  1  0.076297  0.076297  0.787934  1
  Ba  Ba5  1  0.561205  0.087885  0.752742  1
  Ba  Ba6  1  0.914477  0.434441  0.250925  1
  Ba  Ba7  1  0.434441  0.914477  0.250925  1
  Ba  Ba8  1  0.087885  0.561205  0.752742  1
  Nd  Nd9  1  0.420828  0.420828  0.354368  1
  P  P10  1  0.753563  0.243024  0.005314  1
  P  P11  1  0.243024  0.753563  0.005314  1
  N  N12  1  0.638213  0.638213  0.316987  1
  N  N13  1  0.351162  0.351162  0.644960  1
  N  N14  1  0.717067  0.032596  0.000876  1
  N  N15  1  0.964518  0.275747  0.012991  1
  N  N16  1  0.275747  0.964518  0.012991  1
  N  N17  1  0.032596  0.717067  0.000876  1
  N  N18  1  0.381220  0.724529  0.842398  1
  N  N19  1  0.279106  0.609829  0.167765  1
  N  N20  1  0.609829  0.279106  0.167765  1
  N  N21  1  0.724529  0.381220  0.842398  1
