# generated using pymatgen
data_Dy2B2MoRu5
_symmetry_space_group_name_H-M   'P 1'
_cell_length_a   9.61089500
_cell_length_b   9.61089500
_cell_length_c   3.12524700
_cell_angle_alpha   90.00000000
_cell_angle_beta   90.00000000
_cell_angle_gamma   90.00000000
_symmetry_Int_Tables_number   1
_chemical_formula_structural   Dy2B2MoRu5
_chemical_formula_sum   'Dy4 B4 Mo2 Ru10'
_cell_volume   288.67688616
_cell_formula_units_Z   2
loop_
 _symmetry_equiv_pos_site_id
 _symmetry_equiv_pos_as_xyz
  1  'x, y, z'
loop_
 _atom_site_type_symbol
 _atom_site_label
 _atom_site_symmetry_multiplicity
 _atom_site_fract_x
 _atom_site_fract_y
 _atom_site_fract_z
 _atom_site_occupancy
  Dy  Dy0  1  0.675419  0.175419  0.000000  1
  Dy  Dy1  1  0.324581  0.824581  0.000000  1
  Dy  Dy2  1  0.175419  0.324581  0.000000  1
  Dy  Dy3  1  0.824581  0.675419  0.000000  1
  B  B4  1  0.120419  0.620419  0.000000  1
  B  B5  1  0.879581  0.379581  0.000000  1
  B  B6  1  0.620419  0.879581  0.000000  1
  B  B7  1  0.379581  0.120419  0.000000  1
  Mo  Mo8  1  0.000000  0.000000  0.000000  1
  Mo  Mo9  1  0.500000  0.500000  0.000000  1
  Ru  Ru10  1  0.216269  0.069752  0.500000  1
  Ru  Ru11  1  0.783731  0.930248  0.500000  1
  Ru  Ru12  1  0.069752  0.783731  0.500000  1
  Ru  Ru13  1  0.716269  0.430248  0.500000  1
  Ru  Ru14  1  0.930248  0.216269  0.500000  1
  Ru  Ru15  1  0.283731  0.569752  0.500000  1
  Ru  Ru16  1  0.569752  0.716269  0.500000  1
  Ru  Ru17  1  0.430248  0.283731  0.500000  1
  Ru  Ru18  1  0.500000  0.000000  0.500000  1
  Ru  Ru19  1  0.000000  0.500000  0.500000  1
