# generated using pymatgen
data_Nd4As3Br
_symmetry_space_group_name_H-M   'P 1'
_cell_length_a   8.55466100
_cell_length_b   4.30585200
_cell_length_c   6.02129202
_cell_angle_alpha   90.00000000
_cell_angle_beta   90.00438850
_cell_angle_gamma   90.00000000
_symmetry_Int_Tables_number   1
_chemical_formula_structural   Nd4As3Br
_chemical_formula_sum   'Nd4 As3 Br1'
_cell_volume   221.79491800
_cell_formula_units_Z   1
loop_
 _symmetry_equiv_pos_site_id
 _symmetry_equiv_pos_as_xyz
  1  'x, y, z'
loop_
 _atom_site_type_symbol
 _atom_site_label
 _atom_site_symmetry_multiplicity
 _atom_site_fract_x
 _atom_site_fract_y
 _atom_site_fract_z
 _atom_site_occupancy
  Nd  Nd0  1  0.397881  0.249999  0.249962  1
  Nd  Nd1  1  0.852026  0.249999  0.250096  1
  Nd  Nd2  1  0.125057  0.750001  0.749893  1
  Nd  Nd3  1  0.625051  0.750001  0.750059  1
  As  As4  1  0.624928  0.750001  0.250115  1
  As  As5  1  0.370023  0.249999  0.749956  1
  As  As6  1  0.880130  0.249999  0.750076  1
  Br  Br7  1  0.124909  0.750001  0.249847  1
