# generated using pymatgen
data_Li4SnSb3Rh8
_symmetry_space_group_name_H-M   'P 1'
_cell_length_a   6.19217100
_cell_length_b   6.19386200
_cell_length_c   6.19213300
_cell_angle_alpha   89.99951891
_cell_angle_beta   89.99990747
_cell_angle_gamma   90.00010177
_symmetry_Int_Tables_number   1
_chemical_formula_structural   Li4SnSb3Rh8
_chemical_formula_sum   'Li4 Sn1 Sb3 Rh8'
_cell_volume   237.48967984
_cell_formula_units_Z   1
loop_
 _symmetry_equiv_pos_site_id
 _symmetry_equiv_pos_as_xyz
  1  'x, y, z'
loop_
 _atom_site_type_symbol
 _atom_site_label
 _atom_site_symmetry_multiplicity
 _atom_site_fract_x
 _atom_site_fract_y
 _atom_site_fract_z
 _atom_site_occupancy
  Li  Li0  1  0.500010  0.750000  0.249926  1
  Li  Li1  1  0.000000  0.249999  0.249926  1
  Li  Li2  1  0.000000  0.749999  0.750070  1
  Li  Li3  1  0.499989  0.249999  0.750070  1
  Sn  Sn4  1  0.500000  0.250000  0.250007  1
  Sb  Sb5  1  0.999997  0.750000  0.250009  1
  Sb  Sb6  1  0.000000  0.249999  0.749988  1
  Sb  Sb7  1  0.500002  0.750000  0.749985  1
  Rh  Rh8  1  0.248192  0.998005  0.998197  1
  Rh  Rh9  1  0.751813  0.997998  0.998192  1
  Rh  Rh10  1  0.751804  0.501994  0.998194  1
  Rh  Rh11  1  0.248192  0.501996  0.998195  1
  Rh  Rh12  1  0.248187  0.502007  0.501814  1
  Rh  Rh13  1  0.248192  0.997997  0.501805  1
  Rh  Rh14  1  0.751816  0.502006  0.501816  1
  Rh  Rh15  1  0.751805  0.998001  0.501808  1
