# generated using pymatgen
data_In9Sn4SbRh6
_symmetry_space_group_name_H-M   'P 1'
_cell_length_a   8.23515461
_cell_length_b   8.24149782
_cell_length_c   8.27565100
_cell_angle_alpha   110.77538430
_cell_angle_beta   109.00112519
_cell_angle_gamma   108.75317818
_symmetry_Int_Tables_number   1
_chemical_formula_structural   In9Sn4SbRh6
_chemical_formula_sum   'In9 Sn4 Sb1 Rh6'
_cell_volume   431.63185900
_cell_formula_units_Z   1
loop_
 _symmetry_equiv_pos_site_id
 _symmetry_equiv_pos_as_xyz
  1  'x, y, z'
loop_
 _atom_site_type_symbol
 _atom_site_label
 _atom_site_symmetry_multiplicity
 _atom_site_fract_x
 _atom_site_fract_y
 _atom_site_fract_z
 _atom_site_occupancy
  In  In0  1  0.325512  0.999263  0.005753  1
  In  In1  1  0.674930  0.670392  0.676665  1
  In  In2  1  0.002939  0.329891  0.008890  1
  In  In3  1  0.321243  0.322165  0.318630  1
  In  In4  1  0.000951  0.677359  0.993824  1
  In  In5  1  0.250419  0.744030  0.497362  1
  In  In6  1  0.747811  0.254525  0.501620  1
  In  In7  1  0.747047  0.495580  0.246415  1
  In  In8  1  0.249899  0.504086  0.749119  1
  Sn  Sn9  1  0.493694  0.746550  0.247997  1
  Sn  Sn10  1  0.506936  0.255425  0.752805  1
  Sn  Sn11  1  0.002917  0.000178  0.322404  1
  Sn  Sn12  1  0.676512  0.000537  0.997214  1
  Sb  Sb13  1  0.000686  0.999879  0.680660  1
  Rh  Rh14  1  0.661015  0.000142  0.654172  1
  Rh  Rh15  1  0.655655  0.661354  0.008972  1
  Rh  Rh16  1  0.340904  0.340733  0.987869  1
  Rh  Rh17  1  0.000806  0.661183  0.648087  1
  Rh  Rh18  1  0.993713  0.336700  0.346690  1
  Rh  Rh19  1  0.346411  0.000030  0.354851  1
