# generated using pymatgen
data_LuHf2Zr2Sn3
_symmetry_space_group_name_H-M   'P 1'
_cell_length_a   8.55706410
_cell_length_b   8.58298197
_cell_length_c   5.85134700
_cell_angle_alpha   90.00000000
_cell_angle_beta   90.00000000
_cell_angle_gamma   120.10023420
_symmetry_Int_Tables_number   1
_chemical_formula_structural   LuHf2Zr2Sn3
_chemical_formula_sum   'Lu2 Hf4 Zr4 Sn6'
_cell_volume   371.80047078
_cell_formula_units_Z   2
loop_
 _symmetry_equiv_pos_site_id
 _symmetry_equiv_pos_as_xyz
  1  'x, y, z'
loop_
 _atom_site_type_symbol
 _atom_site_label
 _atom_site_symmetry_multiplicity
 _atom_site_fract_x
 _atom_site_fract_y
 _atom_site_fract_z
 _atom_site_occupancy
  Lu  Lu0  1  0.757571  0.758405  0.750000  1
  Lu  Lu1  1  0.242429  0.000834  0.750000  1
  Hf  Hf2  1  0.667294  0.332664  0.000686  1
  Hf  Hf3  1  0.332706  0.665371  0.000686  1
  Hf  Hf4  1  0.332706  0.665371  0.499314  1
  Hf  Hf5  1  0.667294  0.332664  0.499314  1
  Zr  Zr6  1  0.000000  0.247279  0.750000  1
  Zr  Zr7  1  0.243992  0.244349  0.250000  1
  Zr  Zr8  1  0.756008  0.000357  0.250000  1
  Zr  Zr9  1  0.000000  0.754021  0.250000  1
  Sn  Sn10  1  0.393482  0.395214  0.750000  1
  Sn  Sn11  1  0.606518  0.001733  0.750000  1
  Sn  Sn12  1  0.000000  0.602299  0.750000  1
  Sn  Sn13  1  0.606537  0.606837  0.250000  1
  Sn  Sn14  1  0.393463  0.000300  0.250000  1
  Sn  Sn15  1  0.000000  0.392302  0.250000  1
