# generated using pymatgen
data_Tm(Lu2Rh)2
_symmetry_space_group_name_H-M   'P 1'
_cell_length_a   6.35586133
_cell_length_b   7.05414065
_cell_length_c   8.38358448
_cell_angle_alpha   96.77120940
_cell_angle_beta   112.25249208
_cell_angle_gamma   89.95393981
_symmetry_Int_Tables_number   1
_chemical_formula_structural   Tm(Lu2Rh)2
_chemical_formula_sum   'Tm2 Lu8 Rh4'
_cell_volume   345.06533731
_cell_formula_units_Z   2
loop_
 _symmetry_equiv_pos_site_id
 _symmetry_equiv_pos_as_xyz
  1  'x, y, z'
loop_
 _atom_site_type_symbol
 _atom_site_label
 _atom_site_symmetry_multiplicity
 _atom_site_fract_x
 _atom_site_fract_y
 _atom_site_fract_z
 _atom_site_occupancy
  Tm  Tm0  1  0.523750  0.081965  0.813782  1
  Tm  Tm1  1  0.476250  0.918035  0.186218  1
  Lu  Lu2  1  0.709769  0.417866  0.186187  1
  Lu  Lu3  1  0.290231  0.582134  0.813813  1
  Lu  Lu4  1  0.289883  0.312977  0.439873  1
  Lu  Lu5  1  0.710117  0.687023  0.560127  1
  Lu  Lu6  1  0.850365  0.187384  0.560177  1
  Lu  Lu7  1  0.149635  0.812616  0.439823  1
  Lu  Lu8  1  0.073900  0.250063  0.999995  1
  Lu  Lu9  1  0.926100  0.749937  0.000005  1
  Rh  Rh10  1  0.323512  0.570879  0.219822  1
  Rh  Rh11  1  0.676488  0.429121  0.780178  1
  Rh  Rh12  1  0.102986  0.928241  0.780162  1
  Rh  Rh13  1  0.897014  0.071759  0.219838  1
