# generated using pymatgen
data_Tb8Cd3SnAu8
_symmetry_space_group_name_H-M   'P 1'
_cell_length_a   8.04375000
_cell_length_b   8.04375000
_cell_length_c   7.42259700
_cell_angle_alpha   90.00000000
_cell_angle_beta   90.00000000
_cell_angle_gamma   90.00000000
_symmetry_Int_Tables_number   1
_chemical_formula_structural   Tb8Cd3SnAu8
_chemical_formula_sum   'Tb8 Cd3 Sn1 Au8'
_cell_volume   480.25623321
_cell_formula_units_Z   1
loop_
 _symmetry_equiv_pos_site_id
 _symmetry_equiv_pos_as_xyz
  1  'x, y, z'
loop_
 _atom_site_type_symbol
 _atom_site_label
 _atom_site_symmetry_multiplicity
 _atom_site_fract_x
 _atom_site_fract_y
 _atom_site_fract_z
 _atom_site_occupancy
  Tb  Tb0  1  0.844196  0.167699  0.500098  1
  Tb  Tb1  1  0.155804  0.832301  0.500098  1
  Tb  Tb2  1  0.332301  0.344196  0.999902  1
  Tb  Tb3  1  0.667699  0.655804  0.999902  1
  Tb  Tb4  1  0.685594  0.674329  0.500294  1
  Tb  Tb5  1  0.314406  0.325671  0.500294  1
  Tb  Tb6  1  0.174329  0.814406  0.999706  1
  Tb  Tb7  1  0.825671  0.185594  0.999706  1
  Cd  Cd8  1  0.500000  0.000000  0.250000  1
  Cd  Cd9  1  0.000000  0.500000  0.750000  1
  Cd  Cd10  1  0.500000  0.000000  0.750000  1
  Sn  Sn11  1  0.000000  0.500000  0.250000  1
  Au  Au12  1  0.621240  0.365057  0.268835  1
  Au  Au13  1  0.378760  0.634943  0.268835  1
  Au  Au14  1  0.132497  0.125112  0.767991  1
  Au  Au15  1  0.867503  0.874888  0.767991  1
  Au  Au16  1  0.374888  0.632497  0.732009  1
  Au  Au17  1  0.625112  0.367503  0.732009  1
  Au  Au18  1  0.865057  0.878760  0.231165  1
  Au  Au19  1  0.134943  0.121240  0.231165  1
