# generated using pymatgen
data_Rb4Zr6SiBr18
_symmetry_space_group_name_H-M   'P 1'
_cell_length_a   10.77216096
_cell_length_b   10.97927547
_cell_length_c   11.08102374
_cell_angle_alpha   118.54680715
_cell_angle_beta   100.34937866
_cell_angle_gamma   104.03439227
_symmetry_Int_Tables_number   1
_chemical_formula_structural   Rb4Zr6SiBr18
_chemical_formula_sum   'Rb4 Zr6 Si1 Br18'
_cell_volume   1047.55626334
_cell_formula_units_Z   1
loop_
 _symmetry_equiv_pos_site_id
 _symmetry_equiv_pos_as_xyz
  1  'x, y, z'
loop_
 _atom_site_type_symbol
 _atom_site_label
 _atom_site_symmetry_multiplicity
 _atom_site_fract_x
 _atom_site_fract_y
 _atom_site_fract_z
 _atom_site_occupancy
  Rb  Rb0  1  0.656699  0.537867  0.228481  1
  Rb  Rb1  1  0.343301  0.462133  0.771519  1
  Rb  Rb2  1  0.691731  0.227974  0.565462  1
  Rb  Rb3  1  0.308269  0.772026  0.434538  1
  Zr  Zr4  1  0.154624  0.057234  0.234351  1
  Zr  Zr5  1  0.845376  0.942766  0.765649  1
  Zr  Zr6  1  0.859280  0.127943  0.134305  1
  Zr  Zr7  1  0.140720  0.872057  0.865695  1
  Zr  Zr8  1  0.149046  0.243103  0.045928  1
  Zr  Zr9  1  0.850954  0.756897  0.954072  1
  Si  Si10  1  0.000000  0.000000  0.000000  1
  Br  Br11  1  0.008265  0.403739  0.193408  1
  Br  Br12  1  0.991735  0.596261  0.806592  1
  Br  Br13  1  0.327700  0.329476  0.307462  1
  Br  Br14  1  0.672300  0.670524  0.692538  1
  Br  Br15  1  0.319756  0.514308  0.099765  1
  Br  Br16  1  0.680244  0.485692  0.900235  1
  Br  Br17  1  0.004839  0.798392  0.206262  1
  Br  Br18  1  0.995161  0.201608  0.793738  1
  Br  Br19  1  0.706447  0.270273  0.282997  1
  Br  Br20  1  0.293553  0.729727  0.717003  1
  Br  Br21  1  0.314374  0.126526  0.905546  1
  Br  Br22  1  0.685626  0.873474  0.094454  1
  Br  Br23  1  0.015509  0.201139  0.402248  1
  Br  Br24  1  0.984491  0.798861  0.597752  1
  Br  Br25  1  0.318614  0.924288  0.109217  1
  Br  Br26  1  0.681386  0.075712  0.890783  1
  Br  Br27  1  0.331293  0.120541  0.494614  1
  Br  Br28  1  0.668707  0.879459  0.505386  1
