# generated using pymatgen
data_Ho4Sc6Sn7Pt
_symmetry_space_group_name_H-M   'P 1'
_cell_length_a   7.54423400
_cell_length_b   7.96085735
_cell_length_c   14.69314600
_cell_angle_alpha   90.00000000
_cell_angle_beta   90.00000000
_cell_angle_gamma   89.23512502
_symmetry_Int_Tables_number   1
_chemical_formula_structural   Ho4Sc6Sn7Pt
_chemical_formula_sum   'Ho8 Sc12 Sn14 Pt2'
_cell_volume   882.37071728
_cell_formula_units_Z   2
loop_
 _symmetry_equiv_pos_site_id
 _symmetry_equiv_pos_as_xyz
  1  'x, y, z'
loop_
 _atom_site_type_symbol
 _atom_site_label
 _atom_site_symmetry_multiplicity
 _atom_site_fract_x
 _atom_site_fract_y
 _atom_site_fract_z
 _atom_site_occupancy
  Ho  Ho0  1  0.993437  0.174099  0.094324  1
  Ho  Ho1  1  0.006563  0.825901  0.905676  1
  Ho  Ho2  1  0.506730  0.681994  0.906971  1
  Ho  Ho3  1  0.006563  0.825901  0.594324  1
  Ho  Ho4  1  0.493270  0.318006  0.093029  1
  Ho  Ho5  1  0.993437  0.174099  0.405676  1
  Ho  Ho6  1  0.493270  0.318006  0.406971  1
  Ho  Ho7  1  0.506730  0.681994  0.593029  1
  Sc  Sc8  1  0.175311  0.497091  0.750000  1
  Sc  Sc9  1  0.824689  0.502909  0.250000  1
  Sc  Sc10  1  0.312217  0.995808  0.250000  1
  Sc  Sc11  1  0.687783  0.004192  0.750000  1
  Sc  Sc12  1  0.312311  0.160085  0.630381  1
  Sc  Sc13  1  0.687689  0.839915  0.369619  1
  Sc  Sc14  1  0.137776  0.680105  0.366831  1
  Sc  Sc15  1  0.687689  0.839915  0.130381  1
  Sc  Sc16  1  0.862224  0.319895  0.633169  1
  Sc  Sc17  1  0.312311  0.160085  0.869619  1
  Sc  Sc18  1  0.862224  0.319895  0.866831  1
  Sc  Sc19  1  0.137776  0.680105  0.133169  1
  Sn  Sn20  1  0.464492  0.625558  0.250000  1
  Sn  Sn21  1  0.535508  0.374442  0.750000  1
  Sn  Sn22  1  0.304504  0.855044  0.750000  1
  Sn  Sn23  1  0.695496  0.144956  0.250000  1
  Sn  Sn24  1  0.191954  0.358510  0.250000  1
  Sn  Sn25  1  0.808046  0.641490  0.750000  1
  Sn  Sn26  1  0.185800  0.464348  0.537679  1
  Sn  Sn27  1  0.814200  0.535652  0.462321  1
  Sn  Sn28  1  0.323162  0.957620  0.456905  1
  Sn  Sn29  1  0.814200  0.535652  0.037679  1
  Sn  Sn30  1  0.676838  0.042380  0.543095  1
  Sn  Sn31  1  0.185800  0.464348  0.962321  1
  Sn  Sn32  1  0.676838  0.042380  0.956905  1
  Sn  Sn33  1  0.323162  0.957620  0.043095  1
  Pt  Pt34  1  0.031684  0.109324  0.750000  1
  Pt  Pt35  1  0.968316  0.890676  0.250000  1
