# generated using pymatgen
data_CsTaPdSe4
_symmetry_space_group_name_H-M   'P 1'
_cell_length_a   8.80331000
_cell_length_b   8.80331000
_cell_length_c   14.12180600
_cell_angle_alpha   90.00000000
_cell_angle_beta   90.00000000
_cell_angle_gamma   90.00000000
_symmetry_Int_Tables_number   1
_chemical_formula_structural   CsTaPdSe4
_chemical_formula_sum   'Cs4 Ta4 Pd4 Se16'
_cell_volume   1094.41549129
_cell_formula_units_Z   4
loop_
 _symmetry_equiv_pos_site_id
 _symmetry_equiv_pos_as_xyz
  1  'x, y, z'
loop_
 _atom_site_type_symbol
 _atom_site_label
 _atom_site_symmetry_multiplicity
 _atom_site_fract_x
 _atom_site_fract_y
 _atom_site_fract_z
 _atom_site_occupancy
  Cs  Cs0  1  0.000000  0.500000  0.750000  1
  Cs  Cs1  1  0.500000  0.000000  0.750000  1
  Cs  Cs2  1  0.500000  0.000000  0.250000  1
  Cs  Cs3  1  0.000000  0.500000  0.250000  1
  Ta  Ta4  1  0.750483  0.750483  0.000000  1
  Ta  Ta5  1  0.249517  0.249517  0.000000  1
  Ta  Ta6  1  0.250483  0.749517  0.500000  1
  Ta  Ta7  1  0.749517  0.250483  0.500000  1
  Pd  Pd8  1  0.500000  0.500000  0.500000  1
  Pd  Pd9  1  0.000000  0.000000  0.000000  1
  Pd  Pd10  1  0.500000  0.500000  0.000000  1
  Pd  Pd11  1  0.000000  0.000000  0.500000  1
  Se  Se12  1  0.369417  0.369417  0.135503  1
  Se  Se13  1  0.630583  0.630583  0.135503  1
  Se  Se14  1  0.130583  0.869417  0.364497  1
  Se  Se15  1  0.869417  0.130583  0.364497  1
  Se  Se16  1  0.630583  0.630583  0.864497  1
  Se  Se17  1  0.369417  0.369417  0.864497  1
  Se  Se18  1  0.130583  0.869417  0.635503  1
  Se  Se19  1  0.869417  0.130583  0.635503  1
  Se  Se20  1  0.477452  0.216564  0.500000  1
  Se  Se21  1  0.522548  0.783436  0.500000  1
  Se  Se22  1  0.022548  0.716564  0.000000  1
  Se  Se23  1  0.977452  0.283436  0.000000  1
  Se  Se24  1  0.783436  0.522548  0.500000  1
  Se  Se25  1  0.216564  0.477452  0.500000  1
  Se  Se26  1  0.283436  0.977452  0.000000  1
  Se  Se27  1  0.716564  0.022548  0.000000  1
