# generated using pymatgen
data_Er2Fe3Co9As7
_symmetry_space_group_name_H-M   'P 1'
_cell_length_a   3.74568500
_cell_length_b   9.34444819
_cell_length_c   9.34444900
_cell_angle_alpha   120.00000026
_cell_angle_beta   90.00000000
_cell_angle_gamma   90.00000000
_symmetry_Int_Tables_number   1
_chemical_formula_structural   Er2Fe3Co9As7
_chemical_formula_sum   'Er2 Fe3 Co9 As7'
_cell_volume   283.24955819
_cell_formula_units_Z   1
loop_
 _symmetry_equiv_pos_site_id
 _symmetry_equiv_pos_as_xyz
  1  'x, y, z'
loop_
 _atom_site_type_symbol
 _atom_site_label
 _atom_site_symmetry_multiplicity
 _atom_site_fract_x
 _atom_site_fract_y
 _atom_site_fract_z
 _atom_site_occupancy
  Er  Er0  1  0.000000  0.666667  0.333333  1
  Er  Er1  1  0.500000  0.333333  0.666667  1
  Fe  Fe2  1  0.500000  0.784057  0.904416  1
  Fe  Fe3  1  0.500000  0.120359  0.215943  1
  Fe  Fe4  1  0.500000  0.095584  0.879641  1
  Co  Co5  1  0.000000  0.567322  0.941497  1
  Co  Co6  1  0.000000  0.374175  0.432678  1
  Co  Co7  1  0.000000  0.058503  0.625825  1
  Co  Co8  1  0.000000  0.879722  0.157803  1
  Co  Co9  1  0.000000  0.278081  0.120278  1
  Co  Co10  1  0.000000  0.842197  0.721919  1
  Co  Co11  1  0.500000  0.949497  0.382072  1
  Co  Co12  1  0.500000  0.432575  0.050503  1
  Co  Co13  1  0.500000  0.617928  0.567425  1
  As  As14  1  0.000000  0.000000  0.000000  1
  As  As15  1  0.500000  0.708243  0.114563  1
  As  As16  1  0.500000  0.406320  0.291757  1
  As  As17  1  0.500000  0.885437  0.593680  1
  As  As18  1  0.000000  0.588992  0.706048  1
  As  As19  1  0.000000  0.117056  0.411008  1
  As  As20  1  0.000000  0.293952  0.882944  1
