# generated using pymatgen
data_Yb3HfIr2
_symmetry_space_group_name_H-M   'P 1'
_cell_length_a   4.35860000
_cell_length_b   7.54658696
_cell_length_c   8.52876724
_cell_angle_alpha   92.29322234
_cell_angle_beta   90.00000000
_cell_angle_gamma   90.00000000
_symmetry_Int_Tables_number   1
_chemical_formula_structural   Yb3HfIr2
_chemical_formula_sum   'Yb6 Hf2 Ir4'
_cell_volume   280.30826745
_cell_formula_units_Z   2
loop_
 _symmetry_equiv_pos_site_id
 _symmetry_equiv_pos_as_xyz
  1  'x, y, z'
loop_
 _atom_site_type_symbol
 _atom_site_label
 _atom_site_symmetry_multiplicity
 _atom_site_fract_x
 _atom_site_fract_y
 _atom_site_fract_z
 _atom_site_occupancy
  Yb  Yb0  1  0.750000  0.152692  0.070290  1
  Yb  Yb1  1  0.250000  0.847308  0.929710  1
  Yb  Yb2  1  0.750000  0.510578  0.830392  1
  Yb  Yb3  1  0.250000  0.489422  0.169608  1
  Yb  Yb4  1  0.750000  0.038683  0.667665  1
  Yb  Yb5  1  0.250000  0.961317  0.332335  1
  Hf  Hf6  1  0.750000  0.637977  0.433313  1
  Hf  Hf7  1  0.250000  0.362023  0.566687  1
  Ir  Ir8  1  0.750000  0.288617  0.400180  1
  Ir  Ir9  1  0.250000  0.711383  0.599820  1
  Ir  Ir10  1  0.750000  0.763809  0.146018  1
  Ir  Ir11  1  0.250000  0.236191  0.853982  1
