# generated using pymatgen
data_LiPb4IO4
_symmetry_space_group_name_H-M   'P 1'
_cell_length_a   8.45685700
_cell_length_b   8.45685700
_cell_length_c   6.95283400
_cell_angle_alpha   90.00000000
_cell_angle_beta   90.00000000
_cell_angle_gamma   90.00000000
_symmetry_Int_Tables_number   1
_chemical_formula_structural   LiPb4IO4
_chemical_formula_sum   'Li2 Pb8 I2 O8'
_cell_volume   497.25577394
_cell_formula_units_Z   2
loop_
 _symmetry_equiv_pos_site_id
 _symmetry_equiv_pos_as_xyz
  1  'x, y, z'
loop_
 _atom_site_type_symbol
 _atom_site_label
 _atom_site_symmetry_multiplicity
 _atom_site_fract_x
 _atom_site_fract_y
 _atom_site_fract_z
 _atom_site_occupancy
  Li  Li0  1  0.500000  0.000000  0.995836  1
  Li  Li1  1  0.000000  0.500000  0.004164  1
  Pb  Pb2  1  0.195085  0.142445  0.207354  1
  Pb  Pb3  1  0.357555  0.695085  0.207354  1
  Pb  Pb4  1  0.642445  0.304915  0.207354  1
  Pb  Pb5  1  0.304915  0.357555  0.792646  1
  Pb  Pb6  1  0.142445  0.804915  0.792646  1
  Pb  Pb7  1  0.857555  0.195085  0.792646  1
  Pb  Pb8  1  0.804915  0.857555  0.207354  1
  Pb  Pb9  1  0.695085  0.642445  0.792646  1
  I  I10  1  0.000000  0.500000  0.456715  1
  I  I11  1  0.500000  0.000000  0.543285  1
  O  O12  1  0.734830  0.085656  0.058112  1
  O  O13  1  0.414344  0.234830  0.058112  1
  O  O14  1  0.265170  0.914344  0.058112  1
  O  O15  1  0.585656  0.765170  0.058112  1
  O  O16  1  0.914344  0.734830  0.941888  1
  O  O17  1  0.234830  0.585656  0.941888  1
  O  O18  1  0.085656  0.265170  0.941888  1
  O  O19  1  0.765170  0.414344  0.941888  1
