# generated using pymatgen
data_Er3Lu2In2Sb
_symmetry_space_group_name_H-M   'P 1'
_cell_length_a   6.47262601
_cell_length_b   8.87301019
_cell_length_c   8.84615490
_cell_angle_alpha   119.82437539
_cell_angle_beta   89.99490847
_cell_angle_gamma   90.00375051
_symmetry_Int_Tables_number   1
_chemical_formula_structural   Er3Lu2In2Sb
_chemical_formula_sum   'Er6 Lu4 In4 Sb2'
_cell_volume   440.76035284
_cell_formula_units_Z   2
loop_
 _symmetry_equiv_pos_site_id
 _symmetry_equiv_pos_as_xyz
  1  'x, y, z'
loop_
 _atom_site_type_symbol
 _atom_site_label
 _atom_site_symmetry_multiplicity
 _atom_site_fract_x
 _atom_site_fract_y
 _atom_site_fract_z
 _atom_site_occupancy
  Er  Er0  1  0.750006  0.233260  0.995448  1
  Er  Er1  1  0.750010  0.766470  0.761228  1
  Er  Er2  1  0.750042  0.000023  0.237067  1
  Er  Er3  1  0.249997  0.763898  0.000406  1
  Er  Er4  1  0.250021  0.235932  0.236523  1
  Er  Er5  1  0.250013  0.999870  0.764085  1
  Lu  Lu6  1  0.495348  0.333930  0.668197  1
  Lu  Lu7  1  0.495769  0.665983  0.334445  1
  Lu  Lu8  1  0.004211  0.666018  0.334480  1
  Lu  Lu9  1  0.004591  0.333896  0.668212  1
  In  In10  1  0.749955  0.000295  0.595849  1
  In  In11  1  0.250009  0.398072  0.001770  1
  In  In12  1  0.250015  0.602134  0.603997  1
  In  In13  1  0.250024  0.999760  0.400984  1
  Sb  Sb14  1  0.749995  0.604988  0.001031  1
  Sb  Sb15  1  0.749994  0.395473  0.396275  1
