# generated using pymatgen
data_Ca3Th(SbPt)4
_symmetry_space_group_name_H-M   'P 1'
_cell_length_a   4.64871200
_cell_length_b   7.46721943
_cell_length_c   7.99774947
_cell_angle_alpha   90.03903631
_cell_angle_beta   90.00000000
_cell_angle_gamma   90.00000000
_symmetry_Int_Tables_number   1
_chemical_formula_structural   Ca3Th(SbPt)4
_chemical_formula_sum   'Ca3 Th1 Sb4 Pt4'
_cell_volume   277.62543351
_cell_formula_units_Z   1
loop_
 _symmetry_equiv_pos_site_id
 _symmetry_equiv_pos_as_xyz
  1  'x, y, z'
loop_
 _atom_site_type_symbol
 _atom_site_label
 _atom_site_symmetry_multiplicity
 _atom_site_fract_x
 _atom_site_fract_y
 _atom_site_fract_z
 _atom_site_occupancy
  Ca  Ca0  1  0.250000  0.006425  0.300597  1
  Ca  Ca1  1  0.750000  0.493629  0.803097  1
  Ca  Ca2  1  0.250000  0.509539  0.200847  1
  Th  Th3  1  0.750000  0.994236  0.691894  1
  Sb  Sb4  1  0.750000  0.309824  0.403423  1
  Sb  Sb5  1  0.250000  0.189711  0.913859  1
  Sb  Sb6  1  0.250000  0.674848  0.591463  1
  Sb  Sb7  1  0.750000  0.812008  0.092562  1
  Pt  Pt8  1  0.250000  0.808905  0.909983  1
  Pt  Pt9  1  0.250000  0.288989  0.588314  1
  Pt  Pt10  1  0.750000  0.717265  0.425482  1
  Pt  Pt11  1  0.750000  0.194621  0.078479  1
