# generated using pymatgen
data_YHf(GaPt)2
_symmetry_space_group_name_H-M   'P 1'
_cell_length_a   7.26926700
_cell_length_b   7.26926561
_cell_length_c   7.38186600
_cell_angle_alpha   90.00000000
_cell_angle_beta   90.00000000
_cell_angle_gamma   120.00001086
_symmetry_Int_Tables_number   1
_chemical_formula_structural   YHf(GaPt)2
_chemical_formula_sum   'Y3 Hf3 Ga6 Pt6'
_cell_volume   337.81419933
_cell_formula_units_Z   3
loop_
 _symmetry_equiv_pos_site_id
 _symmetry_equiv_pos_as_xyz
  1  'x, y, z'
loop_
 _atom_site_type_symbol
 _atom_site_label
 _atom_site_symmetry_multiplicity
 _atom_site_fract_x
 _atom_site_fract_y
 _atom_site_fract_z
 _atom_site_occupancy
  Y  Y0  1  0.590431  0.998696  0.750000  1
  Y  Y1  1  0.408265  0.409569  0.750000  1
  Y  Y2  1  0.001304  0.591735  0.750000  1
  Hf  Hf3  1  0.390075  0.388705  0.250000  1
  Hf  Hf4  1  0.998629  0.609925  0.250000  1
  Hf  Hf5  1  0.611295  0.001371  0.250000  1
  Ga  Ga6  1  0.262437  0.999058  0.007983  1
  Ga  Ga7  1  0.262437  0.999058  0.492017  1
  Ga  Ga8  1  0.000942  0.263379  0.492017  1
  Ga  Ga9  1  0.000942  0.263379  0.007983  1
  Ga  Ga10  1  0.736621  0.737563  0.007983  1
  Ga  Ga11  1  0.736621  0.737563  0.492017  1
  Pt  Pt12  1  0.666667  0.333333  0.470079  1
  Pt  Pt13  1  0.000000  0.000000  0.750000  1
  Pt  Pt14  1  0.666667  0.333333  0.029921  1
  Pt  Pt15  1  0.333333  0.666667  0.033729  1
  Pt  Pt16  1  0.333333  0.666667  0.466271  1
  Pt  Pt17  1  0.000000  0.000000  0.250000  1
