# generated using pymatgen
data_Ba2ZnFeF9
_symmetry_space_group_name_H-M   'P 1'
_cell_length_a   18.01440000
_cell_length_b   5.79558642
_cell_length_c   9.47184900
_cell_angle_alpha   53.38691853
_cell_angle_beta   90.00000000
_cell_angle_gamma   90.00000000
_symmetry_Int_Tables_number   1
_chemical_formula_structural   Ba2ZnFeF9
_chemical_formula_sum   'Ba8 Zn4 Fe4 F36'
_cell_volume   793.77079133
_cell_formula_units_Z   4
loop_
 _symmetry_equiv_pos_site_id
 _symmetry_equiv_pos_as_xyz
  1  'x, y, z'
loop_
 _atom_site_type_symbol
 _atom_site_label
 _atom_site_symmetry_multiplicity
 _atom_site_fract_x
 _atom_site_fract_y
 _atom_site_fract_z
 _atom_site_occupancy
  Ba  Ba0  1  0.963958  0.949814  0.804002  1
  Ba  Ba1  1  0.463958  0.050186  0.695998  1
  Ba  Ba2  1  0.036042  0.050186  0.195998  1
  Ba  Ba3  1  0.536042  0.949814  0.304002  1
  Ba  Ba4  1  0.717526  0.210838  0.573745  1
  Ba  Ba5  1  0.217526  0.789162  0.926255  1
  Ba  Ba6  1  0.282474  0.789162  0.426255  1
  Ba  Ba7  1  0.782474  0.210838  0.073745  1
  Zn  Zn8  1  0.909950  0.461425  0.273077  1
  Zn  Zn9  1  0.409950  0.538575  0.226923  1
  Zn  Zn10  1  0.090050  0.538575  0.726923  1
  Zn  Zn11  1  0.590050  0.461425  0.773077  1
  Fe  Fe12  1  0.624570  0.646554  0.087716  1
  Fe  Fe13  1  0.124570  0.353446  0.412284  1
  Fe  Fe14  1  0.375430  0.353446  0.912284  1
  Fe  Fe15  1  0.875430  0.646554  0.587716  1
  F  F16  1  0.585369  0.895403  0.601816  1
  F  F17  1  0.085369  0.104597  0.898184  1
  F  F18  1  0.414631  0.104597  0.398184  1
  F  F19  1  0.914631  0.895403  0.101816  1
  F  F20  1  0.803418  0.385307  0.296318  1
  F  F21  1  0.303418  0.614693  0.203682  1
  F  F22  1  0.196582  0.614693  0.703682  1
  F  F23  1  0.696582  0.385307  0.796318  1
  F  F24  1  0.708000  0.749036  0.934750  1
  F  F25  1  0.208000  0.250964  0.565250  1
  F  F26  1  0.292000  0.250964  0.065250  1
  F  F27  1  0.792000  0.749036  0.434750  1
  F  F28  1  0.532530  0.518975  0.239383  1
  F  F29  1  0.032530  0.481025  0.260617  1
  F  F30  1  0.467470  0.481025  0.760617  1
  F  F31  1  0.967470  0.518975  0.739383  1
  F  F32  1  0.917415  0.433550  0.068643  1
  F  F33  1  0.417415  0.566450  0.431357  1
  F  F34  1  0.082585  0.566450  0.931357  1
  F  F35  1  0.582585  0.433550  0.568643  1
  F  F36  1  0.835189  0.794036  0.709131  1
  F  F37  1  0.335189  0.205964  0.790869  1
  F  F38  1  0.164811  0.205964  0.290869  1
  F  F39  1  0.664811  0.794036  0.209131  1
  F  F40  1  0.662529  0.260085  0.260893  1
  F  F41  1  0.162529  0.739915  0.239107  1
  F  F42  1  0.337471  0.739915  0.739107  1
  F  F43  1  0.837471  0.260085  0.760893  1
  F  F44  1  0.924003  0.467863  0.484037  1
  F  F45  1  0.424003  0.532137  0.015963  1
  F  F46  1  0.075997  0.532137  0.515963  1
  F  F47  1  0.575997  0.467863  0.984037  1
  F  F48  1  0.570639  0.006479  0.924357  1
  F  F49  1  0.070639  0.993521  0.575643  1
  F  F50  1  0.429361  0.993521  0.075643  1
  F  F51  1  0.929361  0.006479  0.424357  1
