# generated using pymatgen
data_Yb3Gd4Y(ReC2)4
_symmetry_space_group_name_H-M   'P 1'
_cell_length_a   5.15885700
_cell_length_b   6.55621874
_cell_length_c   10.12363143
_cell_angle_alpha   89.30991244
_cell_angle_beta   90.00000000
_cell_angle_gamma   90.00000000
_symmetry_Int_Tables_number   1
_chemical_formula_structural   Yb3Gd4Y(ReC2)4
_chemical_formula_sum   'Yb3 Gd4 Y1 Re4 C8'
_cell_volume   342.38264966
_cell_formula_units_Z   1
loop_
 _symmetry_equiv_pos_site_id
 _symmetry_equiv_pos_as_xyz
  1  'x, y, z'
loop_
 _atom_site_type_symbol
 _atom_site_label
 _atom_site_symmetry_multiplicity
 _atom_site_fract_x
 _atom_site_fract_y
 _atom_site_fract_z
 _atom_site_occupancy
  Yb  Yb0  1  0.750000  0.462236  0.775074  1
  Yb  Yb1  1  0.750000  0.962053  0.725314  1
  Yb  Yb2  1  0.250000  0.036585  0.276124  1
  Gd  Gd3  1  0.250000  0.693409  0.553172  1
  Gd  Gd4  1  0.750000  0.309001  0.448521  1
  Gd  Gd5  1  0.750000  0.812874  0.051897  1
  Gd  Gd6  1  0.250000  0.188341  0.946454  1
  Y  Y7  1  0.250000  0.535456  0.223715  1
  Re  Re8  1  0.250000  0.722207  0.860110  1
  Re  Re9  1  0.750000  0.276491  0.140513  1
  Re  Re10  1  0.750000  0.774913  0.359259  1
  Re  Re11  1  0.250000  0.226791  0.638645  1
  C  C12  1  0.250000  0.458143  0.757847  1
  C  C13  1  0.750000  0.541818  0.240463  1
  C  C14  1  0.750000  0.041959  0.259648  1
  C  C15  1  0.250000  0.959134  0.741578  1
  C  C16  1  0.250000  0.805620  0.040839  1
  C  C17  1  0.750000  0.182015  0.962946  1
  C  C18  1  0.750000  0.688794  0.538965  1
  C  C19  1  0.250000  0.322162  0.458916  1
