# generated using pymatgen
data_Ta2Ti3Si2B4Mo5
_symmetry_space_group_name_H-M   'P 1'
_cell_length_a   7.14523582
_cell_length_b   7.10016367
_cell_length_c   7.10377917
_cell_angle_alpha   129.29318289
_cell_angle_beta   129.50032176
_cell_angle_gamma   74.37877698
_symmetry_Int_Tables_number   1
_chemical_formula_structural   Ta2Ti3Si2B4Mo5
_chemical_formula_sum   'Ta2 Ti3 Si2 B4 Mo5'
_cell_volume   209.76403611
_cell_formula_units_Z   1
loop_
 _symmetry_equiv_pos_site_id
 _symmetry_equiv_pos_as_xyz
  1  'x, y, z'
loop_
 _atom_site_type_symbol
 _atom_site_label
 _atom_site_symmetry_multiplicity
 _atom_site_fract_x
 _atom_site_fract_y
 _atom_site_fract_z
 _atom_site_occupancy
  Ta  Ta0  1  0.806367  0.972246  0.500545  1
  Ta  Ta1  1  0.309295  0.809558  0.836342  1
  Ti  Ti2  1  0.194682  0.029813  0.501619  1
  Ti  Ti3  1  0.529752  0.692486  0.500805  1
  Ti  Ti4  1  0.028601  0.526550  0.834280  1
  Si  Si5  1  0.755430  0.747231  0.997264  1
  Si  Si6  1  0.253785  0.257440  0.005548  1
  B  B7  1  0.381857  0.883740  0.270027  1
  B  B8  1  0.883375  0.613586  0.498666  1
  B  B9  1  0.612305  0.114027  0.728699  1
  B  B10  1  0.113931  0.383958  0.499142  1
  Mo  Mo11  1  0.000840  0.000118  0.003118  1
  Mo  Mo12  1  0.695253  0.192604  0.162723  1
  Mo  Mo13  1  0.968398  0.469290  0.160637  1
  Mo  Mo14  1  0.500782  0.498432  0.000425  1
  Mo  Mo15  1  0.465345  0.308919  0.500160  1
