# generated using pymatgen
data_Ca3Ho(ReB4)4
_symmetry_space_group_name_H-M   'P 1'
_cell_length_a   3.58261500
_cell_length_b   6.00701201
_cell_length_c   11.60832694
_cell_angle_alpha   90.06629816
_cell_angle_beta   90.00000000
_cell_angle_gamma   90.00000000
_symmetry_Int_Tables_number   1
_chemical_formula_structural   Ca3Ho(ReB4)4
_chemical_formula_sum   'Ca3 Ho1 Re4 B16'
_cell_volume   249.82044658
_cell_formula_units_Z   1
loop_
 _symmetry_equiv_pos_site_id
 _symmetry_equiv_pos_as_xyz
  1  'x, y, z'
loop_
 _atom_site_type_symbol
 _atom_site_label
 _atom_site_symmetry_multiplicity
 _atom_site_fract_x
 _atom_site_fract_y
 _atom_site_fract_z
 _atom_site_occupancy
  Ca  Ca0  1  0.000000  0.627567  0.150029  1
  Ca  Ca1  1  0.000000  0.372896  0.850814  1
  Ca  Ca2  1  0.000000  0.127808  0.348603  1
  Ho  Ho3  1  0.000000  0.871447  0.650626  1
  Re  Re4  1  0.000000  0.632192  0.417321  1
  Re  Re5  1  0.000000  0.369888  0.585107  1
  Re  Re6  1  0.000000  0.130830  0.083058  1
  Re  Re7  1  0.000000  0.870244  0.915543  1
  B  B8  1  0.500000  0.977558  0.192289  1
  B  B9  1  0.500000  0.022598  0.807157  1
  B  B10  1  0.500000  0.477778  0.307893  1
  B  B11  1  0.500000  0.523610  0.692487  1
  B  B12  1  0.500000  0.784155  0.315213  1
  B  B13  1  0.500000  0.214278  0.684578  1
  B  B14  1  0.500000  0.285079  0.184506  1
  B  B15  1  0.500000  0.714450  0.815062  1
  B  B16  1  0.500000  0.864162  0.468591  1
  B  B17  1  0.500000  0.135613  0.531892  1
  B  B18  1  0.500000  0.364839  0.031931  1
  B  B19  1  0.500000  0.634915  0.967869  1
  B  B20  1  0.500000  0.885763  0.047171  1
  B  B21  1  0.500000  0.113632  0.952100  1
  B  B22  1  0.500000  0.385890  0.452372  1
  B  B23  1  0.500000  0.612806  0.547788  1
