# generated using pymatgen
data_Ba5VHN4
_symmetry_space_group_name_H-M   'P 1'
_cell_length_a   8.02429190
_cell_length_b   8.02429100
_cell_length_c   9.77009849
_cell_angle_alpha   76.90726215
_cell_angle_beta   76.90726728
_cell_angle_gamma   95.49515779
_symmetry_Int_Tables_number   1
_chemical_formula_structural   Ba5VHN4
_chemical_formula_sum   'Ba10 V2 H2 N8'
_cell_volume   589.59199443
_cell_formula_units_Z   2
loop_
 _symmetry_equiv_pos_site_id
 _symmetry_equiv_pos_as_xyz
  1  'x, y, z'
loop_
 _atom_site_type_symbol
 _atom_site_label
 _atom_site_symmetry_multiplicity
 _atom_site_fract_x
 _atom_site_fract_y
 _atom_site_fract_z
 _atom_site_occupancy
  Ba  Ba0  1  0.381574  0.381574  0.367585  1
  Ba  Ba1  1  0.618426  0.618426  0.632415  1
  Ba  Ba2  1  0.659943  0.659943  0.005874  1
  Ba  Ba3  1  0.340057  0.340057  0.994126  1
  Ba  Ba4  1  0.944333  0.944333  0.187527  1
  Ba  Ba5  1  0.055667  0.055667  0.812473  1
  Ba  Ba6  1  0.569710  0.072773  0.769077  1
  Ba  Ba7  1  0.927227  0.430290  0.230923  1
  Ba  Ba8  1  0.430290  0.927227  0.230923  1
  Ba  Ba9  1  0.072773  0.569710  0.769077  1
  V  V10  1  0.753761  0.246239  0.000000  1
  V  V11  1  0.246239  0.753761  0.000000  1
  H  H12  1  0.656660  0.656660  0.308817  1
  H  H13  1  0.343340  0.343340  0.691183  1
  N  N14  1  0.715016  0.017444  0.998162  1
  N  N15  1  0.982556  0.284984  0.001838  1
  N  N16  1  0.284984  0.982556  0.001838  1
  N  N17  1  0.017444  0.715016  0.998162  1
  N  N18  1  0.387923  0.712988  0.838333  1
  N  N19  1  0.287012  0.612077  0.161666  1
  N  N20  1  0.612077  0.287012  0.161666  1
  N  N21  1  0.712988  0.387923  0.838333  1
