# generated using pymatgen
data_Pr8HfZr3S20
_symmetry_space_group_name_H-M   'P 1'
_cell_length_a   7.44681465
_cell_length_b   8.03871500
_cell_length_c   11.77645304
_cell_angle_alpha   90.00000000
_cell_angle_beta   89.95198331
_cell_angle_gamma   90.00000000
_symmetry_Int_Tables_number   1
_chemical_formula_structural   Pr8HfZr3S20
_chemical_formula_sum   'Pr8 Hf1 Zr3 S20'
_cell_volume   704.97144841
_cell_formula_units_Z   1
loop_
 _symmetry_equiv_pos_site_id
 _symmetry_equiv_pos_as_xyz
  1  'x, y, z'
loop_
 _atom_site_type_symbol
 _atom_site_label
 _atom_site_symmetry_multiplicity
 _atom_site_fract_x
 _atom_site_fract_y
 _atom_site_fract_z
 _atom_site_occupancy
  Pr  Pr0  1  0.530164  0.001528  0.322736  1
  Pr  Pr1  1  0.970171  0.498289  0.823386  1
  Pr  Pr2  1  0.470151  0.501402  0.677125  1
  Pr  Pr3  1  0.029970  0.998716  0.176725  1
  Pr  Pr4  1  0.470151  0.998598  0.677125  1
  Pr  Pr5  1  0.029970  0.501284  0.176725  1
  Pr  Pr6  1  0.530164  0.498472  0.322736  1
  Pr  Pr7  1  0.970171  0.001711  0.823386  1
  Hf  Hf8  1  0.573924  0.250000  0.006923  1
  Zr  Zr9  1  0.075826  0.750000  0.492255  1
  Zr  Zr10  1  0.424725  0.750000  0.992388  1
  Zr  Zr11  1  0.924226  0.250000  0.507603  1
  S  S12  1  0.838230  0.535580  0.587505  1
  S  S13  1  0.661329  0.967030  0.086564  1
  S  S14  1  0.161903  0.035758  0.412502  1
  S  S15  1  0.339118  0.462986  0.913540  1
  S  S16  1  0.161903  0.464242  0.412502  1
  S  S17  1  0.339118  0.037014  0.913540  1
  S  S18  1  0.838230  0.964420  0.587505  1
  S  S19  1  0.661329  0.532970  0.086564  1
  S  S20  1  0.838530  0.750000  0.317772  1
  S  S21  1  0.661398  0.750000  0.818003  1
  S  S22  1  0.161259  0.250000  0.682064  1
  S  S23  1  0.340722  0.250000  0.180354  1
  S  S24  1  0.441794  0.750000  0.495153  1
  S  S25  1  0.058577  0.750000  0.994945  1
  S  S26  1  0.558235  0.250000  0.504987  1
  S  S27  1  0.939359  0.250000  0.005258  1
  S  S28  1  0.182775  0.750000  0.705672  1
  S  S29  1  0.317584  0.750000  0.205369  1
  S  S30  1  0.817673  0.250000  0.294777  1
  S  S31  1  0.681320  0.250000  0.796312  1
