# generated using pymatgen
data_Ta9Nb3Al4(IrN)4
_symmetry_space_group_name_H-M   'P 1'
_cell_length_a   7.02327032
_cell_length_b   7.02460665
_cell_length_c   7.01331133
_cell_angle_alpha   90.03524782
_cell_angle_beta   90.00010349
_cell_angle_gamma   90.07021731
_symmetry_Int_Tables_number   1
_chemical_formula_structural   Ta9Nb3Al4(IrN)4
_chemical_formula_sum   'Ta9 Nb3 Al4 Ir4 N4'
_cell_volume   346.00637846
_cell_formula_units_Z   1
loop_
 _symmetry_equiv_pos_site_id
 _symmetry_equiv_pos_as_xyz
  1  'x, y, z'
loop_
 _atom_site_type_symbol
 _atom_site_label
 _atom_site_symmetry_multiplicity
 _atom_site_fract_x
 _atom_site_fract_y
 _atom_site_fract_z
 _atom_site_occupancy
  Ta  Ta0  1  0.795162  0.956210  0.375673  1
  Ta  Ta1  1  0.704752  0.044470  0.876880  1
  Ta  Ta2  1  0.204234  0.455777  0.123619  1
  Ta  Ta3  1  0.295803  0.543747  0.622200  1
  Ta  Ta4  1  0.955197  0.377014  0.793116  1
  Ta  Ta5  1  0.044799  0.875427  0.705650  1
  Ta  Ta6  1  0.454503  0.125122  0.207451  1
  Ta  Ta7  1  0.545798  0.623413  0.293514  1
  Ta  Ta8  1  0.376342  0.793864  0.955865  1
  Nb  Nb9  1  0.876837  0.707559  0.044830  1
  Nb  Nb10  1  0.123276  0.206759  0.455451  1
  Nb  Nb11  1  0.623897  0.292718  0.545146  1
  Al  Al12  1  0.570384  0.430542  0.928705  1
  Al  Al13  1  0.429278  0.930406  0.570832  1
  Al  Al14  1  0.929226  0.569637  0.428818  1
  Al  Al15  1  0.069969  0.069469  0.071368  1
  Ir  Ir16  1  0.179222  0.820697  0.323111  1
  Ir  Ir17  1  0.321857  0.176975  0.825654  1
  Ir  Ir18  1  0.821452  0.320795  0.175130  1
  Ir  Ir19  1  0.677474  0.679779  0.676510  1
  N  N20  1  0.874847  0.122521  0.628449  1
  N  N21  1  0.622846  0.875959  0.127092  1
  N  N22  1  0.128038  0.624074  0.872923  1
  N  N23  1  0.374806  0.377066  0.372012  1
