# generated using pymatgen
data_ErZr2(FeCo2)3
_symmetry_space_group_name_H-M   'P 1'
_cell_length_a   8.31196490
_cell_length_b   8.31196555
_cell_length_c   8.31196496
_cell_angle_alpha   34.88767418
_cell_angle_beta   34.88766439
_cell_angle_gamma   34.88767120
_symmetry_Int_Tables_number   1
_chemical_formula_structural   ErZr2(FeCo2)3
_chemical_formula_sum   'Er1 Zr2 Fe3 Co6'
_cell_volume   167.71305405
_cell_formula_units_Z   1
loop_
 _symmetry_equiv_pos_site_id
 _symmetry_equiv_pos_as_xyz
  1  'x, y, z'
loop_
 _atom_site_type_symbol
 _atom_site_label
 _atom_site_symmetry_multiplicity
 _atom_site_fract_x
 _atom_site_fract_y
 _atom_site_fract_z
 _atom_site_occupancy
  Er  Er0  1  0.000000  0.000000  0.000000  1
  Zr  Zr1  1  0.140801  0.140801  0.140801  1
  Zr  Zr2  1  0.859199  0.859199  0.859199  1
  Fe  Fe3  1  0.334013  0.334013  0.334013  1
  Fe  Fe4  1  0.665987  0.665987  0.665987  1
  Fe  Fe5  1  0.500000  0.500000  0.500000  1
  Co  Co6  1  0.413185  0.413185  0.920201  1
  Co  Co7  1  0.920201  0.413185  0.413185  1
  Co  Co8  1  0.586815  0.079799  0.586815  1
  Co  Co9  1  0.586815  0.586815  0.079799  1
  Co  Co10  1  0.413185  0.920201  0.413185  1
  Co  Co11  1  0.079799  0.586815  0.586815  1
