# generated using pymatgen
data_Y2Tm4Al24GaOs7
_symmetry_space_group_name_H-M   'P 1'
_cell_length_a   8.85258116
_cell_length_b   8.84906355
_cell_length_c   9.53609388
_cell_angle_alpha   90.06741483
_cell_angle_beta   89.85368135
_cell_angle_gamma   119.91979204
_symmetry_Int_Tables_number   1
_chemical_formula_structural   Y2Tm4Al24GaOs7
_chemical_formula_sum   'Y2 Tm4 Al24 Ga1 Os7'
_cell_volume   647.46665040
_cell_formula_units_Z   1
loop_
 _symmetry_equiv_pos_site_id
 _symmetry_equiv_pos_as_xyz
  1  'x, y, z'
loop_
 _atom_site_type_symbol
 _atom_site_label
 _atom_site_symmetry_multiplicity
 _atom_site_fract_x
 _atom_site_fract_y
 _atom_site_fract_z
 _atom_site_occupancy
  Y  Y0  1  0.191590  0.383138  0.244782  1
  Y  Y1  1  0.808410  0.616862  0.755218  1
  Tm  Tm2  1  0.612465  0.808186  0.246397  1
  Tm  Tm3  1  0.387535  0.191814  0.753603  1
  Tm  Tm4  1  0.195837  0.804590  0.256367  1
  Tm  Tm5  1  0.804163  0.195410  0.743633  1
  Al  Al6  1  0.327484  0.672738  0.023831  1
  Al  Al7  1  0.672516  0.327262  0.976169  1
  Al  Al8  1  0.666002  0.334239  0.519854  1
  Al  Al9  1  0.333998  0.665761  0.480146  1
  Al  Al10  1  0.162293  0.325555  0.572021  1
  Al  Al11  1  0.837707  0.674445  0.427979  1
  Al  Al12  1  0.674057  0.837500  0.571642  1
  Al  Al13  1  0.852394  0.678583  0.083204  1
  Al  Al14  1  0.325943  0.162500  0.428358  1
  Al  Al15  1  0.147606  0.321417  0.916796  1
  Al  Al16  1  0.163046  0.837062  0.576428  1
  Al  Al17  1  0.321515  0.147134  0.081853  1
  Al  Al18  1  0.836954  0.162938  0.423572  1
  Al  Al19  1  0.678485  0.852866  0.918147  1
  Al  Al20  1  0.836372  0.162831  0.076704  1
  Al  Al21  1  0.163628  0.837169  0.923296  1
  Al  Al22  1  0.561863  0.120930  0.249475  1
  Al  Al23  1  0.438137  0.879070  0.750525  1
  Al  Al24  1  0.879269  0.438237  0.249622  1
  Al  Al25  1  0.120731  0.561763  0.750378  1
  Al  Al26  1  0.566514  0.435237  0.257973  1
  Al  Al27  1  0.433486  0.564763  0.742027  1
  Al  Al28  1  0.996898  0.997385  0.250736  1
  Al  Al29  1  0.003102  0.002615  0.749264  1
  Ga  Ga30  1  0.500000  0.500000  0.000000  1
  Os  Os31  1  0.500000  0.000000  0.000000  1
  Os  Os32  1  0.000000  0.500000  0.000000  1
  Os  Os33  1  0.500000  0.000000  0.500000  1
  Os  Os34  1  0.000000  0.500000  0.500000  1
  Os  Os35  1  0.500000  0.500000  0.500000  1
  Os  Os36  1  0.000000  0.000000  0.000000  1
  Os  Os37  1  0.000000  0.000000  0.500000  1
