# generated using pymatgen
data_Dy8Ga3Fe
_symmetry_space_group_name_H-M   'P 1'
_cell_length_a   9.99425239
_cell_length_b   9.99425211
_cell_length_c   6.93552400
_cell_angle_alpha   90.00000000
_cell_angle_beta   90.00000000
_cell_angle_gamma   119.95105567
_symmetry_Int_Tables_number   1
_chemical_formula_structural   Dy8Ga3Fe
_chemical_formula_sum   'Dy16 Ga6 Fe2'
_cell_volume   600.23940739
_cell_formula_units_Z   2
loop_
 _symmetry_equiv_pos_site_id
 _symmetry_equiv_pos_as_xyz
  1  'x, y, z'
loop_
 _atom_site_type_symbol
 _atom_site_label
 _atom_site_symmetry_multiplicity
 _atom_site_fract_x
 _atom_site_fract_y
 _atom_site_fract_z
 _atom_site_occupancy
  Dy  Dy0  1  0.000346  0.999652  0.268200  1
  Dy  Dy1  1  0.999654  0.000349  0.768202  1
  Dy  Dy2  1  0.172605  0.827394  0.989377  1
  Dy  Dy3  1  0.827395  0.172606  0.489377  1
  Dy  Dy4  1  0.172755  0.345086  0.990253  1
  Dy  Dy5  1  0.654914  0.827246  0.990253  1
  Dy  Dy6  1  0.345086  0.172754  0.490254  1
  Dy  Dy7  1  0.827245  0.654913  0.490254  1
  Dy  Dy8  1  0.463149  0.536851  0.293150  1
  Dy  Dy9  1  0.536852  0.463149  0.793149  1
  Dy  Dy10  1  0.463126  0.926628  0.292652  1
  Dy  Dy11  1  0.073373  0.536874  0.292652  1
  Dy  Dy12  1  0.926627  0.463127  0.792652  1
  Dy  Dy13  1  0.536873  0.073372  0.792652  1
  Dy  Dy14  1  0.333386  0.666615  0.670687  1
  Dy  Dy15  1  0.666614  0.333385  0.170686  1
  Ga  Ga16  1  0.164084  0.835917  0.539946  1
  Ga  Ga17  1  0.835916  0.164083  0.039947  1
  Ga  Ga18  1  0.163940  0.328381  0.540552  1
  Ga  Ga19  1  0.671621  0.836061  0.540552  1
  Ga  Ga20  1  0.328379  0.163939  0.040551  1
  Ga  Ga21  1  0.836061  0.671620  0.040551  1
  Fe  Fe22  1  0.333335  0.666667  0.054726  1
  Fe  Fe23  1  0.666666  0.333334  0.554727  1
