# generated using pymatgen
data_Hf9CrRe3Pt
_symmetry_space_group_name_H-M   'P 1'
_cell_length_a   8.66438201
_cell_length_b   8.66438175
_cell_length_c   8.43369000
_cell_angle_alpha   90.00000000
_cell_angle_beta   90.00000000
_cell_angle_gamma   120.00909468
_symmetry_Int_Tables_number   1
_chemical_formula_structural   Hf9CrRe3Pt
_chemical_formula_sum   'Hf18 Cr2 Re6 Pt2'
_cell_volume   548.25629658
_cell_formula_units_Z   2
loop_
 _symmetry_equiv_pos_site_id
 _symmetry_equiv_pos_as_xyz
  1  'x, y, z'
loop_
 _atom_site_type_symbol
 _atom_site_label
 _atom_site_symmetry_multiplicity
 _atom_site_fract_x
 _atom_site_fract_y
 _atom_site_fract_z
 _atom_site_occupancy
  Hf  Hf0  1  0.806818  0.613596  0.552060  1
  Hf  Hf1  1  0.806767  0.193233  0.552059  1
  Hf  Hf2  1  0.386404  0.193182  0.552060  1
  Hf  Hf3  1  0.193182  0.386404  0.447940  1
  Hf  Hf4  1  0.193233  0.806767  0.447941  1
  Hf  Hf5  1  0.613596  0.806818  0.447940  1
  Hf  Hf6  1  0.193182  0.386404  0.052060  1
  Hf  Hf7  1  0.193233  0.806767  0.052059  1
  Hf  Hf8  1  0.613596  0.806818  0.052060  1
  Hf  Hf9  1  0.806818  0.613596  0.947940  1
  Hf  Hf10  1  0.806767  0.193233  0.947941  1
  Hf  Hf11  1  0.386404  0.193182  0.947940  1
  Hf  Hf12  1  0.458482  0.916900  0.750000  1
  Hf  Hf13  1  0.458488  0.541512  0.750000  1
  Hf  Hf14  1  0.083100  0.541518  0.750000  1
  Hf  Hf15  1  0.541518  0.083100  0.250000  1
  Hf  Hf16  1  0.541512  0.458488  0.250000  1
  Hf  Hf17  1  0.916900  0.458482  0.250000  1
  Cr  Cr18  1  0.000000  0.000000  0.500000  1
  Cr  Cr19  1  0.000000  0.000000  0.000000  1
  Re  Re20  1  0.107765  0.215404  0.750000  1
  Re  Re21  1  0.107815  0.892185  0.750000  1
  Re  Re22  1  0.784596  0.892235  0.750000  1
  Re  Re23  1  0.892235  0.784596  0.250000  1
  Re  Re24  1  0.892185  0.107815  0.250000  1
  Re  Re25  1  0.215404  0.107765  0.250000  1
  Pt  Pt26  1  0.666646  0.333354  0.750000  1
  Pt  Pt27  1  0.333354  0.666646  0.250000  1
