# generated using pymatgen
data_Hf3ScSi2Ge4Ir7
_symmetry_space_group_name_H-M   'P 1'
_cell_length_a   7.06518011
_cell_length_b   7.07783649
_cell_length_c   7.07934638
_cell_angle_alpha   109.63700012
_cell_angle_beta   109.56477778
_cell_angle_gamma   109.16709517
_symmetry_Int_Tables_number   1
_chemical_formula_structural   Hf3ScSi2Ge4Ir7
_chemical_formula_sum   'Hf3 Sc1 Si2 Ge4 Ir7'
_cell_volume   272.66444688
_cell_formula_units_Z   1
loop_
 _symmetry_equiv_pos_site_id
 _symmetry_equiv_pos_as_xyz
  1  'x, y, z'
loop_
 _atom_site_type_symbol
 _atom_site_label
 _atom_site_symmetry_multiplicity
 _atom_site_fract_x
 _atom_site_fract_y
 _atom_site_fract_z
 _atom_site_occupancy
  Hf  Hf0  1  0.997695  0.997476  0.533449  1
  Hf  Hf1  1  0.498479  0.998479  0.996957  1
  Hf  Hf2  1  0.535754  0.535973  0.533449  1
  Sc  Sc3  1  0.998345  0.498345  0.996690  1
  Si  Si4  1  0.670684  0.005872  0.674249  1
  Si  Si5  1  0.003565  0.668377  0.674249  1
  Ge  Ge6  1  0.692834  0.689790  0.009017  1
  Ge  Ge7  1  0.302260  0.001959  0.306533  1
  Ge  Ge8  1  0.004273  0.304575  0.306533  1
  Ge  Ge9  1  0.316183  0.319227  0.009017  1
  Ir  Ir10  1  0.749459  0.249459  0.498918  1
  Ir  Ir11  1  0.751523  0.500130  0.254099  1
  Ir  Ir12  1  0.497739  0.248042  0.748313  1
  Ir  Ir13  1  0.250575  0.500271  0.748313  1
  Ir  Ir14  1  0.251517  0.751517  0.503033  1
  Ir  Ir15  1  0.502575  0.753969  0.254099  1
  Ir  Ir16  1  0.976540  0.976540  0.953080  1
