# generated using pymatgen
data_CaCo2Te3(BrO4)2
_symmetry_space_group_name_H-M   'P 1'
_cell_length_a   9.29151800
_cell_length_b   6.59413200
_cell_length_c   19.17023824
_cell_angle_alpha   73.60604093
_cell_angle_beta   90.00000000
_cell_angle_gamma   90.00000000
_symmetry_Int_Tables_number   1
_chemical_formula_structural   CaCo2Te3(BrO4)2
_chemical_formula_sum   'Ca4 Co8 Te12 Br8 O32'
_cell_volume   1126.79799114
_cell_formula_units_Z   4
loop_
 _symmetry_equiv_pos_site_id
 _symmetry_equiv_pos_as_xyz
  1  'x, y, z'
loop_
 _atom_site_type_symbol
 _atom_site_label
 _atom_site_symmetry_multiplicity
 _atom_site_fract_x
 _atom_site_fract_y
 _atom_site_fract_z
 _atom_site_occupancy
  Ca  Ca0  1  0.113507  0.510976  0.730537  1
  Ca  Ca1  1  0.386493  0.510976  0.230537  1
  Ca  Ca2  1  0.886493  0.489024  0.269463  1
  Ca  Ca3  1  0.613507  0.489024  0.769463  1
  Co  Co4  1  0.244934  0.064454  0.321445  1
  Co  Co5  1  0.755066  0.935546  0.678555  1
  Co  Co6  1  0.458899  0.190485  0.681617  1
  Co  Co7  1  0.958899  0.809515  0.818383  1
  Co  Co8  1  0.255066  0.064454  0.821445  1
  Co  Co9  1  0.541101  0.809515  0.318383  1
  Co  Co10  1  0.041101  0.190485  0.181617  1
  Co  Co11  1  0.744934  0.935546  0.178555  1
  Te  Te12  1  0.297229  0.541257  0.890096  1
  Te  Te13  1  0.081299  0.774937  0.112714  1
  Te  Te14  1  0.392023  0.091753  0.139026  1
  Te  Te15  1  0.107977  0.091753  0.639026  1
  Te  Te16  1  0.418701  0.774937  0.612714  1
  Te  Te17  1  0.607977  0.908247  0.860974  1
  Te  Te18  1  0.581299  0.225063  0.387286  1
  Te  Te19  1  0.892023  0.908247  0.360974  1
  Te  Te20  1  0.918701  0.225063  0.887286  1
  Te  Te21  1  0.797229  0.458743  0.609904  1
  Te  Te22  1  0.702771  0.458743  0.109904  1
  Te  Te23  1  0.202771  0.541257  0.390096  1
  Br  Br24  1  0.675236  0.096002  0.038576  1
  Br  Br25  1  0.824764  0.096002  0.538576  1
  Br  Br26  1  0.324764  0.903998  0.961424  1
  Br  Br27  1  0.108534  0.268666  0.043324  1
  Br  Br28  1  0.175236  0.903998  0.461424  1
  Br  Br29  1  0.608534  0.731334  0.456676  1
  Br  Br30  1  0.391466  0.268666  0.543324  1
  Br  Br31  1  0.891466  0.731334  0.956676  1
  O  O32  1  0.011594  0.626385  0.352947  1
  O  O33  1  0.267697  0.173267  0.206494  1
  O  O34  1  0.806106  0.235767  0.176054  1
  O  O35  1  0.232303  0.173267  0.706494  1
  O  O36  1  0.021282  0.101684  0.823462  1
  O  O37  1  0.228517  0.803746  0.650355  1
  O  O38  1  0.979387  0.903571  0.704486  1
  O  O39  1  0.511594  0.373615  0.147053  1
  O  O40  1  0.736454  0.634845  0.171250  1
  O  O41  1  0.057382  0.501326  0.178485  1
  O  O42  1  0.728517  0.196254  0.849645  1
  O  O43  1  0.020613  0.096429  0.295514  1
  O  O44  1  0.767697  0.826733  0.293506  1
  O  O45  1  0.193894  0.764233  0.823946  1
  O  O46  1  0.271483  0.803746  0.150355  1
  O  O47  1  0.693894  0.235767  0.676054  1
  O  O48  1  0.978718  0.898316  0.176538  1
  O  O49  1  0.236454  0.365155  0.328750  1
  O  O50  1  0.521282  0.898316  0.676538  1
  O  O51  1  0.442618  0.501326  0.678485  1
  O  O52  1  0.306106  0.764233  0.323946  1
  O  O53  1  0.557382  0.498674  0.321515  1
  O  O54  1  0.732303  0.826733  0.793506  1
  O  O55  1  0.263546  0.365155  0.828750  1
  O  O56  1  0.479387  0.096429  0.795514  1
  O  O57  1  0.771483  0.196254  0.349645  1
  O  O58  1  0.988406  0.373615  0.647053  1
  O  O59  1  0.942618  0.498674  0.821515  1
  O  O60  1  0.478718  0.101684  0.323462  1
  O  O61  1  0.520613  0.903571  0.204486  1
  O  O62  1  0.488406  0.626385  0.852947  1
  O  O63  1  0.763546  0.634845  0.671250  1
