# generated using pymatgen
data_Ac2SeO2
_symmetry_space_group_name_H-M   'P 1'
_cell_length_a   4.25242900
_cell_length_b   4.25244405
_cell_length_c   7.44574600
_cell_angle_alpha   89.99998177
_cell_angle_beta   90.00001905
_cell_angle_gamma   120.00010979
_symmetry_Int_Tables_number   1
_chemical_formula_structural   Ac2SeO2
_chemical_formula_sum   'Ac2 Se1 O2'
_cell_volume   116.60416074
_cell_formula_units_Z   1
loop_
 _symmetry_equiv_pos_site_id
 _symmetry_equiv_pos_as_xyz
  1  'x, y, z'
loop_
 _atom_site_type_symbol
 _atom_site_label
 _atom_site_symmetry_multiplicity
 _atom_site_fract_x
 _atom_site_fract_y
 _atom_site_fract_z
 _atom_site_occupancy
  Ac  Ac0  1  0.333332  0.666667  0.286894  1
  Ac  Ac1  1  0.666668  0.333334  0.713106  1
  Se  Se2  1  0.000001  0.000000  0.000000  1
  O  O3  1  0.666666  0.333334  0.375559  1
  O  O4  1  0.333335  0.666667  0.624442  1
