# generated using pymatgen
data_Ac2ZrIrF14
_symmetry_space_group_name_H-M   'P 1'
_cell_length_a   6.03535774
_cell_length_b   6.44462347
_cell_length_c   8.76716901
_cell_angle_alpha   78.20374055
_cell_angle_beta   90.12905045
_cell_angle_gamma   89.88046668
_symmetry_Int_Tables_number   1
_chemical_formula_structural   Ac2ZrIrF14
_chemical_formula_sum   'Ac2 Zr1 Ir1 F14'
_cell_volume   333.80063269
_cell_formula_units_Z   1
loop_
 _symmetry_equiv_pos_site_id
 _symmetry_equiv_pos_as_xyz
  1  'x, y, z'
loop_
 _atom_site_type_symbol
 _atom_site_label
 _atom_site_symmetry_multiplicity
 _atom_site_fract_x
 _atom_site_fract_y
 _atom_site_fract_z
 _atom_site_occupancy
  Ac  Ac0  1  0.202395  0.660297  0.310411  1
  Ac  Ac1  1  0.701588  0.336908  0.692140  1
  Zr  Zr2  1  0.710863  0.191327  0.223789  1
  Ir  Ir3  1  0.210951  0.811052  0.776063  1
  F  F4  1  0.384402  0.439694  0.525133  1
  F  F5  1  0.882550  0.556384  0.473708  1
  F  F6  1  0.920141  0.942038  0.225269  1
  F  F7  1  0.413073  0.047568  0.772390  1
  F  F8  1  0.454440  0.979075  0.241913  1
  F  F9  1  0.956717  0.016624  0.762737  1
  F  F10  1  0.504024  0.444373  0.210645  1
  F  F11  1  0.009291  0.571907  0.784863  1
  F  F12  1  0.204185  0.764880  0.003130  1
  F  F13  1  0.701087  0.240392  0.987082  1
  F  F14  1  0.218125  0.861377  0.548522  1
  F  F15  1  0.718047  0.143405  0.460298  1
  F  F16  1  0.987916  0.377337  0.212213  1
  F  F17  1  0.472929  0.615360  0.789694  1
