# generated using pymatgen
data_Li4Nd4SnBi3
_symmetry_space_group_name_H-M   'P 1'
_cell_length_a   9.78172800
_cell_length_b   9.78172755
_cell_length_c   7.48672400
_cell_angle_alpha   90.00000000
_cell_angle_beta   90.00000000
_cell_angle_gamma   119.99999475
_symmetry_Int_Tables_number   1
_chemical_formula_structural   Li4Nd4SnBi3
_chemical_formula_sum   'Li8 Nd8 Sn2 Bi6'
_cell_volume   620.37404873
_cell_formula_units_Z   2
loop_
 _symmetry_equiv_pos_site_id
 _symmetry_equiv_pos_as_xyz
  1  'x, y, z'
loop_
 _atom_site_type_symbol
 _atom_site_label
 _atom_site_symmetry_multiplicity
 _atom_site_fract_x
 _atom_site_fract_y
 _atom_site_fract_z
 _atom_site_occupancy
  Li  Li0  1  0.169829  0.339659  0.284016  1
  Li  Li1  1  0.169829  0.830171  0.284016  1
  Li  Li2  1  0.660341  0.830171  0.284016  1
  Li  Li3  1  0.830171  0.660341  0.784016  1
  Li  Li4  1  0.830171  0.169829  0.784016  1
  Li  Li5  1  0.339659  0.169829  0.784016  1
  Li  Li6  1  0.333333  0.666667  0.668318  1
  Li  Li7  1  0.666667  0.333333  0.168318  1
  Nd  Nd8  1  0.512026  0.024052  0.494307  1
  Nd  Nd9  1  0.512026  0.487974  0.494307  1
  Nd  Nd10  1  0.975948  0.487974  0.494307  1
  Nd  Nd11  1  0.487974  0.975948  0.994307  1
  Nd  Nd12  1  0.487974  0.512026  0.994307  1
  Nd  Nd13  1  0.024052  0.512026  0.994307  1
  Nd  Nd14  1  0.000000  0.000000  0.502208  1
  Nd  Nd15  1  0.000000  0.000000  0.002208  1
  Sn  Sn16  1  0.333333  0.666667  0.261553  1
  Sn  Sn17  1  0.666667  0.333333  0.761553  1
  Bi  Bi18  1  0.166334  0.332668  0.734647  1
  Bi  Bi19  1  0.166334  0.833666  0.734647  1
  Bi  Bi20  1  0.667332  0.833666  0.734647  1
  Bi  Bi21  1  0.833666  0.667332  0.234647  1
  Bi  Bi22  1  0.833666  0.166334  0.234647  1
  Bi  Bi23  1  0.332668  0.166334  0.234647  1
