# generated using pymatgen
data_Nd7Er(GaI6)2
_symmetry_space_group_name_H-M   'P 1'
_cell_length_a   4.40496500
_cell_length_b   14.54019242
_cell_length_c   15.30656500
_cell_angle_alpha   90.43983621
_cell_angle_beta   90.00000000
_cell_angle_gamma   90.00000000
_symmetry_Int_Tables_number   1
_chemical_formula_structural   Nd7Er(GaI6)2
_chemical_formula_sum   'Nd7 Er1 Ga2 I12'
_cell_volume   980.34188793
_cell_formula_units_Z   1
loop_
 _symmetry_equiv_pos_site_id
 _symmetry_equiv_pos_as_xyz
  1  'x, y, z'
loop_
 _atom_site_type_symbol
 _atom_site_label
 _atom_site_symmetry_multiplicity
 _atom_site_fract_x
 _atom_site_fract_y
 _atom_site_fract_z
 _atom_site_occupancy
  Nd  Nd0  1  0.500000  0.115957  0.344450  1
  Nd  Nd1  1  0.500000  0.885457  0.656456  1
  Nd  Nd2  1  0.500000  0.614462  0.154966  1
  Nd  Nd3  1  0.000000  0.117841  0.579319  1
  Nd  Nd4  1  0.000000  0.884531  0.422931  1
  Nd  Nd5  1  0.000000  0.615212  0.921761  1
  Nd  Nd6  1  0.000000  0.383190  0.076171  1
  Er  Er7  1  0.500000  0.385732  0.845274  1
  Ga  Ga8  1  0.500000  0.001436  0.500940  1
  Ga  Ga9  1  0.500000  0.498155  0.997345  1
  I  I10  1  0.500000  0.244841  0.162239  1
  I  I11  1  0.500000  0.753265  0.835412  1
  I  I12  1  0.500000  0.745021  0.336080  1
  I  I13  1  0.500000  0.257549  0.670185  1
  I  I14  1  0.000000  0.258213  0.415221  1
  I  I15  1  0.000000  0.742914  0.586097  1
  I  I16  1  0.000000  0.756301  0.086049  1
  I  I17  1  0.000000  0.249913  0.905525  1
  I  I18  1  0.000000  0.997830  0.241190  1
  I  I19  1  0.000000  0.002887  0.760247  1
  I  I20  1  0.000000  0.497915  0.257924  1
  I  I21  1  0.000000  0.491380  0.744221  1
