# generated using pymatgen
data_Rb12NbV3Te16
_symmetry_space_group_name_H-M   'P 1'
_cell_length_a   10.63879343
_cell_length_b   10.67086395
_cell_length_c   12.16088600
_cell_angle_alpha   90.00000000
_cell_angle_beta   90.00000000
_cell_angle_gamma   90.14327972
_symmetry_Int_Tables_number   1
_chemical_formula_structural   Rb12NbV3Te16
_chemical_formula_sum   'Rb12 Nb1 V3 Te16'
_cell_volume   1380.56169340
_cell_formula_units_Z   1
loop_
 _symmetry_equiv_pos_site_id
 _symmetry_equiv_pos_as_xyz
  1  'x, y, z'
loop_
 _atom_site_type_symbol
 _atom_site_label
 _atom_site_symmetry_multiplicity
 _atom_site_fract_x
 _atom_site_fract_y
 _atom_site_fract_z
 _atom_site_occupancy
  Rb  Rb0  1  0.369720  0.585644  0.750000  1
  Rb  Rb1  1  0.130684  0.084835  0.250000  1
  Rb  Rb2  1  0.630298  0.415407  0.250000  1
  Rb  Rb3  1  0.870291  0.912457  0.750000  1
  Rb  Rb4  1  0.944224  0.707017  0.452166  1
  Rb  Rb5  1  0.442341  0.795280  0.047316  1
  Rb  Rb6  1  0.555396  0.204411  0.545322  1
  Rb  Rb7  1  0.058062  0.292607  0.954382  1
  Rb  Rb8  1  0.058062  0.292607  0.545618  1
  Rb  Rb9  1  0.555396  0.204411  0.954678  1
  Rb  Rb10  1  0.442341  0.795280  0.452684  1
  Rb  Rb11  1  0.944224  0.707017  0.047834  1
  Nb  Nb12  1  0.786608  0.486439  0.750000  1
  V  V13  1  0.212313  0.514171  0.250000  1
  V  V14  1  0.712971  0.985824  0.250000  1
  V  V15  1  0.287313  0.014812  0.750000  1
  Te  Te16  1  0.330495  0.449879  0.419370  1
  Te  Te17  1  0.663790  0.552173  0.928357  1
  Te  Te18  1  0.831271  0.049580  0.080261  1
  Te  Te19  1  0.168943  0.950962  0.580227  1
  Te  Te20  1  0.013525  0.586689  0.750000  1
  Te  Te21  1  0.503551  0.918096  0.750000  1
  Te  Te22  1  0.496295  0.082246  0.250000  1
  Te  Te23  1  0.995428  0.417682  0.250000  1
  Te  Te24  1  0.808898  0.241566  0.750000  1
  Te  Te25  1  0.308489  0.249602  0.750000  1
  Te  Te26  1  0.691972  0.751449  0.250000  1
  Te  Te27  1  0.192599  0.749260  0.250000  1
  Te  Te28  1  0.663790  0.552173  0.571643  1
  Te  Te29  1  0.168943  0.950962  0.919773  1
  Te  Te30  1  0.831271  0.049580  0.419739  1
  Te  Te31  1  0.330495  0.449879  0.080630  1
