# generated using pymatgen
data_Ti4Ge3WN
_symmetry_space_group_name_H-M   'P 1'
_cell_length_a   7.52125000
_cell_length_b   7.52124951
_cell_length_c   5.26340000
_cell_angle_alpha   90.00000000
_cell_angle_beta   90.00000000
_cell_angle_gamma   120.00000216
_symmetry_Int_Tables_number   1
_chemical_formula_structural   Ti4Ge3WN
_chemical_formula_sum   'Ti8 Ge6 W2 N2'
_cell_volume   257.85586794
_cell_formula_units_Z   2
loop_
 _symmetry_equiv_pos_site_id
 _symmetry_equiv_pos_as_xyz
  1  'x, y, z'
loop_
 _atom_site_type_symbol
 _atom_site_label
 _atom_site_symmetry_multiplicity
 _atom_site_fract_x
 _atom_site_fract_y
 _atom_site_fract_z
 _atom_site_occupancy
  Ti  Ti0  1  0.224758  0.000000  0.748981  1
  Ti  Ti1  1  0.775242  0.000000  0.251019  1
  Ti  Ti2  1  0.000000  0.224758  0.748981  1
  Ti  Ti3  1  0.000000  0.775242  0.251019  1
  Ti  Ti4  1  0.775242  0.775242  0.748981  1
  Ti  Ti5  1  0.224758  0.224758  0.251019  1
  Ti  Ti6  1  0.666667  0.333333  0.000000  1
  Ti  Ti7  1  0.333333  0.666667  0.000000  1
  Ge  Ge8  1  0.593679  0.000000  0.749336  1
  Ge  Ge9  1  0.406321  0.000000  0.250664  1
  Ge  Ge10  1  0.000000  0.593679  0.749336  1
  Ge  Ge11  1  0.000000  0.406321  0.250664  1
  Ge  Ge12  1  0.406321  0.406321  0.749336  1
  Ge  Ge13  1  0.593679  0.593679  0.250664  1
  W  W14  1  0.333333  0.666667  0.500000  1
  W  W15  1  0.666667  0.333333  0.500000  1
  N  N16  1  0.000000  0.000000  0.500000  1
  N  N17  1  0.000000  0.000000  0.000000  1
