# generated using pymatgen
data_Y8ZnCo2Si12Pd
_symmetry_space_group_name_H-M   'P 1'
_cell_length_a   8.05348700
_cell_length_b   8.05348733
_cell_length_c   8.11938200
_cell_angle_alpha   90.00000000
_cell_angle_beta   90.00000000
_cell_angle_gamma   119.99999454
_symmetry_Int_Tables_number   1
_chemical_formula_structural   Y8ZnCo2Si12Pd
_chemical_formula_sum   'Y8 Zn1 Co2 Si12 Pd1'
_cell_volume   456.05956833
_cell_formula_units_Z   1
loop_
 _symmetry_equiv_pos_site_id
 _symmetry_equiv_pos_as_xyz
  1  'x, y, z'
loop_
 _atom_site_type_symbol
 _atom_site_label
 _atom_site_symmetry_multiplicity
 _atom_site_fract_x
 _atom_site_fract_y
 _atom_site_fract_z
 _atom_site_occupancy
  Y  Y0  1  0.499671  0.999344  0.241452  1
  Y  Y1  1  0.499819  0.999637  0.758528  1
  Y  Y2  1  0.000656  0.500329  0.241452  1
  Y  Y3  1  0.000363  0.500181  0.758528  1
  Y  Y4  1  0.499671  0.500329  0.241452  1
  Y  Y5  1  0.499819  0.500181  0.758528  1
  Y  Y6  1  0.000000  0.000000  0.247020  1
  Y  Y7  1  0.000000  0.000000  0.753212  1
  Zn  Zn8  1  0.666667  0.333333  0.499590  1
  Co  Co9  1  0.333333  0.666667  0.001507  1
  Co  Co10  1  0.666667  0.333333  0.998623  1
  Si  Si11  1  0.172022  0.344045  0.999698  1
  Si  Si12  1  0.828180  0.656362  0.000306  1
  Si  Si13  1  0.655955  0.827978  0.999698  1
  Si  Si14  1  0.835680  0.671358  0.500929  1
  Si  Si15  1  0.343638  0.171820  0.000306  1
  Si  Si16  1  0.166634  0.333269  0.499082  1
  Si  Si17  1  0.172022  0.827978  0.999698  1
  Si  Si18  1  0.328642  0.164320  0.500929  1
  Si  Si19  1  0.828180  0.171820  0.000306  1
  Si  Si20  1  0.666731  0.833366  0.499082  1
  Si  Si21  1  0.835680  0.164320  0.500929  1
  Si  Si22  1  0.166634  0.833366  0.499082  1
  Pd  Pd23  1  0.333333  0.666667  0.500067  1
