# generated using pymatgen
data_Ho8Tm3Th5(MgRu)4
_symmetry_space_group_name_H-M   'P 1'
_cell_length_a   9.69440829
_cell_length_b   9.73858020
_cell_length_c   9.74086515
_cell_angle_alpha   59.82182028
_cell_angle_beta   60.14173173
_cell_angle_gamma   60.16514359
_symmetry_Int_Tables_number   1
_chemical_formula_structural   Ho8Tm3Th5(MgRu)4
_chemical_formula_sum   'Ho8 Tm3 Th5 Mg4 Ru4'
_cell_volume   650.89639477
_cell_formula_units_Z   1
loop_
 _symmetry_equiv_pos_site_id
 _symmetry_equiv_pos_as_xyz
  1  'x, y, z'
loop_
 _atom_site_type_symbol
 _atom_site_label
 _atom_site_symmetry_multiplicity
 _atom_site_fract_x
 _atom_site_fract_y
 _atom_site_fract_z
 _atom_site_occupancy
  Ho  Ho0  1  0.190820  0.184691  0.810210  1
  Ho  Ho1  1  0.814284  0.810205  0.184691  1
  Ho  Ho2  1  0.933099  0.566903  0.566901  1
  Ho  Ho3  1  0.564695  0.935306  0.935306  1
  Ho  Ho4  1  0.563019  0.935350  0.565171  1
  Ho  Ho5  1  0.936460  0.565171  0.935351  1
  Ho  Ho6  1  0.562996  0.565127  0.935377  1
  Ho  Ho7  1  0.936500  0.935376  0.565127  1
  Tm  Tm8  1  0.186035  0.813966  0.813966  1
  Tm  Tm9  1  0.190979  0.809996  0.184909  1
  Tm  Tm10  1  0.814116  0.184910  0.809995  1
  Th  Th11  1  0.342406  0.349066  0.348653  1
  Th  Th12  1  0.346769  0.347835  0.959016  1
  Th  Th13  1  0.346381  0.959015  0.347832  1
  Th  Th14  1  0.959871  0.348659  0.349065  1
  Th  Th15  1  0.816175  0.183827  0.183824  1
  Mg  Mg16  1  0.581297  0.579489  0.579769  1
  Mg  Mg17  1  0.579489  0.581938  0.258820  1
  Mg  Mg18  1  0.579757  0.258812  0.581934  1
  Mg  Mg19  1  0.259443  0.579770  0.579489  1
  Ru  Ru20  1  0.129683  0.146571  0.147112  1
  Ru  Ru21  1  0.144238  0.141826  0.569082  1
  Ru  Ru22  1  0.144853  0.569080  0.141827  1
  Ru  Ru23  1  0.576632  0.147111  0.146573  1
