# generated using pymatgen
data_Tm8In4Ga7Si
_symmetry_space_group_name_H-M   'P 1'
_cell_length_a   7.12499072
_cell_length_b   7.12499031
_cell_length_c   8.74317900
_cell_angle_alpha   90.00417622
_cell_angle_beta   90.00417713
_cell_angle_gamma   90.45470098
_symmetry_Int_Tables_number   1
_chemical_formula_structural   Tm8In4Ga7Si
_chemical_formula_sum   'Tm8 In4 Ga7 Si1'
_cell_volume   443.83778537
_cell_formula_units_Z   1
loop_
 _symmetry_equiv_pos_site_id
 _symmetry_equiv_pos_as_xyz
  1  'x, y, z'
loop_
 _atom_site_type_symbol
 _atom_site_label
 _atom_site_symmetry_multiplicity
 _atom_site_fract_x
 _atom_site_fract_y
 _atom_site_fract_z
 _atom_site_occupancy
  Tm  Tm0  1  0.829850  0.172365  0.497180  1
  Tm  Tm1  1  0.172365  0.829850  0.497180  1
  Tm  Tm2  1  0.327469  0.327469  0.003081  1
  Tm  Tm3  1  0.670782  0.670782  0.998904  1
  Tm  Tm4  1  0.670746  0.670746  0.500976  1
  Tm  Tm5  1  0.327414  0.327414  0.497105  1
  Tm  Tm6  1  0.172197  0.829133  0.002823  1
  Tm  Tm7  1  0.829133  0.172197  0.002823  1
  In  In8  1  0.500881  0.000872  0.250604  1
  In  In9  1  0.999168  0.499900  0.749061  1
  In  In10  1  0.499900  0.999168  0.749061  1
  In  In11  1  0.000872  0.500881  0.250604  1
  Ga  Ga12  1  0.625812  0.376979  0.250116  1
  Ga  Ga13  1  0.376979  0.625812  0.250116  1
  Ga  Ga14  1  0.127352  0.127352  0.750512  1
  Ga  Ga15  1  0.873920  0.873920  0.749986  1
  Ga  Ga16  1  0.371558  0.625925  0.750004  1
  Ga  Ga17  1  0.625925  0.371558  0.750004  1
  Ga  Ga18  1  0.876600  0.876600  0.249985  1
  Si  Si19  1  0.121079  0.121079  0.249874  1
