# generated using pymatgen
data_Y4ZrCo2
_symmetry_space_group_name_H-M   'P 1'
_cell_length_a   8.64350281
_cell_length_b   8.64350412
_cell_length_c   6.68754999
_cell_angle_alpha   84.18888667
_cell_angle_beta   84.18888801
_cell_angle_gamma   42.42732663
_symmetry_Int_Tables_number   1
_chemical_formula_structural   Y4ZrCo2
_chemical_formula_sum   'Y8 Zr2 Co4'
_cell_volume   335.08224716
_cell_formula_units_Z   2
loop_
 _symmetry_equiv_pos_site_id
 _symmetry_equiv_pos_as_xyz
  1  'x, y, z'
loop_
 _atom_site_type_symbol
 _atom_site_label
 _atom_site_symmetry_multiplicity
 _atom_site_fract_x
 _atom_site_fract_y
 _atom_site_fract_z
 _atom_site_occupancy
  Y  Y0  1  0.023293  0.792037  0.421585  1
  Y  Y1  1  0.207963  0.976707  0.078415  1
  Y  Y2  1  0.976707  0.207963  0.578415  1
  Y  Y3  1  0.792037  0.023293  0.921585  1
  Y  Y4  1  0.353839  0.220593  0.311825  1
  Y  Y5  1  0.779407  0.646161  0.188175  1
  Y  Y6  1  0.646161  0.779407  0.688175  1
  Y  Y7  1  0.220593  0.353839  0.811825  1
  Zr  Zr8  1  0.561113  0.438887  0.250000  1
  Zr  Zr9  1  0.438887  0.561113  0.750000  1
  Co  Co10  1  0.212711  0.591558  0.061029  1
  Co  Co11  1  0.408442  0.787289  0.438971  1
  Co  Co12  1  0.787289  0.408442  0.938971  1
  Co  Co13  1  0.591558  0.212711  0.561029  1
