# generated using pymatgen
data_V2P5W3
_symmetry_space_group_name_H-M   'P 1'
_cell_length_a   3.20537762
_cell_length_b   6.37194742
_cell_length_c   14.37797028
_cell_angle_alpha   77.19773084
_cell_angle_beta   83.60003686
_cell_angle_gamma   90.00000561
_symmetry_Int_Tables_number   1
_chemical_formula_structural   V2P5W3
_chemical_formula_sum   'V4 P10 W6'
_cell_volume   284.48546286
_cell_formula_units_Z   2
loop_
 _symmetry_equiv_pos_site_id
 _symmetry_equiv_pos_as_xyz
  1  'x, y, z'
loop_
 _atom_site_type_symbol
 _atom_site_label
 _atom_site_symmetry_multiplicity
 _atom_site_fract_x
 _atom_site_fract_y
 _atom_site_fract_z
 _atom_site_occupancy
  V  V0  1  0.009561  0.509561  0.980880  1
  V  V1  1  0.410001  0.910001  0.179998  1
  V  V2  1  0.810575  0.310575  0.378849  1
  V  V3  1  0.211309  0.711309  0.577380  1
  P  P4  1  0.943765  0.190320  0.112469  1
  P  P5  1  0.344213  0.590843  0.311574  1
  P  P6  1  0.744831  0.992399  0.510338  1
  P  P7  1  0.145415  0.398324  0.709171  1
  P  P8  1  0.542556  0.785950  0.914888  1
  P  P9  1  0.943765  0.697210  0.112469  1
  P  P10  1  0.344213  0.097585  0.311574  1
  P  P11  1  0.744831  0.497262  0.510338  1
  P  P12  1  0.145415  0.892506  0.709171  1
  P  P13  1  0.542556  0.299162  0.914888  1
  W  W14  1  0.211655  0.211655  0.576690  1
  W  W15  1  0.610714  0.610714  0.778572  1
  W  W16  1  0.011298  0.011298  0.977405  1
  W  W17  1  0.411450  0.411450  0.177099  1
  W  W18  1  0.811911  0.811911  0.376178  1
  W  W19  1  0.609965  0.109965  0.780071  1
