# generated using pymatgen
data_Mn3VGaS8
_symmetry_space_group_name_H-M   'P 1'
_cell_length_a   6.75706038
_cell_length_b   6.75706024
_cell_length_c   6.75706020
_cell_angle_alpha   61.04578295
_cell_angle_beta   61.04578139
_cell_angle_gamma   61.04578824
_symmetry_Int_Tables_number   1
_chemical_formula_structural   Mn3VGaS8
_chemical_formula_sum   'Mn3 V1 Ga1 S8'
_cell_volume   223.28880757
_cell_formula_units_Z   1
loop_
 _symmetry_equiv_pos_site_id
 _symmetry_equiv_pos_as_xyz
  1  'x, y, z'
loop_
 _atom_site_type_symbol
 _atom_site_label
 _atom_site_symmetry_multiplicity
 _atom_site_fract_x
 _atom_site_fract_y
 _atom_site_fract_z
 _atom_site_occupancy
  Mn  Mn0  1  0.619771  0.619771  0.156504  1
  Mn  Mn1  1  0.619771  0.156504  0.619771  1
  Mn  Mn2  1  0.156504  0.619771  0.619771  1
  V  V3  1  0.595831  0.595831  0.595831  1
  Ga  Ga4  1  0.008646  0.008646  0.008646  1
  S  S5  1  0.859165  0.859165  0.418408  1
  S  S6  1  0.859165  0.418408  0.859165  1
  S  S7  1  0.418408  0.859165  0.859165  1
  S  S8  1  0.868339  0.868339  0.868339  1
  S  S9  1  0.366442  0.366442  0.878397  1
  S  S10  1  0.383117  0.383117  0.383117  1
  S  S11  1  0.878397  0.366442  0.366442  1
  S  S12  1  0.366442  0.878397  0.366442  1
