# generated using pymatgen
data_FeS8Cl3
_symmetry_space_group_name_H-M   'P 1'
_cell_length_a   8.66953703
_cell_length_b   10.05035029
_cell_length_c   11.59753217
_cell_angle_alpha   92.30723356
_cell_angle_beta   118.47939935
_cell_angle_gamma   102.01856451
_symmetry_Int_Tables_number   1
_chemical_formula_structural   FeS8Cl3
_chemical_formula_sum   'Fe2 S16 Cl6'
_cell_volume   857.23976308
_cell_formula_units_Z   2
loop_
 _symmetry_equiv_pos_site_id
 _symmetry_equiv_pos_as_xyz
  1  'x, y, z'
loop_
 _atom_site_type_symbol
 _atom_site_label
 _atom_site_symmetry_multiplicity
 _atom_site_fract_x
 _atom_site_fract_y
 _atom_site_fract_z
 _atom_site_occupancy
  Fe  Fe0  1  0.819198  0.986751  0.855232  1
  Fe  Fe1  1  0.180802  0.013249  0.144768  1
  S  S2  1  0.873756  0.494828  0.817871  1
  S  S3  1  0.126244  0.505172  0.182129  1
  S  S4  1  0.701280  0.384944  0.629293  1
  S  S5  1  0.298720  0.615056  0.370707  1
  S  S6  1  0.764211  0.200740  0.611811  1
  S  S7  1  0.235789  0.799260  0.388189  1
  S  S8  1  0.933031  0.220210  0.531240  1
  S  S9  1  0.066969  0.779790  0.468760  1
  S  S10  1  0.916656  0.363241  0.181609  1
  S  S11  1  0.083344  0.636759  0.818391  1
  S  S12  1  0.694202  0.443228  0.117231  1
  S  S13  1  0.305798  0.556772  0.882769  1
  S  S14  1  0.686554  0.526700  0.279217  1
  S  S15  1  0.313446  0.473300  0.720783  1
  S  S16  1  0.799469  0.736505  0.320521  1
  S  S17  1  0.200531  0.263495  0.679479  1
  Cl  Cl18  1  0.598886  0.067988  0.835000  1
  Cl  Cl19  1  0.401114  0.932012  0.165000  1
  Cl  Cl20  1  0.895475  0.857457  0.030710  1
  Cl  Cl21  1  0.104525  0.142543  0.969290  1
  Cl  Cl22  1  0.771573  0.856352  0.683296  1
  Cl  Cl23  1  0.228427  0.143648  0.316704  1
