# generated using pymatgen
data_SmPa3(CdRh2)2
_symmetry_space_group_name_H-M   'P 1'
_cell_length_a   7.73298825
_cell_length_b   7.73298825
_cell_length_c   3.61874800
_cell_angle_alpha   90.00000000
_cell_angle_beta   90.00000000
_cell_angle_gamma   92.49932931
_symmetry_Int_Tables_number   1
_chemical_formula_structural   SmPa3(CdRh2)2
_chemical_formula_sum   'Sm1 Pa3 Cd2 Rh4'
_cell_volume   216.19204774
_cell_formula_units_Z   1
loop_
 _symmetry_equiv_pos_site_id
 _symmetry_equiv_pos_as_xyz
  1  'x, y, z'
loop_
 _atom_site_type_symbol
 _atom_site_label
 _atom_site_symmetry_multiplicity
 _atom_site_fract_x
 _atom_site_fract_y
 _atom_site_fract_z
 _atom_site_occupancy
  Sm  Sm0  1  0.831418  0.668582  0.500000  1
  Pa  Pa1  1  0.670882  0.167441  0.500000  1
  Pa  Pa2  1  0.332559  0.829118  0.500000  1
  Pa  Pa3  1  0.169646  0.330354  0.500000  1
  Cd  Cd4  1  0.999639  0.989992  0.000000  1
  Cd  Cd5  1  0.510008  0.500361  0.000000  1
  Rh  Rh6  1  0.152791  0.628445  0.000000  1
  Rh  Rh7  1  0.871555  0.347209  0.000000  1
  Rh  Rh8  1  0.608979  0.891021  0.000000  1
  Rh  Rh9  1  0.352523  0.147477  0.000000  1
