# generated using pymatgen
data_YbPr2(ErGe2)2
_symmetry_space_group_name_H-M   'P 1'
_cell_length_a   7.55487300
_cell_length_b   7.93004000
_cell_length_c   14.95940200
_cell_angle_alpha   90.00000000
_cell_angle_beta   90.00000000
_cell_angle_gamma   90.00000000
_symmetry_Int_Tables_number   1
_chemical_formula_structural   YbPr2(ErGe2)2
_chemical_formula_sum   'Yb4 Pr8 Er8 Ge16'
_cell_volume   896.22443202
_cell_formula_units_Z   4
loop_
 _symmetry_equiv_pos_site_id
 _symmetry_equiv_pos_as_xyz
  1  'x, y, z'
loop_
 _atom_site_type_symbol
 _atom_site_label
 _atom_site_symmetry_multiplicity
 _atom_site_fract_x
 _atom_site_fract_y
 _atom_site_fract_z
 _atom_site_occupancy
  Yb  Yb0  1  0.340761  0.009910  0.750000  1
  Yb  Yb1  1  0.840761  0.490090  0.750000  1
  Yb  Yb2  1  0.159239  0.509910  0.250000  1
  Yb  Yb3  1  0.659239  0.990090  0.250000  1
  Pr  Pr4  1  0.980357  0.819835  0.401963  1
  Pr  Pr5  1  0.480357  0.680165  0.098037  1
  Pr  Pr6  1  0.519643  0.319835  0.598037  1
  Pr  Pr7  1  0.019643  0.180165  0.901963  1
  Pr  Pr8  1  0.019643  0.180165  0.598037  1
  Pr  Pr9  1  0.519643  0.319835  0.901963  1
  Pr  Pr10  1  0.480357  0.680165  0.401963  1
  Pr  Pr11  1  0.980357  0.819835  0.098037  1
  Er  Er12  1  0.324533  0.176826  0.122674  1
  Er  Er13  1  0.824533  0.323174  0.377326  1
  Er  Er14  1  0.175467  0.676826  0.877326  1
  Er  Er15  1  0.675467  0.823174  0.622674  1
  Er  Er16  1  0.324533  0.176826  0.377326  1
  Er  Er17  1  0.824533  0.323174  0.122674  1
  Er  Er18  1  0.175467  0.676826  0.622674  1
  Er  Er19  1  0.675467  0.823174  0.877326  1
  Ge  Ge20  1  0.839849  0.535766  0.537620  1
  Ge  Ge21  1  0.339849  0.964234  0.962380  1
  Ge  Ge22  1  0.660151  0.035766  0.462380  1
  Ge  Ge23  1  0.160151  0.464234  0.037620  1
  Ge  Ge24  1  0.160151  0.464234  0.462380  1
  Ge  Ge25  1  0.660151  0.035766  0.037620  1
  Ge  Ge26  1  0.339849  0.964234  0.537620  1
  Ge  Ge27  1  0.839849  0.535766  0.962380  1
  Ge  Ge28  1  0.971089  0.880382  0.750000  1
  Ge  Ge29  1  0.471089  0.619618  0.750000  1
  Ge  Ge30  1  0.528911  0.380382  0.250000  1
  Ge  Ge31  1  0.028911  0.119618  0.250000  1
  Ge  Ge32  1  0.222403  0.381000  0.750000  1
  Ge  Ge33  1  0.722403  0.119000  0.750000  1
  Ge  Ge34  1  0.277597  0.881000  0.250000  1
  Ge  Ge35  1  0.777597  0.619000  0.250000  1
