# generated using pymatgen
data_Mg2Fe(MoO4)3
_symmetry_space_group_name_H-M   'P 1'
_cell_length_a   7.07812539
_cell_length_b   8.56894023
_cell_length_c   9.84923923
_cell_angle_alpha   96.77564728
_cell_angle_beta   106.54727820
_cell_angle_gamma   101.93100212
_symmetry_Int_Tables_number   1
_chemical_formula_structural   Mg2Fe(MoO4)3
_chemical_formula_sum   'Mg4 Fe2 Mo6 O24'
_cell_volume   550.21363408
_cell_formula_units_Z   2
loop_
 _symmetry_equiv_pos_site_id
 _symmetry_equiv_pos_as_xyz
  1  'x, y, z'
loop_
 _atom_site_type_symbol
 _atom_site_label
 _atom_site_symmetry_multiplicity
 _atom_site_fract_x
 _atom_site_fract_y
 _atom_site_fract_z
 _atom_site_occupancy
  Mg  Mg0  1  0.254230  0.695757  0.910458  1
  Mg  Mg1  1  0.745770  0.304243  0.089542  1
  Mg  Mg2  1  0.534841  0.694861  0.489806  1
  Mg  Mg3  1  0.465159  0.305139  0.510194  1
  Fe  Fe4  1  0.967154  0.888312  0.716579  1
  Fe  Fe5  1  0.032846  0.111688  0.283421  1
  Mo  Mo6  1  0.504997  0.991794  0.755399  1
  Mo  Mo7  1  0.495003  0.008206  0.244601  1
  Mo  Mo8  1  0.698806  0.601284  0.838822  1
  Mo  Mo9  1  0.301194  0.398716  0.161178  1
  Mo  Mo10  1  0.978775  0.701965  0.375511  1
  Mo  Mo11  1  0.021225  0.298035  0.624489  1
  O  O12  1  0.268128  0.868696  0.767037  1
  O  O13  1  0.731872  0.131304  0.232963  1
  O  O14  1  0.555672  0.706521  0.920603  1
  O  O15  1  0.444328  0.293479  0.079397  1
  O  O16  1  0.558062  0.524161  0.648341  1
  O  O17  1  0.441938  0.475839  0.351659  1
  O  O18  1  0.551153  0.865995  0.356389  1
  O  O19  1  0.448847  0.134005  0.643611  1
  O  O20  1  0.660288  0.100323  0.927391  1
  O  O21  1  0.339712  0.899677  0.072609  1
  O  O22  1  0.646680  0.865131  0.680694  1
  O  O23  1  0.353320  0.134869  0.319306  1
  O  O24  1  0.019655  0.125757  0.712688  1
  O  O25  1  0.980345  0.874243  0.287312  1
  O  O26  1  0.047677  0.270427  0.141747  1
  O  O27  1  0.952323  0.729573  0.858253  1
  O  O28  1  0.147052  0.480561  0.753615  1
  O  O29  1  0.852948  0.519439  0.246385  1
  O  O30  1  0.148095  0.273431  0.486984  1
  O  O31  1  0.851905  0.726569  0.513016  1
  O  O32  1  0.260104  0.561859  0.073284  1
  O  O33  1  0.739896  0.438141  0.926716  1
  O  O34  1  0.235602  0.700850  0.462114  1
  O  O35  1  0.764398  0.299150  0.537886  1
