# generated using pymatgen
data_Cs(Nb3Se4)4
_symmetry_space_group_name_H-M   'P 1'
_cell_length_a   7.00463389
_cell_length_b   10.26490441
_cell_length_c   10.84859299
_cell_angle_alpha   118.30983859
_cell_angle_beta   108.97485444
_cell_angle_gamma   89.80727621
_symmetry_Int_Tables_number   1
_chemical_formula_structural   Cs(Nb3Se4)4
_chemical_formula_sum   'Cs1 Nb12 Se16'
_cell_volume   638.67552057
_cell_formula_units_Z   1
loop_
 _symmetry_equiv_pos_site_id
 _symmetry_equiv_pos_as_xyz
  1  'x, y, z'
loop_
 _atom_site_type_symbol
 _atom_site_label
 _atom_site_symmetry_multiplicity
 _atom_site_fract_x
 _atom_site_fract_y
 _atom_site_fract_z
 _atom_site_occupancy
  Cs  Cs0  1  0.500000  0.000000  0.000000  1
  Nb  Nb1  1  0.935968  0.490820  0.107650  1
  Nb  Nb2  1  0.418243  0.484320  0.105795  1
  Nb  Nb3  1  0.120021  0.618506  0.511842  1
  Nb  Nb4  1  0.646166  0.620804  0.513094  1
  Nb  Nb5  1  0.074161  0.892509  0.378637  1
  Nb  Nb6  1  0.557848  0.894549  0.382714  1
  Nb  Nb7  1  0.581757  0.515680  0.894205  1
  Nb  Nb8  1  0.064032  0.509180  0.892350  1
  Nb  Nb9  1  0.353834  0.379196  0.486906  1
  Nb  Nb10  1  0.879979  0.381494  0.488158  1
  Nb  Nb11  1  0.442152  0.105451  0.617286  1
  Nb  Nb12  1  0.925839  0.107491  0.621363  1
  Se  Se13  1  0.516665  0.349554  0.289964  1
  Se  Se14  1  0.012886  0.343896  0.278354  1
  Se  Se15  1  0.705071  0.936460  0.657191  1
  Se  Se16  1  0.197895  0.938425  0.650515  1
  Se  Se17  1  0.402643  0.711025  0.060941  1
  Se  Se18  1  0.908792  0.721191  0.062465  1
  Se  Se19  1  0.987114  0.656104  0.721646  1
  Se  Se20  1  0.483335  0.650446  0.710036  1
  Se  Se21  1  0.802105  0.061575  0.349485  1
  Se  Se22  1  0.294929  0.063540  0.342809  1
  Se  Se23  1  0.091208  0.278809  0.937535  1
  Se  Se24  1  0.597357  0.288975  0.939059  1
  Se  Se25  1  0.705551  0.333398  0.662912  1
  Se  Se26  1  0.209929  0.333381  0.670458  1
  Se  Se27  1  0.790071  0.666619  0.329542  1
  Se  Se28  1  0.294449  0.666602  0.337088  1
