# generated using pymatgen
data_YbU7VS17
_symmetry_space_group_name_H-M   'P 1'
_cell_length_a   7.74618522
_cell_length_b   7.77752556
_cell_length_c   10.32532165
_cell_angle_alpha   80.90544552
_cell_angle_beta   80.54200565
_cell_angle_gamma   64.92384573
_symmetry_Int_Tables_number   1
_chemical_formula_structural   YbU7VS17
_chemical_formula_sum   'Yb1 U7 V1 S17'
_cell_volume   553.04127270
_cell_formula_units_Z   1
loop_
 _symmetry_equiv_pos_site_id
 _symmetry_equiv_pos_as_xyz
  1  'x, y, z'
loop_
 _atom_site_type_symbol
 _atom_site_label
 _atom_site_symmetry_multiplicity
 _atom_site_fract_x
 _atom_site_fract_y
 _atom_site_fract_z
 _atom_site_occupancy
  Yb  Yb0  1  0.810961  0.307813  0.296241  1
  U  U1  1  0.298360  0.821195  0.295335  1
  U  U2  1  0.181141  0.700342  0.701010  1
  U  U3  1  0.700971  0.180921  0.703008  1
  U  U4  1  0.203688  0.203539  0.541785  1
  U  U5  1  0.797749  0.793088  0.456197  1
  U  U6  1  0.684364  0.674864  0.983877  1
  U  U7  1  0.314678  0.322079  0.018850  1
  V  V8  1  0.001767  0.999975  0.000741  1
  S  S9  1  0.824673  0.431896  0.543561  1
  S  S10  1  0.433623  0.818058  0.535373  1
  S  S11  1  0.181889  0.564679  0.463763  1
  S  S12  1  0.570188  0.170885  0.473476  1
  S  S13  1  0.943516  0.322813  0.022353  1
  S  S14  1  0.324443  0.945727  0.026068  1
  S  S15  1  0.054277  0.679296  0.969990  1
  S  S16  1  0.676956  0.060310  0.970580  1
  S  S17  1  0.224289  0.203682  0.278200  1
  S  S18  1  0.786561  0.788271  0.723620  1
  S  S19  1  0.063131  0.057036  0.772350  1
  S  S20  1  0.946157  0.931220  0.228122  1
  S  S21  1  0.301900  0.303559  0.755286  1
  S  S22  1  0.686862  0.712655  0.242791  1
  S  S23  1  0.520399  0.523148  0.829637  1
  S  S24  1  0.463212  0.492471  0.160931  1
  S  S25  1  0.004245  0.990478  0.506856  1
