# generated using pymatgen
data_TbPrZn4Ru
_symmetry_space_group_name_H-M   'P 1'
_cell_length_a   7.04805200
_cell_length_b   7.04805200
_cell_length_c   5.40227400
_cell_angle_alpha   90.00000000
_cell_angle_beta   90.00000000
_cell_angle_gamma   90.00000000
_symmetry_Int_Tables_number   1
_chemical_formula_structural   TbPrZn4Ru
_chemical_formula_sum   'Tb2 Pr2 Zn8 Ru2'
_cell_volume   268.35816081
_cell_formula_units_Z   2
loop_
 _symmetry_equiv_pos_site_id
 _symmetry_equiv_pos_as_xyz
  1  'x, y, z'
loop_
 _atom_site_type_symbol
 _atom_site_label
 _atom_site_symmetry_multiplicity
 _atom_site_fract_x
 _atom_site_fract_y
 _atom_site_fract_z
 _atom_site_occupancy
  Tb  Tb0  1  0.000000  0.000000  0.000000  1
  Tb  Tb1  1  0.500000  0.500000  0.000000  1
  Pr  Pr2  1  0.000000  0.500000  0.775446  1
  Pr  Pr3  1  0.500000  0.000000  0.224554  1
  Zn  Zn4  1  0.186612  0.686612  0.296595  1
  Zn  Zn5  1  0.813388  0.686612  0.296595  1
  Zn  Zn6  1  0.813388  0.313388  0.296595  1
  Zn  Zn7  1  0.313388  0.186612  0.703405  1
  Zn  Zn8  1  0.186612  0.313388  0.296595  1
  Zn  Zn9  1  0.686612  0.186612  0.703405  1
  Zn  Zn10  1  0.686612  0.813388  0.703405  1
  Zn  Zn11  1  0.313388  0.813388  0.703405  1
  Ru  Ru12  1  0.500000  0.500000  0.500000  1
  Ru  Ru13  1  0.000000  0.000000  0.500000  1
