# generated using pymatgen
data_Dy17Tm3(Ir2Rh)4
_symmetry_space_group_name_H-M   'P 1'
_cell_length_a   10.85547900
_cell_length_b   10.85547900
_cell_length_c   6.37647900
_cell_angle_alpha   90.00000000
_cell_angle_beta   90.00000000
_cell_angle_gamma   90.00000000
_symmetry_Int_Tables_number   1
_chemical_formula_structural   Dy17Tm3(Ir2Rh)4
_chemical_formula_sum   'Dy17 Tm3 Ir8 Rh4'
_cell_volume   751.41336750
_cell_formula_units_Z   1
loop_
 _symmetry_equiv_pos_site_id
 _symmetry_equiv_pos_as_xyz
  1  'x, y, z'
loop_
 _atom_site_type_symbol
 _atom_site_label
 _atom_site_symmetry_multiplicity
 _atom_site_fract_x
 _atom_site_fract_y
 _atom_site_fract_z
 _atom_site_occupancy
  Dy  Dy0  1  0.289808  0.088753  0.379918  1
  Dy  Dy1  1  0.289817  0.911125  0.879847  1
  Dy  Dy2  1  0.710183  0.088875  0.879847  1
  Dy  Dy3  1  0.710192  0.911247  0.379918  1
  Dy  Dy4  1  0.588890  0.790034  0.879994  1
  Dy  Dy5  1  0.588962  0.209579  0.379714  1
  Dy  Dy6  1  0.411038  0.790421  0.379714  1
  Dy  Dy7  1  0.411110  0.209966  0.879994  1
  Dy  Dy8  1  0.209579  0.411038  0.620286  1
  Dy  Dy9  1  0.209966  0.588890  0.120006  1
  Dy  Dy10  1  0.790034  0.411110  0.120006  1
  Dy  Dy11  1  0.790421  0.588962  0.620286  1
  Dy  Dy12  1  0.911125  0.710183  0.120153  1
  Dy  Dy13  1  0.911247  0.289808  0.620082  1
  Dy  Dy14  1  0.088753  0.710192  0.620082  1
  Dy  Dy15  1  0.088875  0.289817  0.120153  1
  Dy  Dy16  1  0.500000  0.500000  0.500000  1
  Tm  Tm17  1  0.000000  0.000000  0.500000  1
  Tm  Tm18  1  0.000000  0.000000  0.000000  1
  Tm  Tm19  1  0.500000  0.500000  0.000000  1
  Ir  Ir20  1  0.847577  0.152382  0.250041  1
  Ir  Ir21  1  0.847618  0.847577  0.749959  1
  Ir  Ir22  1  0.152382  0.152423  0.749959  1
  Ir  Ir23  1  0.152423  0.847618  0.250041  1
  Ir  Ir24  1  0.653289  0.346706  0.751242  1
  Ir  Ir25  1  0.653294  0.653289  0.248758  1
  Ir  Ir26  1  0.346706  0.346711  0.248758  1
  Ir  Ir27  1  0.346711  0.653294  0.751242  1
  Rh  Rh28  1  0.500000  0.000000  0.124565  1
  Rh  Rh29  1  0.500000  0.000000  0.624558  1
  Rh  Rh30  1  0.000000  0.500000  0.875435  1
  Rh  Rh31  1  0.000000  0.500000  0.375442  1
