# generated using pymatgen
data_Li4PuNpCl12
_symmetry_space_group_name_H-M   'P 1'
_cell_length_a   6.49389400
_cell_length_b   6.49389335
_cell_length_c   12.57264600
_cell_angle_alpha   90.00000000
_cell_angle_beta   90.00000000
_cell_angle_gamma   119.99999312
_symmetry_Int_Tables_number   1
_chemical_formula_structural   Li4PuNpCl12
_chemical_formula_sum   'Li4 Pu1 Np1 Cl12'
_cell_volume   459.16385831
_cell_formula_units_Z   1
loop_
 _symmetry_equiv_pos_site_id
 _symmetry_equiv_pos_as_xyz
  1  'x, y, z'
loop_
 _atom_site_type_symbol
 _atom_site_label
 _atom_site_symmetry_multiplicity
 _atom_site_fract_x
 _atom_site_fract_y
 _atom_site_fract_z
 _atom_site_occupancy
  Li  Li0  1  0.000000  0.000000  0.750000  1
  Li  Li1  1  0.666667  0.333333  0.750000  1
  Li  Li2  1  0.333333  0.666667  0.250000  1
  Li  Li3  1  0.000000  0.000000  0.250000  1
  Pu  Pu4  1  0.333333  0.666667  0.750000  1
  Np  Np5  1  0.666667  0.333333  0.250000  1
  Cl  Cl6  1  0.998988  0.332215  0.636877  1
  Cl  Cl7  1  0.333228  0.001012  0.636877  1
  Cl  Cl8  1  0.667785  0.666772  0.636877  1
  Cl  Cl9  1  0.667785  0.001012  0.863123  1
  Cl  Cl10  1  0.333228  0.332215  0.863123  1
  Cl  Cl11  1  0.998988  0.666772  0.863123  1
  Cl  Cl12  1  0.003334  0.333244  0.136162  1
  Cl  Cl13  1  0.329908  0.996666  0.136162  1
  Cl  Cl14  1  0.666756  0.670092  0.136162  1
  Cl  Cl15  1  0.666756  0.996666  0.363838  1
  Cl  Cl16  1  0.329908  0.333244  0.363838  1
  Cl  Cl17  1  0.003334  0.670092  0.363838  1
