# generated using pymatgen
data_Tm10SiSn6
_symmetry_space_group_name_H-M   'P 1'
_cell_length_a   8.98077900
_cell_length_b   8.98078119
_cell_length_c   6.47267200
_cell_angle_alpha   90.00000000
_cell_angle_beta   90.00000000
_cell_angle_gamma   119.99999562
_symmetry_Int_Tables_number   1
_chemical_formula_structural   Tm10SiSn6
_chemical_formula_sum   'Tm10 Si1 Sn6'
_cell_volume   452.10819101
_cell_formula_units_Z   1
loop_
 _symmetry_equiv_pos_site_id
 _symmetry_equiv_pos_as_xyz
  1  'x, y, z'
loop_
 _atom_site_type_symbol
 _atom_site_label
 _atom_site_symmetry_multiplicity
 _atom_site_fract_x
 _atom_site_fract_y
 _atom_site_fract_z
 _atom_site_occupancy
  Tm  Tm0  1  0.666667  0.333333  0.500000  1
  Tm  Tm1  1  0.333333  0.666667  0.500000  1
  Tm  Tm2  1  0.333333  0.666667  0.000000  1
  Tm  Tm3  1  0.666667  0.333333  0.000000  1
  Tm  Tm4  1  0.749807  0.749807  0.251083  1
  Tm  Tm5  1  0.250193  0.000000  0.251083  1
  Tm  Tm6  1  0.000000  0.250193  0.251083  1
  Tm  Tm7  1  0.250193  0.250193  0.748917  1
  Tm  Tm8  1  0.749807  0.000000  0.748917  1
  Tm  Tm9  1  0.000000  0.749807  0.748917  1
  Si  Si10  1  0.000000  0.000000  0.500000  1
  Sn  Sn11  1  0.393186  0.393186  0.249966  1
  Sn  Sn12  1  0.606814  0.000000  0.249966  1
  Sn  Sn13  1  0.000000  0.606814  0.249966  1
  Sn  Sn14  1  0.606814  0.606814  0.750034  1
  Sn  Sn15  1  0.393186  0.000000  0.750034  1
  Sn  Sn16  1  0.000000  0.393186  0.750034  1
