# generated using pymatgen
data_Yb3Th(GaIr2)2
_symmetry_space_group_name_H-M   'P 1'
_cell_length_a   5.72753525
_cell_length_b   5.71357113
_cell_length_c   7.76554216
_cell_angle_alpha   102.67066447
_cell_angle_beta   102.54469773
_cell_angle_gamma   58.39939024
_symmetry_Int_Tables_number   1
_chemical_formula_structural   Yb3Th(GaIr2)2
_chemical_formula_sum   'Yb3 Th1 Ga2 Ir4'
_cell_volume   209.56732595
_cell_formula_units_Z   1
loop_
 _symmetry_equiv_pos_site_id
 _symmetry_equiv_pos_as_xyz
  1  'x, y, z'
loop_
 _atom_site_type_symbol
 _atom_site_label
 _atom_site_symmetry_multiplicity
 _atom_site_fract_x
 _atom_site_fract_y
 _atom_site_fract_z
 _atom_site_occupancy
  Yb  Yb0  1  0.499769  0.210427  0.364886  1
  Yb  Yb1  1  0.501560  0.792173  0.643850  1
  Yb  Yb2  1  0.206446  0.500591  0.845559  1
  Th  Th3  1  0.790184  0.498919  0.147513  1
  Ga  Ga4  1  0.118975  0.878877  0.252695  1
  Ga  Ga5  1  0.891643  0.106465  0.746229  1
  Ir  Ir6  1  0.289564  0.995378  0.018958  1
  Ir  Ir7  1  0.002129  0.711584  0.481379  1
  Ir  Ir8  1  0.984322  0.279528  0.507798  1
  Ir  Ir9  1  0.715407  0.026057  0.991132  1
