# generated using pymatgen
data_SmN7
_symmetry_space_group_name_H-M   'P 1'
_cell_length_a   3.44242235
_cell_length_b   3.44707153
_cell_length_c   15.09840473
_cell_angle_alpha   92.56719960
_cell_angle_beta   71.61281190
_cell_angle_gamma   90.02427832
_symmetry_Int_Tables_number   1
_chemical_formula_structural   SmN7
_chemical_formula_sum   'Sm1 N7'
_cell_volume   169.82663164
_cell_formula_units_Z   1
loop_
 _symmetry_equiv_pos_site_id
 _symmetry_equiv_pos_as_xyz
  1  'x, y, z'
loop_
 _atom_site_type_symbol
 _atom_site_label
 _atom_site_symmetry_multiplicity
 _atom_site_fract_x
 _atom_site_fract_y
 _atom_site_fract_z
 _atom_site_occupancy
  Sm  Sm0  1  0.207822  0.229121  0.791190  1
  N  N1  1  0.509783  0.163225  0.607259  1
  N  N2  1  0.025215  0.321489  0.974709  1
  N  N3  1  0.647679  0.134442  0.529449  1
  N  N4  1  0.418757  0.779470  0.335671  1
  N  N5  1  0.704821  0.729030  0.791422  1
  N  N6  1  0.966503  0.371556  0.051609  1
  N  N7  1  0.541230  0.900268  0.265253  1
