# generated using pymatgen
data_Tb3ErAl18(Ir2Pt)2
_symmetry_space_group_name_H-M   'P 1'
_cell_length_a   7.58277818
_cell_length_b   7.57913310
_cell_length_c   9.46202447
_cell_angle_alpha   89.92700581
_cell_angle_beta   89.95008783
_cell_angle_gamma   119.61206072
_symmetry_Int_Tables_number   1
_chemical_formula_structural   Tb3ErAl18(Ir2Pt)2
_chemical_formula_sum   'Tb3 Er1 Al18 Ir4 Pt2'
_cell_volume   472.76580966
_cell_formula_units_Z   1
loop_
 _symmetry_equiv_pos_site_id
 _symmetry_equiv_pos_as_xyz
  1  'x, y, z'
loop_
 _atom_site_type_symbol
 _atom_site_label
 _atom_site_symmetry_multiplicity
 _atom_site_fract_x
 _atom_site_fract_y
 _atom_site_fract_z
 _atom_site_occupancy
  Tb  Tb0  1  0.005104  0.329451  0.749039  1
  Tb  Tb1  1  0.670737  0.994996  0.250943  1
  Tb  Tb2  1  0.329087  0.004612  0.749106  1
  Er  Er3  1  0.994929  0.671279  0.251023  1
  Al  Al4  1  0.127878  0.127532  0.250676  1
  Al  Al5  1  0.872103  0.871747  0.749362  1
  Al  Al6  1  0.000948  0.332268  0.078330  1
  Al  Al7  1  0.998890  0.668343  0.923428  1
  Al  Al8  1  0.999970  0.665078  0.573652  1
  Al  Al9  1  0.334569  0.999569  0.424779  1
  Al  Al10  1  0.000000  0.335760  0.424544  1
  Al  Al11  1  0.665011  0.999886  0.574493  1
  Al  Al12  1  0.668479  0.998794  0.922567  1
  Al  Al13  1  0.330986  0.000366  0.078261  1
  Al  Al14  1  0.332458  0.332396  0.549738  1
  Al  Al15  1  0.667955  0.667587  0.448794  1
  Al  Al16  1  0.669434  0.668967  0.058180  1
  Al  Al17  1  0.331027  0.330934  0.943360  1
  Al  Al18  1  0.340134  0.547454  0.253024  1
  Al  Al19  1  0.659409  0.452676  0.746863  1
  Al  Al20  1  0.548105  0.341469  0.253046  1
  Al  Al21  1  0.452854  0.659073  0.746830  1
  Ir  Ir22  1  0.328025  0.671890  0.499667  1
  Ir  Ir23  1  0.672178  0.328336  0.499644  1
  Ir  Ir24  1  0.999812  0.999721  0.000478  1
  Ir  Ir25  1  0.999801  0.999764  0.499576  1
  Pt  Pt26  1  0.672266  0.327954  0.000343  1
  Pt  Pt27  1  0.327850  0.672101  0.000254  1
