# generated using pymatgen
data_U14PPt19
_symmetry_space_group_name_H-M   'P 1'
_cell_length_a   8.53990772
_cell_length_b   8.53028538
_cell_length_c   10.00242883
_cell_angle_alpha   89.74634487
_cell_angle_beta   90.50500079
_cell_angle_gamma   108.16190395
_symmetry_Int_Tables_number   1
_chemical_formula_structural   U14PPt19
_chemical_formula_sum   'U14 P1 Pt19'
_cell_volume   692.32549196
_cell_formula_units_Z   1
loop_
 _symmetry_equiv_pos_site_id
 _symmetry_equiv_pos_as_xyz
  1  'x, y, z'
loop_
 _atom_site_type_symbol
 _atom_site_label
 _atom_site_symmetry_multiplicity
 _atom_site_fract_x
 _atom_site_fract_y
 _atom_site_fract_z
 _atom_site_occupancy
  U  U0  1  0.690059  0.305597  0.007487  1
  U  U1  1  0.311885  0.688646  0.002986  1
  U  U2  1  0.805790  0.192448  0.496502  1
  U  U3  1  0.184131  0.814544  0.495712  1
  U  U4  1  0.996264  0.999448  0.007182  1
  U  U5  1  0.496439  0.501669  0.506885  1
  U  U6  1  0.991528  0.489966  0.249149  1
  U  U7  1  0.000640  0.500027  0.750014  1
  U  U8  1  0.489592  0.007580  0.750801  1
  U  U9  1  0.530976  0.000545  0.246003  1
  U  U10  1  0.313850  0.312645  0.188611  1
  U  U11  1  0.690375  0.688833  0.804164  1
  U  U12  1  0.181707  0.186179  0.689422  1
  U  U13  1  0.805578  0.803288  0.306080  1
  P  P14  1  0.892257  0.138559  0.230409  1
  Pt  Pt15  1  0.140699  0.858312  0.789738  1
  Pt  Pt16  1  0.650215  0.358472  0.711861  1
  Pt  Pt17  1  0.635804  0.361343  0.293885  1
  Pt  Pt18  1  0.353056  0.642320  0.291034  1
  Pt  Pt19  1  0.355681  0.650100  0.713913  1
  Pt  Pt20  1  0.854988  0.147738  0.789091  1
  Pt  Pt21  1  0.146022  0.848889  0.210948  1
  Pt  Pt22  1  0.934079  0.643979  0.996327  1
  Pt  Pt23  1  0.067292  0.356476  0.999523  1
  Pt  Pt24  1  0.561976  0.855496  0.501673  1
  Pt  Pt25  1  0.144026  0.439263  0.504120  1
  Pt  Pt26  1  0.430073  0.144753  0.498058  1
  Pt  Pt27  1  0.852992  0.567422  0.498659  1
  Pt  Pt28  1  0.350707  0.064446  0.008849  1
  Pt  Pt29  1  0.646221  0.931266  0.988149  1
  Pt  Pt30  1  0.105972  0.111017  0.392540  1
  Pt  Pt31  1  0.893943  0.900929  0.598114  1
  Pt  Pt32  1  0.393304  0.386213  0.887423  1
  Pt  Pt33  1  0.601879  0.601592  0.094688  1
