# generated using pymatgen
data_Ac20Sn15Pb
_symmetry_space_group_name_H-M   'P 1'
_cell_length_a   8.87464718
_cell_length_b   8.95386330
_cell_length_c   16.98558400
_cell_angle_alpha   89.99751079
_cell_angle_beta   90.08677027
_cell_angle_gamma   89.89764541
_symmetry_Int_Tables_number   1
_chemical_formula_structural   Ac20Sn15Pb
_chemical_formula_sum   'Ac20 Sn15 Pb1'
_cell_volume   1349.71118718
_cell_formula_units_Z   1
loop_
 _symmetry_equiv_pos_site_id
 _symmetry_equiv_pos_as_xyz
  1  'x, y, z'
loop_
 _atom_site_type_symbol
 _atom_site_label
 _atom_site_symmetry_multiplicity
 _atom_site_fract_x
 _atom_site_fract_y
 _atom_site_fract_z
 _atom_site_occupancy
  Ac  Ac0  1  0.378924  0.840738  0.882840  1
  Ac  Ac1  1  0.877545  0.658693  0.617111  1
  Ac  Ac2  1  0.622154  0.158088  0.383235  1
  Ac  Ac3  1  0.123547  0.341460  0.117113  1
  Ac  Ac4  1  0.621302  0.156416  0.117326  1
  Ac  Ac5  1  0.122853  0.341421  0.383211  1
  Ac  Ac6  1  0.377984  0.841467  0.616983  1
  Ac  Ac7  1  0.878552  0.659842  0.881862  1
  Ac  Ac8  1  0.526865  0.320839  0.898752  1
  Ac  Ac9  1  0.027860  0.178352  0.599747  1
  Ac  Ac10  1  0.471895  0.677938  0.400292  1
  Ac  Ac11  1  0.971645  0.824360  0.100436  1
  Ac  Ac12  1  0.468488  0.679095  0.100730  1
  Ac  Ac13  1  0.972147  0.822176  0.400582  1
  Ac  Ac14  1  0.527975  0.321842  0.599998  1
  Ac  Ac15  1  0.029841  0.177014  0.899297  1
  Ac  Ac16  1  0.211534  0.500691  0.749757  1
  Ac  Ac17  1  0.711588  0.999724  0.749934  1
  Ac  Ac18  1  0.788886  0.499483  0.251334  1
  Ac  Ac19  1  0.288228  0.000565  0.250375  1
  Sn  Sn20  1  0.281548  0.033236  0.044159  1
  Sn  Sn21  1  0.781947  0.465680  0.456102  1
  Sn  Sn22  1  0.718193  0.966692  0.544436  1
  Sn  Sn23  1  0.218374  0.533106  0.955463  1
  Sn  Sn24  1  0.718919  0.967418  0.955468  1
  Sn  Sn25  1  0.218146  0.533874  0.544226  1
  Sn  Sn26  1  0.282074  0.033475  0.455815  1
  Sn  Sn27  1  0.582466  0.611707  0.749769  1
  Sn  Sn28  1  0.082155  0.886524  0.749761  1
  Sn  Sn29  1  0.418039  0.388206  0.250072  1
  Sn  Sn30  1  0.918087  0.113913  0.250252  1
  Sn  Sn31  1  0.331140  0.139494  0.749490  1
  Sn  Sn32  1  0.831372  0.360817  0.749776  1
  Sn  Sn33  1  0.668850  0.859600  0.250410  1
  Sn  Sn34  1  0.168305  0.639463  0.250272  1
  Pb  Pb35  1  0.780579  0.466590  0.043618  1
