# generated using pymatgen
data_Dy4HoCo2Au
_symmetry_space_group_name_H-M   'P 1'
_cell_length_a   8.47391725
_cell_length_b   8.47391695
_cell_length_c   8.47985373
_cell_angle_alpha   127.85793669
_cell_angle_beta   127.85793327
_cell_angle_gamma   76.80400935
_symmetry_Int_Tables_number   1
_chemical_formula_structural   Dy4HoCo2Au
_chemical_formula_sum   'Dy8 Ho2 Co4 Au2'
_cell_volume   368.67084554
_cell_formula_units_Z   2
loop_
 _symmetry_equiv_pos_site_id
 _symmetry_equiv_pos_as_xyz
  1  'x, y, z'
loop_
 _atom_site_type_symbol
 _atom_site_label
 _atom_site_symmetry_multiplicity
 _atom_site_fract_x
 _atom_site_fract_y
 _atom_site_fract_z
 _atom_site_occupancy
  Dy  Dy0  1  0.698185  0.529941  0.499999  1
  Dy  Dy1  1  0.470104  0.970104  0.168354  1
  Dy  Dy2  1  0.801749  0.301749  0.831633  1
  Dy  Dy3  1  0.529896  0.029896  0.831646  1
  Dy  Dy4  1  0.029941  0.198185  0.499999  1
  Dy  Dy5  1  0.301815  0.470059  0.500001  1
  Dy  Dy6  1  0.198251  0.698251  0.168367  1
  Dy  Dy7  1  0.970059  0.801815  0.500001  1
  Ho  Ho8  1  0.000000  0.000000  0.000000  1
  Ho  Ho9  1  0.500000  0.500000  0.000000  1
  Co  Co10  1  0.127142  0.627142  0.754284  1
  Co  Co11  1  0.872858  0.372858  0.245716  1
  Co  Co12  1  0.627267  0.872733  0.500000  1
  Co  Co13  1  0.372733  0.127267  0.500000  1
  Au  Au14  1  0.249999  0.250001  0.000000  1
  Au  Au15  1  0.750001  0.749999  0.000000  1
