# generated using pymatgen
data_Dy3Tm5Cd2RuPt
_symmetry_space_group_name_H-M   'P 1'
_cell_length_a   9.57028931
_cell_length_b   9.57028948
_cell_length_c   9.60709700
_cell_angle_alpha   59.87268948
_cell_angle_beta   59.87268889
_cell_angle_gamma   59.77704612
_symmetry_Int_Tables_number   1
_chemical_formula_structural   Dy3Tm5Cd2RuPt
_chemical_formula_sum   'Dy6 Tm10 Cd4 Ru2 Pt2'
_cell_volume   619.94707628
_cell_formula_units_Z   2
loop_
 _symmetry_equiv_pos_site_id
 _symmetry_equiv_pos_as_xyz
  1  'x, y, z'
loop_
 _atom_site_type_symbol
 _atom_site_label
 _atom_site_symmetry_multiplicity
 _atom_site_fract_x
 _atom_site_fract_y
 _atom_site_fract_z
 _atom_site_occupancy
  Dy  Dy0  1  0.937922  0.558774  0.565565  1
  Dy  Dy1  1  0.558774  0.937922  0.937739  1
  Dy  Dy2  1  0.558774  0.937922  0.565565  1
  Dy  Dy3  1  0.937922  0.558773  0.937739  1
  Dy  Dy4  1  0.563237  0.563237  0.936763  1
  Dy  Dy5  1  0.939003  0.939003  0.560996  1
  Tm  Tm6  1  0.349031  0.349031  0.351993  1
  Tm  Tm7  1  0.349031  0.349031  0.949946  1
  Tm  Tm8  1  0.346389  0.954418  0.349598  1
  Tm  Tm9  1  0.954418  0.346389  0.349598  1
  Tm  Tm10  1  0.815983  0.187295  0.188913  1
  Tm  Tm11  1  0.187295  0.815983  0.807810  1
  Tm  Tm12  1  0.187295  0.815983  0.188913  1
  Tm  Tm13  1  0.815983  0.187295  0.807810  1
  Tm  Tm14  1  0.187112  0.187112  0.812888  1
  Tm  Tm15  1  0.809585  0.809585  0.190415  1
  Cd  Cd16  1  0.579838  0.579838  0.581303  1
  Cd  Cd17  1  0.579838  0.579838  0.259020  1
  Cd  Cd18  1  0.580851  0.256038  0.581555  1
  Cd  Cd19  1  0.256038  0.580851  0.581555  1
  Ru  Ru20  1  0.143873  0.143873  0.139065  1
  Ru  Ru21  1  0.143873  0.143873  0.573190  1
  Pt  Pt22  1  0.143853  0.574085  0.141031  1
  Pt  Pt23  1  0.574085  0.143853  0.141031  1
