# generated using pymatgen
data_Dy17Er3Si15Ag
_symmetry_space_group_name_H-M   'P 1'
_cell_length_a   7.44471408
_cell_length_b   7.68532206
_cell_length_c   14.64222415
_cell_angle_alpha   89.81366712
_cell_angle_beta   89.39974271
_cell_angle_gamma   90.17563808
_symmetry_Int_Tables_number   1
_chemical_formula_structural   Dy17Er3Si15Ag
_chemical_formula_sum   'Dy17 Er3 Si15 Ag1'
_cell_volume   837.70079773
_cell_formula_units_Z   1
loop_
 _symmetry_equiv_pos_site_id
 _symmetry_equiv_pos_as_xyz
  1  'x, y, z'
loop_
 _atom_site_type_symbol
 _atom_site_label
 _atom_site_symmetry_multiplicity
 _atom_site_fract_x
 _atom_site_fract_y
 _atom_site_fract_z
 _atom_site_occupancy
  Dy  Dy0  1  0.349896  0.011354  0.750064  1
  Dy  Dy1  1  0.976144  0.822978  0.101493  1
  Dy  Dy2  1  0.471462  0.683751  0.401113  1
  Dy  Dy3  1  0.520815  0.315076  0.898636  1
  Dy  Dy4  1  0.029956  0.182440  0.598568  1
  Dy  Dy5  1  0.029528  0.176475  0.899682  1
  Dy  Dy6  1  0.529812  0.316447  0.598395  1
  Dy  Dy7  1  0.473860  0.682816  0.101007  1
  Dy  Dy8  1  0.969428  0.816894  0.400043  1
  Dy  Dy9  1  0.675661  0.825195  0.876162  1
  Dy  Dy10  1  0.181660  0.679999  0.621549  1
  Dy  Dy11  1  0.820349  0.324773  0.124459  1
  Dy  Dy12  1  0.317536  0.177990  0.377163  1
  Dy  Dy13  1  0.323054  0.178728  0.123787  1
  Dy  Dy14  1  0.819305  0.320870  0.377294  1
  Dy  Dy15  1  0.181606  0.675188  0.877775  1
  Dy  Dy16  1  0.682001  0.821023  0.622189  1
  Er  Er17  1  0.648476  0.991282  0.249884  1
  Er  Er18  1  0.150310  0.511200  0.248195  1
  Er  Er19  1  0.848189  0.488515  0.749259  1
  Si  Si20  1  0.767010  0.630149  0.251885  1
  Si  Si21  1  0.267567  0.871862  0.251438  1
  Si  Si22  1  0.734287  0.126701  0.748466  1
  Si  Si23  1  0.230089  0.373313  0.747273  1
  Si  Si24  1  0.021024  0.104713  0.250641  1
  Si  Si25  1  0.522669  0.396664  0.252459  1
  Si  Si26  1  0.476037  0.603797  0.747935  1
  Si  Si27  1  0.977092  0.891975  0.748282  1
  Si  Si28  1  0.355214  0.971804  0.540324  1
  Si  Si29  1  0.651134  0.028976  0.041647  1
  Si  Si30  1  0.146468  0.470621  0.459654  1
  Si  Si31  1  0.158029  0.471501  0.043089  1
  Si  Si32  1  0.645264  0.028244  0.458637  1
  Si  Si33  1  0.350821  0.968683  0.961539  1
  Si  Si34  1  0.855291  0.529326  0.539439  1
  Ag  Ag35  1  0.842952  0.528674  0.960574  1
