# generated using pymatgen
data_K2(TaBr3)3
_symmetry_space_group_name_H-M   'P 1'
_cell_length_a   10.36475712
_cell_length_b   10.36475765
_cell_length_c   10.25595512
_cell_angle_alpha   77.55281901
_cell_angle_beta   77.55282237
_cell_angle_gamma   117.63822576
_symmetry_Int_Tables_number   1
_chemical_formula_structural   K2(TaBr3)3
_chemical_formula_sum   'K4 Ta6 Br18'
_cell_volume   887.45682445
_cell_formula_units_Z   2
loop_
 _symmetry_equiv_pos_site_id
 _symmetry_equiv_pos_as_xyz
  1  'x, y, z'
loop_
 _atom_site_type_symbol
 _atom_site_label
 _atom_site_symmetry_multiplicity
 _atom_site_fract_x
 _atom_site_fract_y
 _atom_site_fract_z
 _atom_site_occupancy
  K  K0  1  0.270971  0.949547  0.167635  1
  K  K1  1  0.050453  0.729029  0.832365  1
  K  K2  1  0.729029  0.050453  0.832365  1
  K  K3  1  0.949547  0.270971  0.167635  1
  Ta  Ta4  1  0.543953  0.709147  0.367964  1
  Ta  Ta5  1  0.290853  0.456047  0.632036  1
  Ta  Ta6  1  0.456047  0.290853  0.632036  1
  Ta  Ta7  1  0.709147  0.543953  0.367964  1
  Ta  Ta8  1  0.385490  0.385490  0.378549  1
  Ta  Ta9  1  0.614510  0.614510  0.621451  1
  Br  Br10  1  0.999789  0.393969  0.819375  1
  Br  Br11  1  0.606031  0.000211  0.180625  1
  Br  Br12  1  0.182759  0.182759  0.827401  1
  Br  Br13  1  0.817241  0.817241  0.172599  1
  Br  Br14  1  0.381027  0.585829  0.814029  1
  Br  Br15  1  0.414171  0.618973  0.185971  1
  Br  Br16  1  0.618973  0.414171  0.185971  1
  Br  Br17  1  0.585829  0.381027  0.814029  1
  Br  Br18  1  0.694810  0.902295  0.486731  1
  Br  Br19  1  0.097705  0.305190  0.513269  1
  Br  Br20  1  0.305190  0.097705  0.513269  1
  Br  Br21  1  0.902295  0.694810  0.486731  1
  Br  Br22  1  0.706059  0.293941  0.500000  1
  Br  Br23  1  0.293941  0.706059  0.500000  1
  Br  Br24  1  0.229325  0.229325  0.213825  1
  Br  Br25  1  0.770675  0.770675  0.786175  1
  Br  Br26  1  0.393969  0.999789  0.819375  1
  Br  Br27  1  0.000211  0.606031  0.180625  1
