# generated using pymatgen
data_Cs12Na8Nd(TiSb4)3
_symmetry_space_group_name_H-M   'P 1'
_cell_length_a   11.85683098
_cell_length_b   11.85683056
_cell_length_c   17.57021083
_cell_angle_alpha   90.08058680
_cell_angle_beta   90.08058696
_cell_angle_gamma   143.02989556
_symmetry_Int_Tables_number   1
_chemical_formula_structural   Cs12Na8Nd(TiSb4)3
_chemical_formula_sum   'Cs12 Na8 Nd1 Ti3 Sb12'
_cell_volume   1485.49806134
_cell_formula_units_Z   1
loop_
 _symmetry_equiv_pos_site_id
 _symmetry_equiv_pos_as_xyz
  1  'x, y, z'
loop_
 _atom_site_type_symbol
 _atom_site_label
 _atom_site_symmetry_multiplicity
 _atom_site_fract_x
 _atom_site_fract_y
 _atom_site_fract_z
 _atom_site_occupancy
  Cs  Cs0  1  0.943030  0.606505  0.829539  1
  Cs  Cs1  1  0.553962  0.892294  0.327050  1
  Cs  Cs2  1  0.393495  0.056970  0.170461  1
  Cs  Cs3  1  0.056816  0.393063  0.171854  1
  Cs  Cs4  1  0.897331  0.561190  0.325939  1
  Cs  Cs5  1  0.438810  0.102669  0.674061  1
  Cs  Cs6  1  0.606937  0.943184  0.828146  1
  Cs  Cs7  1  0.279215  0.277929  0.319476  1
  Cs  Cs8  1  0.778452  0.778745  0.179132  1
  Cs  Cs9  1  0.221255  0.221548  0.820868  1
  Cs  Cs10  1  0.722071  0.720785  0.680524  1
  Cs  Cs11  1  0.107706  0.446038  0.672950  1
  Na  Na12  1  0.919894  0.080106  0.000000  1
  Na  Na13  1  0.581227  0.418773  0.500000  1
  Na  Na14  1  0.080061  0.919939  0.000000  1
  Na  Na15  1  0.418555  0.581445  0.500000  1
  Na  Na16  1  0.754022  0.245978  0.000000  1
  Na  Na17  1  0.745796  0.254204  0.500000  1
  Na  Na18  1  0.246076  0.753924  0.000000  1
  Na  Na19  1  0.254160  0.745840  0.500000  1
  Nd  Nd20  1  0.086542  0.913458  0.500000  1
  Ti  Ti21  1  0.584541  0.415459  0.000000  1
  Ti  Ti22  1  0.915029  0.084971  0.500000  1
  Ti  Ti23  1  0.415463  0.584537  0.000000  1
  Sb  Sb24  1  0.865007  0.556522  0.089143  1
  Sb  Sb25  1  0.443478  0.134993  0.910857  1
  Sb  Sb26  1  0.637913  0.945969  0.589870  1
  Sb  Sb27  1  0.925763  0.598189  0.602514  1
  Sb  Sb28  1  0.134729  0.443162  0.910948  1
  Sb  Sb29  1  0.556838  0.865271  0.089052  1
  Sb  Sb30  1  0.401811  0.074237  0.397486  1
  Sb  Sb31  1  0.200302  0.220207  0.590040  1
  Sb  Sb32  1  0.691987  0.692098  0.919062  1
  Sb  Sb33  1  0.307902  0.308013  0.080938  1
  Sb  Sb34  1  0.054031  0.362087  0.410130  1
  Sb  Sb35  1  0.779793  0.799698  0.409960  1
