# generated using pymatgen
data_Ta5Nb3CuNi3N2
_symmetry_space_group_name_H-M   'P 1'
_cell_length_a   8.23598458
_cell_length_b   8.23598461
_cell_length_c   8.23153600
_cell_angle_alpha   60.01785814
_cell_angle_beta   60.01785801
_cell_angle_gamma   60.06199099
_symmetry_Int_Tables_number   1
_chemical_formula_structural   Ta5Nb3CuNi3N2
_chemical_formula_sum   'Ta10 Nb6 Cu2 Ni6 N4'
_cell_volume   395.10931755
_cell_formula_units_Z   2
loop_
 _symmetry_equiv_pos_site_id
 _symmetry_equiv_pos_as_xyz
  1  'x, y, z'
loop_
 _atom_site_type_symbol
 _atom_site_label
 _atom_site_symmetry_multiplicity
 _atom_site_fract_x
 _atom_site_fract_y
 _atom_site_fract_z
 _atom_site_occupancy
  Ta  Ta0  1  0.123372  0.622026  0.627301  1
  Ta  Ta1  1  0.622026  0.123372  0.627301  1
  Ta  Ta2  1  0.624310  0.624310  0.121012  1
  Ta  Ta3  1  0.624310  0.624310  0.630367  1
  Ta  Ta4  1  0.433413  0.433413  0.066587  1
  Ta  Ta5  1  0.065323  0.065323  0.434677  1
  Ta  Ta6  1  0.433815  0.067527  0.434204  1
  Ta  Ta7  1  0.067527  0.433815  0.064454  1
  Ta  Ta8  1  0.067527  0.433815  0.434204  1
  Ta  Ta9  1  0.433815  0.067527  0.064454  1
  Nb  Nb10  1  0.816731  0.816731  0.183269  1
  Nb  Nb11  1  0.182420  0.182420  0.817580  1
  Nb  Nb12  1  0.817341  0.182843  0.816698  1
  Nb  Nb13  1  0.182843  0.817341  0.183118  1
  Nb  Nb14  1  0.182843  0.817341  0.816698  1
  Nb  Nb15  1  0.817341  0.182843  0.183118  1
  Cu  Cu16  1  0.748619  0.417569  0.416906  1
  Cu  Cu17  1  0.417569  0.748619  0.416906  1
  Ni  Ni18  1  0.419835  0.419835  0.741265  1
  Ni  Ni19  1  0.419835  0.419835  0.419064  1
  Ni  Ni20  1  0.511760  0.829264  0.829488  1
  Ni  Ni21  1  0.829264  0.511760  0.829488  1
  Ni  Ni22  1  0.829244  0.829244  0.512000  1
  Ni  Ni23  1  0.829244  0.829244  0.829513  1
  N  N24  1  0.618700  0.126860  0.127220  1
  N  N25  1  0.126860  0.618700  0.127220  1
  N  N26  1  0.127056  0.127056  0.618631  1
  N  N27  1  0.127056  0.127056  0.127258  1
