# generated using pymatgen
data_Nd9Ho(Ga2Sn)2
_symmetry_space_group_name_H-M   'P 1'
_cell_length_a   9.11526043
_cell_length_b   9.11526028
_cell_length_c   9.11526013
_cell_angle_alpha   127.34001069
_cell_angle_beta   127.34001764
_cell_angle_gamma   77.69664669
_symmetry_Int_Tables_number   1
_chemical_formula_structural   Nd9Ho(Ga2Sn)2
_chemical_formula_sum   'Nd9 Ho1 Ga4 Sn2'
_cell_volume   464.15677721
_cell_formula_units_Z   1
loop_
 _symmetry_equiv_pos_site_id
 _symmetry_equiv_pos_as_xyz
  1  'x, y, z'
loop_
 _atom_site_type_symbol
 _atom_site_label
 _atom_site_symmetry_multiplicity
 _atom_site_fract_x
 _atom_site_fract_y
 _atom_site_fract_z
 _atom_site_occupancy
  Nd  Nd0  1  0.500000  0.500000  0.000000  1
  Nd  Nd1  1  0.524643  0.023803  0.838643  1
  Nd  Nd2  1  0.185158  0.685998  0.161357  1
  Nd  Nd3  1  0.023803  0.185158  0.499160  1
  Nd  Nd4  1  0.685998  0.524643  0.500840  1
  Nd  Nd5  1  0.475357  0.976197  0.161357  1
  Nd  Nd6  1  0.814842  0.314002  0.838643  1
  Nd  Nd7  1  0.976197  0.814842  0.500840  1
  Nd  Nd8  1  0.314002  0.475357  0.499160  1
  Ho  Ho9  1  0.000000  0.000000  0.000000  1
  Ga  Ga10  1  0.879964  0.374567  0.254530  1
  Ga  Ga11  1  0.120036  0.625433  0.745470  1
  Ga  Ga12  1  0.374567  0.120036  0.494603  1
  Ga  Ga13  1  0.625433  0.879964  0.505397  1
  Sn  Sn14  1  0.248710  0.248710  0.000000  1
  Sn  Sn15  1  0.751290  0.751290  0.000000  1
