# generated using pymatgen
data_Tm2Pa2Zn4IrRh3
_symmetry_space_group_name_H-M   'P 1'
_cell_length_a   3.81139900
_cell_length_b   7.11415079
_cell_length_c   8.38765711
_cell_angle_alpha   91.48645723
_cell_angle_beta   90.00000000
_cell_angle_gamma   90.00000000
_symmetry_Int_Tables_number   1
_chemical_formula_structural   Tm2Pa2Zn4IrRh3
_chemical_formula_sum   'Tm2 Pa2 Zn4 Ir1 Rh3'
_cell_volume   227.35367492
_cell_formula_units_Z   1
loop_
 _symmetry_equiv_pos_site_id
 _symmetry_equiv_pos_as_xyz
  1  'x, y, z'
loop_
 _atom_site_type_symbol
 _atom_site_label
 _atom_site_symmetry_multiplicity
 _atom_site_fract_x
 _atom_site_fract_y
 _atom_site_fract_z
 _atom_site_occupancy
  Tm  Tm0  1  0.750000  0.940417  0.685011  1
  Tm  Tm1  1  0.250000  0.057240  0.316369  1
  Pa  Pa2  1  0.250000  0.554058  0.189397  1
  Pa  Pa3  1  0.750000  0.446715  0.809889  1
  Zn  Zn4  1  0.250000  0.630366  0.558228  1
  Zn  Zn5  1  0.750000  0.367828  0.441061  1
  Zn  Zn6  1  0.750000  0.886030  0.062912  1
  Zn  Zn7  1  0.250000  0.115335  0.938787  1
  Ir  Ir8  1  0.250000  0.720907  0.876726  1
  Rh  Rh9  1  0.750000  0.282850  0.122066  1
  Rh  Rh10  1  0.750000  0.750389  0.359194  1
  Rh  Rh11  1  0.250000  0.247865  0.640358  1
