# generated using pymatgen
data_Ho2Zn2CoNi5B2
_symmetry_space_group_name_H-M   'P 1'
_cell_length_a   5.09997000
_cell_length_b   5.12643979
_cell_length_c   6.82925000
_cell_angle_alpha   90.00000000
_cell_angle_beta   90.00000000
_cell_angle_gamma   119.82934304
_symmetry_Int_Tables_number   1
_chemical_formula_structural   Ho2Zn2CoNi5B2
_chemical_formula_sum   'Ho2 Zn2 Co1 Ni5 B2'
_cell_volume   154.89285875
_cell_formula_units_Z   1
loop_
 _symmetry_equiv_pos_site_id
 _symmetry_equiv_pos_as_xyz
  1  'x, y, z'
loop_
 _atom_site_type_symbol
 _atom_site_label
 _atom_site_symmetry_multiplicity
 _atom_site_fract_x
 _atom_site_fract_y
 _atom_site_fract_z
 _atom_site_occupancy
  Ho  Ho0  1  0.000000  0.000000  0.493076  1
  Ho  Ho1  1  0.000000  0.000000  0.999682  1
  Zn  Zn2  1  0.665600  0.331198  0.500256  1
  Zn  Zn3  1  0.334400  0.668802  0.500256  1
  Co  Co4  1  0.500000  0.000000  0.199985  1
  Ni  Ni5  1  0.500000  0.500000  0.799183  1
  Ni  Ni6  1  0.500000  0.000000  0.797800  1
  Ni  Ni7  1  0.000000  0.500000  0.799183  1
  Ni  Ni8  1  0.500000  0.500000  0.202818  1
  Ni  Ni9  1  0.000000  0.500000  0.202818  1
  B  B10  1  0.663216  0.326431  0.002472  1
  B  B11  1  0.336784  0.673569  0.002472  1
