# generated using pymatgen
data_Rb4Tm3Zr5S16
_symmetry_space_group_name_H-M   'P 1'
_cell_length_a   6.49837861
_cell_length_b   7.48032500
_cell_length_c   16.16755500
_cell_angle_alpha   90.00000000
_cell_angle_beta   90.07527901
_cell_angle_gamma   90.00000000
_symmetry_Int_Tables_number   1
_chemical_formula_structural   Rb4Tm3Zr5S16
_chemical_formula_sum   'Rb4 Tm3 Zr5 S16'
_cell_volume   785.90391101
_cell_formula_units_Z   1
loop_
 _symmetry_equiv_pos_site_id
 _symmetry_equiv_pos_as_xyz
  1  'x, y, z'
loop_
 _atom_site_type_symbol
 _atom_site_label
 _atom_site_symmetry_multiplicity
 _atom_site_fract_x
 _atom_site_fract_y
 _atom_site_fract_z
 _atom_site_occupancy
  Rb  Rb0  1  0.347098  0.000000  0.000641  1
  Rb  Rb1  1  0.649266  0.500000  0.499287  1
  Rb  Rb2  1  0.028030  0.000000  0.498771  1
  Rb  Rb3  1  0.972058  0.500000  0.001786  1
  Tm  Tm4  1  0.001165  0.000000  0.247291  1
  Tm  Tm5  1  0.001146  0.000000  0.752479  1
  Tm  Tm6  1  0.998673  0.500000  0.252706  1
  Zr  Zr7  1  0.999517  0.500000  0.747910  1
  Zr  Zr8  1  0.499970  0.249982  0.249997  1
  Zr  Zr9  1  0.499698  0.750607  0.749946  1
  Zr  Zr10  1  0.499970  0.750018  0.249997  1
  Zr  Zr11  1  0.499698  0.249393  0.749946  1
  S  S12  1  0.821570  0.247006  0.343231  1
  S  S13  1  0.829076  0.744407  0.657617  1
  S  S14  1  0.178316  0.747027  0.156836  1
  S  S15  1  0.172739  0.260266  0.842524  1
  S  S16  1  0.178316  0.252973  0.156836  1
  S  S17  1  0.172739  0.739734  0.842524  1
  S  S18  1  0.821570  0.752994  0.343231  1
  S  S19  1  0.829076  0.255593  0.657617  1
  S  S20  1  0.657961  0.000000  0.158540  1
  S  S21  1  0.658246  0.000000  0.841875  1
  S  S22  1  0.341758  0.500000  0.341394  1
  S  S23  1  0.330100  0.500000  0.659428  1
  S  S24  1  0.343558  0.000000  0.340411  1
  S  S25  1  0.344112  0.000000  0.658701  1
  S  S26  1  0.656262  0.500000  0.159645  1
  S  S27  1  0.668311  0.500000  0.838836  1
