# generated using pymatgen
data_Se(S8I)3
_symmetry_space_group_name_H-M   'P 1'
_cell_length_a   15.25573461
_cell_length_b   15.25573466
_cell_length_c   15.25573419
_cell_angle_alpha   118.80645296
_cell_angle_beta   118.80645516
_cell_angle_gamma   118.80645171
_symmetry_Int_Tables_number   1
_chemical_formula_structural   Se(S8I)3
_chemical_formula_sum   'Se1 S24 I3'
_cell_volume   1002.37276100
_cell_formula_units_Z   1
loop_
 _symmetry_equiv_pos_site_id
 _symmetry_equiv_pos_as_xyz
  1  'x, y, z'
loop_
 _atom_site_type_symbol
 _atom_site_label
 _atom_site_symmetry_multiplicity
 _atom_site_fract_x
 _atom_site_fract_y
 _atom_site_fract_z
 _atom_site_occupancy
  Se  Se0  1  0.159318  0.159318  0.159318  1
  S  S1  1  0.014882  0.609630  0.609630  1
  S  S2  1  0.609630  0.609630  0.014882  1
  S  S3  1  0.609630  0.014882  0.609630  1
  S  S4  1  0.234756  0.844576  0.716714  1
  S  S5  1  0.844576  0.716714  0.234756  1
  S  S6  1  0.716714  0.234756  0.844576  1
  S  S7  1  0.844576  0.234756  0.716714  1
  S  S8  1  0.234756  0.716714  0.844576  1
  S  S9  1  0.716714  0.844576  0.234756  1
  S  S10  1  0.099986  0.628129  0.447636  1
  S  S11  1  0.628129  0.447636  0.099986  1
  S  S12  1  0.447636  0.099986  0.628129  1
  S  S13  1  0.628129  0.099986  0.447636  1
  S  S14  1  0.099986  0.447636  0.628129  1
  S  S15  1  0.447636  0.628129  0.099986  1
  S  S16  1  0.357760  0.746481  0.618751  1
  S  S17  1  0.746481  0.618751  0.357760  1
  S  S18  1  0.618751  0.357760  0.746481  1
  S  S19  1  0.746481  0.357760  0.618751  1
  S  S20  1  0.357760  0.618751  0.746481  1
  S  S21  1  0.618751  0.746481  0.357760  1
  S  S22  1  0.188274  0.469337  0.469337  1
  S  S23  1  0.469337  0.469337  0.188274  1
  S  S24  1  0.469337  0.188274  0.469337  1
  I  I25  1  0.159592  0.988761  0.988761  1
  I  I26  1  0.988761  0.988761  0.159592  1
  I  I27  1  0.988761  0.159592  0.988761  1
