# generated using pymatgen
data_Tb2Y2MnV3B16
_symmetry_space_group_name_H-M   'P 1'
_cell_length_a   3.45727700
_cell_length_b   5.98460049
_cell_length_c   11.58117708
_cell_angle_alpha   89.90905607
_cell_angle_beta   90.00000000
_cell_angle_gamma   90.00000000
_symmetry_Int_Tables_number   1
_chemical_formula_structural   Tb2Y2MnV3B16
_chemical_formula_sum   'Tb2 Y2 Mn1 V3 B16'
_cell_volume   239.61913488
_cell_formula_units_Z   1
loop_
 _symmetry_equiv_pos_site_id
 _symmetry_equiv_pos_as_xyz
  1  'x, y, z'
loop_
 _atom_site_type_symbol
 _atom_site_label
 _atom_site_symmetry_multiplicity
 _atom_site_fract_x
 _atom_site_fract_y
 _atom_site_fract_z
 _atom_site_occupancy
  Tb  Tb0  1  0.000000  0.624791  0.350717  1
  Tb  Tb1  1  0.000000  0.375957  0.650531  1
  Y  Y2  1  0.000000  0.124190  0.152074  1
  Y  Y3  1  0.000000  0.876298  0.846871  1
  Mn  Mn4  1  0.000000  0.875937  0.580665  1
  V  V5  1  0.000000  0.626699  0.082375  1
  V  V6  1  0.000000  0.373312  0.915171  1
  V  V7  1  0.000000  0.124447  0.420648  1
  B  B8  1  0.500000  0.785071  0.186464  1
  B  B9  1  0.500000  0.214247  0.812777  1
  B  B10  1  0.500000  0.283445  0.316138  1
  B  B11  1  0.500000  0.721009  0.681457  1
  B  B12  1  0.500000  0.864447  0.032603  1
  B  B13  1  0.500000  0.135465  0.966822  1
  B  B14  1  0.500000  0.363937  0.469122  1
  B  B15  1  0.500000  0.639312  0.533376  1
  B  B16  1  0.500000  0.884472  0.455773  1
  B  B17  1  0.500000  0.109464  0.548695  1
  B  B18  1  0.500000  0.384905  0.047072  1
  B  B19  1  0.500000  0.614767  0.952122  1
  B  B20  1  0.500000  0.975734  0.309486  1
  B  B21  1  0.500000  0.020845  0.689966  1
  B  B22  1  0.500000  0.475339  0.192793  1
  B  B23  1  0.500000  0.525908  0.806281  1
