# generated using pymatgen
data_NaDy9(Bi3C)2
_symmetry_space_group_name_H-M   'P 1'
_cell_length_a   9.13699100
_cell_length_b   9.13698961
_cell_length_c   6.50792900
_cell_angle_alpha   90.00000000
_cell_angle_beta   90.00000000
_cell_angle_gamma   120.00000142
_symmetry_Int_Tables_number   1
_chemical_formula_structural   NaDy9(Bi3C)2
_chemical_formula_sum   'Na1 Dy9 Bi6 C2'
_cell_volume   470.52181081
_cell_formula_units_Z   1
loop_
 _symmetry_equiv_pos_site_id
 _symmetry_equiv_pos_as_xyz
  1  'x, y, z'
loop_
 _atom_site_type_symbol
 _atom_site_label
 _atom_site_symmetry_multiplicity
 _atom_site_fract_x
 _atom_site_fract_y
 _atom_site_fract_z
 _atom_site_occupancy
  Na  Na0  1  0.666667  0.333333  0.000000  1
  Dy  Dy1  1  0.333333  0.666667  0.000000  1
  Dy  Dy2  1  0.333333  0.666667  0.500000  1
  Dy  Dy3  1  0.666667  0.333333  0.500000  1
  Dy  Dy4  1  0.791715  0.791810  0.749919  1
  Dy  Dy5  1  0.208190  0.999904  0.749919  1
  Dy  Dy6  1  0.000096  0.208285  0.749919  1
  Dy  Dy7  1  0.208190  0.208285  0.250081  1
  Dy  Dy8  1  0.791715  0.999904  0.250081  1
  Dy  Dy9  1  0.000096  0.791810  0.250081  1
  Bi  Bi10  1  0.401804  0.401892  0.749976  1
  Bi  Bi11  1  0.598108  0.999912  0.749976  1
  Bi  Bi12  1  0.000088  0.598196  0.749976  1
  Bi  Bi13  1  0.598108  0.598196  0.250024  1
  Bi  Bi14  1  0.401804  0.999912  0.250024  1
  Bi  Bi15  1  0.000088  0.401892  0.250024  1
  C  C16  1  0.000000  0.000000  0.000000  1
  C  C17  1  0.000000  0.000000  0.500000  1
