# generated using pymatgen
data_Nd5SmZn4Pd12Rh
_symmetry_space_group_name_H-M   'P 1'
_cell_length_a   8.36092260
_cell_length_b   8.36092215
_cell_length_c   8.36092283
_cell_angle_alpha   109.49683237
_cell_angle_beta   109.49682814
_cell_angle_gamma   109.42001506
_symmetry_Int_Tables_number   1
_chemical_formula_structural   Nd5SmZn4Pd12Rh
_chemical_formula_sum   'Nd5 Sm1 Zn4 Pd12 Rh1'
_cell_volume   449.92532465
_cell_formula_units_Z   1
loop_
 _symmetry_equiv_pos_site_id
 _symmetry_equiv_pos_as_xyz
  1  'x, y, z'
loop_
 _atom_site_type_symbol
 _atom_site_label
 _atom_site_symmetry_multiplicity
 _atom_site_fract_x
 _atom_site_fract_y
 _atom_site_fract_z
 _atom_site_occupancy
  Nd  Nd0  1  0.297408  0.999810  0.297597  1
  Nd  Nd1  1  0.999810  0.297408  0.297597  1
  Nd  Nd2  1  0.298315  0.298315  0.000000  1
  Nd  Nd3  1  0.702213  0.999810  0.702403  1
  Nd  Nd4  1  0.999810  0.702213  0.702403  1
  Sm  Sm5  1  0.701224  0.701224  0.000000  1
  Zn  Zn6  1  0.999892  0.999892  0.499613  1
  Zn  Zn7  1  0.999892  0.500279  0.000000  1
  Zn  Zn8  1  0.500279  0.999892  0.000000  1
  Zn  Zn9  1  0.500279  0.500279  0.500387  1
  Pd  Pd10  1  0.332909  0.332909  0.665000  1
  Pd  Pd11  1  0.668173  0.999592  0.331419  1
  Pd  Pd12  1  0.999592  0.668173  0.331419  1
  Pd  Pd13  1  0.667908  0.332909  0.000000  1
  Pd  Pd14  1  0.331978  0.663946  0.331970  1
  Pd  Pd15  1  0.000008  0.331978  0.668030  1
  Pd  Pd16  1  0.332909  0.667908  0.000000  1
  Pd  Pd17  1  0.331978  0.000008  0.668030  1
  Pd  Pd18  1  0.663946  0.331978  0.331970  1
  Pd  Pd19  1  0.667908  0.667908  0.335000  1
  Pd  Pd20  1  0.668173  0.336754  0.668581  1
  Pd  Pd21  1  0.336754  0.668173  0.668581  1
  Rh  Rh22  1  0.998643  0.998643  0.000000  1
