# generated using pymatgen
data_Tb7Er(BBr6)2
_symmetry_space_group_name_H-M   'P 1'
_cell_length_a   3.97992700
_cell_length_b   13.22045781
_cell_length_c   13.69163491
_cell_angle_alpha   89.92531468
_cell_angle_beta   90.00000000
_cell_angle_gamma   90.00000000
_symmetry_Int_Tables_number   1
_chemical_formula_structural   Tb7Er(BBr6)2
_chemical_formula_sum   'Tb7 Er1 B2 Br12'
_cell_volume   720.40470712
_cell_formula_units_Z   1
loop_
 _symmetry_equiv_pos_site_id
 _symmetry_equiv_pos_as_xyz
  1  'x, y, z'
loop_
 _atom_site_type_symbol
 _atom_site_label
 _atom_site_symmetry_multiplicity
 _atom_site_fract_x
 _atom_site_fract_y
 _atom_site_fract_z
 _atom_site_occupancy
  Tb  Tb0  1  0.000000  0.102527  0.081399  1
  Tb  Tb1  1  0.000000  0.897456  0.918625  1
  Tb  Tb2  1  0.000000  0.601733  0.419223  1
  Tb  Tb3  1  0.500000  0.123129  0.855240  1
  Tb  Tb4  1  0.500000  0.876838  0.144794  1
  Tb  Tb5  1  0.500000  0.622573  0.644789  1
  Tb  Tb6  1  0.500000  0.376738  0.355769  1
  Er  Er7  1  0.000000  0.398855  0.580337  1
  B  B8  1  0.500000  0.000048  0.999928  1
  B  B9  1  0.500000  0.498862  0.500905  1
  Br  Br10  1  0.500000  0.269723  0.680448  1
  Br  Br11  1  0.500000  0.732248  0.317960  1
  Br  Br12  1  0.500000  0.767378  0.817659  1
  Br  Br13  1  0.500000  0.232574  0.182351  1
  Br  Br14  1  0.000000  0.261298  0.930946  1
  Br  Br15  1  0.000000  0.738717  0.068983  1
  Br  Br16  1  0.000000  0.480661  0.239396  1
  Br  Br17  1  0.000000  0.517946  0.759789  1
  Br  Br18  1  0.000000  0.980671  0.260896  1
  Br  Br19  1  0.000000  0.019446  0.739072  1
  Br  Br20  1  0.000000  0.239600  0.432576  1
  Br  Br21  1  0.000000  0.760977  0.568916  1
