# generated using pymatgen
data_Ca4Sn4IrPd3
_symmetry_space_group_name_H-M   'P 1'
_cell_length_a   4.61523700
_cell_length_b   7.39074433
_cell_length_c   8.06771491
_cell_angle_alpha   90.28320791
_cell_angle_beta   90.00000000
_cell_angle_gamma   90.00000000
_symmetry_Int_Tables_number   1
_chemical_formula_structural   Ca4Sn4IrPd3
_chemical_formula_sum   'Ca4 Sn4 Ir1 Pd3'
_cell_volume   275.18668962
_cell_formula_units_Z   1
loop_
 _symmetry_equiv_pos_site_id
 _symmetry_equiv_pos_as_xyz
  1  'x, y, z'
loop_
 _atom_site_type_symbol
 _atom_site_label
 _atom_site_symmetry_multiplicity
 _atom_site_fract_x
 _atom_site_fract_y
 _atom_site_fract_z
 _atom_site_occupancy
  Ca  Ca0  1  0.750000  0.476965  0.816028  1
  Ca  Ca1  1  0.250000  0.517343  0.184847  1
  Ca  Ca2  1  0.250000  0.021318  0.311907  1
  Ca  Ca3  1  0.750000  0.980849  0.686058  1
  Sn  Sn4  1  0.750000  0.331738  0.424583  1
  Sn  Sn5  1  0.250000  0.665610  0.570143  1
  Sn  Sn6  1  0.750000  0.839870  0.071353  1
  Sn  Sn7  1  0.250000  0.166294  0.933615  1
  Ir  Ir8  1  0.750000  0.212339  0.110373  1
  Pd  Pd9  1  0.750000  0.712479  0.390525  1
  Pd  Pd10  1  0.250000  0.786771  0.889260  1
  Pd  Pd11  1  0.250000  0.288423  0.611308  1
