# generated using pymatgen
data_Pr3Nd2P12PdRu18
_symmetry_space_group_name_H-M   'P 1'
_cell_length_a   12.70904800
_cell_length_b   12.61326028
_cell_length_c   4.02751000
_cell_angle_alpha   90.00000000
_cell_angle_beta   90.00000000
_cell_angle_gamma   119.75099978
_symmetry_Int_Tables_number   1
_chemical_formula_structural   Pr3Nd2P12PdRu18
_chemical_formula_sum   'Pr3 Nd2 P12 Pd1 Ru18'
_cell_volume   560.52096636
_cell_formula_units_Z   1
loop_
 _symmetry_equiv_pos_site_id
 _symmetry_equiv_pos_as_xyz
  1  'x, y, z'
loop_
 _atom_site_type_symbol
 _atom_site_label
 _atom_site_symmetry_multiplicity
 _atom_site_fract_x
 _atom_site_fract_y
 _atom_site_fract_z
 _atom_site_occupancy
  Pr  Pr0  1  0.000000  0.182497  0.500000  1
  Pr  Pr1  1  0.816181  0.815210  0.500000  1
  Pr  Pr2  1  0.183819  0.999029  0.500000  1
  Nd  Nd3  1  0.661673  0.330491  0.000000  1
  Nd  Nd4  1  0.338327  0.668820  0.000000  1
  P  P5  1  0.000000  0.808010  0.000000  1
  P  P6  1  0.186525  0.187887  0.000000  1
  P  P7  1  0.813475  0.001362  0.000000  1
  P  P8  1  0.693996  0.172557  0.500000  1
  P  P9  1  0.819248  0.521051  0.500000  1
  P  P10  1  0.473510  0.304401  0.500000  1
  P  P11  1  0.180752  0.701805  0.500000  1
  P  P12  1  0.526490  0.830891  0.500000  1
  P  P13  1  0.306004  0.478561  0.500000  1
  P  P14  1  0.000000  0.368063  0.000000  1
  P  P15  1  0.623529  0.624561  0.000000  1
  P  P16  1  0.376471  0.001033  0.000000  1
  Pd  Pd17  1  0.000000  0.552498  0.000000  1
  Ru  Ru18  1  0.444153  0.445699  0.000000  1
  Ru  Ru19  1  0.555847  0.001546  0.000000  1
  Ru  Ru20  1  0.000000  0.708954  0.500000  1
  Ru  Ru21  1  0.284171  0.286269  0.500000  1
  Ru  Ru22  1  0.715829  0.002098  0.500000  1
  Ru  Ru23  1  0.805119  0.186062  0.000000  1
  Ru  Ru24  1  0.813992  0.618879  0.000000  1
  Ru  Ru25  1  0.376445  0.193492  0.000000  1
  Ru  Ru26  1  0.186008  0.804887  0.000000  1
  Ru  Ru27  1  0.623555  0.817047  0.000000  1
  Ru  Ru28  1  0.194881  0.380943  0.000000  1
  Ru  Ru29  1  0.875441  0.368317  0.500000  1
  Ru  Ru30  1  0.629142  0.507949  0.500000  1
  Ru  Ru31  1  0.491136  0.125670  0.500000  1
  Ru  Ru32  1  0.370858  0.878806  0.500000  1
  Ru  Ru33  1  0.508864  0.634534  0.500000  1
  Ru  Ru34  1  0.124559  0.492876  0.500000  1
  Ru  Ru35  1  0.000000  0.997245  0.000000  1
