# generated using pymatgen
data_Ho5B4P8Ir19
_symmetry_space_group_name_H-M   'P 1'
_cell_length_a   12.41891801
_cell_length_b   12.38993455
_cell_length_c   3.95898400
_cell_angle_alpha   90.00000000
_cell_angle_beta   90.00000000
_cell_angle_gamma   119.67237266
_symmetry_Int_Tables_number   1
_chemical_formula_structural   Ho5B4P8Ir19
_chemical_formula_sum   'Ho5 B4 P8 Ir19'
_cell_volume   529.28730795
_cell_formula_units_Z   1
loop_
 _symmetry_equiv_pos_site_id
 _symmetry_equiv_pos_as_xyz
  1  'x, y, z'
loop_
 _atom_site_type_symbol
 _atom_site_label
 _atom_site_symmetry_multiplicity
 _atom_site_fract_x
 _atom_site_fract_y
 _atom_site_fract_z
 _atom_site_occupancy
  Ho  Ho0  1  0.332577  0.666497  0.500000  1
  Ho  Ho1  1  0.674513  0.331072  0.500000  1
  Ho  Ho2  1  0.182481  0.187547  0.000000  1
  Ho  Ho3  1  0.815072  0.002795  0.000000  1
  Ho  Ho4  1  0.001787  0.815954  0.000000  1
  B  B5  1  0.305007  0.815725  0.000000  1
  B  B6  1  0.178008  0.486923  0.000000  1
  B  B7  1  0.510549  0.692400  0.000000  1
  B  B8  1  0.823862  0.303078  0.000000  1
  P  P9  1  0.486674  0.173641  0.000000  1
  P  P10  1  0.692692  0.513922  0.000000  1
  P  P11  1  0.358906  0.364696  0.500000  1
  P  P12  1  0.639900  0.000985  0.500000  1
  P  P13  1  0.006064  0.639674  0.500000  1
  P  P14  1  0.816486  0.820095  0.500000  1
  P  P15  1  0.180459  0.998578  0.500000  1
  P  P16  1  0.002219  0.185925  0.500000  1
  Ir  Ir17  1  0.199789  0.818295  0.500000  1
  Ir  Ir18  1  0.181760  0.382400  0.500000  1
  Ir  Ir19  1  0.619342  0.803737  0.500000  1
  Ir  Ir20  1  0.821861  0.201270  0.500000  1
  Ir  Ir21  1  0.376031  0.181493  0.500000  1
  Ir  Ir22  1  0.806821  0.623600  0.500000  1
  Ir  Ir23  1  0.134714  0.637540  0.000000  1
  Ir  Ir24  1  0.359846  0.500264  0.000000  1
  Ir  Ir25  1  0.497329  0.859219  0.000000  1
  Ir  Ir26  1  0.642845  0.129373  0.000000  1
  Ir  Ir27  1  0.490902  0.363636  0.000000  1
  Ir  Ir28  1  0.869471  0.497844  0.000000  1
  Ir  Ir29  1  0.539606  0.549068  0.500000  1
  Ir  Ir30  1  0.453869  0.994946  0.500000  1
  Ir  Ir31  1  0.003242  0.455604  0.500000  1
  Ir  Ir32  1  0.701027  0.706837  0.000000  1
  Ir  Ir33  1  0.292975  0.994305  0.000000  1
  Ir  Ir34  1  0.002015  0.300220  0.000000  1
  Ir  Ir35  1  0.999298  0.000842  0.500000  1
