# generated using pymatgen
data_K3LaGe2O7
_symmetry_space_group_name_H-M   'P 1'
_cell_length_a   6.12834600
_cell_length_b   6.12839732
_cell_length_c   14.96248400
_cell_angle_alpha   90.00000000
_cell_angle_beta   90.00000000
_cell_angle_gamma   119.99973379
_symmetry_Int_Tables_number   1
_chemical_formula_structural   K3LaGe2O7
_chemical_formula_sum   'K6 La2 Ge4 O14'
_cell_volume   486.66003919
_cell_formula_units_Z   2
loop_
 _symmetry_equiv_pos_site_id
 _symmetry_equiv_pos_as_xyz
  1  'x, y, z'
loop_
 _atom_site_type_symbol
 _atom_site_label
 _atom_site_symmetry_multiplicity
 _atom_site_fract_x
 _atom_site_fract_y
 _atom_site_fract_z
 _atom_site_occupancy
  K  K0  1  0.333346  0.666692  0.088730  1
  K  K1  1  0.999984  0.999969  0.250000  1
  K  K2  1  0.333346  0.666692  0.411270  1
  K  K3  1  0.666653  0.333308  0.588730  1
  K  K4  1  0.000016  0.000031  0.750000  1
  K  K5  1  0.666653  0.333308  0.911270  1
  La  La6  1  0.000000  0.000000  0.000000  1
  La  La7  1  0.000000  0.000000  0.500000  1
  Ge  Ge8  1  0.666671  0.333343  0.132278  1
  Ge  Ge9  1  0.666671  0.333343  0.367722  1
  Ge  Ge10  1  0.333329  0.666657  0.632278  1
  Ge  Ge11  1  0.333329  0.666657  0.867722  1
  O  O12  1  0.824596  0.649191  0.097328  1
  O  O13  1  0.350818  0.175410  0.097334  1
  O  O14  1  0.824592  0.175410  0.097334  1
  O  O15  1  0.666701  0.333402  0.250000  1
  O  O16  1  0.350818  0.175410  0.402666  1
  O  O17  1  0.824592  0.175410  0.402666  1
  O  O18  1  0.824596  0.649191  0.402672  1
  O  O19  1  0.175404  0.350808  0.597328  1
  O  O20  1  0.175407  0.824590  0.597334  1
  O  O21  1  0.649183  0.824590  0.597334  1
  O  O22  1  0.333298  0.666597  0.750000  1
  O  O23  1  0.175407  0.824590  0.902666  1
  O  O24  1  0.649183  0.824590  0.902666  1
  O  O25  1  0.175404  0.350808  0.902672  1
