# generated using pymatgen
data_Ca2CuNi6
_symmetry_space_group_name_H-M   'P 1'
_cell_length_a   5.01368877
_cell_length_b   5.01368748
_cell_length_c   12.34058549
_cell_angle_alpha   78.27946374
_cell_angle_beta   78.27946548
_cell_angle_gamma   59.99999846
_symmetry_Int_Tables_number   1
_chemical_formula_structural   Ca2CuNi6
_chemical_formula_sum   'Ca4 Cu2 Ni12'
_cell_volume   261.15135519
_cell_formula_units_Z   2
loop_
 _symmetry_equiv_pos_site_id
 _symmetry_equiv_pos_as_xyz
  1  'x, y, z'
loop_
 _atom_site_type_symbol
 _atom_site_label
 _atom_site_symmetry_multiplicity
 _atom_site_fract_x
 _atom_site_fract_y
 _atom_site_fract_z
 _atom_site_occupancy
  Ca  Ca0  1  0.948569  0.948569  0.154292  1
  Ca  Ca1  1  0.051431  0.051431  0.845708  1
  Ca  Ca2  1  0.851864  0.851864  0.444408  1
  Ca  Ca3  1  0.148136  0.148136  0.555592  1
  Cu  Cu4  1  0.721706  0.721706  0.834881  1
  Cu  Cu5  1  0.278294  0.278294  0.165119  1
  Ni  Ni6  1  0.500000  0.500000  0.500000  1
  Ni  Ni7  1  0.612232  0.612232  0.163304  1
  Ni  Ni8  1  0.387768  0.387768  0.836696  1
  Ni  Ni9  1  0.000000  0.500000  0.000000  1
  Ni  Ni10  1  0.500000  0.000000  0.000000  1
  Ni  Ni11  1  0.500000  0.500000  0.000000  1
  Ni  Ni12  1  0.391816  0.391816  0.328651  1
  Ni  Ni13  1  0.887718  0.391816  0.328651  1
  Ni  Ni14  1  0.391816  0.887718  0.328651  1
  Ni  Ni15  1  0.608184  0.608184  0.671349  1
  Ni  Ni16  1  0.112282  0.608184  0.671349  1
  Ni  Ni17  1  0.608184  0.112282  0.671349  1
