# generated using pymatgen
data_HoMnGaO5
_symmetry_space_group_name_H-M   'P 1'
_cell_length_a   5.73512800
_cell_length_b   7.32697500
_cell_length_c   8.51421200
_cell_angle_alpha   90.00000000
_cell_angle_beta   90.00000000
_cell_angle_gamma   90.00000000
_symmetry_Int_Tables_number   1
_chemical_formula_structural   HoMnGaO5
_chemical_formula_sum   'Ho4 Mn4 Ga4 O20'
_cell_volume   357.77689000
_cell_formula_units_Z   4
loop_
 _symmetry_equiv_pos_site_id
 _symmetry_equiv_pos_as_xyz
  1  'x, y, z'
loop_
 _atom_site_type_symbol
 _atom_site_label
 _atom_site_symmetry_multiplicity
 _atom_site_fract_x
 _atom_site_fract_y
 _atom_site_fract_z
 _atom_site_occupancy
  Ho  Ho0  1  0.500000  0.366800  0.331670  1
  Ho  Ho1  1  0.500000  0.633200  0.668330  1
  Ho  Ho2  1  0.500000  0.133200  0.831670  1
  Ho  Ho3  1  0.500000  0.866800  0.168330  1
  Mn  Mn4  1  0.249079  0.000000  0.500000  1
  Mn  Mn5  1  0.750921  0.000000  0.500000  1
  Mn  Mn6  1  0.750921  0.500000  0.000000  1
  Mn  Mn7  1  0.249079  0.500000  0.000000  1
  Ga  Ga8  1  0.000000  0.108537  0.146542  1
  Ga  Ga9  1  0.000000  0.891463  0.853458  1
  Ga  Ga10  1  0.000000  0.391463  0.646542  1
  Ga  Ga11  1  0.000000  0.608537  0.353458  1
  O  O12  1  0.500000  0.337754  0.058624  1
  O  O13  1  0.500000  0.662246  0.941376  1
  O  O14  1  0.500000  0.162246  0.558624  1
  O  O15  1  0.500000  0.837754  0.441376  1
  O  O16  1  0.230070  0.000000  0.000000  1
  O  O17  1  0.769930  0.000000  0.000000  1
  O  O18  1  0.769930  0.500000  0.500000  1
  O  O19  1  0.230070  0.500000  0.500000  1
  O  O20  1  0.259192  0.108503  0.293751  1
  O  O21  1  0.740808  0.891497  0.706249  1
  O  O22  1  0.259192  0.891497  0.706249  1
  O  O23  1  0.740808  0.391497  0.793751  1
  O  O24  1  0.740808  0.108503  0.293751  1
  O  O25  1  0.259192  0.608503  0.206249  1
  O  O26  1  0.740808  0.608503  0.206249  1
  O  O27  1  0.259192  0.391497  0.793751  1
  O  O28  1  0.000000  0.350209  0.072348  1
  O  O29  1  0.000000  0.649791  0.927652  1
  O  O30  1  0.000000  0.149791  0.572348  1
  O  O31  1  0.000000  0.850209  0.427652  1
