# generated using pymatgen
data_CdSbBr18
_symmetry_space_group_name_H-M   'P 1'
_cell_length_a   9.49801473
_cell_length_b   9.46335331
_cell_length_c   9.47488273
_cell_angle_alpha   88.13959372
_cell_angle_beta   88.32781792
_cell_angle_gamma   88.36949153
_symmetry_Int_Tables_number   1
_chemical_formula_structural   CdSbBr18
_chemical_formula_sum   'Cd1 Sb1 Br18'
_cell_volume   850.49760987
_cell_formula_units_Z   1
loop_
 _symmetry_equiv_pos_site_id
 _symmetry_equiv_pos_as_xyz
  1  'x, y, z'
loop_
 _atom_site_type_symbol
 _atom_site_label
 _atom_site_symmetry_multiplicity
 _atom_site_fract_x
 _atom_site_fract_y
 _atom_site_fract_z
 _atom_site_occupancy
  Cd  Cd0  1  0.000000  0.000000  0.000000  1
  Sb  Sb1  1  0.500000  0.500000  0.500000  1
  Br  Br2  1  0.787811  0.459791  0.520591  1
  Br  Br3  1  0.522482  0.788998  0.459404  1
  Br  Br4  1  0.461341  0.522183  0.788396  1
  Br  Br5  1  0.212189  0.540209  0.479409  1
  Br  Br6  1  0.477518  0.211002  0.540596  1
  Br  Br7  1  0.538659  0.477817  0.211604  1
  Br  Br8  1  0.897140  0.375038  0.763094  1
  Br  Br9  1  0.764694  0.899283  0.374723  1
  Br  Br10  1  0.374736  0.764657  0.898318  1
  Br  Br11  1  0.102860  0.624962  0.236906  1
  Br  Br12  1  0.235306  0.100717  0.625277  1
  Br  Br13  1  0.625264  0.235343  0.101682  1
  Br  Br14  1  0.023853  0.968196  0.705009  1
  Br  Br15  1  0.705003  0.024334  0.969482  1
  Br  Br16  1  0.969714  0.703805  0.025839  1
  Br  Br17  1  0.976147  0.031804  0.294991  1
  Br  Br18  1  0.294997  0.975666  0.030518  1
  Br  Br19  1  0.030286  0.296195  0.974161  1
