# generated using pymatgen
data_NaGd3(Ir2O7)2
_symmetry_space_group_name_H-M   'P 1'
_cell_length_a   7.22086770
_cell_length_b   7.22086742
_cell_length_c   7.22086900
_cell_angle_alpha   60.60981690
_cell_angle_beta   60.60981815
_cell_angle_gamma   60.60981391
_symmetry_Int_Tables_number   1
_chemical_formula_structural   NaGd3(Ir2O7)2
_chemical_formula_sum   'Na1 Gd3 Ir4 O14'
_cell_volume   269.89414300
_cell_formula_units_Z   1
loop_
 _symmetry_equiv_pos_site_id
 _symmetry_equiv_pos_as_xyz
  1  'x, y, z'
loop_
 _atom_site_type_symbol
 _atom_site_label
 _atom_site_symmetry_multiplicity
 _atom_site_fract_x
 _atom_site_fract_y
 _atom_site_fract_z
 _atom_site_occupancy
  Na  Na0  1  0.000000  0.000000  0.000000  1
  Gd  Gd1  1  0.000000  0.500000  0.000000  1
  Gd  Gd2  1  0.500000  0.000000  0.000000  1
  Gd  Gd3  1  0.000000  0.000000  0.500000  1
  Ir  Ir4  1  0.500000  0.500000  0.500000  1
  Ir  Ir5  1  0.500000  0.000000  0.500000  1
  Ir  Ir6  1  0.000000  0.500000  0.500000  1
  Ir  Ir7  1  0.500000  0.500000  0.000000  1
  O  O8  1  0.417695  0.417695  0.830613  1
  O  O9  1  0.830613  0.417695  0.417695  1
  O  O10  1  0.417695  0.830613  0.417695  1
  O  O11  1  0.826297  0.826297  0.431353  1
  O  O12  1  0.431353  0.826297  0.826297  1
  O  O13  1  0.826297  0.431353  0.826297  1
  O  O14  1  0.582305  0.582305  0.169387  1
  O  O15  1  0.169387  0.582305  0.582305  1
  O  O16  1  0.582305  0.169387  0.582305  1
  O  O17  1  0.173703  0.173703  0.568647  1
  O  O18  1  0.568647  0.173703  0.173703  1
  O  O19  1  0.173703  0.568647  0.173703  1
  O  O20  1  0.128872  0.128872  0.128872  1
  O  O21  1  0.871128  0.871128  0.871128  1
