# generated using pymatgen
data_Sc12Si16Os7W
_symmetry_space_group_name_H-M   'P 1'
_cell_length_a   10.10744942
_cell_length_b   10.11031236
_cell_length_c   13.65007900
_cell_angle_alpha   55.09629280
_cell_angle_beta   55.11281666
_cell_angle_gamma   31.07100038
_symmetry_Int_Tables_number   1
_chemical_formula_structural   Sc12Si16Os7W
_chemical_formula_sum   'Sc12 Si16 Os7 W1'
_cell_volume   579.25803857
_cell_formula_units_Z   1
loop_
 _symmetry_equiv_pos_site_id
 _symmetry_equiv_pos_as_xyz
  1  'x, y, z'
loop_
 _atom_site_type_symbol
 _atom_site_label
 _atom_site_symmetry_multiplicity
 _atom_site_fract_x
 _atom_site_fract_y
 _atom_site_fract_z
 _atom_site_occupancy
  Sc  Sc0  1  0.749876  0.486233  0.050904  1
  Sc  Sc1  1  0.542275  0.299810  0.154868  1
  Sc  Sc2  1  0.515214  0.250117  0.450285  1
  Sc  Sc3  1  0.457680  0.699321  0.846493  1
  Sc  Sc4  1  0.294233  0.037802  0.135790  1
  Sc  Sc5  1  0.963161  0.706201  0.363655  1
  Sc  Sc6  1  0.706762  0.962463  0.863821  1
  Sc  Sc7  1  0.036095  0.294972  0.635455  1
  Sc  Sc8  1  0.250620  0.513304  0.950445  1
  Sc  Sc9  1  0.486495  0.748101  0.549047  1
  Sc  Sc10  1  0.303723  0.534277  0.657737  1
  Sc  Sc11  1  0.698662  0.464469  0.341478  1
  Si  Si12  1  0.892252  0.110675  0.249709  1
  Si  Si13  1  0.109481  0.889127  0.752500  1
  Si  Si14  1  0.356997  0.642916  0.250878  1
  Si  Si15  1  0.641940  0.358252  0.751452  1
  Si  Si16  1  0.997714  0.231040  0.877325  1
  Si  Si17  1  0.766718  0.993260  0.628229  1
  Si  Si18  1  0.002124  0.769732  0.123135  1
  Si  Si19  1  0.233423  0.001165  0.374115  1
  Si  Si20  1  0.596706  0.053225  0.072478  1
  Si  Si21  1  0.946302  0.407086  0.422746  1
  Si  Si22  1  0.404826  0.946182  0.926426  1
  Si  Si23  1  0.052252  0.595110  0.574058  1
  Si  Si24  1  0.394582  0.152330  0.387255  1
  Si  Si25  1  0.848114  0.608752  0.110753  1
  Si  Si26  1  0.606505  0.847769  0.610921  1
  Si  Si27  1  0.150466  0.393169  0.888952  1
  Os  Os28  1  0.641234  0.833148  0.282726  1
  Os  Os29  1  0.827939  0.637913  0.786639  1
  Os  Os30  1  0.356940  0.168528  0.715421  1
  Os  Os31  1  0.172245  0.362965  0.211447  1
  Os  Os32  1  0.140132  0.911146  0.078992  1
  Os  Os33  1  0.086751  0.861305  0.423437  1
  Os  Os34  1  0.858309  0.091229  0.923672  1
  W  W35  1  0.911251  0.136902  0.576752  1
