# generated using pymatgen
data_Tm6Th2Mg2FeCo
_symmetry_space_group_name_H-M   'P 1'
_cell_length_a   9.53660635
_cell_length_b   9.53660719
_cell_length_c   9.56447400
_cell_angle_alpha   59.90329788
_cell_angle_beta   59.90329495
_cell_angle_gamma   59.82694430
_symmetry_Int_Tables_number   1
_chemical_formula_structural   Tm6Th2Mg2FeCo
_chemical_formula_sum   'Tm12 Th4 Mg4 Fe2 Co2'
_cell_volume   613.37763784
_cell_formula_units_Z   2
loop_
 _symmetry_equiv_pos_site_id
 _symmetry_equiv_pos_as_xyz
  1  'x, y, z'
loop_
 _atom_site_type_symbol
 _atom_site_label
 _atom_site_symmetry_multiplicity
 _atom_site_fract_x
 _atom_site_fract_y
 _atom_site_fract_z
 _atom_site_occupancy
  Tm  Tm0  1  0.815170  0.185430  0.185964  1
  Tm  Tm1  1  0.185430  0.815170  0.813436  1
  Tm  Tm2  1  0.185430  0.815170  0.185964  1
  Tm  Tm3  1  0.815170  0.185430  0.813436  1
  Tm  Tm4  1  0.185545  0.185545  0.814455  1
  Tm  Tm5  1  0.814262  0.814262  0.185738  1
  Tm  Tm6  1  0.935387  0.562681  0.566340  1
  Tm  Tm7  1  0.562681  0.935387  0.935592  1
  Tm  Tm8  1  0.562681  0.935387  0.566340  1
  Tm  Tm9  1  0.935387  0.562681  0.935592  1
  Tm  Tm10  1  0.564722  0.564722  0.935278  1
  Tm  Tm11  1  0.935378  0.935378  0.564622  1
  Th  Th12  1  0.343818  0.343818  0.347232  1
  Th  Th13  1  0.343818  0.343818  0.965132  1
  Th  Th14  1  0.342022  0.967269  0.345355  1
  Th  Th15  1  0.967269  0.342022  0.345355  1
  Mg  Mg16  1  0.579881  0.579881  0.581022  1
  Mg  Mg17  1  0.579881  0.579881  0.259215  1
  Mg  Mg18  1  0.580127  0.258345  0.580763  1
  Mg  Mg19  1  0.258345  0.580127  0.580763  1
  Fe  Fe20  1  0.146162  0.146162  0.143068  1
  Fe  Fe21  1  0.146162  0.146162  0.564609  1
  Co  Co22  1  0.144958  0.570316  0.142364  1
  Co  Co23  1  0.570316  0.144958  0.142364  1
