# generated using pymatgen
data_Nd3TiZn2Rh3
_symmetry_space_group_name_H-M   'P 1'
_cell_length_a   7.08705700
_cell_length_b   7.22252354
_cell_length_c   4.11753000
_cell_angle_alpha   90.00000000
_cell_angle_beta   90.00000000
_cell_angle_gamma   119.38146345
_symmetry_Int_Tables_number   1
_chemical_formula_structural   Nd3TiZn2Rh3
_chemical_formula_sum   'Nd3 Ti1 Zn2 Rh3'
_cell_volume   183.65195482
_cell_formula_units_Z   1
loop_
 _symmetry_equiv_pos_site_id
 _symmetry_equiv_pos_as_xyz
  1  'x, y, z'
loop_
 _atom_site_type_symbol
 _atom_site_label
 _atom_site_symmetry_multiplicity
 _atom_site_fract_x
 _atom_site_fract_y
 _atom_site_fract_z
 _atom_site_occupancy
  Nd  Nd0  1  0.606613  0.000000  0.000000  1
  Nd  Nd1  1  0.416975  0.432552  0.000000  1
  Nd  Nd2  1  0.984422  0.567447  0.000000  1
  Ti  Ti3  1  0.231476  0.000000  0.499999  1
  Zn  Zn4  1  0.004438  0.238948  0.499999  1
  Zn  Zn5  1  0.765490  0.761051  0.499999  1
  Rh  Rh6  1  0.030758  0.000000  0.000000  1
  Rh  Rh7  1  0.636815  0.313802  0.499999  1
  Rh  Rh8  1  0.323013  0.686197  0.499999  1
