# generated using pymatgen
data_Lu5Sc5(CoSb2)2
_symmetry_space_group_name_H-M   'P 1'
_cell_length_a   7.52186424
_cell_length_b   8.53055438
_cell_length_c   11.66639400
_cell_angle_alpha   90.00000000
_cell_angle_beta   90.00000000
_cell_angle_gamma   90.06538802
_symmetry_Int_Tables_number   1
_chemical_formula_structural   Lu5Sc5(CoSb2)2
_chemical_formula_sum   'Lu10 Sc10 Co4 Sb8'
_cell_volume   748.58152187
_cell_formula_units_Z   2
loop_
 _symmetry_equiv_pos_site_id
 _symmetry_equiv_pos_as_xyz
  1  'x, y, z'
loop_
 _atom_site_type_symbol
 _atom_site_label
 _atom_site_symmetry_multiplicity
 _atom_site_fract_x
 _atom_site_fract_y
 _atom_site_fract_z
 _atom_site_occupancy
  Lu  Lu0  1  0.620748  0.751711  0.310061  1
  Lu  Lu1  1  0.879252  0.748289  0.810061  1
  Lu  Lu2  1  0.381034  0.248439  0.690412  1
  Lu  Lu3  1  0.118966  0.251561  0.190412  1
  Lu  Lu4  1  0.178137  0.038134  0.933538  1
  Lu  Lu5  1  0.321863  0.461866  0.433538  1
  Lu  Lu6  1  0.175563  0.461921  0.934309  1
  Lu  Lu7  1  0.324437  0.038079  0.434309  1
  Lu  Lu8  1  0.819776  0.960069  0.067467  1
  Lu  Lu9  1  0.680224  0.539931  0.567467  1
  Sc  Sc10  1  0.156508  0.748173  0.203869  1
  Sc  Sc11  1  0.343492  0.751827  0.703869  1
  Sc  Sc12  1  0.840524  0.250191  0.794214  1
  Sc  Sc13  1  0.659476  0.249809  0.294214  1
  Sc  Sc14  1  0.445539  0.749157  0.998450  1
  Sc  Sc15  1  0.054461  0.750843  0.498450  1
  Sc  Sc16  1  0.558863  0.251845  0.000262  1
  Sc  Sc17  1  0.941137  0.248155  0.500262  1
  Sc  Sc18  1  0.821666  0.535213  0.066968  1
  Sc  Sc19  1  0.678334  0.964787  0.566968  1
  Co  Co20  1  0.431778  0.753144  0.496676  1
  Co  Co21  1  0.068222  0.746856  0.996676  1
  Co  Co22  1  0.578551  0.246533  0.506089  1
  Co  Co23  1  0.921449  0.253467  0.006089  1
  Sb  Sb24  1  0.929508  0.510392  0.329026  1
  Sb  Sb25  1  0.570492  0.989608  0.829026  1
  Sb  Sb26  1  0.065361  0.008693  0.668683  1
  Sb  Sb27  1  0.434639  0.491307  0.168683  1
  Sb  Sb28  1  0.070735  0.490002  0.668797  1
  Sb  Sb29  1  0.429265  0.009998  0.168797  1
  Sb  Sb30  1  0.929738  0.990123  0.331180  1
  Sb  Sb31  1  0.570262  0.509877  0.831180  1
