# generated using pymatgen
data_Ho2Tm4NbCo17P12
_symmetry_space_group_name_H-M   'P 1'
_cell_length_a   3.67536600
_cell_length_b   10.51178000
_cell_length_c   12.19023100
_cell_angle_alpha   90.00000000
_cell_angle_beta   90.00000000
_cell_angle_gamma   90.00000000
_symmetry_Int_Tables_number   1
_chemical_formula_structural   Ho2Tm4NbCo17P12
_chemical_formula_sum   'Ho2 Tm4 Nb1 Co17 P12'
_cell_volume   470.96517171
_cell_formula_units_Z   1
loop_
 _symmetry_equiv_pos_site_id
 _symmetry_equiv_pos_as_xyz
  1  'x, y, z'
loop_
 _atom_site_type_symbol
 _atom_site_label
 _atom_site_symmetry_multiplicity
 _atom_site_fract_x
 _atom_site_fract_y
 _atom_site_fract_z
 _atom_site_occupancy
  Ho  Ho0  1  0.000000  0.500000  0.527409  1
  Ho  Ho1  1  0.500000  0.000000  0.477039  1
  Tm  Tm2  1  0.500000  0.819925  0.207225  1
  Tm  Tm3  1  0.500000  0.180075  0.207225  1
  Tm  Tm4  1  0.000000  0.682693  0.795973  1
  Tm  Tm5  1  0.000000  0.317307  0.795973  1
  Nb  Nb6  1  0.500000  0.500000  0.155428  1
  Co  Co7  1  0.000000  0.000000  0.837677  1
  Co  Co8  1  0.500000  0.500000  0.702144  1
  Co  Co9  1  0.000000  0.000000  0.296405  1
  Co  Co10  1  0.000000  0.500000  0.983969  1
  Co  Co11  1  0.500000  0.000000  0.014564  1
  Co  Co12  1  0.500000  0.329596  0.988803  1
  Co  Co13  1  0.500000  0.670404  0.988803  1
  Co  Co14  1  0.000000  0.163616  0.004017  1
  Co  Co15  1  0.000000  0.836384  0.004017  1
  Co  Co16  1  0.500000  0.295023  0.433284  1
  Co  Co17  1  0.500000  0.704977  0.433284  1
  Co  Co18  1  0.000000  0.202187  0.569858  1
  Co  Co19  1  0.000000  0.797813  0.569858  1
  Co  Co20  1  0.500000  0.879045  0.707926  1
  Co  Co21  1  0.500000  0.120955  0.707926  1
  Co  Co22  1  0.000000  0.623762  0.294929  1
  Co  Co23  1  0.000000  0.376238  0.294929  1
  P  P24  1  0.500000  0.500000  0.880028  1
  P  P25  1  0.000000  0.000000  0.117903  1
  P  P26  1  0.500000  0.500000  0.356951  1
  P  P27  1  0.000000  0.000000  0.654556  1
  P  P28  1  0.500000  0.310213  0.617966  1
  P  P29  1  0.500000  0.689787  0.617966  1
  P  P30  1  0.000000  0.187617  0.385344  1
  P  P31  1  0.000000  0.812383  0.385344  1
  P  P32  1  0.500000  0.851067  0.889143  1
  P  P33  1  0.500000  0.148933  0.889143  1
  P  P34  1  0.000000  0.661676  0.103496  1
  P  P35  1  0.000000  0.338324  0.103496  1
