# generated using pymatgen
data_SmCu4(AuO4)3
_symmetry_space_group_name_H-M   'P 1'
_cell_length_a   6.56305128
_cell_length_b   6.56305187
_cell_length_c   6.56305100
_cell_angle_alpha   109.47122104
_cell_angle_beta   109.47122286
_cell_angle_gamma   109.47122532
_symmetry_Int_Tables_number   1
_chemical_formula_structural   SmCu4(AuO4)3
_chemical_formula_sum   'Sm1 Cu4 Au3 O12'
_cell_volume   217.61833493
_cell_formula_units_Z   1
loop_
 _symmetry_equiv_pos_site_id
 _symmetry_equiv_pos_as_xyz
  1  'x, y, z'
loop_
 _atom_site_type_symbol
 _atom_site_label
 _atom_site_symmetry_multiplicity
 _atom_site_fract_x
 _atom_site_fract_y
 _atom_site_fract_z
 _atom_site_occupancy
  Sm  Sm0  1  0.000000  0.000000  0.000000  1
  Cu  Cu1  1  0.000000  0.000000  0.500000  1
  Cu  Cu2  1  0.000000  0.500000  0.000000  1
  Cu  Cu3  1  0.500000  0.000000  0.000000  1
  Cu  Cu4  1  0.500000  0.500000  0.500000  1
  Au  Au5  1  0.000000  0.500000  0.500000  1
  Au  Au6  1  0.500000  0.000000  0.500000  1
  Au  Au7  1  0.500000  0.500000  0.000000  1
  O  O8  1  0.294975  0.121157  0.826182  1
  O  O9  1  0.705025  0.878843  0.173818  1
  O  O10  1  0.705025  0.531206  0.826182  1
  O  O11  1  0.468794  0.173818  0.294975  1
  O  O12  1  0.173818  0.294975  0.468794  1
  O  O13  1  0.826182  0.294975  0.121157  1
  O  O14  1  0.878843  0.173818  0.705025  1
  O  O15  1  0.826182  0.705025  0.531206  1
  O  O16  1  0.294975  0.468794  0.173818  1
  O  O17  1  0.531206  0.826182  0.705025  1
  O  O18  1  0.173818  0.705025  0.878843  1
  O  O19  1  0.121157  0.826182  0.294975  1
