# generated using pymatgen
data_TbCdGaNi3
_symmetry_space_group_name_H-M   'P 1'
_cell_length_a   5.14126467
_cell_length_b   5.14126469
_cell_length_c   4.99087347
_cell_angle_alpha   58.99809454
_cell_angle_beta   58.99810337
_cell_angle_gamma   59.99999560
_symmetry_Int_Tables_number   1
_chemical_formula_structural   TbCdGaNi3
_chemical_formula_sum   'Tb1 Cd1 Ga1 Ni3'
_cell_volume   91.84507770
_cell_formula_units_Z   1
loop_
 _symmetry_equiv_pos_site_id
 _symmetry_equiv_pos_as_xyz
  1  'x, y, z'
loop_
 _atom_site_type_symbol
 _atom_site_label
 _atom_site_symmetry_multiplicity
 _atom_site_fract_x
 _atom_site_fract_y
 _atom_site_fract_z
 _atom_site_occupancy
  Tb  Tb0  1  0.246287  0.246287  0.261140  1
  Cd  Cd1  1  0.995937  0.995937  0.012190  1
  Ga  Ga2  1  0.628110  0.628110  0.115668  1
  Ni  Ni3  1  0.627511  0.124643  0.620334  1
  Ni  Ni4  1  0.124643  0.627511  0.620334  1
  Ni  Ni5  1  0.627511  0.627511  0.620334  1
