# generated using pymatgen
data_DyHo3Co4(SnH)4
_symmetry_space_group_name_H-M   'P 1'
_cell_length_a   4.26516200
_cell_length_b   7.08131206
_cell_length_c   8.14817206
_cell_angle_alpha   90.01413372
_cell_angle_beta   90.00000000
_cell_angle_gamma   90.00000000
_symmetry_Int_Tables_number   1
_chemical_formula_structural   DyHo3Co4(SnH)4
_chemical_formula_sum   'Dy1 Ho3 Co4 Sn4 H4'
_cell_volume   246.09876953
_cell_formula_units_Z   1
loop_
 _symmetry_equiv_pos_site_id
 _symmetry_equiv_pos_as_xyz
  1  'x, y, z'
loop_
 _atom_site_type_symbol
 _atom_site_label
 _atom_site_symmetry_multiplicity
 _atom_site_fract_x
 _atom_site_fract_y
 _atom_site_fract_z
 _atom_site_occupancy
  Dy  Dy0  1  0.750000  0.013170  0.686507  1
  Ho  Ho1  1  0.250000  0.987189  0.313848  1
  Ho  Ho2  1  0.250000  0.486922  0.186116  1
  Ho  Ho3  1  0.750000  0.512828  0.814182  1
  Co  Co4  1  0.750000  0.773635  0.103032  1
  Co  Co5  1  0.250000  0.226567  0.897464  1
  Co  Co6  1  0.250000  0.725754  0.602845  1
  Co  Co7  1  0.750000  0.273926  0.396747  1
  Sn  Sn8  1  0.750000  0.655751  0.426338  1
  Sn  Sn9  1  0.250000  0.344545  0.574132  1
  Sn  Sn10  1  0.250000  0.844087  0.926235  1
  Sn  Sn11  1  0.750000  0.155860  0.073590  1
  H  H12  1  0.250000  0.448379  0.919144  1
  H  H13  1  0.750000  0.551628  0.081095  1
  H  H14  1  0.750000  0.052105  0.418234  1
  H  H15  1  0.250000  0.947655  0.580490  1
