# generated using pymatgen
data_Pr18Nd2Si15Cl
_symmetry_space_group_name_H-M   'P 1'
_cell_length_a   7.96369497
_cell_length_b   7.89252335
_cell_length_c   15.30387200
_cell_angle_alpha   89.53598216
_cell_angle_beta   89.16140802
_cell_angle_gamma   90.77374111
_symmetry_Int_Tables_number   1
_chemical_formula_structural   Pr18Nd2Si15Cl
_chemical_formula_sum   'Pr18 Nd2 Si15 Cl1'
_cell_volume   961.68035624
_cell_formula_units_Z   1
loop_
 _symmetry_equiv_pos_site_id
 _symmetry_equiv_pos_as_xyz
  1  'x, y, z'
loop_
 _atom_site_type_symbol
 _atom_site_label
 _atom_site_symmetry_multiplicity
 _atom_site_fract_x
 _atom_site_fract_y
 _atom_site_fract_z
 _atom_site_occupancy
  Pr  Pr0  1  0.796216  0.189532  0.752953  1
  Pr  Pr1  1  0.687768  0.687442  0.497632  1
  Pr  Pr2  1  0.381738  0.003057  0.441934  1
  Pr  Pr3  1  0.499952  0.861082  0.700741  1
  Pr  Pr4  1  0.510915  0.121951  0.197066  1
  Pr  Pr5  1  0.874014  0.483722  0.300001  1
  Pr  Pr6  1  0.123428  0.518429  0.801778  1
  Pr  Pr7  1  0.634209  0.986690  0.952646  1
  Pr  Pr8  1  0.996118  0.382665  0.546468  1
  Pr  Pr9  1  0.994418  0.623844  0.052444  1
  Pr  Pr10  1  0.141798  0.990524  0.873562  1
  Pr  Pr11  1  0.518339  0.630830  0.125327  1
  Pr  Pr12  1  0.474627  0.362152  0.631186  1
  Pr  Pr13  1  0.636218  0.520549  0.876376  1
  Pr  Pr14  1  0.366391  0.477310  0.375838  1
  Pr  Pr15  1  0.871206  0.019047  0.377094  1
  Pr  Pr16  1  0.984340  0.126127  0.123715  1
  Pr  Pr17  1  0.018912  0.873722  0.621548  1
  Nd  Nd18  1  0.311954  0.310610  0.999138  1
  Nd  Nd19  1  0.186498  0.807021  0.249472  1
  Si  Si20  1  0.333719  0.698415  0.949010  1
  Si  Si21  1  0.660695  0.303446  0.453820  1
  Si  Si22  1  0.702205  0.335565  0.050973  1
  Si  Si23  1  0.303141  0.665338  0.551635  1
  Si  Si24  1  0.805494  0.830680  0.203231  1
  Si  Si25  1  0.168482  0.192210  0.296175  1
  Si  Si26  1  0.845400  0.804304  0.797593  1
  Si  Si27  1  0.288976  0.922824  0.058609  1
  Si  Si28  1  0.574526  0.784459  0.308232  1
  Si  Si29  1  0.449913  0.208099  0.824338  1
  Si  Si30  1  0.791041  0.578882  0.687644  1
  Si  Si31  1  0.212091  0.423946  0.190134  1
  Si  Si32  1  0.704583  0.074075  0.561060  1
  Si  Si33  1  0.929484  0.291790  0.940557  1
  Si  Si34  1  0.077057  0.711819  0.440350  1
  Cl  Cl35  1  0.144132  0.197842  0.689723  1
