# generated using pymatgen
data_Dy3LuFe5Os3
_symmetry_space_group_name_H-M   'P 1'
_cell_length_a   5.22854866
_cell_length_b   5.21730148
_cell_length_c   9.00907507
_cell_angle_alpha   72.76294157
_cell_angle_beta   90.79580859
_cell_angle_gamma   120.24269294
_symmetry_Int_Tables_number   1
_chemical_formula_structural   Dy3LuFe5Os3
_chemical_formula_sum   'Dy3 Lu1 Fe5 Os3'
_cell_volume   200.02732013
_cell_formula_units_Z   1
loop_
 _symmetry_equiv_pos_site_id
 _symmetry_equiv_pos_as_xyz
  1  'x, y, z'
loop_
 _atom_site_type_symbol
 _atom_site_label
 _atom_site_symmetry_multiplicity
 _atom_site_fract_x
 _atom_site_fract_y
 _atom_site_fract_z
 _atom_site_occupancy
  Dy  Dy0  1  0.375810  0.749463  0.873871  1
  Dy  Dy1  1  0.998436  0.998620  0.999595  1
  Dy  Dy2  1  0.499759  0.000768  0.500765  1
  Lu  Lu3  1  0.876703  0.751201  0.375469  1
  Fe  Fe4  1  0.937588  0.875363  0.685909  1
  Fe  Fe5  1  0.183919  0.369786  0.443008  1
  Fe  Fe6  1  0.690718  0.379935  0.931628  1
  Fe  Fe7  1  0.937052  0.373946  0.189275  1
  Fe  Fe8  1  0.438575  0.376544  0.685854  1
  Os  Os9  1  0.437042  0.373037  0.189570  1
  Os  Os10  1  0.937378  0.377247  0.685433  1
  Os  Os11  1  0.437018  0.874090  0.189619  1
