# generated using pymatgen
data_PrHo5V2(Co4P3)4
_symmetry_space_group_name_H-M   'P 1'
_cell_length_a   3.69874600
_cell_length_b   10.57713800
_cell_length_c   12.25920000
_cell_angle_alpha   90.00000000
_cell_angle_beta   90.00000000
_cell_angle_gamma   90.00000000
_symmetry_Int_Tables_number   1
_chemical_formula_structural   PrHo5V2(Co4P3)4
_chemical_formula_sum   'Pr1 Ho5 V2 Co16 P12'
_cell_volume   479.60622290
_cell_formula_units_Z   1
loop_
 _symmetry_equiv_pos_site_id
 _symmetry_equiv_pos_as_xyz
  1  'x, y, z'
loop_
 _atom_site_type_symbol
 _atom_site_label
 _atom_site_symmetry_multiplicity
 _atom_site_fract_x
 _atom_site_fract_y
 _atom_site_fract_z
 _atom_site_occupancy
  Pr  Pr0  1  0.000000  0.500000  0.524198  1
  Ho  Ho1  1  0.500000  0.000000  0.476818  1
  Ho  Ho2  1  0.500000  0.819042  0.204080  1
  Ho  Ho3  1  0.500000  0.180958  0.204080  1
  Ho  Ho4  1  0.000000  0.681716  0.796665  1
  Ho  Ho5  1  0.000000  0.318284  0.796665  1
  V  V6  1  0.500000  0.500000  0.151738  1
  V  V7  1  0.000000  0.000000  0.846222  1
  Co  Co8  1  0.000000  0.500000  0.987055  1
  Co  Co9  1  0.500000  0.000000  0.013188  1
  Co  Co10  1  0.500000  0.291914  0.430372  1
  Co  Co11  1  0.500000  0.708086  0.430372  1
  Co  Co12  1  0.000000  0.201138  0.569422  1
  Co  Co13  1  0.000000  0.798862  0.569422  1
  Co  Co14  1  0.500000  0.879840  0.708841  1
  Co  Co15  1  0.500000  0.120160  0.708841  1
  Co  Co16  1  0.000000  0.622093  0.290475  1
  Co  Co17  1  0.000000  0.377907  0.290475  1
  Co  Co18  1  0.500000  0.331914  0.993006  1
  Co  Co19  1  0.500000  0.668086  0.993006  1
  Co  Co20  1  0.000000  0.167320  0.006975  1
  Co  Co21  1  0.000000  0.832680  0.006975  1
  Co  Co22  1  0.500000  0.500000  0.705602  1
  Co  Co23  1  0.000000  0.000000  0.297241  1
  P  P24  1  0.500000  0.306785  0.617849  1
  P  P25  1  0.500000  0.693215  0.617849  1
  P  P26  1  0.000000  0.187822  0.383651  1
  P  P27  1  0.000000  0.812178  0.383651  1
  P  P28  1  0.500000  0.500000  0.883301  1
  P  P29  1  0.000000  0.000000  0.117755  1
  P  P30  1  0.500000  0.846132  0.892177  1
  P  P31  1  0.500000  0.153868  0.892177  1
  P  P32  1  0.000000  0.654646  0.107526  1
  P  P33  1  0.000000  0.345354  0.107526  1
  P  P34  1  0.500000  0.500000  0.342158  1
  P  P35  1  0.000000  0.000000  0.652644  1
