# generated using pymatgen
data_TbHo2ZnIn3Pt2
_symmetry_space_group_name_H-M   'P 1'
_cell_length_a   7.66109300
_cell_length_b   7.69045965
_cell_length_c   3.89756100
_cell_angle_alpha   90.00000000
_cell_angle_beta   90.00000000
_cell_angle_gamma   119.87376683
_symmetry_Int_Tables_number   1
_chemical_formula_structural   TbHo2ZnIn3Pt2
_chemical_formula_sum   'Tb1 Ho2 Zn1 In3 Pt2'
_cell_volume   199.12124869
_cell_formula_units_Z   1
loop_
 _symmetry_equiv_pos_site_id
 _symmetry_equiv_pos_as_xyz
  1  'x, y, z'
loop_
 _atom_site_type_symbol
 _atom_site_label
 _atom_site_symmetry_multiplicity
 _atom_site_fract_x
 _atom_site_fract_y
 _atom_site_fract_z
 _atom_site_occupancy
  Tb  Tb0  1  0.591467  0.000000  0.500000  1
  Ho  Ho1  1  0.408814  0.408834  0.500000  1
  Ho  Ho2  1  0.999980  0.591166  0.500000  1
  Zn  Zn3  1  0.000442  0.000000  0.500000  1
  In  In4  1  0.740763  0.739763  0.000000  1
  In  In5  1  0.001001  0.260237  0.000000  1
  In  In6  1  0.258699  0.000000  0.000000  1
  Pt  Pt7  1  0.331822  0.664810  0.000000  1
  Pt  Pt8  1  0.667012  0.335190  0.000000  1
