# generated using pymatgen
data_Tb2Zr4Sn5
_symmetry_space_group_name_H-M   'P 1'
_cell_length_a   6.00023392
_cell_length_b   9.14698430
_cell_length_c   11.18731640
_cell_angle_alpha   114.13013553
_cell_angle_beta   105.55547011
_cell_angle_gamma   90.00000558
_symmetry_Int_Tables_number   1
_chemical_formula_structural   Tb2Zr4Sn5
_chemical_formula_sum   'Tb4 Zr8 Sn10'
_cell_volume   535.61462226
_cell_formula_units_Z   2
loop_
 _symmetry_equiv_pos_site_id
 _symmetry_equiv_pos_as_xyz
  1  'x, y, z'
loop_
 _atom_site_type_symbol
 _atom_site_label
 _atom_site_symmetry_multiplicity
 _atom_site_fract_x
 _atom_site_fract_y
 _atom_site_fract_z
 _atom_site_occupancy
  Tb  Tb0  1  0.142851  0.257333  0.285704  1
  Tb  Tb1  1  0.857149  0.742667  0.714296  1
  Tb  Tb2  1  0.642851  0.028370  0.285704  1
  Tb  Tb3  1  0.357149  0.971630  0.714296  1
  Zr  Zr4  1  0.560282  0.310282  0.620564  1
  Zr  Zr5  1  0.439718  0.689718  0.379436  1
  Zr  Zr6  1  0.939718  0.689718  0.379436  1
  Zr  Zr7  1  0.060282  0.310282  0.620564  1
  Zr  Zr8  1  0.437311  0.676076  0.874622  1
  Zr  Zr9  1  0.562689  0.323924  0.125378  1
  Zr  Zr10  1  0.937311  0.198547  0.874622  1
  Zr  Zr11  1  0.062689  0.801453  0.125378  1
  Sn  Sn12  1  0.290337  0.590016  0.580674  1
  Sn  Sn13  1  0.709663  0.409984  0.419326  1
  Sn  Sn14  1  0.790337  0.990658  0.580674  1
  Sn  Sn15  1  0.209663  0.009342  0.419326  1
  Sn  Sn16  1  0.250000  0.000000  0.000000  1
  Sn  Sn17  1  0.750000  0.000000  0.000000  1
  Sn  Sn18  1  0.067262  0.470275  0.134525  1
  Sn  Sn19  1  0.932738  0.529725  0.865475  1
  Sn  Sn20  1  0.567262  0.664250  0.134525  1
  Sn  Sn21  1  0.432738  0.335750  0.865475  1
