# generated using pymatgen
data_Yb8NbSi16Tc11
_symmetry_space_group_name_H-M   'P 1'
_cell_length_a   6.78987626
_cell_length_b   6.84299364
_cell_length_c   12.65574600
_cell_angle_alpha   90.00000000
_cell_angle_beta   90.00000000
_cell_angle_gamma   89.85096886
_symmetry_Int_Tables_number   1
_chemical_formula_structural   Yb8NbSi16Tc11
_chemical_formula_sum   'Yb8 Nb1 Si16 Tc11'
_cell_volume   588.02295027
_cell_formula_units_Z   1
loop_
 _symmetry_equiv_pos_site_id
 _symmetry_equiv_pos_as_xyz
  1  'x, y, z'
loop_
 _atom_site_type_symbol
 _atom_site_label
 _atom_site_symmetry_multiplicity
 _atom_site_fract_x
 _atom_site_fract_y
 _atom_site_fract_z
 _atom_site_occupancy
  Yb  Yb0  1  0.489825  0.657043  0.589611  1
  Yb  Yb1  1  0.991427  0.841443  0.909403  1
  Yb  Yb2  1  0.507843  0.338165  0.088582  1
  Yb  Yb3  1  0.008229  0.160787  0.411500  1
  Yb  Yb4  1  0.507843  0.338165  0.411418  1
  Yb  Yb5  1  0.008229  0.160787  0.088500  1
  Yb  Yb6  1  0.489825  0.657043  0.910389  1
  Yb  Yb7  1  0.991427  0.841443  0.590597  1
  Nb  Nb8  1  0.667832  0.993986  0.250000  1
  Si  Si9  1  0.656637  0.955214  0.455270  1
  Si  Si10  1  0.151755  0.551605  0.052189  1
  Si  Si11  1  0.349117  0.046510  0.946922  1
  Si  Si12  1  0.847286  0.453564  0.552094  1
  Si  Si13  1  0.349117  0.046510  0.553078  1
  Si  Si14  1  0.847286  0.453564  0.947906  1
  Si  Si15  1  0.656637  0.955214  0.044730  1
  Si  Si16  1  0.151755  0.551605  0.447811  1
  Si  Si17  1  0.467738  0.354224  0.750000  1
  Si  Si18  1  0.970839  0.146225  0.750000  1
  Si  Si19  1  0.526825  0.629931  0.250000  1
  Si  Si20  1  0.038802  0.855782  0.250000  1
  Si  Si21  1  0.684891  0.860257  0.750000  1
  Si  Si22  1  0.185572  0.636799  0.750000  1
  Si  Si23  1  0.302773  0.140871  0.250000  1
  Si  Si24  1  0.814654  0.365910  0.250000  1
  Tc  Tc25  1  0.674004  0.153809  0.629892  1
  Tc  Tc26  1  0.173661  0.346150  0.873429  1
  Tc  Tc27  1  0.334425  0.846427  0.126771  1
  Tc  Tc28  1  0.822149  0.655526  0.373832  1
  Tc  Tc29  1  0.334425  0.846427  0.373229  1
  Tc  Tc30  1  0.822149  0.655526  0.126168  1
  Tc  Tc31  1  0.674004  0.153809  0.870108  1
  Tc  Tc32  1  0.173661  0.346150  0.626571  1
  Tc  Tc33  1  0.828473  0.501900  0.750000  1
  Tc  Tc34  1  0.328193  0.996643  0.750000  1
  Tc  Tc35  1  0.170690  0.504984  0.250000  1
