# generated using pymatgen
data_CrFe3(PtO3)8
_symmetry_space_group_name_H-M   'P 1'
_cell_length_a   4.58525104
_cell_length_b   18.93355200
_cell_length_c   4.60494914
_cell_angle_alpha   90.00018353
_cell_angle_beta   89.97803176
_cell_angle_gamma   89.99996750
_symmetry_Int_Tables_number   1
_chemical_formula_structural   CrFe3(PtO3)8
_chemical_formula_sum   'Cr1 Fe3 Pt8 O24'
_cell_volume   399.77904052
_cell_formula_units_Z   1
loop_
 _symmetry_equiv_pos_site_id
 _symmetry_equiv_pos_as_xyz
  1  'x, y, z'
loop_
 _atom_site_type_symbol
 _atom_site_label
 _atom_site_symmetry_multiplicity
 _atom_site_fract_x
 _atom_site_fract_y
 _atom_site_fract_z
 _atom_site_occupancy
  Cr  Cr0  1  0.500164  0.250022  0.500111  1
  Fe  Fe1  1  0.999852  0.499647  0.000089  1
  Fe  Fe2  1  0.500136  0.750037  0.499988  1
  Fe  Fe3  1  0.999994  0.000298  0.000021  1
  Pt  Pt4  1  0.000051  0.166394  0.999973  1
  Pt  Pt5  1  0.000055  0.665882  0.000014  1
  Pt  Pt6  1  0.499936  0.415522  0.500023  1
  Pt  Pt7  1  0.499960  0.916367  0.500002  1
  Pt  Pt8  1  0.499986  0.084494  0.499999  1
  Pt  Pt9  1  0.499958  0.583695  0.500032  1
  Pt  Pt10  1  0.000041  0.333571  0.999968  1
  Pt  Pt11  1  0.000028  0.834085  0.000024  1
  O  O12  1  0.803545  0.249966  0.190357  1
  O  O13  1  0.806216  0.750004  0.188578  1
  O  O14  1  0.306164  0.000596  0.311448  1
  O  O15  1  0.306176  0.499435  0.311436  1
  O  O16  1  0.693812  0.499435  0.688538  1
  O  O17  1  0.693833  0.000595  0.688559  1
  O  O18  1  0.196529  0.249968  0.809553  1
  O  O19  1  0.193814  0.750005  0.811349  1
  O  O20  1  0.804811  0.417420  0.189595  1
  O  O21  1  0.804625  0.918270  0.189987  1
  O  O22  1  0.804831  0.082558  0.189595  1
  O  O23  1  0.804647  0.581755  0.190043  1
  O  O24  1  0.304501  0.168655  0.310175  1
  O  O25  1  0.304812  0.667815  0.310160  1
  O  O26  1  0.304496  0.331312  0.310210  1
  O  O27  1  0.304772  0.832205  0.310186  1
  O  O28  1  0.695499  0.168661  0.689744  1
  O  O29  1  0.695201  0.667807  0.689837  1
  O  O30  1  0.695455  0.331306  0.689738  1
  O  O31  1  0.695169  0.832214  0.689824  1
  O  O32  1  0.195107  0.417430  0.810454  1
  O  O33  1  0.195315  0.918272  0.809981  1
  O  O34  1  0.195177  0.082560  0.810410  1
  O  O35  1  0.195330  0.581740  0.809999  1
