# generated using pymatgen
data_Tc4B8Mo7W
_symmetry_space_group_name_H-M   'P 1'
_cell_length_a   3.10999200
_cell_length_b   7.54029209
_cell_length_c   9.65997511
_cell_angle_alpha   89.98270501
_cell_angle_beta   90.00000000
_cell_angle_gamma   90.00000000
_symmetry_Int_Tables_number   1
_chemical_formula_structural   Tc4B8Mo7W
_chemical_formula_sum   'Tc4 B8 Mo7 W1'
_cell_volume   226.52880231
_cell_formula_units_Z   1
loop_
 _symmetry_equiv_pos_site_id
 _symmetry_equiv_pos_as_xyz
  1  'x, y, z'
loop_
 _atom_site_type_symbol
 _atom_site_label
 _atom_site_symmetry_multiplicity
 _atom_site_fract_x
 _atom_site_fract_y
 _atom_site_fract_z
 _atom_site_occupancy
  Tc  Tc0  1  0.500000  0.622569  0.395811  1
  Tc  Tc1  1  0.500000  0.377071  0.604272  1
  Tc  Tc2  1  0.000000  0.876533  0.895923  1
  Tc  Tc3  1  0.000000  0.122672  0.104647  1
  B  B4  1  0.500000  0.114947  0.459447  1
  B  B5  1  0.500000  0.884993  0.540777  1
  B  B6  1  0.000000  0.384929  0.959247  1
  B  B7  1  0.000000  0.614822  0.040586  1
  B  B8  1  0.500000  0.121860  0.266484  1
  B  B9  1  0.500000  0.877869  0.733495  1
  B  B10  1  0.000000  0.377779  0.766363  1
  B  B11  1  0.000000  0.622533  0.233685  1
  Mo  Mo12  1  0.500000  0.189966  0.869768  1
  Mo  Mo13  1  0.000000  0.689960  0.630056  1
  Mo  Mo14  1  0.000000  0.310000  0.369814  1
  Mo  Mo15  1  0.500000  0.577520  0.861934  1
  Mo  Mo16  1  0.500000  0.422285  0.137707  1
  Mo  Mo17  1  0.000000  0.921923  0.362230  1
  Mo  Mo18  1  0.000000  0.078102  0.638011  1
  W  W19  1  0.500000  0.811668  0.129742  1
