# generated using pymatgen
data_Cs8HfGeSe8
_symmetry_space_group_name_H-M   'P 1'
_cell_length_a   9.01804655
_cell_length_b   10.74954200
_cell_length_c   15.82936400
_cell_angle_alpha   90.00000000
_cell_angle_beta   90.19560429
_cell_angle_gamma   90.00000000
_symmetry_Int_Tables_number   1
_chemical_formula_structural   Cs8HfGeSe8
_chemical_formula_sum   'Cs16 Hf2 Ge2 Se16'
_cell_volume   1534.48754885
_cell_formula_units_Z   2
loop_
 _symmetry_equiv_pos_site_id
 _symmetry_equiv_pos_as_xyz
  1  'x, y, z'
loop_
 _atom_site_type_symbol
 _atom_site_label
 _atom_site_symmetry_multiplicity
 _atom_site_fract_x
 _atom_site_fract_y
 _atom_site_fract_z
 _atom_site_occupancy
  Cs  Cs0  1  0.000000  0.000000  0.000000  1
  Cs  Cs1  1  0.500000  0.000000  0.500000  1
  Cs  Cs2  1  0.000000  0.500000  0.000000  1
  Cs  Cs3  1  0.500000  0.500000  0.500000  1
  Cs  Cs4  1  0.994663  0.750000  0.423188  1
  Cs  Cs5  1  0.494318  0.250000  0.079329  1
  Cs  Cs6  1  0.005337  0.250000  0.576812  1
  Cs  Cs7  1  0.505682  0.750000  0.920671  1
  Cs  Cs8  1  0.832883  0.048350  0.277338  1
  Cs  Cs9  1  0.331307  0.939371  0.218805  1
  Cs  Cs10  1  0.167117  0.548350  0.722662  1
  Cs  Cs11  1  0.668693  0.439371  0.781195  1
  Cs  Cs12  1  0.167117  0.951650  0.722662  1
  Cs  Cs13  1  0.668693  0.060629  0.781195  1
  Cs  Cs14  1  0.832883  0.451650  0.277338  1
  Cs  Cs15  1  0.331307  0.560629  0.218805  1
  Hf  Hf16  1  0.761662  0.750000  0.666439  1
  Hf  Hf17  1  0.238338  0.250000  0.333561  1
  Ge  Ge18  1  0.734259  0.750000  0.163372  1
  Ge  Ge19  1  0.265741  0.250000  0.836628  1
  Se  Se20  1  0.997799  0.250000  0.826694  1
  Se  Se21  1  0.518214  0.250000  0.326272  1
  Se  Se22  1  0.481786  0.750000  0.673728  1
  Se  Se23  1  0.002201  0.750000  0.173306  1
  Se  Se24  1  0.650189  0.568615  0.089731  1
  Se  Se25  1  0.153815  0.441264  0.410333  1
  Se  Se26  1  0.349811  0.068615  0.910269  1
  Se  Se27  1  0.846185  0.941264  0.589667  1
  Se  Se28  1  0.349811  0.431385  0.910269  1
  Se  Se29  1  0.846185  0.558736  0.589667  1
  Se  Se30  1  0.650189  0.931385  0.089731  1
  Se  Se31  1  0.153815  0.058736  0.410333  1
  Se  Se32  1  0.635722  0.750000  0.306465  1
  Se  Se33  1  0.130057  0.250000  0.185282  1
  Se  Se34  1  0.364278  0.250000  0.693535  1
  Se  Se35  1  0.869943  0.750000  0.814718  1
