# generated using pymatgen
data_LiYb4Zn2Ag11
_symmetry_space_group_name_H-M   'P 1'
_cell_length_a   5.46056016
_cell_length_b   5.58033440
_cell_length_c   14.01402200
_cell_angle_alpha   90.00000000
_cell_angle_beta   90.00000000
_cell_angle_gamma   122.13990085
_symmetry_Int_Tables_number   1
_chemical_formula_structural   LiYb4Zn2Ag11
_chemical_formula_sum   'Li1 Yb4 Zn2 Ag11'
_cell_volume   361.58988003
_cell_formula_units_Z   1
loop_
 _symmetry_equiv_pos_site_id
 _symmetry_equiv_pos_as_xyz
  1  'x, y, z'
loop_
 _atom_site_type_symbol
 _atom_site_label
 _atom_site_symmetry_multiplicity
 _atom_site_fract_x
 _atom_site_fract_y
 _atom_site_fract_z
 _atom_site_occupancy
  Li  Li0  1  0.169271  0.676009  0.750000  1
  Yb  Yb1  1  0.821175  0.817140  0.118032  1
  Yb  Yb2  1  0.179499  0.182663  0.888905  1
  Yb  Yb3  1  0.821175  0.817140  0.381968  1
  Yb  Yb4  1  0.179499  0.182663  0.611095  1
  Zn  Zn5  1  0.333093  0.831922  0.250000  1
  Zn  Zn6  1  0.834388  0.330106  0.250000  1
  Ag  Ag7  1  0.156148  0.488596  0.081353  1
  Ag  Ag8  1  0.498369  0.835354  0.924054  1
  Ag  Ag9  1  0.496763  0.158212  0.081221  1
  Ag  Ag10  1  0.845208  0.515498  0.576291  1
  Ag  Ag11  1  0.496763  0.158212  0.418779  1
  Ag  Ag12  1  0.845208  0.515498  0.923709  1
  Ag  Ag13  1  0.671898  0.170345  0.750000  1
  Ag  Ag14  1  0.665062  0.667202  0.750000  1
  Ag  Ag15  1  0.498369  0.835354  0.575946  1
  Ag  Ag16  1  0.156148  0.488596  0.418647  1
  Ag  Ag17  1  0.331967  0.329487  0.250000  1
