# generated using pymatgen
data_Ho3Tm3Al17Si7Os8
_symmetry_space_group_name_H-M   'P 1'
_cell_length_a   8.67239803
_cell_length_b   8.66299742
_cell_length_c   9.44988700
_cell_angle_alpha   90.00000000
_cell_angle_beta   90.00000000
_cell_angle_gamma   120.08021220
_symmetry_Int_Tables_number   1
_chemical_formula_structural   Ho3Tm3Al17Si7Os8
_chemical_formula_sum   'Ho3 Tm3 Al17 Si7 Os8'
_cell_volume   614.34600553
_cell_formula_units_Z   1
loop_
 _symmetry_equiv_pos_site_id
 _symmetry_equiv_pos_as_xyz
  1  'x, y, z'
loop_
 _atom_site_type_symbol
 _atom_site_label
 _atom_site_symmetry_multiplicity
 _atom_site_fract_x
 _atom_site_fract_y
 _atom_site_fract_z
 _atom_site_occupancy
  Ho  Ho0  1  0.806742  0.613554  0.750000  1
  Ho  Ho1  1  0.388441  0.191369  0.750000  1
  Ho  Ho2  1  0.802409  0.191874  0.750000  1
  Tm  Tm3  1  0.193730  0.390203  0.250000  1
  Tm  Tm4  1  0.608959  0.806310  0.250000  1
  Tm  Tm5  1  0.196688  0.804328  0.250000  1
  Al  Al6  1  0.164274  0.329379  0.578695  1
  Al  Al7  1  0.834261  0.671324  0.420595  1
  Al  Al8  1  0.671471  0.835033  0.578264  1
  Al  Al9  1  0.834261  0.671324  0.079405  1
  Al  Al10  1  0.329611  0.165994  0.421756  1
  Al  Al11  1  0.164274  0.329379  0.921305  1
  Al  Al12  1  0.163614  0.834327  0.577318  1
  Al  Al13  1  0.329611  0.165994  0.078244  1
  Al  Al14  1  0.835596  0.164163  0.420882  1
  Al  Al15  1  0.671471  0.835033  0.921736  1
  Al  Al16  1  0.835596  0.164163  0.079118  1
  Al  Al17  1  0.163614  0.834327  0.922682  1
  Al  Al18  1  0.125614  0.565301  0.750000  1
  Al  Al19  1  0.564349  0.435338  0.250000  1
  Al  Al20  1  0.438632  0.566155  0.750000  1
  Al  Al21  1  0.999448  0.999296  0.250000  1
  Al  Al22  1  0.000044  0.000922  0.750000  1
  Si  Si23  1  0.333420  0.664729  0.039900  1
  Si  Si24  1  0.666548  0.335655  0.959799  1
  Si  Si25  1  0.666548  0.335655  0.540201  1
  Si  Si26  1  0.333420  0.664729  0.460100  1
  Si  Si27  1  0.564330  0.123993  0.250000  1
  Si  Si28  1  0.436527  0.873187  0.750000  1
  Si  Si29  1  0.875127  0.435208  0.250000  1
  Os  Os30  1  0.500709  0.000517  0.001516  1
  Os  Os31  1  0.998938  0.499643  0.007090  1
  Os  Os32  1  0.500709  0.000517  0.498484  1
  Os  Os33  1  0.500449  0.500375  0.000858  1
  Os  Os34  1  0.998938  0.499643  0.492910  1
  Os  Os35  1  0.500449  0.500375  0.499142  1
  Os  Os36  1  0.000589  0.000342  0.000241  1
  Os  Os37  1  0.000589  0.000342  0.499759  1
