# generated using pymatgen
data_Ho3Er2Bi3
_symmetry_space_group_name_H-M   'P 1'
_cell_length_a   8.22009100
_cell_length_b   9.47746000
_cell_length_c   11.99094200
_cell_angle_alpha   90.00000000
_cell_angle_beta   90.00000000
_cell_angle_gamma   90.00000000
_symmetry_Int_Tables_number   1
_chemical_formula_structural   Ho3Er2Bi3
_chemical_formula_sum   'Ho12 Er8 Bi12'
_cell_volume   934.16133501
_cell_formula_units_Z   4
loop_
 _symmetry_equiv_pos_site_id
 _symmetry_equiv_pos_as_xyz
  1  'x, y, z'
loop_
 _atom_site_type_symbol
 _atom_site_label
 _atom_site_symmetry_multiplicity
 _atom_site_fract_x
 _atom_site_fract_y
 _atom_site_fract_z
 _atom_site_occupancy
  Ho  Ho0  1  0.353475  0.750000  0.216434  1
  Ho  Ho1  1  0.853475  0.750000  0.283566  1
  Ho  Ho2  1  0.646525  0.250000  0.783566  1
  Ho  Ho3  1  0.146525  0.250000  0.716434  1
  Ho  Ho4  1  0.476760  0.250000  0.488943  1
  Ho  Ho5  1  0.976760  0.250000  0.011057  1
  Ho  Ho6  1  0.523240  0.750000  0.511057  1
  Ho  Ho7  1  0.023240  0.750000  0.988943  1
  Ho  Ho8  1  0.314361  0.250000  0.218053  1
  Ho  Ho9  1  0.814361  0.250000  0.281947  1
  Ho  Ho10  1  0.685639  0.750000  0.781947  1
  Ho  Ho11  1  0.185639  0.750000  0.718053  1
  Er  Er12  1  0.691936  0.564738  0.058977  1
  Er  Er13  1  0.191936  0.935262  0.441023  1
  Er  Er14  1  0.308064  0.064738  0.941023  1
  Er  Er15  1  0.808064  0.435262  0.558977  1
  Er  Er16  1  0.308064  0.435262  0.941023  1
  Er  Er17  1  0.808064  0.064738  0.558977  1
  Er  Er18  1  0.691936  0.935262  0.058977  1
  Er  Er19  1  0.191936  0.564738  0.441023  1
  Bi  Bi20  1  0.405439  0.750000  0.957487  1
  Bi  Bi21  1  0.905439  0.750000  0.542513  1
  Bi  Bi22  1  0.594561  0.250000  0.042513  1
  Bi  Bi23  1  0.094561  0.250000  0.457487  1
  Bi  Bi24  1  0.566165  0.996122  0.325675  1
  Bi  Bi25  1  0.066165  0.503878  0.174325  1
  Bi  Bi26  1  0.433835  0.496122  0.674325  1
  Bi  Bi27  1  0.933835  0.003878  0.825675  1
  Bi  Bi28  1  0.433835  0.003878  0.674325  1
  Bi  Bi29  1  0.933835  0.496122  0.825675  1
  Bi  Bi30  1  0.566165  0.503878  0.325675  1
  Bi  Bi31  1  0.066165  0.996122  0.174325  1
