# generated using pymatgen
data_Ca3Cd(Ga4Ag)2
_symmetry_space_group_name_H-M   'P 1'
_cell_length_a   4.45360516
_cell_length_b   8.48602954
_cell_length_c   8.48602893
_cell_angle_alpha   71.21191881
_cell_angle_beta   74.78698313
_cell_angle_gamma   74.78699329
_symmetry_Int_Tables_number   1
_chemical_formula_structural   Ca3Cd(Ga4Ag)2
_chemical_formula_sum   'Ca3 Cd1 Ga8 Ag2'
_cell_volume   287.37836700
_cell_formula_units_Z   1
loop_
 _symmetry_equiv_pos_site_id
 _symmetry_equiv_pos_as_xyz
  1  'x, y, z'
loop_
 _atom_site_type_symbol
 _atom_site_label
 _atom_site_symmetry_multiplicity
 _atom_site_fract_x
 _atom_site_fract_y
 _atom_site_fract_z
 _atom_site_occupancy
  Ca  Ca0  1  0.500000  0.500000  0.500000  1
  Ca  Ca1  1  0.201826  0.798174  0.798174  1
  Ca  Ca2  1  0.798174  0.201826  0.201826  1
  Cd  Cd3  1  0.500000  0.000000  0.000000  1
  Ga  Ga4  1  0.354466  0.370858  0.920209  1
  Ga  Ga5  1  0.645534  0.629142  0.079791  1
  Ga  Ga6  1  0.354466  0.920209  0.370858  1
  Ga  Ga7  1  0.645534  0.079791  0.629142  1
  Ga  Ga8  1  0.160887  0.470935  0.207293  1
  Ga  Ga9  1  0.839113  0.529065  0.792707  1
  Ga  Ga10  1  0.160887  0.207293  0.470935  1
  Ga  Ga11  1  0.839113  0.792707  0.529065  1
  Ag  Ag12  1  0.000000  0.803597  0.196403  1
  Ag  Ag13  1  0.000000  0.196403  0.803597  1
