# generated using pymatgen
data_Tb14HoLu5Pb16
_symmetry_space_group_name_H-M   'P 1'
_cell_length_a   8.17706221
_cell_length_b   8.26799132
_cell_length_c   15.64601802
_cell_angle_alpha   89.99363520
_cell_angle_beta   89.99767296
_cell_angle_gamma   89.97389018
_symmetry_Int_Tables_number   1
_chemical_formula_structural   Tb14HoLu5Pb16
_chemical_formula_sum   'Tb14 Ho1 Lu5 Pb16'
_cell_volume   1057.79398213
_cell_formula_units_Z   1
loop_
 _symmetry_equiv_pos_site_id
 _symmetry_equiv_pos_as_xyz
  1  'x, y, z'
loop_
 _atom_site_type_symbol
 _atom_site_label
 _atom_site_symmetry_multiplicity
 _atom_site_fract_x
 _atom_site_fract_y
 _atom_site_fract_z
 _atom_site_occupancy
  Tb  Tb0  1  0.626922  0.157208  0.380295  1
  Tb  Tb1  1  0.126900  0.342790  0.119752  1
  Tb  Tb2  1  0.624886  0.158815  0.121401  1
  Tb  Tb3  1  0.124954  0.341144  0.378557  1
  Tb  Tb4  1  0.375273  0.842713  0.621253  1
  Tb  Tb5  1  0.875217  0.657334  0.878661  1
  Tb  Tb6  1  0.533504  0.323519  0.901111  1
  Tb  Tb7  1  0.033495  0.176625  0.598864  1
  Tb  Tb8  1  0.466235  0.676836  0.401743  1
  Tb  Tb9  1  0.966316  0.823236  0.098230  1
  Tb  Tb10  1  0.468883  0.678579  0.096886  1
  Tb  Tb11  1  0.968823  0.821340  0.403264  1
  Tb  Tb12  1  0.532781  0.325020  0.599739  1
  Tb  Tb13  1  0.032657  0.175081  0.900274  1
  Ho  Ho14  1  0.372478  0.843973  0.876344  1
  Lu  Lu15  1  0.872434  0.655948  0.623717  1
  Lu  Lu16  1  0.206217  0.505357  0.749865  1
  Lu  Lu17  1  0.706529  0.994497  0.749941  1
  Lu  Lu18  1  0.793723  0.495296  0.250756  1
  Lu  Lu19  1  0.293728  0.004771  0.249252  1
  Pb  Pb20  1  0.284105  0.033038  0.041780  1
  Pb  Pb21  1  0.784246  0.467261  0.458526  1
  Pb  Pb22  1  0.719204  0.961579  0.544902  1
  Pb  Pb23  1  0.218951  0.537877  0.955189  1
  Pb  Pb24  1  0.712159  0.964151  0.955619  1
  Pb  Pb25  1  0.211642  0.535941  0.544456  1
  Pb  Pb26  1  0.284059  0.034201  0.455866  1
  Pb  Pb27  1  0.784062  0.465792  0.044145  1
  Pb  Pb28  1  0.568646  0.625928  0.750361  1
  Pb  Pb29  1  0.068073  0.873854  0.749363  1
  Pb  Pb30  1  0.430988  0.375841  0.250648  1
  Pb  Pb31  1  0.930963  0.124147  0.249364  1
  Pb  Pb32  1  0.346102  0.156517  0.750255  1
  Pb  Pb33  1  0.846115  0.343797  0.749632  1
  Pb  Pb34  1  0.654348  0.843961  0.250140  1
  Pb  Pb35  1  0.154377  0.656031  0.249852  1
