# generated using pymatgen
data_La16Dy4Si15S
_symmetry_space_group_name_H-M   'P 1'
_cell_length_a   7.91394366
_cell_length_b   7.84219066
_cell_length_c   15.26814000
_cell_angle_alpha   89.63921540
_cell_angle_beta   89.13749836
_cell_angle_gamma   90.34675085
_symmetry_Int_Tables_number   1
_chemical_formula_structural   La16Dy4Si15S
_chemical_formula_sum   'La16 Dy4 Si15 S1'
_cell_volume   947.43725651
_cell_formula_units_Z   1
loop_
 _symmetry_equiv_pos_site_id
 _symmetry_equiv_pos_as_xyz
  1  'x, y, z'
loop_
 _atom_site_type_symbol
 _atom_site_label
 _atom_site_symmetry_multiplicity
 _atom_site_fract_x
 _atom_site_fract_y
 _atom_site_fract_z
 _atom_site_occupancy
  La  La0  1  0.377075  0.006510  0.444632  1
  La  La1  1  0.491336  0.868817  0.701547  1
  La  La2  1  0.513203  0.122843  0.197703  1
  La  La3  1  0.871909  0.481805  0.300187  1
  La  La4  1  0.126055  0.512409  0.798558  1
  La  La5  1  0.639273  0.981978  0.952966  1
  La  La6  1  0.003029  0.376992  0.547550  1
  La  La7  1  0.991823  0.626268  0.051142  1
  La  La8  1  0.145822  0.991292  0.868293  1
  La  La9  1  0.523422  0.629536  0.126935  1
  La  La10  1  0.460813  0.357846  0.634986  1
  La  La11  1  0.634604  0.528182  0.874509  1
  La  La12  1  0.367077  0.471458  0.374104  1
  La  La13  1  0.869639  0.024664  0.378603  1
  La  La14  1  0.979160  0.127165  0.122725  1
  La  La15  1  0.026106  0.878580  0.620233  1
  Dy  Dy16  1  0.314715  0.310763  0.999350  1
  Dy  Dy17  1  0.186663  0.808148  0.249373  1
  Dy  Dy18  1  0.802797  0.191406  0.751904  1
  Dy  Dy19  1  0.683467  0.686126  0.500527  1
  Si  Si20  1  0.330886  0.695924  0.953110  1
  Si  Si21  1  0.661757  0.309335  0.461106  1
  Si  Si22  1  0.698275  0.333210  0.045310  1
  Si  Si23  1  0.307908  0.665277  0.546218  1
  Si  Si24  1  0.810640  0.827505  0.208153  1
  Si  Si25  1  0.170528  0.186471  0.291708  1
  Si  Si26  1  0.841902  0.810395  0.791679  1
  Si  Si27  1  0.289253  0.926294  0.060311  1
  Si  Si28  1  0.576690  0.782223  0.313561  1
  Si  Si29  1  0.461173  0.208796  0.827246  1
  Si  Si30  1  0.786768  0.579569  0.684494  1
  Si  Si31  1  0.211454  0.424642  0.186488  1
  Si  Si32  1  0.702649  0.072982  0.565178  1
  Si  Si33  1  0.930957  0.290698  0.936295  1
  Si  Si34  1  0.073771  0.711050  0.436583  1
  S  S35  1  0.137400  0.192837  0.696732  1
