# generated using pymatgen
data_Dy5HoAl24Ir3Os5
_symmetry_space_group_name_H-M   'P 1'
_cell_length_a   8.77507939
_cell_length_b   8.78810321
_cell_length_c   9.58009297
_cell_angle_alpha   90.01336722
_cell_angle_beta   89.84609520
_cell_angle_gamma   119.44054110
_symmetry_Int_Tables_number   1
_chemical_formula_structural   Dy5HoAl24Ir3Os5
_chemical_formula_sum   'Dy5 Ho1 Al24 Ir3 Os5'
_cell_volume   643.37692044
_cell_formula_units_Z   1
loop_
 _symmetry_equiv_pos_site_id
 _symmetry_equiv_pos_as_xyz
  1  'x, y, z'
loop_
 _atom_site_type_symbol
 _atom_site_label
 _atom_site_symmetry_multiplicity
 _atom_site_fract_x
 _atom_site_fract_y
 _atom_site_fract_z
 _atom_site_occupancy
  Dy  Dy0  1  0.189115  0.385231  0.250887  1
  Dy  Dy1  1  0.811016  0.614860  0.749141  1
  Dy  Dy2  1  0.613550  0.811606  0.250748  1
  Dy  Dy3  1  0.386464  0.188331  0.749270  1
  Dy  Dy4  1  0.194365  0.808625  0.250874  1
  Ho  Ho5  1  0.804906  0.191652  0.748902  1
  Al  Al6  1  0.333882  0.668461  0.025780  1
  Al  Al7  1  0.666354  0.331569  0.973888  1
  Al  Al8  1  0.667769  0.332413  0.524790  1
  Al  Al9  1  0.332252  0.667546  0.475477  1
  Al  Al10  1  0.162405  0.326739  0.575824  1
  Al  Al11  1  0.837402  0.673084  0.424447  1
  Al  Al12  1  0.672716  0.836765  0.575877  1
  Al  Al13  1  0.835784  0.673448  0.076157  1
  Al  Al14  1  0.327420  0.163333  0.424361  1
  Al  Al15  1  0.164045  0.326395  0.923664  1
  Al  Al16  1  0.164066  0.834969  0.575608  1
  Al  Al17  1  0.327190  0.163081  0.075531  1
  Al  Al18  1  0.835954  0.164984  0.424736  1
  Al  Al19  1  0.673065  0.837129  0.924251  1
  Al  Al20  1  0.834309  0.163202  0.074999  1
  Al  Al21  1  0.165808  0.836846  0.924582  1
  Al  Al22  1  0.560976  0.125362  0.249655  1
  Al  Al23  1  0.439256  0.874678  0.750341  1
  Al  Al24  1  0.875551  0.439465  0.250619  1
  Al  Al25  1  0.124232  0.560123  0.749520  1
  Al  Al26  1  0.561788  0.438674  0.249645  1
  Al  Al27  1  0.438276  0.561274  0.750398  1
  Al  Al28  1  0.999012  0.002030  0.250059  1
  Al  Al29  1  0.000612  0.998436  0.749984  1
  Ir  Ir30  1  0.999967  0.499850  0.999939  1
  Ir  Ir31  1  0.500097  0.499934  0.999994  1
  Ir  Ir32  1  0.500036  0.499938  0.500047  1
  Os  Os33  1  0.500204  0.000137  0.999838  1
  Os  Os34  1  0.500187  0.000119  0.500159  1
  Os  Os35  1  0.999858  0.499797  0.500164  1
  Os  Os36  1  0.000067  0.999971  0.999919  1
  Os  Os37  1  0.000044  0.999945  0.499923  1
