# generated using pymatgen
data_Ti4Ge2B4(RuRh)5
_symmetry_space_group_name_H-M   'P 1'
_cell_length_a   9.23175969
_cell_length_b   2.98198900
_cell_length_c   9.27407166
_cell_angle_alpha   90.00000000
_cell_angle_beta   90.08715573
_cell_angle_gamma   90.00000000
_symmetry_Int_Tables_number   1
_chemical_formula_structural   Ti4Ge2B4(RuRh)5
_chemical_formula_sum   'Ti4 Ge2 B4 Ru5 Rh5'
_cell_volume   255.30567764
_cell_formula_units_Z   1
loop_
 _symmetry_equiv_pos_site_id
 _symmetry_equiv_pos_as_xyz
  1  'x, y, z'
loop_
 _atom_site_type_symbol
 _atom_site_label
 _atom_site_symmetry_multiplicity
 _atom_site_fract_x
 _atom_site_fract_y
 _atom_site_fract_z
 _atom_site_occupancy
  Ti  Ti0  1  0.329500  0.000000  0.174720  1
  Ti  Ti1  1  0.829090  0.000000  0.319928  1
  Ti  Ti2  1  0.170487  0.000000  0.669751  1
  Ti  Ti3  1  0.674053  0.000000  0.835907  1
  Ge  Ge4  1  0.998096  0.000000  0.003983  1
  Ge  Ge5  1  0.501085  0.000000  0.496928  1
  B  B6  1  0.625264  0.000000  0.125592  1
  B  B7  1  0.122292  0.000000  0.372949  1
  B  B8  1  0.876548  0.000000  0.624405  1
  B  B9  1  0.375898  0.000000  0.875929  1
  Ru  Ru10  1  0.497270  0.500001  0.999767  1
  Ru  Ru11  1  0.786540  0.500001  0.070224  1
  Ru  Ru12  1  0.077051  0.500001  0.212484  1
  Ru  Ru13  1  0.572586  0.500001  0.288093  1
  Ru  Ru14  1  0.998843  0.500001  0.499805  1
  Rh  Rh15  1  0.286359  0.500001  0.430645  1
  Rh  Rh16  1  0.712694  0.500001  0.577376  1
  Rh  Rh17  1  0.426792  0.500001  0.711623  1
  Rh  Rh18  1  0.928294  0.500001  0.786973  1
  Rh  Rh19  1  0.211259  0.500001  0.922923  1
