# generated using pymatgen
data_YbThZn14Co3
_symmetry_space_group_name_H-M   'P 1'
_cell_length_a   6.70955160
_cell_length_b   6.70955142
_cell_length_c   6.70955000
_cell_angle_alpha   82.72608108
_cell_angle_beta   97.27380681
_cell_angle_gamma   97.27385838
_symmetry_Int_Tables_number   1
_chemical_formula_structural   YbThZn14Co3
_chemical_formula_sum   'Yb1 Th1 Zn14 Co3'
_cell_volume   295.32617164
_cell_formula_units_Z   1
loop_
 _symmetry_equiv_pos_site_id
 _symmetry_equiv_pos_as_xyz
  1  'x, y, z'
loop_
 _atom_site_type_symbol
 _atom_site_label
 _atom_site_symmetry_multiplicity
 _atom_site_fract_x
 _atom_site_fract_y
 _atom_site_fract_z
 _atom_site_occupancy
  Yb  Yb0  1  0.340349  0.659650  0.659650  1
  Th  Th1  1  0.667026  0.332973  0.332974  1
  Zn  Zn2  1  0.288298  0.294489  0.998656  1
  Zn  Zn3  1  0.705511  0.711702  0.998656  1
  Zn  Zn4  1  0.898851  0.101147  0.101148  1
  Zn  Zn5  1  0.344466  0.655535  0.140624  1
  Zn  Zn6  1  0.001344  0.711702  0.294488  1
  Zn  Zn7  1  0.288298  0.998656  0.294489  1
  Zn  Zn8  1  0.652721  0.848201  0.347278  1
  Zn  Zn9  1  0.151799  0.347279  0.347280  1
  Zn  Zn10  1  0.859376  0.655535  0.655534  1
  Zn  Zn11  1  0.344465  0.140623  0.655535  1
  Zn  Zn12  1  0.001344  0.294489  0.711701  1
  Zn  Zn13  1  0.705511  0.998656  0.711702  1
  Zn  Zn14  1  0.652721  0.347279  0.848201  1
  Zn  Zn15  1  0.110562  0.889438  0.889437  1
  Co  Co16  1  0.502135  0.007389  0.007389  1
  Co  Co17  1  0.992611  0.497864  0.007389  1
  Co  Co18  1  0.992611  0.007389  0.497865  1
