# generated using pymatgen
data_Tb2HoLu2(In2Pt)2
_symmetry_space_group_name_H-M   'P 1'
_cell_length_a   3.61453900
_cell_length_b   8.15483579
_cell_length_c   18.10971529
_cell_angle_alpha   90.12213755
_cell_angle_beta   90.00000000
_cell_angle_gamma   90.00000000
_symmetry_Int_Tables_number   1
_chemical_formula_structural   Tb2HoLu2(In2Pt)2
_chemical_formula_sum   'Tb4 Ho2 Lu4 In8 Pt4'
_cell_volume   533.80024832
_cell_formula_units_Z   2
loop_
 _symmetry_equiv_pos_site_id
 _symmetry_equiv_pos_as_xyz
  1  'x, y, z'
loop_
 _atom_site_type_symbol
 _atom_site_label
 _atom_site_symmetry_multiplicity
 _atom_site_fract_x
 _atom_site_fract_y
 _atom_site_fract_z
 _atom_site_occupancy
  Tb  Tb0  1  0.000000  0.240605  0.217956  1
  Tb  Tb1  1  0.000000  0.759395  0.782044  1
  Tb  Tb2  1  0.000000  0.000000  0.000000  1
  Tb  Tb3  1  0.000000  0.500000  0.500000  1
  Ho  Ho4  1  0.000000  0.259234  0.718213  1
  Ho  Ho5  1  0.000000  0.740766  0.281787  1
  Lu  Lu6  1  0.000000  0.116284  0.413570  1
  Lu  Lu7  1  0.000000  0.883716  0.586430  1
  Lu  Lu8  1  0.000000  0.382847  0.913622  1
  Lu  Lu9  1  0.000000  0.617153  0.086378  1
  In  In10  1  0.500000  0.419241  0.350339  1
  In  In11  1  0.500000  0.580759  0.649661  1
  In  In12  1  0.500000  0.081970  0.850338  1
  In  In13  1  0.500000  0.918030  0.149662  1
  In  In14  1  0.500000  0.298717  0.063677  1
  In  In15  1  0.500000  0.701283  0.936323  1
  In  In16  1  0.500000  0.202919  0.563677  1
  In  In17  1  0.500000  0.797081  0.436323  1
  Pt  Pt18  1  0.500000  0.023601  0.305136  1
  Pt  Pt19  1  0.500000  0.976399  0.694864  1
  Pt  Pt20  1  0.500000  0.472542  0.804697  1
  Pt  Pt21  1  0.500000  0.527458  0.195303  1
