# generated using pymatgen
data_Er4Ga24Pd8Ru
_symmetry_space_group_name_H-M   'P 1'
_cell_length_a   7.53689354
_cell_length_b   7.57046073
_cell_length_c   13.32126461
_cell_angle_alpha   84.78447288
_cell_angle_beta   79.38270796
_cell_angle_gamma   60.00471830
_symmetry_Int_Tables_number   1
_chemical_formula_structural   Er4Ga24Pd8Ru
_chemical_formula_sum   'Er4 Ga24 Pd8 Ru1'
_cell_volume   647.01059326
_cell_formula_units_Z   1
loop_
 _symmetry_equiv_pos_site_id
 _symmetry_equiv_pos_as_xyz
  1  'x, y, z'
loop_
 _atom_site_type_symbol
 _atom_site_label
 _atom_site_symmetry_multiplicity
 _atom_site_fract_x
 _atom_site_fract_y
 _atom_site_fract_z
 _atom_site_occupancy
  Er  Er0  1  0.396761  0.167149  0.810252  1
  Er  Er1  1  0.603239  0.832851  0.189748  1
  Er  Er2  1  0.730441  0.500526  0.810412  1
  Er  Er3  1  0.269559  0.499474  0.189588  1
  Ga  Ga4  1  0.688094  0.830292  0.940991  1
  Ga  Ga5  1  0.311906  0.169708  0.059009  1
  Ga  Ga6  1  0.145729  0.832739  0.560268  1
  Ga  Ga7  1  0.854271  0.167261  0.439732  1
  Ga  Ga8  1  0.479809  0.166396  0.557656  1
  Ga  Ga9  1  0.520191  0.833604  0.442344  1
  Ga  Ga10  1  0.220205  0.165061  0.321780  1
  Ga  Ga11  1  0.779795  0.834939  0.678220  1
  Ga  Ga12  1  0.434866  0.506024  0.677953  1
  Ga  Ga13  1  0.565134  0.493976  0.322047  1
  Ga  Ga14  1  0.107337  0.161123  0.675700  1
  Ga  Ga15  1  0.892663  0.838877  0.324300  1
  Ga  Ga16  1  0.351840  0.498134  0.941451  1
  Ga  Ga17  1  0.648160  0.501866  0.058549  1
  Ga  Ga18  1  0.018423  0.176308  0.946749  1
  Ga  Ga19  1  0.981577  0.823692  0.053251  1
  Ga  Ga20  1  0.186516  0.499711  0.443417  1
  Ga  Ga21  1  0.813484  0.500289  0.556583  1
  Ga  Ga22  1  0.734144  0.162594  0.182493  1
  Ga  Ga23  1  0.265856  0.837406  0.817507  1
  Ga  Ga24  1  0.061186  0.627325  0.819122  1
  Ga  Ga25  1  0.938814  0.372675  0.180878  1
  Ga  Ga26  1  0.856782  0.042386  0.817050  1
  Ga  Ga27  1  0.143218  0.957614  0.182950  1
  Pd  Pd28  1  0.118633  0.492505  0.640839  1
  Pd  Pd29  1  0.881367  0.507495  0.359161  1
  Pd  Pd30  1  0.660774  0.169585  0.999444  1
  Pd  Pd31  1  0.339226  0.830415  0.000556  1
  Pd  Pd32  1  0.538334  0.167615  0.360823  1
  Pd  Pd33  1  0.461666  0.832385  0.639177  1
  Pd  Pd34  1  0.778362  0.174462  0.638082  1
  Pd  Pd35  1  0.221638  0.825538  0.361918  1
  Ru  Ru36  1  0.000000  0.500000  0.000000  1
