# generated using pymatgen
data_TbHo3(Pd2O7)2
_symmetry_space_group_name_H-M   'P 1'
_cell_length_a   7.23849466
_cell_length_b   7.23621157
_cell_length_c   7.23621200
_cell_angle_alpha   59.99999804
_cell_angle_beta   60.01043115
_cell_angle_gamma   60.01043429
_symmetry_Int_Tables_number   1
_chemical_formula_structural   TbHo3(Pd2O7)2
_chemical_formula_sum   'Tb1 Ho3 Pd4 O14'
_cell_volume   268.05521351
_cell_formula_units_Z   1
loop_
 _symmetry_equiv_pos_site_id
 _symmetry_equiv_pos_as_xyz
  1  'x, y, z'
loop_
 _atom_site_type_symbol
 _atom_site_label
 _atom_site_symmetry_multiplicity
 _atom_site_fract_x
 _atom_site_fract_y
 _atom_site_fract_z
 _atom_site_occupancy
  Tb  Tb0  1  0.625000  0.125000  0.125000  1
  Ho  Ho1  1  0.125000  0.125000  0.625000  1
  Ho  Ho2  1  0.125000  0.625000  0.125000  1
  Ho  Ho3  1  0.125000  0.125000  0.125000  1
  Pd  Pd4  1  0.125000  0.625000  0.625000  1
  Pd  Pd5  1  0.625000  0.625000  0.625000  1
  Pd  Pd6  1  0.625000  0.125000  0.625000  1
  Pd  Pd7  1  0.625000  0.625000  0.125000  1
  O  O8  1  0.284132  0.715867  0.715867  1
  O  O9  1  0.533436  0.965563  0.965563  1
  O  O10  1  0.716564  0.284437  0.714562  1
  O  O11  1  0.716564  0.714562  0.284437  1
  O  O12  1  0.284132  0.715867  0.284133  1
  O  O13  1  0.284132  0.284133  0.715867  1
  O  O14  1  0.002942  0.999019  0.999019  1
  O  O15  1  0.247058  0.250981  0.250981  1
  O  O16  1  0.965868  0.534133  0.965867  1
  O  O17  1  0.533436  0.535438  0.965563  1
  O  O18  1  0.965868  0.965867  0.534133  1
  O  O19  1  0.533436  0.965563  0.535438  1
  O  O20  1  0.716564  0.284437  0.284437  1
  O  O21  1  0.965868  0.534133  0.534133  1
