# generated using pymatgen
data_PuZr2Ti(PN3)4
_symmetry_space_group_name_H-M   'P 1'
_cell_length_a   6.63187310
_cell_length_b   6.63187270
_cell_length_c   5.30333914
_cell_angle_alpha   78.57961867
_cell_angle_beta   78.57962466
_cell_angle_gamma   84.11658527
_symmetry_Int_Tables_number   1
_chemical_formula_structural   PuZr2Ti(PN3)4
_chemical_formula_sum   'Pu1 Zr2 Ti1 P4 N12'
_cell_volume   223.61831078
_cell_formula_units_Z   1
loop_
 _symmetry_equiv_pos_site_id
 _symmetry_equiv_pos_as_xyz
  1  'x, y, z'
loop_
 _atom_site_type_symbol
 _atom_site_label
 _atom_site_symmetry_multiplicity
 _atom_site_fract_x
 _atom_site_fract_y
 _atom_site_fract_z
 _atom_site_occupancy
  Pu  Pu0  1  0.686797  0.313203  0.750000  1
  Zr  Zr1  1  0.910181  0.089819  0.250000  1
  Zr  Zr2  1  0.320211  0.679789  0.250000  1
  Ti  Ti3  1  0.112677  0.887323  0.750000  1
  P  P4  1  0.196808  0.383521  0.760613  1
  P  P5  1  0.376768  0.199195  0.264624  1
  P  P6  1  0.800805  0.623232  0.235376  1
  P  P7  1  0.616479  0.803192  0.739387  1
  N  N8  1  0.314685  0.383654  0.013806  1
  N  N9  1  0.025684  0.213128  0.838900  1
  N  N10  1  0.990016  0.775967  0.136024  1
  N  N11  1  0.374900  0.340259  0.496334  1
  N  N12  1  0.610227  0.126058  0.157850  1
  N  N13  1  0.379321  0.876494  0.848422  1
  N  N14  1  0.873942  0.389773  0.342150  1
  N  N15  1  0.659741  0.625100  0.003666  1
  N  N16  1  0.786872  0.974316  0.661100  1
  N  N17  1  0.123506  0.620679  0.651578  1
  N  N18  1  0.224033  0.009984  0.363976  1
  N  N19  1  0.616346  0.685315  0.486194  1
