# generated using pymatgen
data_Dy3Al3Ga2Pt
_symmetry_space_group_name_H-M   'P 1'
_cell_length_a   6.98961100
_cell_length_b   6.98961152
_cell_length_c   4.27875500
_cell_angle_alpha   90.00000000
_cell_angle_beta   90.00000000
_cell_angle_gamma   120.00000227
_symmetry_Int_Tables_number   1
_chemical_formula_structural   Dy3Al3Ga2Pt
_chemical_formula_sum   'Dy3 Al3 Ga2 Pt1'
_cell_volume   181.03147337
_cell_formula_units_Z   1
loop_
 _symmetry_equiv_pos_site_id
 _symmetry_equiv_pos_as_xyz
  1  'x, y, z'
loop_
 _atom_site_type_symbol
 _atom_site_label
 _atom_site_symmetry_multiplicity
 _atom_site_fract_x
 _atom_site_fract_y
 _atom_site_fract_z
 _atom_site_occupancy
  Dy  Dy0  1  0.417311  0.000000  0.000000  1
  Dy  Dy1  1  0.000000  0.417311  0.000000  1
  Dy  Dy2  1  0.582689  0.582689  0.000000  1
  Al  Al3  1  0.765271  0.000000  0.500000  1
  Al  Al4  1  0.234729  0.234729  0.500000  1
  Al  Al5  1  0.000000  0.765271  0.500000  1
  Ga  Ga6  1  0.666666  0.333333  0.500000  1
  Ga  Ga7  1  0.333333  0.666666  0.500000  1
  Pt  Pt8  1  0.000000  0.000000  0.000000  1
