# generated using pymatgen
data_HfMg(PaH4)6
_symmetry_space_group_name_H-M   'P 1'
_cell_length_a   6.45226300
_cell_length_b   6.45226300
_cell_length_c   6.45226300
_cell_angle_alpha   90.00000000
_cell_angle_beta   90.00000000
_cell_angle_gamma   90.00000000
_symmetry_Int_Tables_number   1
_chemical_formula_structural   HfMg(PaH4)6
_chemical_formula_sum   'Hf1 Mg1 Pa6 H24'
_cell_volume   268.61866348
_cell_formula_units_Z   1
loop_
 _symmetry_equiv_pos_site_id
 _symmetry_equiv_pos_as_xyz
  1  'x, y, z'
loop_
 _atom_site_type_symbol
 _atom_site_label
 _atom_site_symmetry_multiplicity
 _atom_site_fract_x
 _atom_site_fract_y
 _atom_site_fract_z
 _atom_site_occupancy
  Hf  Hf0  1  0.500000  0.500000  0.500000  1
  Mg  Mg1  1  0.000000  0.000000  0.000000  1
  Pa  Pa2  1  0.248405  0.000000  0.500000  1
  Pa  Pa3  1  0.751595  0.000000  0.500000  1
  Pa  Pa4  1  0.000000  0.500000  0.248405  1
  Pa  Pa5  1  0.000000  0.500000  0.751595  1
  Pa  Pa6  1  0.500000  0.751595  0.000000  1
  Pa  Pa7  1  0.500000  0.248405  0.000000  1
  H  H8  1  0.000000  0.155937  0.306021  1
  H  H9  1  0.500000  0.208472  0.649454  1
  H  H10  1  0.500000  0.791528  0.350546  1
  H  H11  1  0.791528  0.649454  0.500000  1
  H  H12  1  0.208472  0.649454  0.500000  1
  H  H13  1  0.350546  0.500000  0.791528  1
  H  H14  1  0.649454  0.500000  0.791528  1
  H  H15  1  0.306021  0.000000  0.155937  1
  H  H16  1  0.155937  0.306021  0.000000  1
  H  H17  1  0.844063  0.693979  0.000000  1
  H  H18  1  0.306021  0.000000  0.844063  1
  H  H19  1  0.844063  0.306021  0.000000  1
  H  H20  1  0.693979  0.000000  0.155937  1
  H  H21  1  0.693979  0.000000  0.844063  1
  H  H22  1  0.155937  0.693979  0.000000  1
  H  H23  1  0.000000  0.844063  0.693979  1
  H  H24  1  0.000000  0.155937  0.693979  1
  H  H25  1  0.000000  0.844063  0.306021  1
  H  H26  1  0.649454  0.500000  0.208472  1
  H  H27  1  0.350546  0.500000  0.208472  1
  H  H28  1  0.791528  0.350546  0.500000  1
  H  H29  1  0.208472  0.350546  0.500000  1
  H  H30  1  0.500000  0.791528  0.649454  1
  H  H31  1  0.500000  0.208472  0.350546  1
