# generated using pymatgen
data_Sr2PrCd(Ir2O7)2
_symmetry_space_group_name_H-M   'P 1'
_cell_length_a   7.34876909
_cell_length_b   7.46547698
_cell_length_c   7.46547730
_cell_angle_alpha   59.69097550
_cell_angle_beta   59.42717255
_cell_angle_gamma   59.42717922
_symmetry_Int_Tables_number   1
_chemical_formula_structural   Sr2PrCd(Ir2O7)2
_chemical_formula_sum   'Sr2 Pr1 Cd1 Ir4 O14'
_cell_volume   286.41322451
_cell_formula_units_Z   1
loop_
 _symmetry_equiv_pos_site_id
 _symmetry_equiv_pos_as_xyz
  1  'x, y, z'
loop_
 _atom_site_type_symbol
 _atom_site_label
 _atom_site_symmetry_multiplicity
 _atom_site_fract_x
 _atom_site_fract_y
 _atom_site_fract_z
 _atom_site_occupancy
  Sr  Sr0  1  0.125000  0.125000  0.625000  1
  Sr  Sr1  1  0.125000  0.625000  0.125000  1
  Pr  Pr2  1  0.125000  0.125000  0.125000  1
  Cd  Cd3  1  0.625000  0.125000  0.125000  1
  Ir  Ir4  1  0.625000  0.625000  0.625000  1
  Ir  Ir5  1  0.125000  0.625000  0.625000  1
  Ir  Ir6  1  0.625000  0.125000  0.625000  1
  Ir  Ir7  1  0.625000  0.625000  0.125000  1
  O  O8  1  0.949399  0.552202  0.552202  1
  O  O9  1  0.297521  0.298782  0.707051  1
  O  O10  1  0.952479  0.542949  0.951218  1
  O  O11  1  0.698081  0.304781  0.304781  1
  O  O12  1  0.560783  0.553597  0.943679  1
  O  O13  1  0.560783  0.943679  0.553597  1
  O  O14  1  0.551919  0.945219  0.945219  1
  O  O15  1  0.276932  0.235847  0.235847  1
  O  O16  1  0.300601  0.697798  0.697798  1
  O  O17  1  0.689217  0.306321  0.696403  1
  O  O18  1  0.973068  0.014153  0.014153  1
  O  O19  1  0.952479  0.951218  0.542949  1
  O  O20  1  0.297521  0.707051  0.298782  1
  O  O21  1  0.689217  0.696403  0.306321  1
