# generated using pymatgen
data_BaTa2Mn2(PO4)6
_symmetry_space_group_name_H-M   'P 1'
_cell_length_a   8.52769500
_cell_length_b   9.28883072
_cell_length_c   12.79613500
_cell_angle_alpha   84.96251517
_cell_angle_beta   90.00000000
_cell_angle_gamma   90.00000000
_symmetry_Int_Tables_number   1
_chemical_formula_structural   BaTa2Mn2(PO4)6
_chemical_formula_sum   'Ba2 Ta4 Mn4 P12 O48'
_cell_volume   1009.69637025
_cell_formula_units_Z   2
loop_
 _symmetry_equiv_pos_site_id
 _symmetry_equiv_pos_as_xyz
  1  'x, y, z'
loop_
 _atom_site_type_symbol
 _atom_site_label
 _atom_site_symmetry_multiplicity
 _atom_site_fract_x
 _atom_site_fract_y
 _atom_site_fract_z
 _atom_site_occupancy
  Ba  Ba0  1  0.000000  0.000000  0.500000  1
  Ba  Ba1  1  0.500000  0.500000  0.500000  1
  Ta  Ta2  1  0.500139  0.209268  0.853243  1
  Ta  Ta3  1  0.000139  0.290732  0.146757  1
  Ta  Ta4  1  0.499861  0.790732  0.146757  1
  Ta  Ta5  1  0.999861  0.709268  0.853243  1
  Mn  Mn6  1  0.502937  0.806863  0.649454  1
  Mn  Mn7  1  0.002937  0.693137  0.350546  1
  Mn  Mn8  1  0.497063  0.193137  0.350546  1
  Mn  Mn9  1  0.997063  0.306863  0.649454  1
  P  P10  1  0.350824  0.853985  0.391175  1
  P  P11  1  0.279582  0.498489  0.744980  1
  P  P12  1  0.149176  0.353985  0.391175  1
  P  P13  1  0.862511  0.360983  0.891083  1
  P  P14  1  0.362511  0.139017  0.108917  1
  P  P15  1  0.779582  0.001511  0.255020  1
  P  P16  1  0.220418  0.998489  0.744980  1
  P  P17  1  0.637489  0.860983  0.891083  1
  P  P18  1  0.137489  0.639017  0.108917  1
  P  P19  1  0.850824  0.646015  0.608825  1
  P  P20  1  0.720418  0.501511  0.255020  1
  P  P21  1  0.649176  0.146015  0.608825  1
  O  O22  1  0.317104  0.918469  0.665581  1
  O  O23  1  0.173488  0.815942  0.387838  1
  O  O24  1  0.428970  0.781627  0.489820  1
  O  O25  1  0.432180  0.789931  0.294903  1
  O  O26  1  0.389764  0.599251  0.680524  1
  O  O27  1  0.144509  0.519133  0.384562  1
  O  O28  1  0.182896  0.418469  0.665581  1
  O  O29  1  0.374581  0.383731  0.816665  1
  O  O30  1  0.126624  0.471600  0.115734  1
  O  O31  1  0.823190  0.419352  0.180339  1
  O  O32  1  0.326512  0.315942  0.387838  1
  O  O33  1  0.071030  0.281627  0.489820  1
  O  O34  1  0.067820  0.289931  0.294903  1
  O  O35  1  0.684297  0.323009  0.888410  1
  O  O36  1  0.924440  0.302800  0.001334  1
  O  O37  1  0.953111  0.292829  0.807350  1
  O  O38  1  0.453111  0.207171  0.192650  1
  O  O39  1  0.424440  0.197200  0.998666  1
  O  O40  1  0.184297  0.176991  0.111590  1
  O  O41  1  0.874581  0.116269  0.183335  1
  O  O42  1  0.355491  0.019133  0.384562  1
  O  O43  1  0.110236  0.099251  0.680524  1
  O  O44  1  0.323190  0.080648  0.819661  1
  O  O45  1  0.626624  0.028400  0.884266  1
  O  O46  1  0.373376  0.971600  0.115734  1
  O  O47  1  0.676810  0.919352  0.180339  1
  O  O48  1  0.889764  0.900749  0.319476  1
  O  O49  1  0.644509  0.980867  0.615438  1
  O  O50  1  0.125419  0.883731  0.816665  1
  O  O51  1  0.815703  0.823009  0.888410  1
  O  O52  1  0.575560  0.802800  0.001334  1
  O  O53  1  0.546889  0.792829  0.807350  1
  O  O54  1  0.046889  0.707171  0.192650  1
  O  O55  1  0.075560  0.697200  0.998666  1
  O  O56  1  0.315703  0.676991  0.111590  1
  O  O57  1  0.932180  0.710069  0.705097  1
  O  O58  1  0.928970  0.718373  0.510180  1
  O  O59  1  0.673488  0.684058  0.612162  1
  O  O60  1  0.176810  0.580648  0.819661  1
  O  O61  1  0.873376  0.528400  0.884266  1
  O  O62  1  0.625419  0.616269  0.183335  1
  O  O63  1  0.817104  0.581531  0.334419  1
  O  O64  1  0.855491  0.480867  0.615438  1
  O  O65  1  0.610236  0.400749  0.319476  1
  O  O66  1  0.567820  0.210069  0.705097  1
  O  O67  1  0.571030  0.218373  0.510180  1
  O  O68  1  0.826512  0.184058  0.612162  1
  O  O69  1  0.682896  0.081531  0.334419  1
