# generated using pymatgen
data_TbY2Tm3ReBi2
_symmetry_space_group_name_H-M   'P 1'
_cell_length_a   8.21692500
_cell_length_b   8.22768418
_cell_length_c   4.33377600
_cell_angle_alpha   90.00000000
_cell_angle_beta   90.00000000
_cell_angle_gamma   119.95674770
_symmetry_Int_Tables_number   1
_chemical_formula_structural   TbY2Tm3ReBi2
_chemical_formula_sum   'Tb1 Y2 Tm3 Re1 Bi2'
_cell_volume   253.84764872
_cell_formula_units_Z   1
loop_
 _symmetry_equiv_pos_site_id
 _symmetry_equiv_pos_as_xyz
  1  'x, y, z'
loop_
 _atom_site_type_symbol
 _atom_site_label
 _atom_site_symmetry_multiplicity
 _atom_site_fract_x
 _atom_site_fract_y
 _atom_site_fract_z
 _atom_site_occupancy
  Tb  Tb0  1  0.610179  0.000000  0.000000  1
  Y  Y1  1  0.999926  0.610066  0.000000  1
  Y  Y2  1  0.389859  0.389934  0.000000  1
  Tm  Tm3  1  0.229744  0.000000  0.500000  1
  Tm  Tm4  1  0.000032  0.229702  0.500000  1
  Tm  Tm5  1  0.770329  0.770298  0.500000  1
  Re  Re6  1  0.000086  0.000000  0.000000  1
  Bi  Bi7  1  0.333113  0.666381  0.500000  1
  Bi  Bi8  1  0.666732  0.333619  0.500000  1
