# generated using pymatgen
data_Tb3Er2(SiBi)2
_symmetry_space_group_name_H-M   'P 1'
_cell_length_a   8.67424991
_cell_length_b   8.65062901
_cell_length_c   7.92927248
_cell_angle_alpha   90.11564116
_cell_angle_beta   90.17754080
_cell_angle_gamma   125.63983777
_symmetry_Int_Tables_number   1
_chemical_formula_structural   Tb3Er2(SiBi)2
_chemical_formula_sum   'Tb6 Er4 Si4 Bi4'
_cell_volume   483.54187493
_cell_formula_units_Z   2
loop_
 _symmetry_equiv_pos_site_id
 _symmetry_equiv_pos_as_xyz
  1  'x, y, z'
loop_
 _atom_site_type_symbol
 _atom_site_label
 _atom_site_symmetry_multiplicity
 _atom_site_fract_x
 _atom_site_fract_y
 _atom_site_fract_z
 _atom_site_occupancy
  Tb  Tb0  1  0.042582  0.287731  0.335414  1
  Tb  Tb1  1  0.957418  0.712269  0.664586  1
  Tb  Tb2  1  0.457304  0.211870  0.835249  1
  Tb  Tb3  1  0.787564  0.542317  0.164529  1
  Tb  Tb4  1  0.542696  0.788130  0.164751  1
  Tb  Tb5  1  0.212436  0.457683  0.835471  1
  Er  Er6  1  0.715444  0.957202  0.663514  1
  Er  Er7  1  0.284556  0.042798  0.336486  1
  Er  Er8  1  0.000000  0.000000  0.000000  1
  Er  Er9  1  0.500000  0.500000  0.500000  1
  Si  Si10  1  0.363871  0.362308  0.135861  1
  Si  Si11  1  0.636129  0.637692  0.864139  1
  Si  Si12  1  0.134595  0.134670  0.633214  1
  Si  Si13  1  0.865405  0.865330  0.366786  1
  Bi  Bi14  1  0.793078  0.205755  0.997640  1
  Bi  Bi15  1  0.206923  0.794245  0.002360  1
  Bi  Bi16  1  0.704309  0.289467  0.499164  1
  Bi  Bi17  1  0.295691  0.710533  0.500836  1
