# generated using pymatgen
data_Nd2As7Rh12
_symmetry_space_group_name_H-M   'P 1'
_cell_length_a   10.02428400
_cell_length_b   10.02428448
_cell_length_c   3.97732900
_cell_angle_alpha   90.00000000
_cell_angle_beta   90.00000000
_cell_angle_gamma   120.00001161
_symmetry_Int_Tables_number   1
_chemical_formula_structural   Nd2As7Rh12
_chemical_formula_sum   'Nd2 As7 Rh12'
_cell_volume   346.12171189
_cell_formula_units_Z   1
loop_
 _symmetry_equiv_pos_site_id
 _symmetry_equiv_pos_as_xyz
  1  'x, y, z'
loop_
 _atom_site_type_symbol
 _atom_site_label
 _atom_site_symmetry_multiplicity
 _atom_site_fract_x
 _atom_site_fract_y
 _atom_site_fract_z
 _atom_site_occupancy
  Nd  Nd0  1  0.333333  0.666667  0.747160  1
  Nd  Nd1  1  0.666667  0.333333  0.252840  1
  As  As2  1  0.000000  0.000000  0.500000  1
  As  As3  1  0.883651  0.596372  0.752246  1
  As  As4  1  0.403628  0.287279  0.752246  1
  As  As5  1  0.712721  0.116349  0.752246  1
  As  As6  1  0.116349  0.403628  0.247754  1
  As  As7  1  0.596372  0.712721  0.247754  1
  As  As8  1  0.287279  0.883651  0.247754  1
  Rh  Rh9  1  0.618315  0.555107  0.750601  1
  Rh  Rh10  1  0.444893  0.063209  0.750601  1
  Rh  Rh11  1  0.936791  0.381685  0.750601  1
  Rh  Rh12  1  0.381685  0.444893  0.249399  1
  Rh  Rh13  1  0.555107  0.936791  0.249399  1
  Rh  Rh14  1  0.063209  0.618315  0.249399  1
  Rh  Rh15  1  0.114070  0.851354  0.751639  1
  Rh  Rh16  1  0.148646  0.262716  0.751639  1
  Rh  Rh17  1  0.737284  0.885930  0.751639  1
  Rh  Rh18  1  0.885930  0.148646  0.248361  1
  Rh  Rh19  1  0.851354  0.737284  0.248361  1
  Rh  Rh20  1  0.262716  0.114070  0.248361  1
