# generated using pymatgen
data_Tl2P4O13
_symmetry_space_group_name_H-M   'P 1'
_cell_length_a   9.60698600
_cell_length_b   8.86007366
_cell_length_c   13.96089300
_cell_angle_alpha   73.56740523
_cell_angle_beta   90.00000000
_cell_angle_gamma   90.00000000
_symmetry_Int_Tables_number   1
_chemical_formula_structural   Tl2P4O13
_chemical_formula_sum   'Tl8 P16 O52'
_cell_volume   1139.79216889
_cell_formula_units_Z   4
loop_
 _symmetry_equiv_pos_site_id
 _symmetry_equiv_pos_as_xyz
  1  'x, y, z'
loop_
 _atom_site_type_symbol
 _atom_site_label
 _atom_site_symmetry_multiplicity
 _atom_site_fract_x
 _atom_site_fract_y
 _atom_site_fract_z
 _atom_site_occupancy
  Tl  Tl0  1  0.990814  0.980363  0.721662  1
  Tl  Tl1  1  0.509186  0.980363  0.221662  1
  Tl  Tl2  1  0.003590  0.553127  0.735584  1
  Tl  Tl3  1  0.503590  0.446873  0.764416  1
  Tl  Tl4  1  0.496410  0.553127  0.235584  1
  Tl  Tl5  1  0.996410  0.446873  0.264416  1
  Tl  Tl6  1  0.490814  0.019637  0.778338  1
  Tl  Tl7  1  0.009186  0.019637  0.278338  1
  P  P8  1  0.759412  0.849407  0.935508  1
  P  P9  1  0.267525  0.712210  0.844116  1
  P  P10  1  0.709203  0.778963  0.656655  1
  P  P11  1  0.740588  0.849407  0.435508  1
  P  P12  1  0.751162  0.502241  0.940839  1
  P  P13  1  0.232475  0.712210  0.344116  1
  P  P14  1  0.790797  0.778963  0.156655  1
  P  P15  1  0.251162  0.497759  0.559161  1
  P  P16  1  0.748838  0.502241  0.440839  1
  P  P17  1  0.209203  0.221037  0.843345  1
  P  P18  1  0.767525  0.287790  0.655884  1
  P  P19  1  0.248838  0.497759  0.059161  1
  P  P20  1  0.259412  0.150593  0.564492  1
  P  P21  1  0.290797  0.221037  0.343345  1
  P  P22  1  0.732475  0.287790  0.155884  1
  P  P23  1  0.240588  0.150593  0.064492  1
  O  O24  1  0.631308  0.952945  0.909724  1
  O  O25  1  0.883208  0.881207  0.867005  1
  O  O26  1  0.323946  0.863048  0.862739  1
  O  O27  1  0.634979  0.872630  0.715633  1
  O  O28  1  0.868692  0.952945  0.409724  1
  O  O29  1  0.684472  0.868572  0.539440  1
  O  O30  1  0.708293  0.669016  0.960364  1
  O  O31  1  0.132782  0.747228  0.777868  1
  O  O32  1  0.872281  0.779072  0.671432  1
  O  O33  1  0.616792  0.881207  0.367005  1
  O  O34  1  0.208082  0.604164  0.949869  1
  O  O35  1  0.176054  0.863048  0.362739  1
  O  O36  1  0.865021  0.872630  0.215633  1
  O  O37  1  0.377080  0.627911  0.801360  1
  O  O38  1  0.881347  0.523942  0.879463  1
  O  O39  1  0.659839  0.610655  0.673256  1
  O  O40  1  0.815528  0.868572  0.039440  1
  O  O41  1  0.791707  0.669016  0.460364  1
  O  O42  1  0.367218  0.747228  0.277868  1
  O  O43  1  0.627719  0.779072  0.171432  1
  O  O44  1  0.121776  0.565985  0.592298  1
  O  O45  1  0.291918  0.604164  0.449869  1
  O  O46  1  0.621776  0.434015  0.907702  1
  O  O47  1  0.159839  0.389345  0.826744  1
  O  O48  1  0.381347  0.476058  0.620537  1
  O  O49  1  0.122920  0.627911  0.301360  1
  O  O50  1  0.877080  0.372089  0.698640  1
  O  O51  1  0.618653  0.523942  0.379463  1
  O  O52  1  0.840161  0.610655  0.173256  1
  O  O53  1  0.378224  0.565985  0.092298  1
  O  O54  1  0.708082  0.395836  0.550131  1
  O  O55  1  0.878224  0.434015  0.407702  1
  O  O56  1  0.372281  0.220928  0.828568  1
  O  O57  1  0.632782  0.252772  0.722132  1
  O  O58  1  0.208293  0.330984  0.539636  1
  O  O59  1  0.184472  0.131428  0.960560  1
  O  O60  1  0.340161  0.389345  0.326744  1
  O  O61  1  0.118653  0.476058  0.120537  1
  O  O62  1  0.622920  0.372089  0.198640  1
  O  O63  1  0.134979  0.127370  0.784367  1
  O  O64  1  0.823946  0.136952  0.637261  1
  O  O65  1  0.791918  0.395836  0.050131  1
  O  O66  1  0.383208  0.118793  0.632995  1
  O  O67  1  0.127719  0.220928  0.328568  1
  O  O68  1  0.867218  0.252772  0.222132  1
  O  O69  1  0.291707  0.330984  0.039636  1
  O  O70  1  0.315528  0.131428  0.460560  1
  O  O71  1  0.131308  0.047055  0.590276  1
  O  O72  1  0.365021  0.127370  0.284367  1
  O  O73  1  0.676054  0.136952  0.137261  1
  O  O74  1  0.116792  0.118793  0.132995  1
  O  O75  1  0.368692  0.047055  0.090276  1
