# generated using pymatgen
data_Zr6BAs5Ru6
_symmetry_space_group_name_H-M   'P 1'
_cell_length_a   7.67225746
_cell_length_b   7.67201882
_cell_length_c   7.67225816
_cell_angle_alpha   127.69747541
_cell_angle_beta   121.99386134
_cell_angle_gamma   81.87657689
_symmetry_Int_Tables_number   1
_chemical_formula_structural   Zr6BAs5Ru6
_chemical_formula_sum   'Zr6 B1 As5 Ru6'
_cell_volume   291.60848367
_cell_formula_units_Z   1
loop_
 _symmetry_equiv_pos_site_id
 _symmetry_equiv_pos_as_xyz
  1  'x, y, z'
loop_
 _atom_site_type_symbol
 _atom_site_label
 _atom_site_symmetry_multiplicity
 _atom_site_fract_x
 _atom_site_fract_y
 _atom_site_fract_z
 _atom_site_occupancy
  Zr  Zr0  1  0.454046  0.663819  0.709773  1
  Zr  Zr1  1  0.555243  0.259125  0.203882  1
  Zr  Zr2  1  0.750059  0.831614  0.581555  1
  Zr  Zr3  1  0.250088  0.855527  0.105438  1
  Zr  Zr4  1  0.045865  0.255875  0.710010  1
  Zr  Zr5  1  0.944637  0.648241  0.203604  1
  B  B6  1  0.249925  0.255074  0.505150  1
  As  As7  1  0.749866  0.228227  0.978362  1
  As  As8  1  0.331484  0.589248  0.254802  1
  As  As9  1  0.665705  0.923275  0.254710  1
  As  As10  1  0.168564  0.923275  0.757570  1
  As  As11  1  0.834447  0.589248  0.757764  1
  Ru  Ru12  1  0.464998  0.492634  0.957615  1
  Ru  Ru13  1  0.035020  0.492634  0.527637  1
  Ru  Ru14  1  0.152281  0.257850  0.170293  1
  Ru  Ru15  1  0.912594  0.018041  0.170418  1
  Ru  Ru16  1  0.347623  0.018041  0.605447  1
  Ru  Ru17  1  0.587557  0.257850  0.605569  1
