# generated using pymatgen
data_Ta3Nb10Co8Os3N4
_symmetry_space_group_name_H-M   'P 1'
_cell_length_a   8.10815857
_cell_length_b   8.16074973
_cell_length_c   8.16074908
_cell_angle_alpha   59.94117780
_cell_angle_beta   59.76439769
_cell_angle_gamma   59.76439851
_symmetry_Int_Tables_number   1
_chemical_formula_structural   Ta3Nb10Co8Os3N4
_chemical_formula_sum   'Ta3 Nb10 Co8 Os3 N4'
_cell_volume   380.29400480
_cell_formula_units_Z   1
loop_
 _symmetry_equiv_pos_site_id
 _symmetry_equiv_pos_as_xyz
  1  'x, y, z'
loop_
 _atom_site_type_symbol
 _atom_site_label
 _atom_site_symmetry_multiplicity
 _atom_site_fract_x
 _atom_site_fract_y
 _atom_site_fract_z
 _atom_site_occupancy
  Ta  Ta0  1  0.125096  0.625201  0.625201  1
  Ta  Ta1  1  0.054955  0.440397  0.440397  1
  Ta  Ta2  1  0.446309  0.054331  0.054331  1
  Nb  Nb3  1  0.804690  0.805647  0.194951  1
  Nb  Nb4  1  0.194052  0.185911  0.809791  1
  Nb  Nb5  1  0.804690  0.194951  0.805647  1
  Nb  Nb6  1  0.194052  0.809791  0.185911  1
  Nb  Nb7  1  0.193701  0.810938  0.810938  1
  Nb  Nb8  1  0.805284  0.194047  0.194047  1
  Nb  Nb9  1  0.445359  0.444171  0.055343  1
  Nb  Nb10  1  0.056050  0.064906  0.439372  1
  Nb  Nb11  1  0.445359  0.055343  0.444171  1
  Nb  Nb12  1  0.056050  0.439372  0.064906  1
  Co  Co13  1  0.727487  0.424284  0.424284  1
  Co  Co14  1  0.423439  0.737760  0.418995  1
  Co  Co15  1  0.423439  0.418995  0.737760  1
  Co  Co16  1  0.421632  0.420169  0.420169  1
  Co  Co17  1  0.522834  0.825705  0.825705  1
  Co  Co18  1  0.827183  0.513721  0.829290  1
  Co  Co19  1  0.827183  0.829290  0.513721  1
  Co  Co20  1  0.826306  0.830213  0.830213  1
  Os  Os21  1  0.624403  0.124768  0.625985  1
  Os  Os22  1  0.624403  0.625985  0.124768  1
  Os  Os23  1  0.625830  0.624697  0.624697  1
  N  N24  1  0.623207  0.124302  0.124302  1
  N  N25  1  0.124532  0.623172  0.127650  1
  N  N26  1  0.124532  0.127650  0.623172  1
  N  N27  1  0.127942  0.124284  0.124284  1
