# generated using pymatgen
data_BaLiHoSe3
_symmetry_space_group_name_H-M   'P 1'
_cell_length_a   7.36802731
_cell_length_b   7.36802827
_cell_length_c   10.71282800
_cell_angle_alpha   90.00000000
_cell_angle_beta   90.00000000
_cell_angle_gamma   146.37148748
_symmetry_Int_Tables_number   1
_chemical_formula_structural   BaLiHoSe3
_chemical_formula_sum   'Ba2 Li2 Ho2 Se6'
_cell_volume   322.08038644
_cell_formula_units_Z   2
loop_
 _symmetry_equiv_pos_site_id
 _symmetry_equiv_pos_as_xyz
  1  'x, y, z'
loop_
 _atom_site_type_symbol
 _atom_site_label
 _atom_site_symmetry_multiplicity
 _atom_site_fract_x
 _atom_site_fract_y
 _atom_site_fract_z
 _atom_site_occupancy
  Ba  Ba0  1  0.248289  0.751709  0.250000  1
  Ba  Ba1  1  0.751709  0.248289  0.750000  1
  Li  Li2  1  0.973142  0.026857  0.250000  1
  Li  Li3  1  0.026857  0.973142  0.750000  1
  Ho  Ho4  1  0.499999  0.499999  0.000000  1
  Ho  Ho5  1  0.499999  0.499999  0.500000  1
  Se  Se6  1  0.868759  0.131240  0.058900  1
  Se  Se7  1  0.569442  0.430557  0.250000  1
  Se  Se8  1  0.868759  0.131240  0.441100  1
  Se  Se9  1  0.131240  0.868759  0.558901  1
  Se  Se10  1  0.430557  0.569442  0.750000  1
  Se  Se11  1  0.131240  0.868759  0.941099  1
