# generated using pymatgen
data_YTm(ThH5)6
_symmetry_space_group_name_H-M   'P 1'
_cell_length_a   7.82945730
_cell_length_b   7.82642965
_cell_length_c   7.79574526
_cell_angle_alpha   109.47137478
_cell_angle_beta   109.49086173
_cell_angle_gamma   109.67598323
_symmetry_Int_Tables_number   1
_chemical_formula_structural   YTm(ThH5)6
_chemical_formula_sum   'Y1 Tm1 Th6 H30'
_cell_volume   366.70800166
_cell_formula_units_Z   1
loop_
 _symmetry_equiv_pos_site_id
 _symmetry_equiv_pos_as_xyz
  1  'x, y, z'
loop_
 _atom_site_type_symbol
 _atom_site_label
 _atom_site_symmetry_multiplicity
 _atom_site_fract_x
 _atom_site_fract_y
 _atom_site_fract_z
 _atom_site_occupancy
  Y  Y0  1  0.498446  0.999391  0.083825  1
  Tm  Tm1  1  0.913114  0.913806  0.914621  1
  Th  Th2  1  0.994167  0.079899  0.495023  1
  Th  Th3  1  0.085204  0.504515  0.000911  1
  Th  Th4  1  0.998650  0.585285  0.505618  1
  Th  Th5  1  0.584921  0.504574  0.998809  1
  Th  Th6  1  0.504961  0.998444  0.588198  1
  Th  Th7  1  0.415703  0.410322  0.411609  1
  H  H8  1  0.651077  0.964536  0.370414  1
  H  H9  1  0.218100  0.316257  0.846471  1
  H  H10  1  0.186569  0.403797  0.534483  1
  H  H11  1  0.094243  0.277586  0.124198  1
  H  H12  1  0.278958  0.121865  0.091934  1
  H  H13  1  0.123368  0.091980  0.274294  1
  H  H14  1  0.469693  0.154438  0.873869  1
  H  H15  1  0.718990  0.350373  0.813624  1
  H  H16  1  0.627591  0.380702  0.251402  1
  H  H17  1  0.250155  0.624349  0.375949  1
  H  H18  1  0.751298  0.872999  0.126315  1
  H  H19  1  0.122184  0.745917  0.873147  1
  H  H20  1  0.374308  0.248502  0.623953  1
  H  H21  1  0.876706  0.128290  0.749187  1
  H  H22  1  0.781488  0.596459  0.631668  1
  H  H23  1  0.317237  0.848579  0.221432  1
  H  H24  1  0.373204  0.657308  0.967010  1
  H  H25  1  0.964247  0.368720  0.650950  1
  H  H26  1  0.536458  0.186026  0.406364  1
  H  H27  1  0.405352  0.536677  0.186284  1
  H  H28  1  0.841831  0.217728  0.312689  1
  H  H29  1  0.906543  0.692854  0.031511  1
  H  H30  1  0.813338  0.717891  0.349094  1
  H  H31  1  0.152299  0.869280  0.465678  1
  H  H32  1  0.691361  0.028980  0.906971  1
  H  H33  1  0.348192  0.816128  0.722672  1
  H  H34  1  0.871555  0.469883  0.153726  1
  H  H35  1  0.632393  0.780736  0.596121  1
  H  H36  1  0.598330  0.629554  0.779766  1
  H  H37  1  0.027772  0.905367  0.690212  1
