# generated using pymatgen
data_Ca2Sm3Sb3O14
_symmetry_space_group_name_H-M   'P 1'
_cell_length_a   7.46423276
_cell_length_b   7.46423274
_cell_length_c   7.46423268
_cell_angle_alpha   118.96848478
_cell_angle_beta   61.03152737
_cell_angle_gamma   118.96847492
_symmetry_Int_Tables_number   1
_chemical_formula_structural   Ca2Sm3Sb3O14
_chemical_formula_sum   'Ca2 Sm3 Sb3 O14'
_cell_volume   300.89416279
_cell_formula_units_Z   1
loop_
 _symmetry_equiv_pos_site_id
 _symmetry_equiv_pos_as_xyz
  1  'x, y, z'
loop_
 _atom_site_type_symbol
 _atom_site_label
 _atom_site_symmetry_multiplicity
 _atom_site_fract_x
 _atom_site_fract_y
 _atom_site_fract_z
 _atom_site_occupancy
  Ca  Ca0  1  0.500001  0.500003  0.000000  1
  Ca  Ca1  1  0.000001  0.999999  0.500000  1
  Sm  Sm2  1  0.999999  0.500001  0.000001  1
  Sm  Sm3  1  0.499999  0.000001  0.999999  1
  Sm  Sm4  1  0.499999  0.500001  0.500000  1
  Sb  Sb5  1  0.500001  0.999999  0.500000  1
  Sb  Sb6  1  0.999999  0.500000  0.499999  1
  Sb  Sb7  1  0.000000  0.000000  0.000001  1
  O  O8  1  0.623698  0.376302  0.123697  1
  O  O9  1  0.376301  0.623699  0.876302  1
  O  O10  1  0.086117  0.318375  0.181625  1
  O  O11  1  0.681624  0.913881  0.181624  1
  O  O12  1  0.681624  0.318376  0.586118  1
  O  O13  1  0.913884  0.681624  0.818376  1
  O  O14  1  0.318376  0.086115  0.818375  1
  O  O15  1  0.318376  0.681624  0.413884  1
  O  O16  1  0.630781  0.902640  0.597360  1
  O  O17  1  0.097361  0.369218  0.597361  1
  O  O18  1  0.097360  0.902640  0.130781  1
  O  O19  1  0.369221  0.097361  0.402638  1
  O  O20  1  0.902639  0.630779  0.402639  1
  O  O21  1  0.902639  0.097361  0.869221  1
