# generated using pymatgen
data_HoEr3B16Os3Ru
_symmetry_space_group_name_H-M   'P 1'
_cell_length_a   3.55680900
_cell_length_b   5.94943016
_cell_length_c   11.50788801
_cell_angle_alpha   89.98483261
_cell_angle_beta   90.00015494
_cell_angle_gamma   90.00032169
_symmetry_Int_Tables_number   1
_chemical_formula_structural   HoEr3B16Os3Ru
_chemical_formula_sum   'Ho1 Er3 B16 Os3 Ru1'
_cell_volume   243.51825694
_cell_formula_units_Z   1
loop_
 _symmetry_equiv_pos_site_id
 _symmetry_equiv_pos_as_xyz
  1  'x, y, z'
loop_
 _atom_site_type_symbol
 _atom_site_label
 _atom_site_symmetry_multiplicity
 _atom_site_fract_x
 _atom_site_fract_y
 _atom_site_fract_z
 _atom_site_occupancy
  Ho  Ho0  1  0.999995  0.628542  0.350234  1
  Er  Er1  1  0.999998  0.371400  0.649608  1
  Er  Er2  1  0.000014  0.128889  0.150528  1
  Er  Er3  1  0.999991  0.871112  0.849520  1
  B  B4  1  0.500000  0.790174  0.186176  1
  B  B5  1  0.499999  0.209853  0.813735  1
  B  B6  1  0.500000  0.289813  0.314111  1
  B  B7  1  0.500002  0.709887  0.685812  1
  B  B8  1  0.499999  0.864339  0.029789  1
  B  B9  1  0.499995  0.135804  0.970015  1
  B  B10  1  0.500002  0.364193  0.470068  1
  B  B11  1  0.500002  0.635536  0.530513  1
  B  B12  1  0.500000  0.887715  0.453278  1
  B  B13  1  0.500001  0.112527  0.546954  1
  B  B14  1  0.500002  0.387357  0.046980  1
  B  B15  1  0.499999  0.612778  0.952809  1
  B  B16  1  0.500004  0.976317  0.308082  1
  B  B17  1  0.499998  0.023420  0.692063  1
  B  B18  1  0.499997  0.475884  0.191852  1
  B  B19  1  0.499998  0.524449  0.807829  1
  Os  Os20  1  0.000007  0.642256  0.093175  1
  Os  Os21  1  0.999998  0.357925  0.906607  1
  Os  Os22  1  0.000005  0.140932  0.406846  1
  Ru  Ru23  1  0.999998  0.858897  0.593418  1
