# generated using pymatgen
data_NpTe4Br5
_symmetry_space_group_name_H-M   'P 1'
_cell_length_a   9.08461349
_cell_length_b   12.63972639
_cell_length_c   13.99365296
_cell_angle_alpha   80.81259784
_cell_angle_beta   76.65628745
_cell_angle_gamma   79.19984733
_symmetry_Int_Tables_number   1
_chemical_formula_structural   NpTe4Br5
_chemical_formula_sum   'Np4 Te16 Br20'
_cell_volume   1524.34015134
_cell_formula_units_Z   4
loop_
 _symmetry_equiv_pos_site_id
 _symmetry_equiv_pos_as_xyz
  1  'x, y, z'
loop_
 _atom_site_type_symbol
 _atom_site_label
 _atom_site_symmetry_multiplicity
 _atom_site_fract_x
 _atom_site_fract_y
 _atom_site_fract_z
 _atom_site_occupancy
  Np  Np0  1  0.418738  0.715112  0.234650  1
  Np  Np1  1  0.581262  0.284888  0.765350  1
  Np  Np2  1  0.868579  0.804664  0.304702  1
  Np  Np3  1  0.131421  0.195336  0.695298  1
  Te  Te4  1  0.264812  0.324360  0.119013  1
  Te  Te5  1  0.735188  0.675640  0.880987  1
  Te  Te6  1  0.124929  0.390644  0.306516  1
  Te  Te7  1  0.875071  0.609356  0.693484  1
  Te  Te8  1  0.956065  0.227669  0.378688  1
  Te  Te9  1  0.043935  0.772331  0.621312  1
  Te  Te10  1  0.720553  0.357785  0.297579  1
  Te  Te11  1  0.279447  0.642215  0.702421  1
  Te  Te12  1  0.828354  0.326158  0.094095  1
  Te  Te13  1  0.171646  0.673842  0.905905  1
  Te  Te14  1  0.073770  0.173924  0.116378  1
  Te  Te15  1  0.926230  0.826076  0.883622  1
  Te  Te16  1  0.496712  0.205556  0.360162  1
  Te  Te17  1  0.503288  0.794444  0.639838  1
  Te  Te18  1  0.503016  0.153599  0.182871  1
  Te  Te19  1  0.496984  0.846401  0.817129  1
  Br  Br20  1  0.492990  0.512514  0.147122  1
  Br  Br21  1  0.507010  0.487486  0.852878  1
  Br  Br22  1  0.376322  0.583526  0.407524  1
  Br  Br23  1  0.623678  0.416474  0.592476  1
  Br  Br24  1  0.458434  0.859689  0.066478  1
  Br  Br25  1  0.541566  0.140311  0.933522  1
  Br  Br26  1  0.849600  0.978631  0.157859  1
  Br  Br27  1  0.150400  0.021369  0.842141  1
  Br  Br28  1  0.877729  0.622375  0.435695  1
  Br  Br29  1  0.122271  0.377625  0.564305  1
  Br  Br30  1  0.792053  0.916300  0.472985  1
  Br  Br31  1  0.207947  0.083700  0.527015  1
  Br  Br32  1  0.530466  0.850664  0.345593  1
  Br  Br33  1  0.469534  0.149336  0.654407  1
  Br  Br34  1  0.157154  0.872598  0.316683  1
  Br  Br35  1  0.842846  0.127402  0.683317  1
  Br  Br36  1  0.754726  0.672906  0.186567  1
  Br  Br37  1  0.245274  0.327094  0.813433  1
  Br  Br38  1  0.134764  0.680475  0.178210  1
  Br  Br39  1  0.865236  0.319525  0.821790  1
