# generated using pymatgen
data_CaSi4IrRh5
_symmetry_space_group_name_H-M   'P 1'
_cell_length_a   7.04488700
_cell_length_b   7.04488755
_cell_length_c   3.77128500
_cell_angle_alpha   90.00000000
_cell_angle_beta   90.00000000
_cell_angle_gamma   120.39268341
_symmetry_Int_Tables_number   1
_chemical_formula_structural   CaSi4IrRh5
_chemical_formula_sum   'Ca1 Si4 Ir1 Rh5'
_cell_volume   161.44922691
_cell_formula_units_Z   1
loop_
 _symmetry_equiv_pos_site_id
 _symmetry_equiv_pos_as_xyz
  1  'x, y, z'
loop_
 _atom_site_type_symbol
 _atom_site_label
 _atom_site_symmetry_multiplicity
 _atom_site_fract_x
 _atom_site_fract_y
 _atom_site_fract_z
 _atom_site_occupancy
  Ca  Ca0  1  0.000049  0.999951  0.000000  1
  Si  Si1  1  0.800123  0.199877  0.500000  1
  Si  Si2  1  0.798862  0.598545  0.500000  1
  Si  Si3  1  0.401455  0.201138  0.500000  1
  Si  Si4  1  0.332776  0.667224  0.000000  1
  Ir  Ir5  1  0.532887  0.467113  0.000000  1
  Rh  Rh6  1  0.534191  0.066368  0.000000  1
  Rh  Rh7  1  0.933632  0.465809  0.000000  1
  Rh  Rh8  1  0.197863  0.802137  0.500000  1
  Rh  Rh9  1  0.197999  0.396505  0.500000  1
  Rh  Rh10  1  0.603495  0.802001  0.500000  1
