# generated using pymatgen
data_ScNbAsPRh2
_symmetry_space_group_name_H-M   'P 1'
_cell_length_a   3.83881900
_cell_length_b   6.46411200
_cell_length_c   7.48098500
_cell_angle_alpha   90.00000000
_cell_angle_beta   90.00000000
_cell_angle_gamma   90.00000000
_symmetry_Int_Tables_number   1
_chemical_formula_structural   ScNbAsPRh2
_chemical_formula_sum   'Sc2 Nb2 As2 P2 Rh4'
_cell_volume   185.63732095
_cell_formula_units_Z   2
loop_
 _symmetry_equiv_pos_site_id
 _symmetry_equiv_pos_as_xyz
  1  'x, y, z'
loop_
 _atom_site_type_symbol
 _atom_site_label
 _atom_site_symmetry_multiplicity
 _atom_site_fract_x
 _atom_site_fract_y
 _atom_site_fract_z
 _atom_site_occupancy
  Sc  Sc0  1  0.750000  0.966296  0.175297  1
  Sc  Sc1  1  0.750000  0.466296  0.324703  1
  Nb  Nb2  1  0.250000  0.027120  0.818601  1
  Nb  Nb3  1  0.250000  0.527120  0.681399  1
  As  As4  1  0.250000  0.755185  0.379951  1
  As  As5  1  0.250000  0.255185  0.120049  1
  P  P6  1  0.750000  0.240055  0.628495  1
  P  P7  1  0.750000  0.740055  0.871505  1
  Rh  Rh8  1  0.250000  0.150082  0.448671  1
  Rh  Rh9  1  0.250000  0.650082  0.051329  1
  Rh  Rh10  1  0.750000  0.861261  0.573134  1
  Rh  Rh11  1  0.750000  0.361261  0.926866  1
