# generated using pymatgen
data_Cs3Rb5(SiSe4)2
_symmetry_space_group_name_H-M   'P 1'
_cell_length_a   8.08519200
_cell_length_b   10.22501500
_cell_length_c   15.47313600
_cell_angle_alpha   90.00000000
_cell_angle_beta   90.00000000
_cell_angle_gamma   90.00000000
_symmetry_Int_Tables_number   1
_chemical_formula_structural   Cs3Rb5(SiSe4)2
_chemical_formula_sum   'Cs6 Rb10 Si4 Se16'
_cell_volume   1279.18286754
_cell_formula_units_Z   2
loop_
 _symmetry_equiv_pos_site_id
 _symmetry_equiv_pos_as_xyz
  1  'x, y, z'
loop_
 _atom_site_type_symbol
 _atom_site_label
 _atom_site_symmetry_multiplicity
 _atom_site_fract_x
 _atom_site_fract_y
 _atom_site_fract_z
 _atom_site_occupancy
  Cs  Cs0  1  0.999874  0.999492  0.999297  1
  Cs  Cs1  1  0.499874  0.000508  0.500703  1
  Cs  Cs2  1  0.999874  0.500508  0.999297  1
  Cs  Cs3  1  0.499874  0.499492  0.500703  1
  Cs  Cs4  1  0.006528  0.750000  0.416869  1
  Cs  Cs5  1  0.506528  0.250000  0.083131  1
  Rb  Rb6  1  0.009711  0.250000  0.582273  1
  Rb  Rb7  1  0.509711  0.750000  0.917727  1
  Rb  Rb8  1  0.808672  0.046839  0.270764  1
  Rb  Rb9  1  0.308672  0.953161  0.229236  1
  Rb  Rb10  1  0.189318  0.549663  0.729772  1
  Rb  Rb11  1  0.689318  0.450337  0.770228  1
  Rb  Rb12  1  0.189318  0.950337  0.729772  1
  Rb  Rb13  1  0.689318  0.049663  0.770228  1
  Rb  Rb14  1  0.808672  0.453161  0.270764  1
  Rb  Rb15  1  0.308672  0.546839  0.229236  1
  Si  Si16  1  0.790540  0.750000  0.668516  1
  Si  Si17  1  0.207776  0.250000  0.333771  1
  Si  Si18  1  0.707776  0.750000  0.166229  1
  Si  Si19  1  0.290540  0.250000  0.831484  1
  Se  Se20  1  0.005626  0.250000  0.823731  1
  Se  Se21  1  0.493070  0.250000  0.326827  1
  Se  Se22  1  0.505626  0.750000  0.676269  1
  Se  Se23  1  0.993070  0.750000  0.173173  1
  Se  Se24  1  0.619124  0.571710  0.091573  1
  Se  Se25  1  0.119124  0.428290  0.408427  1
  Se  Se26  1  0.378351  0.069493  0.905749  1
  Se  Se27  1  0.878351  0.930507  0.594251  1
  Se  Se28  1  0.378351  0.430507  0.905749  1
  Se  Se29  1  0.878351  0.569493  0.594251  1
  Se  Se30  1  0.619124  0.928290  0.091573  1
  Se  Se31  1  0.119124  0.071710  0.408427  1
  Se  Se32  1  0.607537  0.750000  0.308578  1
  Se  Se33  1  0.107537  0.250000  0.191422  1
  Se  Se34  1  0.388530  0.250000  0.689107  1
  Se  Se35  1  0.888530  0.750000  0.810893  1
