# generated using pymatgen
data_Er6Co17Si4P8Os
_symmetry_space_group_name_H-M   'P 1'
_cell_length_a   3.71662300
_cell_length_b   10.59226900
_cell_length_c   12.23944900
_cell_angle_alpha   90.00000000
_cell_angle_beta   90.00000000
_cell_angle_gamma   90.00000000
_symmetry_Int_Tables_number   1
_chemical_formula_structural   Er6Co17Si4P8Os
_chemical_formula_sum   'Er6 Co17 Si4 P8 Os1'
_cell_volume   481.83614852
_cell_formula_units_Z   1
loop_
 _symmetry_equiv_pos_site_id
 _symmetry_equiv_pos_as_xyz
  1  'x, y, z'
loop_
 _atom_site_type_symbol
 _atom_site_label
 _atom_site_symmetry_multiplicity
 _atom_site_fract_x
 _atom_site_fract_y
 _atom_site_fract_z
 _atom_site_occupancy
  Er  Er0  1  0.750000  0.250000  0.473574  1
  Er  Er1  1  0.250000  0.750000  0.521236  1
  Er  Er2  1  0.250000  0.930101  0.795521  1
  Er  Er3  1  0.250000  0.569899  0.795521  1
  Er  Er4  1  0.750000  0.067808  0.203824  1
  Er  Er5  1  0.750000  0.432192  0.203824  1
  Co  Co6  1  0.750000  0.750000  0.159435  1
  Co  Co7  1  0.250000  0.250000  0.301044  1
  Co  Co8  1  0.750000  0.750000  0.704723  1
  Co  Co9  1  0.750000  0.250000  0.020375  1
  Co  Co10  1  0.250000  0.750000  0.987777  1
  Co  Co11  1  0.250000  0.418088  0.012856  1
  Co  Co12  1  0.250000  0.081912  0.012856  1
  Co  Co13  1  0.750000  0.585452  0.996630  1
  Co  Co14  1  0.750000  0.914548  0.996630  1
  Co  Co15  1  0.250000  0.447151  0.565287  1
  Co  Co16  1  0.250000  0.052849  0.565287  1
  Co  Co17  1  0.750000  0.546858  0.426065  1
  Co  Co18  1  0.750000  0.953142  0.426065  1
  Co  Co19  1  0.250000  0.870666  0.289903  1
  Co  Co20  1  0.250000  0.629334  0.289903  1
  Co  Co21  1  0.750000  0.131842  0.705123  1
  Co  Co22  1  0.750000  0.368158  0.705123  1
  Si  Si23  1  0.750000  0.558893  0.614038  1
  Si  Si24  1  0.750000  0.941107  0.614038  1
  Si  Si25  1  0.750000  0.097665  0.894286  1
  Si  Si26  1  0.750000  0.402335  0.894286  1
  P  P27  1  0.250000  0.250000  0.121461  1
  P  P28  1  0.750000  0.750000  0.884314  1
  P  P29  1  0.250000  0.250000  0.651799  1
  P  P30  1  0.750000  0.750000  0.342856  1
  P  P31  1  0.250000  0.440905  0.382108  1
  P  P32  1  0.250000  0.059095  0.382108  1
  P  P33  1  0.250000  0.901919  0.107879  1
  P  P34  1  0.250000  0.598081  0.107879  1
  Os  Os35  1  0.250000  0.250000  0.844360  1
