# generated using pymatgen
data_ScNb2(ReSi)3
_symmetry_space_group_name_H-M   'P 1'
_cell_length_a   6.84753400
_cell_length_b   6.93670752
_cell_length_c   3.34465700
_cell_angle_alpha   90.00000000
_cell_angle_beta   90.00000000
_cell_angle_gamma   119.57564366
_symmetry_Int_Tables_number   1
_chemical_formula_structural   ScNb2(ReSi)3
_chemical_formula_sum   'Sc1 Nb2 Re3 Si3'
_cell_volume   138.16913759
_cell_formula_units_Z   1
loop_
 _symmetry_equiv_pos_site_id
 _symmetry_equiv_pos_as_xyz
  1  'x, y, z'
loop_
 _atom_site_type_symbol
 _atom_site_label
 _atom_site_symmetry_multiplicity
 _atom_site_fract_x
 _atom_site_fract_y
 _atom_site_fract_z
 _atom_site_occupancy
  Sc  Sc0  1  0.402099  0.000000  0.500000  1
  Nb  Nb1  1  0.003544  0.405065  0.500000  1
  Nb  Nb2  1  0.598479  0.594935  0.500000  1
  Re  Re3  1  0.745035  0.000000  0.000000  1
  Re  Re4  1  0.994387  0.739738  0.000000  1
  Re  Re5  1  0.254649  0.260262  0.000000  1
  Si  Si6  1  0.334368  0.666857  0.000000  1
  Si  Si7  1  0.667513  0.333143  0.000000  1
  Si  Si8  1  0.999927  0.000000  0.500000  1
