# generated using pymatgen
data_CePr8Ho(Ga2Ru3)2
_symmetry_space_group_name_H-M   'P 1'
_cell_length_a   8.61640681
_cell_length_b   8.61483892
_cell_length_c   8.46385853
_cell_angle_alpha   110.45281942
_cell_angle_beta   108.79422248
_cell_angle_gamma   109.83285607
_symmetry_Int_Tables_number   1
_chemical_formula_structural   CePr8Ho(Ga2Ru3)2
_chemical_formula_sum   'Ce1 Pr8 Ho1 Ga4 Ru6'
_cell_volume   479.54297061
_cell_formula_units_Z   1
loop_
 _symmetry_equiv_pos_site_id
 _symmetry_equiv_pos_as_xyz
  1  'x, y, z'
loop_
 _atom_site_type_symbol
 _atom_site_label
 _atom_site_symmetry_multiplicity
 _atom_site_fract_x
 _atom_site_fract_y
 _atom_site_fract_z
 _atom_site_occupancy
  Ce  Ce0  1  0.196397  0.948490  0.249642  1
  Pr  Pr1  1  0.779046  0.785395  0.785311  1
  Pr  Pr2  1  0.307898  0.558153  0.747634  1
  Pr  Pr3  1  0.755976  0.313869  0.562040  1
  Pr  Pr4  1  0.562705  0.749455  0.310351  1
  Pr  Pr5  1  0.722475  0.498997  0.996848  1
  Pr  Pr6  1  0.003942  0.723334  0.501459  1
  Pr  Pr7  1  0.501682  0.996116  0.718237  1
  Pr  Pr8  1  0.249192  0.191376  0.937105  1
  Ho  Ho9  1  0.935305  0.252545  0.186371  1
  Ga  Ga10  1  0.409538  0.408980  0.404075  1
  Ga  Ga11  1  0.093970  0.499200  0.010650  1
  Ga  Ga12  1  0.992450  0.089031  0.490131  1
  Ga  Ga13  1  0.507753  0.007812  0.094580  1
  Ru  Ru14  1  0.878522  0.129459  0.753208  1
  Ru  Ru15  1  0.740862  0.877733  0.120517  1
  Ru  Ru16  1  0.133573  0.768502  0.921643  1
  Ru  Ru17  1  0.251265  0.613523  0.380379  1
  Ru  Ru18  1  0.349356  0.212455  0.580898  1
  Ru  Ru19  1  0.628093  0.375577  0.248924  1
