# generated using pymatgen
data_Er3Tm(Co2O5)4
_symmetry_space_group_name_H-M   'P 1'
_cell_length_a   5.68492500
_cell_length_b   7.15042558
_cell_length_c   8.33360867
_cell_angle_alpha   90.04604297
_cell_angle_beta   90.00000000
_cell_angle_gamma   90.00000000
_symmetry_Int_Tables_number   1
_chemical_formula_structural   Er3Tm(Co2O5)4
_chemical_formula_sum   'Er3 Tm1 Co8 O20'
_cell_volume   338.75802577
_cell_formula_units_Z   1
loop_
 _symmetry_equiv_pos_site_id
 _symmetry_equiv_pos_as_xyz
  1  'x, y, z'
loop_
 _atom_site_type_symbol
 _atom_site_label
 _atom_site_symmetry_multiplicity
 _atom_site_fract_x
 _atom_site_fract_y
 _atom_site_fract_z
 _atom_site_occupancy
  Er  Er0  1  0.500000  0.362561  0.327977  1
  Er  Er1  1  0.500000  0.637613  0.671820  1
  Er  Er2  1  0.500000  0.137141  0.828478  1
  Tm  Tm3  1  0.500000  0.862147  0.171962  1
  Co  Co4  1  0.000000  0.090823  0.151055  1
  Co  Co5  1  0.000000  0.908691  0.849344  1
  Co  Co6  1  0.000000  0.408807  0.650972  1
  Co  Co7  1  0.000000  0.591503  0.348776  1
  Co  Co8  1  0.245748  0.999921  0.499848  1
  Co  Co9  1  0.754252  0.999921  0.499848  1
  Co  Co10  1  0.754323  0.500347  0.000076  1
  Co  Co11  1  0.245677  0.500347  0.000076  1
  O  O12  1  0.227865  0.999149  0.000663  1
  O  O13  1  0.772135  0.999149  0.000663  1
  O  O14  1  0.772910  0.500005  0.499807  1
  O  O15  1  0.227090  0.500005  0.499807  1
  O  O16  1  0.000000  0.347821  0.068596  1
  O  O17  1  0.000000  0.652575  0.931375  1
  O  O18  1  0.000000  0.152555  0.568486  1
  O  O19  1  0.000000  0.847688  0.431794  1
  O  O20  1  0.500000  0.335993  0.055015  1
  O  O21  1  0.500000  0.664693  0.945585  1
  O  O22  1  0.500000  0.163921  0.554842  1
  O  O23  1  0.500000  0.835600  0.444031  1
  O  O24  1  0.258360  0.103484  0.292498  1
  O  O25  1  0.742285  0.895636  0.707088  1
  O  O26  1  0.257715  0.895636  0.707088  1
  O  O27  1  0.742168  0.395702  0.792926  1
  O  O28  1  0.741640  0.103484  0.292498  1
  O  O29  1  0.258122  0.605689  0.207040  1
  O  O30  1  0.741878  0.605689  0.207040  1
  O  O31  1  0.257832  0.395702  0.792926  1
