# generated using pymatgen
data_ZrTa3Nb2Al16Ir7
_symmetry_space_group_name_H-M   'P 1'
_cell_length_a   8.62758758
_cell_length_b   8.60557817
_cell_length_c   8.60605502
_cell_angle_alpha   60.15305543
_cell_angle_beta   59.91720292
_cell_angle_gamma   59.91536277
_symmetry_Int_Tables_number   1
_chemical_formula_structural   ZrTa3Nb2Al16Ir7
_chemical_formula_sum   'Zr1 Ta3 Nb2 Al16 Ir7'
_cell_volume   451.75856920
_cell_formula_units_Z   1
loop_
 _symmetry_equiv_pos_site_id
 _symmetry_equiv_pos_as_xyz
  1  'x, y, z'
loop_
 _atom_site_type_symbol
 _atom_site_label
 _atom_site_symmetry_multiplicity
 _atom_site_fract_x
 _atom_site_fract_y
 _atom_site_fract_z
 _atom_site_occupancy
  Zr  Zr0  1  0.310799  0.688369  0.690033  1
  Ta  Ta1  1  0.673124  0.325268  0.328484  1
  Ta  Ta2  1  0.325330  0.320668  0.676437  1
  Ta  Ta3  1  0.677565  0.320668  0.676437  1
  Nb  Nb4  1  0.685057  0.680948  0.317190  1
  Nb  Nb5  1  0.316804  0.680948  0.317190  1
  Al  Al6  1  0.880612  0.881178  0.357600  1
  Al  Al7  1  0.880791  0.356838  0.881581  1
  Al  Al8  1  0.360743  0.880789  0.881242  1
  Al  Al9  1  0.877227  0.880789  0.881242  1
  Al  Al10  1  0.118940  0.122400  0.639720  1
  Al  Al11  1  0.119043  0.638720  0.123195  1
  Al  Al12  1  0.642809  0.119085  0.119500  1
  Al  Al13  1  0.118605  0.119085  0.119500  1
  Al  Al14  1  0.662141  0.661744  0.013972  1
  Al  Al15  1  0.664172  0.009126  0.662529  1
  Al  Al16  1  0.012454  0.661790  0.660828  1
  Al  Al17  1  0.664927  0.661790  0.660828  1
  Al  Al18  1  0.337911  0.335114  0.989064  1
  Al  Al19  1  0.339471  0.985945  0.335115  1
  Al  Al20  1  0.988610  0.337494  0.336118  1
  Al  Al21  1  0.337780  0.337494  0.336118  1
  Ir  Ir22  1  0.002640  0.995876  0.998844  1
  Ir  Ir23  1  0.997140  0.003092  0.498893  1
  Ir  Ir24  1  0.500875  0.003092  0.498893  1
  Ir  Ir25  1  0.001239  0.496966  0.500556  1
  Ir  Ir26  1  0.503076  0.497204  0.000868  1
  Ir  Ir27  1  0.998852  0.497204  0.000868  1
  Ir  Ir28  1  0.501265  0.000316  0.997155  1
