# generated using pymatgen
data_Hf2ScTi2Sn3
_symmetry_space_group_name_H-M   'P 1'
_cell_length_a   8.31504191
_cell_length_b   8.30526967
_cell_length_c   5.59900700
_cell_angle_alpha   90.00000000
_cell_angle_beta   90.00000000
_cell_angle_gamma   119.96112337
_symmetry_Int_Tables_number   1
_chemical_formula_structural   Hf2ScTi2Sn3
_chemical_formula_sum   'Hf4 Sc2 Ti4 Sn6'
_cell_volume   334.98844232
_cell_formula_units_Z   2
loop_
 _symmetry_equiv_pos_site_id
 _symmetry_equiv_pos_as_xyz
  1  'x, y, z'
loop_
 _atom_site_type_symbol
 _atom_site_label
 _atom_site_symmetry_multiplicity
 _atom_site_fract_x
 _atom_site_fract_y
 _atom_site_fract_z
 _atom_site_occupancy
  Hf  Hf0  1  0.000000  0.240468  0.750000  1
  Hf  Hf1  1  0.235978  0.237559  0.250000  1
  Hf  Hf2  1  0.764022  0.001580  0.250000  1
  Hf  Hf3  1  0.000000  0.761944  0.250000  1
  Sc  Sc4  1  0.759736  0.760968  0.750000  1
  Sc  Sc5  1  0.240264  0.001232  0.750000  1
  Ti  Ti6  1  0.667887  0.332814  0.000452  1
  Ti  Ti7  1  0.332113  0.664928  0.000452  1
  Ti  Ti8  1  0.332113  0.664928  0.499548  1
  Ti  Ti9  1  0.667887  0.332814  0.499548  1
  Sn  Sn10  1  0.400312  0.398957  0.750000  1
  Sn  Sn11  1  0.599688  0.998645  0.750000  1
  Sn  Sn12  1  0.000000  0.602137  0.750000  1
  Sn  Sn13  1  0.600623  0.600683  0.250000  1
  Sn  Sn14  1  0.399377  0.000060  0.250000  1
  Sn  Sn15  1  0.000000  0.400281  0.250000  1
