# generated using pymatgen
data_Ho6Sc2CdAu9
_symmetry_space_group_name_H-M   'P 1'
_cell_length_a   7.94928291
_cell_length_b   7.94928270
_cell_length_c   7.94928063
_cell_angle_alpha   65.89096754
_cell_angle_beta   65.89097093
_cell_angle_gamma   65.89095498
_symmetry_Int_Tables_number   1
_chemical_formula_structural   Ho6Sc2CdAu9
_chemical_formula_sum   'Ho6 Sc2 Cd1 Au9'
_cell_volume   400.52405954
_cell_formula_units_Z   1
loop_
 _symmetry_equiv_pos_site_id
 _symmetry_equiv_pos_as_xyz
  1  'x, y, z'
loop_
 _atom_site_type_symbol
 _atom_site_label
 _atom_site_symmetry_multiplicity
 _atom_site_fract_x
 _atom_site_fract_y
 _atom_site_fract_z
 _atom_site_occupancy
  Ho  Ho0  1  0.897080  0.186105  0.619163  1
  Ho  Ho1  1  0.619163  0.897080  0.186105  1
  Ho  Ho2  1  0.186105  0.619163  0.897080  1
  Ho  Ho3  1  0.102920  0.813895  0.380837  1
  Ho  Ho4  1  0.380837  0.102920  0.813895  1
  Ho  Ho5  1  0.813895  0.380837  0.102920  1
  Sc  Sc6  1  0.662533  0.662533  0.662533  1
  Sc  Sc7  1  0.337467  0.337467  0.337467  1
  Cd  Cd8  1  0.500000  0.500000  0.500000  1
  Au  Au9  1  0.000000  0.000000  0.000000  1
  Au  Au10  1  0.808030  0.808030  0.808030  1
  Au  Au11  1  0.191970  0.191970  0.191970  1
  Au  Au12  1  0.932021  0.550259  0.321016  1
  Au  Au13  1  0.321016  0.932021  0.550259  1
  Au  Au14  1  0.550259  0.321016  0.932021  1
  Au  Au15  1  0.067979  0.449741  0.678984  1
  Au  Au16  1  0.678984  0.067979  0.449741  1
  Au  Au17  1  0.449741  0.678984  0.067979  1
