# generated using pymatgen
data_EuHo2Er2(In2Pt)2
_symmetry_space_group_name_H-M   'P 1'
_cell_length_a   3.61543500
_cell_length_b   8.20880600
_cell_length_c   18.39713700
_cell_angle_alpha   90.00000000
_cell_angle_beta   90.00000000
_cell_angle_gamma   90.00000000
_symmetry_Int_Tables_number   1
_chemical_formula_structural   EuHo2Er2(In2Pt)2
_chemical_formula_sum   'Eu2 Ho4 Er4 In8 Pt4'
_cell_volume   545.99767391
_cell_formula_units_Z   2
loop_
 _symmetry_equiv_pos_site_id
 _symmetry_equiv_pos_as_xyz
  1  'x, y, z'
loop_
 _atom_site_type_symbol
 _atom_site_label
 _atom_site_symmetry_multiplicity
 _atom_site_fract_x
 _atom_site_fract_y
 _atom_site_fract_z
 _atom_site_occupancy
  Eu  Eu0  1  0.000000  0.000000  0.000000  1
  Eu  Eu1  1  0.000000  0.500000  0.500000  1
  Ho  Ho2  1  0.000000  0.243082  0.220377  1
  Ho  Ho3  1  0.000000  0.756918  0.779623  1
  Ho  Ho4  1  0.000000  0.256918  0.720377  1
  Ho  Ho5  1  0.000000  0.743082  0.279623  1
  Er  Er6  1  0.000000  0.117994  0.413207  1
  Er  Er7  1  0.000000  0.882006  0.586793  1
  Er  Er8  1  0.000000  0.382006  0.913207  1
  Er  Er9  1  0.000000  0.617994  0.086793  1
  In  In10  1  0.500000  0.422355  0.349129  1
  In  In11  1  0.500000  0.577645  0.650871  1
  In  In12  1  0.500000  0.077645  0.849129  1
  In  In13  1  0.500000  0.922355  0.150871  1
  In  In14  1  0.500000  0.297886  0.067670  1
  In  In15  1  0.500000  0.702114  0.932330  1
  In  In16  1  0.500000  0.202114  0.567670  1
  In  In17  1  0.500000  0.797886  0.432330  1
  Pt  Pt18  1  0.500000  0.023668  0.303620  1
  Pt  Pt19  1  0.500000  0.976332  0.696380  1
  Pt  Pt20  1  0.500000  0.476332  0.803620  1
  Pt  Pt21  1  0.500000  0.523668  0.196380  1
