# generated using pymatgen
data_TbTm2AlC3
_symmetry_space_group_name_H-M   'P 1'
_cell_length_a   3.54800800
_cell_length_b   7.02316000
_cell_length_c   9.88709600
_cell_angle_alpha   90.00000000
_cell_angle_beta   90.00000000
_cell_angle_gamma   90.00000000
_symmetry_Int_Tables_number   1
_chemical_formula_structural   TbTm2AlC3
_chemical_formula_sum   'Tb2 Tm4 Al2 C6'
_cell_volume   246.36891105
_cell_formula_units_Z   2
loop_
 _symmetry_equiv_pos_site_id
 _symmetry_equiv_pos_as_xyz
  1  'x, y, z'
loop_
 _atom_site_type_symbol
 _atom_site_label
 _atom_site_symmetry_multiplicity
 _atom_site_fract_x
 _atom_site_fract_y
 _atom_site_fract_z
 _atom_site_occupancy
  Tb  Tb0  1  0.000000  0.750000  0.460351  1
  Tb  Tb1  1  0.000000  0.250000  0.539649  1
  Tm  Tm2  1  0.500000  0.513408  0.200273  1
  Tm  Tm3  1  0.500000  0.486592  0.799727  1
  Tm  Tm4  1  0.500000  0.986592  0.200273  1
  Tm  Tm5  1  0.500000  0.013408  0.799727  1
  Al  Al6  1  0.000000  0.750000  0.002802  1
  Al  Al7  1  0.000000  0.250000  0.997198  1
  C  C8  1  0.500000  0.509118  0.566857  1
  C  C9  1  0.500000  0.490882  0.433143  1
  C  C10  1  0.500000  0.990882  0.566857  1
  C  C11  1  0.500000  0.009118  0.433143  1
  C  C12  1  0.000000  0.750000  0.207075  1
  C  C13  1  0.000000  0.250000  0.792925  1
