# generated using pymatgen
data_Eu3CrReC6
_symmetry_space_group_name_H-M   'P 1'
_cell_length_a   8.46188400
_cell_length_b   8.46188306
_cell_length_c   5.27125000
_cell_angle_alpha   90.00000000
_cell_angle_beta   90.00000000
_cell_angle_gamma   119.99999586
_symmetry_Int_Tables_number   1
_chemical_formula_structural   Eu3CrReC6
_chemical_formula_sum   'Eu6 Cr2 Re2 C12'
_cell_volume   326.87247439
_cell_formula_units_Z   2
loop_
 _symmetry_equiv_pos_site_id
 _symmetry_equiv_pos_as_xyz
  1  'x, y, z'
loop_
 _atom_site_type_symbol
 _atom_site_label
 _atom_site_symmetry_multiplicity
 _atom_site_fract_x
 _atom_site_fract_y
 _atom_site_fract_z
 _atom_site_occupancy
  Eu  Eu0  1  0.612118  0.698765  0.750000  1
  Eu  Eu1  1  0.913354  0.612118  0.250000  1
  Eu  Eu2  1  0.698765  0.086646  0.250000  1
  Eu  Eu3  1  0.301235  0.913354  0.750000  1
  Eu  Eu4  1  0.086646  0.387882  0.750000  1
  Eu  Eu5  1  0.387882  0.301235  0.250000  1
  Cr  Cr6  1  0.000000  0.000000  0.500000  1
  Cr  Cr7  1  0.000000  0.000000  0.000000  1
  Re  Re8  1  0.666667  0.333333  0.750000  1
  Re  Re9  1  0.333333  0.666667  0.250000  1
  C  C10  1  0.948754  0.777357  0.750000  1
  C  C11  1  0.171396  0.948754  0.250000  1
  C  C12  1  0.777357  0.828604  0.250000  1
  C  C13  1  0.222643  0.171396  0.750000  1
  C  C14  1  0.828604  0.051246  0.750000  1
  C  C15  1  0.051246  0.222643  0.250000  1
  C  C16  1  0.853975  0.590844  0.750000  1
  C  C17  1  0.263130  0.853975  0.250000  1
  C  C18  1  0.590844  0.736870  0.250000  1
  C  C19  1  0.409156  0.263130  0.750000  1
  C  C20  1  0.146025  0.409156  0.250000  1
  C  C21  1  0.736870  0.146025  0.750000  1
