# generated using pymatgen
data_YbSm3(B8Ru7)2
_symmetry_space_group_name_H-M   'P 1'
_cell_length_a   6.44982235
_cell_length_b   6.45649035
_cell_length_c   10.04342700
_cell_angle_alpha   90.00000000
_cell_angle_beta   90.00000000
_cell_angle_gamma   89.96248739
_symmetry_Int_Tables_number   1
_chemical_formula_structural   YbSm3(B8Ru7)2
_chemical_formula_sum   'Yb1 Sm3 B16 Ru14'
_cell_volume   418.24050736
_cell_formula_units_Z   1
loop_
 _symmetry_equiv_pos_site_id
 _symmetry_equiv_pos_as_xyz
  1  'x, y, z'
loop_
 _atom_site_type_symbol
 _atom_site_label
 _atom_site_symmetry_multiplicity
 _atom_site_fract_x
 _atom_site_fract_y
 _atom_site_fract_z
 _atom_site_occupancy
  Yb  Yb0  1  0.734227  0.873166  0.000000  1
  Sm  Sm1  1  0.125880  0.735937  0.500000  1
  Sm  Sm2  1  0.875627  0.265847  0.500000  1
  Sm  Sm3  1  0.269567  0.122042  0.000000  1
  B  B4  1  0.499723  0.999960  0.588807  1
  B  B5  1  0.499723  0.999960  0.411193  1
  B  B6  1  0.897566  0.274791  0.168306  1
  B  B7  1  0.101879  0.725969  0.832187  1
  B  B8  1  0.500331  0.499561  0.341047  1
  B  B9  1  0.500837  0.499824  0.841473  1
  B  B10  1  0.271938  0.101261  0.668451  1
  B  B11  1  0.101879  0.725969  0.167813  1
  B  B12  1  0.271938  0.101261  0.331549  1
  B  B13  1  0.897566  0.274791  0.831694  1
  B  B14  1  0.500331  0.499561  0.658953  1
  B  B15  1  0.500837  0.499824  0.158527  1
  B  B16  1  0.999977  0.501021  0.911426  1
  B  B17  1  0.725714  0.897665  0.668847  1
  B  B18  1  0.725714  0.897665  0.331153  1
  B  B19  1  0.999977  0.501021  0.088574  1
  Ru  Ru20  1  0.204063  0.398117  0.752819  1
  Ru  Ru21  1  0.399159  0.286908  0.500000  1
  Ru  Ru22  1  0.397720  0.795512  0.253575  1
  Ru  Ru23  1  0.204063  0.398117  0.247181  1
  Ru  Ru24  1  0.600497  0.711885  0.500000  1
  Ru  Ru25  1  0.602135  0.204368  0.746814  1
  Ru  Ru26  1  0.288023  0.599042  0.000000  1
  Ru  Ru27  1  0.712531  0.403655  0.000000  1
  Ru  Ru28  1  0.796621  0.602800  0.246975  1
  Ru  Ru29  1  0.796621  0.602800  0.753025  1
  Ru  Ru30  1  0.397720  0.795512  0.746425  1
  Ru  Ru31  1  0.998741  0.999908  0.248820  1
  Ru  Ru32  1  0.602135  0.204368  0.253186  1
  Ru  Ru33  1  0.998741  0.999908  0.751180  1
