# generated using pymatgen
data_Lu2Th2MnB12Ru
_symmetry_space_group_name_H-M   'P 1'
_cell_length_a   3.68025400
_cell_length_b   9.14730035
_cell_length_c   11.55639144
_cell_angle_alpha   89.96818103
_cell_angle_beta   90.00000000
_cell_angle_gamma   90.00000000
_symmetry_Int_Tables_number   1
_chemical_formula_structural   Lu2Th2MnB12Ru
_chemical_formula_sum   'Lu4 Th4 Mn2 B24 Ru2'
_cell_volume   389.03879374
_cell_formula_units_Z   2
loop_
 _symmetry_equiv_pos_site_id
 _symmetry_equiv_pos_as_xyz
  1  'x, y, z'
loop_
 _atom_site_type_symbol
 _atom_site_label
 _atom_site_symmetry_multiplicity
 _atom_site_fract_x
 _atom_site_fract_y
 _atom_site_fract_z
 _atom_site_occupancy
  Lu  Lu0  1  0.000000  0.941779  0.374003  1
  Lu  Lu1  1  0.000000  0.058221  0.625997  1
  Lu  Lu2  1  0.000000  0.447767  0.128232  1
  Lu  Lu3  1  0.000000  0.552233  0.871768  1
  Th  Th4  1  0.000000  0.325154  0.416047  1
  Th  Th5  1  0.000000  0.674846  0.583953  1
  Th  Th6  1  0.000000  0.819718  0.087863  1
  Th  Th7  1  0.000000  0.180282  0.912137  1
  Mn  Mn8  1  0.000000  0.641321  0.318289  1
  Mn  Mn9  1  0.000000  0.358679  0.681711  1
  B  B10  1  0.500000  0.557957  0.427859  1
  B  B11  1  0.500000  0.442043  0.572141  1
  B  B12  1  0.500000  0.056976  0.070179  1
  B  B13  1  0.500000  0.943024  0.929821  1
  B  B14  1  0.500000  0.750036  0.416061  1
  B  B15  1  0.500000  0.249964  0.583939  1
  B  B16  1  0.500000  0.252803  0.082948  1
  B  B17  1  0.500000  0.747197  0.917052  1
  B  B18  1  0.500000  0.791024  0.267335  1
  B  B19  1  0.500000  0.208976  0.732665  1
  B  B20  1  0.500000  0.292983  0.233768  1
  B  B21  1  0.500000  0.707017  0.766232  1
  B  B22  1  0.500000  0.631076  0.185952  1
  B  B23  1  0.500000  0.368924  0.814048  1
  B  B24  1  0.500000  0.130594  0.316411  1
  B  B25  1  0.500000  0.869406  0.683589  1
  B  B26  1  0.500000  0.985627  0.215778  1
  B  B27  1  0.500000  0.014373  0.784222  1
  B  B28  1  0.500000  0.487540  0.285444  1
  B  B29  1  0.500000  0.512460  0.714556  1
  B  B30  1  0.500000  0.601549  0.026950  1
  B  B31  1  0.500000  0.398451  0.973050  1
  B  B32  1  0.500000  0.102055  0.472251  1
  B  B33  1  0.500000  0.897945  0.527749  1
  Ru  Ru34  1  0.000000  0.141023  0.181210  1
  Ru  Ru35  1  0.000000  0.858977  0.818790  1
