# generated using pymatgen
data_Pr3Tm17HgBi11
_symmetry_space_group_name_H-M   'P 1'
_cell_length_a   8.14899370
_cell_length_b   9.41795200
_cell_length_c   11.90074300
_cell_angle_alpha   90.00000000
_cell_angle_beta   90.29594419
_cell_angle_gamma   90.00000000
_symmetry_Int_Tables_number   1
_chemical_formula_structural   Pr3Tm17HgBi11
_chemical_formula_sum   'Pr3 Tm17 Hg1 Bi11'
_cell_volume   913.33213476
_cell_formula_units_Z   1
loop_
 _symmetry_equiv_pos_site_id
 _symmetry_equiv_pos_as_xyz
  1  'x, y, z'
loop_
 _atom_site_type_symbol
 _atom_site_label
 _atom_site_symmetry_multiplicity
 _atom_site_fract_x
 _atom_site_fract_y
 _atom_site_fract_z
 _atom_site_occupancy
  Pr  Pr0  1  0.813091  0.250000  0.281116  1
  Pr  Pr1  1  0.683639  0.750000  0.779796  1
  Pr  Pr2  1  0.185161  0.750000  0.719383  1
  Tm  Tm3  1  0.348736  0.750000  0.219036  1
  Tm  Tm4  1  0.849122  0.750000  0.279796  1
  Tm  Tm5  1  0.647336  0.250000  0.789446  1
  Tm  Tm6  1  0.150488  0.250000  0.717323  1
  Tm  Tm7  1  0.691914  0.553266  0.059911  1
  Tm  Tm8  1  0.189886  0.935244  0.438315  1
  Tm  Tm9  1  0.314316  0.068656  0.943461  1
  Tm  Tm10  1  0.810757  0.434539  0.562451  1
  Tm  Tm11  1  0.314316  0.431344  0.943461  1
  Tm  Tm12  1  0.810757  0.065461  0.562451  1
  Tm  Tm13  1  0.691914  0.946734  0.059911  1
  Tm  Tm14  1  0.189886  0.564756  0.438315  1
  Tm  Tm15  1  0.479133  0.250000  0.487906  1
  Tm  Tm16  1  0.968264  0.250000  0.011892  1
  Tm  Tm17  1  0.520907  0.750000  0.510372  1
  Tm  Tm18  1  0.020560  0.750000  0.990250  1
  Tm  Tm19  1  0.320375  0.250000  0.212440  1
  Hg  Hg20  1  0.593215  0.250000  0.037426  1
  Bi  Bi21  1  0.403225  0.750000  0.965061  1
  Bi  Bi22  1  0.901151  0.750000  0.534974  1
  Bi  Bi23  1  0.102092  0.250000  0.460401  1
  Bi  Bi24  1  0.558480  0.993631  0.325212  1
  Bi  Bi25  1  0.067081  0.505924  0.173683  1
  Bi  Bi26  1  0.436222  0.490080  0.671216  1
  Bi  Bi27  1  0.938094  0.009055  0.827444  1
  Bi  Bi28  1  0.436222  0.009920  0.671216  1
  Bi  Bi29  1  0.938094  0.490945  0.827444  1
  Bi  Bi30  1  0.558480  0.506369  0.325212  1
  Bi  Bi31  1  0.067081  0.994076  0.173683  1
