# generated using pymatgen
data_TbY2Tm3FeSb2
_symmetry_space_group_name_H-M   'P 1'
_cell_length_a   8.15492470
_cell_length_b   8.12013335
_cell_length_c   4.16417300
_cell_angle_alpha   90.00000000
_cell_angle_beta   90.00000000
_cell_angle_gamma   119.85898655
_symmetry_Int_Tables_number   1
_chemical_formula_structural   TbY2Tm3FeSb2
_chemical_formula_sum   'Tb1 Y2 Tm3 Fe1 Sb2'
_cell_volume   239.14310782
_cell_formula_units_Z   1
loop_
 _symmetry_equiv_pos_site_id
 _symmetry_equiv_pos_as_xyz
  1  'x, y, z'
loop_
 _atom_site_type_symbol
 _atom_site_label
 _atom_site_symmetry_multiplicity
 _atom_site_fract_x
 _atom_site_fract_y
 _atom_site_fract_z
 _atom_site_occupancy
  Tb  Tb0  1  0.000000  0.603174  0.500000  1
  Y  Y1  1  0.397693  0.397360  0.500000  1
  Y  Y2  1  0.602307  0.999667  0.500000  1
  Tm  Tm3  1  0.232024  0.999817  0.000000  1
  Tm  Tm4  1  0.767976  0.767793  0.000000  1
  Tm  Tm5  1  0.000000  0.232712  0.000000  1
  Fe  Fe6  1  0.000000  0.999975  0.500000  1
  Sb  Sb7  1  0.334066  0.666785  0.000000  1
  Sb  Sb8  1  0.665934  0.332718  0.000000  1
