# generated using pymatgen
data_LaMn2P6IN12
_symmetry_space_group_name_H-M   'P 1'
_cell_length_a   7.41145631
_cell_length_b   7.40621474
_cell_length_c   7.41145700
_cell_angle_alpha   109.66468777
_cell_angle_beta   109.43075683
_cell_angle_gamma   109.66466908
_symmetry_Int_Tables_number   1
_chemical_formula_structural   LaMn2P6IN12
_chemical_formula_sum   'La1 Mn2 P6 I1 N12'
_cell_volume   311.82350950
_cell_formula_units_Z   1
loop_
 _symmetry_equiv_pos_site_id
 _symmetry_equiv_pos_as_xyz
  1  'x, y, z'
loop_
 _atom_site_type_symbol
 _atom_site_label
 _atom_site_symmetry_multiplicity
 _atom_site_fract_x
 _atom_site_fract_y
 _atom_site_fract_z
 _atom_site_occupancy
  La  La0  1  0.010780  0.341103  0.010780  1
  Mn  Mn1  1  0.003944  0.011729  0.399224  1
  Mn  Mn2  1  0.399224  0.011729  0.003944  1
  P  P3  1  0.496923  0.261071  0.744717  1
  P  P4  1  0.251269  0.757691  0.501575  1
  P  P5  1  0.744779  0.509382  0.260664  1
  P  P6  1  0.744717  0.261071  0.496923  1
  P  P7  1  0.501575  0.757691  0.251269  1
  P  P8  1  0.260664  0.509382  0.744779  1
  I  I9  1  0.984233  0.897690  0.984233  1
  N  N10  1  0.388104  0.691455  0.388104  1
  N  N11  1  0.694701  0.421348  0.416877  1
  N  N12  1  0.416877  0.421348  0.694701  1
  N  N13  1  0.706593  0.283315  0.706593  1
  N  N14  1  0.994667  0.582963  0.300966  1
  N  N15  1  0.300966  0.582963  0.994667  1
  N  N16  1  0.282845  0.006086  0.577118  1
  N  N17  1  0.999439  0.294264  0.582739  1
  N  N18  1  0.719466  0.728683  0.298378  1
  N  N19  1  0.577118  0.006086  0.282845  1
  N  N20  1  0.298378  0.728683  0.719466  1
  N  N21  1  0.582739  0.294264  0.999439  1
