# generated using pymatgen
data_YbLu(Ni2As)4
_symmetry_space_group_name_H-M   'P 1'
_cell_length_a   3.75268800
_cell_length_b   7.22651596
_cell_length_c   7.22651596
_cell_angle_alpha   89.60487209
_cell_angle_beta   90.00000000
_cell_angle_gamma   90.00000000
_symmetry_Int_Tables_number   1
_chemical_formula_structural   YbLu(Ni2As)4
_chemical_formula_sum   'Yb1 Lu1 Ni8 As4'
_cell_volume   195.97021250
_cell_formula_units_Z   1
loop_
 _symmetry_equiv_pos_site_id
 _symmetry_equiv_pos_as_xyz
  1  'x, y, z'
loop_
 _atom_site_type_symbol
 _atom_site_label
 _atom_site_symmetry_multiplicity
 _atom_site_fract_x
 _atom_site_fract_y
 _atom_site_fract_z
 _atom_site_occupancy
  Yb  Yb0  1  0.000000  0.500000  0.500000  1
  Lu  Lu1  1  0.500000  0.000000  0.000000  1
  Ni  Ni2  1  0.500000  0.155888  0.587882  1
  Ni  Ni3  1  0.500000  0.844112  0.412118  1
  Ni  Ni4  1  0.000000  0.344555  0.087498  1
  Ni  Ni5  1  0.000000  0.655445  0.912502  1
  Ni  Ni6  1  0.500000  0.587882  0.155888  1
  Ni  Ni7  1  0.500000  0.412118  0.844112  1
  Ni  Ni8  1  0.000000  0.087498  0.344555  1
  Ni  Ni9  1  0.000000  0.912502  0.655445  1
  As  As10  1  0.500000  0.719660  0.719660  1
  As  As11  1  0.500000  0.280340  0.280340  1
  As  As12  1  0.000000  0.784173  0.215827  1
  As  As13  1  0.000000  0.215827  0.784173  1
