# generated using pymatgen
data_K2RbH5Pt
_symmetry_space_group_name_H-M   'P 1'
_cell_length_a   7.54679900
_cell_length_b   7.54679900
_cell_length_c   5.85960800
_cell_angle_alpha   90.00000000
_cell_angle_beta   90.00000000
_cell_angle_gamma   90.00000000
_symmetry_Int_Tables_number   1
_chemical_formula_structural   K2RbH5Pt
_chemical_formula_sum   'K4 Rb2 H10 Pt2'
_cell_volume   333.72914032
_cell_formula_units_Z   2
loop_
 _symmetry_equiv_pos_site_id
 _symmetry_equiv_pos_as_xyz
  1  'x, y, z'
loop_
 _atom_site_type_symbol
 _atom_site_label
 _atom_site_symmetry_multiplicity
 _atom_site_fract_x
 _atom_site_fract_y
 _atom_site_fract_z
 _atom_site_occupancy
  K  K0  1  0.183730  0.683730  0.500000  1
  K  K1  1  0.816270  0.316270  0.500000  1
  K  K2  1  0.683730  0.816270  0.500000  1
  K  K3  1  0.316270  0.183730  0.500000  1
  Rb  Rb4  1  0.500000  0.500000  0.000000  1
  Rb  Rb5  1  0.000000  0.000000  0.000000  1
  H  H6  1  0.500000  0.500000  0.500000  1
  H  H7  1  0.000000  0.000000  0.500000  1
  H  H8  1  0.611504  0.111504  0.801535  1
  H  H9  1  0.388496  0.888496  0.801535  1
  H  H10  1  0.111504  0.388496  0.801535  1
  H  H11  1  0.888496  0.611504  0.801535  1
  H  H12  1  0.388496  0.888496  0.198465  1
  H  H13  1  0.611504  0.111504  0.198465  1
  H  H14  1  0.888496  0.611504  0.198465  1
  H  H15  1  0.111504  0.388496  0.198465  1
  Pt  Pt16  1  0.500000  0.000000  0.000000  1
  Pt  Pt17  1  0.000000  0.500000  0.000000  1
