# generated using pymatgen
data_Ta2Mn4Nb2Si3P
_symmetry_space_group_name_H-M   'P 1'
_cell_length_a   3.55568900
_cell_length_b   6.33628519
_cell_length_c   7.40335997
_cell_angle_alpha   89.97207979
_cell_angle_beta   90.00000000
_cell_angle_gamma   90.00000000
_symmetry_Int_Tables_number   1
_chemical_formula_structural   Ta2Mn4Nb2Si3P
_chemical_formula_sum   'Ta2 Mn4 Nb2 Si3 P1'
_cell_volume   166.79664055
_cell_formula_units_Z   1
loop_
 _symmetry_equiv_pos_site_id
 _symmetry_equiv_pos_as_xyz
  1  'x, y, z'
loop_
 _atom_site_type_symbol
 _atom_site_label
 _atom_site_symmetry_multiplicity
 _atom_site_fract_x
 _atom_site_fract_y
 _atom_site_fract_z
 _atom_site_occupancy
  Ta  Ta0  1  0.750000  0.466699  0.328500  1
  Ta  Ta1  1  0.750000  0.965845  0.172192  1
  Mn  Mn2  1  0.750000  0.866813  0.559580  1
  Mn  Mn3  1  0.250000  0.140842  0.442310  1
  Mn  Mn4  1  0.750000  0.360349  0.937596  1
  Mn  Mn5  1  0.250000  0.636839  0.061727  1
  Nb  Nb6  1  0.250000  0.528671  0.671545  1
  Nb  Nb7  1  0.250000  0.034764  0.825944  1
  Si  Si8  1  0.250000  0.265337  0.131379  1
  Si  Si9  1  0.750000  0.733698  0.869021  1
  Si  Si10  1  0.250000  0.766788  0.370271  1
  P  P11  1  0.750000  0.233356  0.629936  1
