# generated using pymatgen
data_Ba4PrNd7Se16
_symmetry_space_group_name_H-M   'P 1'
_cell_length_a   4.34715200
_cell_length_b   13.09733001
_cell_length_c   15.60691300
_cell_angle_alpha   89.99817278
_cell_angle_beta   90.00000000
_cell_angle_gamma   90.00000000
_symmetry_Int_Tables_number   1
_chemical_formula_structural   Ba4PrNd7Se16
_chemical_formula_sum   'Ba4 Pr1 Nd7 Se16'
_cell_volume   888.59651454
_cell_formula_units_Z   1
loop_
 _symmetry_equiv_pos_site_id
 _symmetry_equiv_pos_as_xyz
  1  'x, y, z'
loop_
 _atom_site_type_symbol
 _atom_site_label
 _atom_site_symmetry_multiplicity
 _atom_site_fract_x
 _atom_site_fract_y
 _atom_site_fract_z
 _atom_site_occupancy
  Ba  Ba0  1  0.250000  0.757077  0.337421  1
  Ba  Ba1  1  0.250000  0.257178  0.162765  1
  Ba  Ba2  1  0.750000  0.242673  0.662384  1
  Ba  Ba3  1  0.750000  0.742897  0.837362  1
  Pr  Pr4  1  0.750000  0.079831  0.399065  1
  Nd  Nd5  1  0.250000  0.430958  0.391293  1
  Nd  Nd6  1  0.250000  0.931126  0.109021  1
  Nd  Nd7  1  0.750000  0.569023  0.608773  1
  Nd  Nd8  1  0.750000  0.069042  0.891289  1
  Nd  Nd9  1  0.250000  0.420315  0.899214  1
  Nd  Nd10  1  0.250000  0.920445  0.600771  1
  Nd  Nd11  1  0.750000  0.579630  0.100841  1
  Se  Se12  1  0.250000  0.207198  0.827164  1
  Se  Se13  1  0.250000  0.707503  0.672435  1
  Se  Se14  1  0.750000  0.792779  0.172810  1
  Se  Se15  1  0.750000  0.293547  0.327208  1
  Se  Se16  1  0.250000  0.130036  0.526600  1
  Se  Se17  1  0.250000  0.629503  0.974198  1
  Se  Se18  1  0.750000  0.869583  0.474444  1
  Se  Se19  1  0.750000  0.370428  0.025931  1
  Se  Se20  1  0.250000  0.523716  0.217071  1
  Se  Se21  1  0.250000  0.023182  0.281791  1
  Se  Se22  1  0.750000  0.476080  0.782995  1
  Se  Se23  1  0.750000  0.976201  0.716761  1
  Se  Se24  1  0.250000  0.416190  0.579001  1
  Se  Se25  1  0.250000  0.916427  0.921245  1
  Se  Se26  1  0.750000  0.583482  0.420972  1
  Se  Se27  1  0.750000  0.083948  0.079178  1
