# generated using pymatgen
data_Pa2Al4CoGe2
_symmetry_space_group_name_H-M   'P 1'
_cell_length_a   4.13134024
_cell_length_b   4.13135152
_cell_length_c   10.20518600
_cell_angle_alpha   101.78253043
_cell_angle_beta   101.78447561
_cell_angle_gamma   89.93658290
_symmetry_Int_Tables_number   1
_chemical_formula_structural   Pa2Al4CoGe2
_chemical_formula_sum   'Pa2 Al4 Co1 Ge2'
_cell_volume   166.76845793
_cell_formula_units_Z   1
loop_
 _symmetry_equiv_pos_site_id
 _symmetry_equiv_pos_as_xyz
  1  'x, y, z'
loop_
 _atom_site_type_symbol
 _atom_site_label
 _atom_site_symmetry_multiplicity
 _atom_site_fract_x
 _atom_site_fract_y
 _atom_site_fract_z
 _atom_site_occupancy
  Pa  Pa0  1  0.185549  0.185537  0.370439  1
  Pa  Pa1  1  0.814480  0.814503  0.629661  1
  Al  Al2  1  0.566421  0.066349  0.132790  1
  Al  Al3  1  0.066348  0.566423  0.132791  1
  Al  Al4  1  0.933649  0.433563  0.867174  1
  Al  Al5  1  0.433564  0.933625  0.867169  1
  Co  Co6  1  0.999996  0.999990  0.999985  1
  Ge  Ge7  1  0.664224  0.664236  0.328382  1
  Ge  Ge8  1  0.335774  0.335780  0.671610  1
