# generated using pymatgen
data_K2Zn(GePt2)3
_symmetry_space_group_name_H-M   'P 1'
_cell_length_a   6.98996684
_cell_length_b   6.98996689
_cell_length_c   6.04492493
_cell_angle_alpha   115.48575972
_cell_angle_beta   115.48576282
_cell_angle_gamma   63.70304303
_symmetry_Int_Tables_number   1
_chemical_formula_structural   K2Zn(GePt2)3
_chemical_formula_sum   'K2 Zn1 Ge3 Pt6'
_cell_volume   228.29941331
_cell_formula_units_Z   1
loop_
 _symmetry_equiv_pos_site_id
 _symmetry_equiv_pos_as_xyz
  1  'x, y, z'
loop_
 _atom_site_type_symbol
 _atom_site_label
 _atom_site_symmetry_multiplicity
 _atom_site_fract_x
 _atom_site_fract_y
 _atom_site_fract_z
 _atom_site_occupancy
  K  K0  1  0.502097  0.502097  0.010093  1
  K  K1  1  0.998938  0.998938  0.975409  1
  Zn  Zn2  1  0.841219  0.841219  0.289929  1
  Ge  Ge3  1  0.316604  0.316604  0.370475  1
  Ge  Ge4  1  0.148566  0.148566  0.608297  1
  Ge  Ge5  1  0.689659  0.689659  0.747575  1
  Pt  Pt6  1  0.454291  0.046356  0.995631  1
  Pt  Pt7  1  0.046356  0.454291  0.995631  1
  Pt  Pt8  1  0.721521  0.281863  0.498318  1
  Pt  Pt9  1  0.281863  0.721521  0.498318  1
  Pt  Pt10  1  0.962755  0.535720  0.497339  1
  Pt  Pt11  1  0.535720  0.962755  0.497339  1
