# generated using pymatgen
data_K2Sn4O7
_symmetry_space_group_name_H-M   'P 1'
_cell_length_a   6.41377216
_cell_length_b   7.16683630
_cell_length_c   10.21908399
_cell_angle_alpha   102.21214003
_cell_angle_beta   98.99642486
_cell_angle_gamma   90.00825636
_symmetry_Int_Tables_number   1
_chemical_formula_structural   K2Sn4O7
_chemical_formula_sum   'K4 Sn8 O14'
_cell_volume   453.18899914
_cell_formula_units_Z   2
loop_
 _symmetry_equiv_pos_site_id
 _symmetry_equiv_pos_as_xyz
  1  'x, y, z'
loop_
 _atom_site_type_symbol
 _atom_site_label
 _atom_site_symmetry_multiplicity
 _atom_site_fract_x
 _atom_site_fract_y
 _atom_site_fract_z
 _atom_site_occupancy
  K  K0  1  0.920877  0.168922  0.689241  1
  K  K1  1  0.079123  0.831078  0.310759  1
  K  K2  1  0.424212  0.169330  0.688375  1
  K  K3  1  0.575788  0.830670  0.311625  1
  Sn  Sn4  1  0.904131  0.649565  0.622451  1
  Sn  Sn5  1  0.095869  0.350435  0.377549  1
  Sn  Sn6  1  0.407153  0.649234  0.623016  1
  Sn  Sn7  1  0.592847  0.350766  0.376984  1
  Sn  Sn8  1  0.740846  0.614281  0.962989  1
  Sn  Sn9  1  0.259154  0.385719  0.037011  1
  Sn  Sn10  1  0.235259  0.832466  0.940483  1
  Sn  Sn11  1  0.764741  0.167534  0.059517  1
  O  O12  1  0.649446  0.438028  0.595164  1
  O  O13  1  0.350554  0.561972  0.404836  1
  O  O14  1  0.147953  0.438015  0.594613  1
  O  O15  1  0.852047  0.561985  0.405387  1
  O  O16  1  0.654723  0.835617  0.620751  1
  O  O17  1  0.345277  0.164383  0.379249  1
  O  O18  1  0.158388  0.837371  0.632215  1
  O  O19  1  0.841612  0.162629  0.367785  1
  O  O20  1  0.959143  0.659006  0.829667  1
  O  O21  1  0.040857  0.340994  0.170333  1
  O  O22  1  0.455093  0.657203  0.829702  1
  O  O23  1  0.544907  0.342797  0.170298  1
  O  O24  1  0.727829  0.316161  0.904356  1
  O  O25  1  0.272171  0.683839  0.095644  1
