# generated using pymatgen
data_Sc6Ta6Os7Ru5
_symmetry_space_group_name_H-M   'P 1'
_cell_length_a   4.50436900
_cell_length_b   6.35819305
_cell_length_c   13.61391111
_cell_angle_alpha   90.01431203
_cell_angle_beta   89.99990284
_cell_angle_gamma   89.99969417
_symmetry_Int_Tables_number   1
_chemical_formula_structural   Sc6Ta6Os7Ru5
_chemical_formula_sum   'Sc6 Ta6 Os7 Ru5'
_cell_volume   389.89760531
_cell_formula_units_Z   1
loop_
 _symmetry_equiv_pos_site_id
 _symmetry_equiv_pos_as_xyz
  1  'x, y, z'
loop_
 _atom_site_type_symbol
 _atom_site_label
 _atom_site_symmetry_multiplicity
 _atom_site_fract_x
 _atom_site_fract_y
 _atom_site_fract_z
 _atom_site_occupancy
  Sc  Sc0  1  0.999998  0.999996  0.999006  1
  Sc  Sc1  1  0.499878  0.500123  0.166668  1
  Sc  Sc2  1  0.999877  0.998901  0.333816  1
  Sc  Sc3  1  0.500000  0.501980  0.500950  1
  Sc  Sc4  1  0.000121  0.998982  0.667136  1
  Sc  Sc5  1  0.500116  0.500096  0.832418  1
  Ta  Ta6  1  0.000001  0.500033  0.000504  1
  Ta  Ta7  1  0.499881  0.999940  0.166567  1
  Ta  Ta8  1  0.999888  0.499559  0.333188  1
  Ta  Ta9  1  0.499993  0.001480  0.499357  1
  Ta  Ta10  1  0.000103  0.499296  0.666213  1
  Ta  Ta11  1  0.500103  0.999818  0.834183  1
  Os  Os12  1  0.500002  0.250321  0.999366  1
  Os  Os13  1  0.500002  0.749655  0.999352  1
  Os  Os14  1  0.999886  0.249736  0.166714  1
  Os  Os15  1  0.999886  0.750389  0.166361  1
  Os  Os16  1  0.499890  0.250216  0.333776  1
  Os  Os17  1  0.499896  0.749549  0.333776  1
  Os  Os18  1  0.000000  0.249433  0.500617  1
  Ru  Ru19  1  0.999998  0.750447  0.500605  1
  Ru  Ru20  1  0.500119  0.250879  0.666837  1
  Ru  Ru21  1  0.500130  0.748990  0.666859  1
  Ru  Ru22  1  0.000118  0.249250  0.832694  1
  Ru  Ru23  1  0.000111  0.750928  0.833031  1
