# generated using pymatgen
data_TbNdV3P7Rh9
_symmetry_space_group_name_H-M   'P 1'
_cell_length_a   3.88674600
_cell_length_b   9.57709593
_cell_length_c   9.57652830
_cell_angle_alpha   119.99980320
_cell_angle_beta   90.00002534
_cell_angle_gamma   90.00012447
_symmetry_Int_Tables_number   1
_chemical_formula_structural   TbNdV3P7Rh9
_chemical_formula_sum   'Tb1 Nd1 V3 P7 Rh9'
_cell_volume   308.71631891
_cell_formula_units_Z   1
loop_
 _symmetry_equiv_pos_site_id
 _symmetry_equiv_pos_as_xyz
  1  'x, y, z'
loop_
 _atom_site_type_symbol
 _atom_site_label
 _atom_site_symmetry_multiplicity
 _atom_site_fract_x
 _atom_site_fract_y
 _atom_site_fract_z
 _atom_site_occupancy
  Tb  Tb0  1  0.761738  0.333289  0.666555  1
  Nd  Nd1  1  0.262080  0.666692  0.333360  1
  V  V2  1  0.761987  0.092681  0.876693  1
  V  V3  1  0.761974  0.123341  0.216008  1
  V  V4  1  0.761983  0.783960  0.907318  1
  P  P5  1  0.262164  0.000058  0.000006  1
  P  P6  1  0.761867  0.889182  0.601088  1
  P  P7  1  0.761868  0.398992  0.288153  1
  P  P8  1  0.761880  0.711818  0.111024  1
  P  P9  1  0.261788  0.116352  0.412199  1
  P  P10  1  0.261784  0.587725  0.704085  1
  P  P11  1  0.261790  0.295846  0.883665  1
  Rh  Rh12  1  0.261926  0.886264  0.158161  1
  Rh  Rh13  1  0.261915  0.841790  0.728283  1
  Rh  Rh14  1  0.261944  0.272106  0.113696  1
  Rh  Rh15  1  0.761886  0.611109  0.564981  1
  Rh  Rh16  1  0.761902  0.434906  0.045910  1
  Rh  Rh17  1  0.761889  0.953817  0.388879  1
  Rh  Rh18  1  0.261865  0.366875  0.436201  1
  Rh  Rh19  1  0.261890  0.563875  0.930539  1
  Rh  Rh20  1  0.261880  0.069320  0.633193  1
