# generated using pymatgen
data_Tb7Sm(GeO5)4
_symmetry_space_group_name_H-M   'P 1'
_cell_length_a   6.94198984
_cell_length_b   8.27774225
_cell_length_c   9.86711732
_cell_angle_alpha   108.79167173
_cell_angle_beta   69.42930684
_cell_angle_gamma   114.56911289
_symmetry_Int_Tables_number   1
_chemical_formula_structural   Tb7Sm(GeO5)4
_chemical_formula_sum   'Tb7 Sm1 Ge4 O20'
_cell_volume   472.35807739
_cell_formula_units_Z   1
loop_
 _symmetry_equiv_pos_site_id
 _symmetry_equiv_pos_as_xyz
  1  'x, y, z'
loop_
 _atom_site_type_symbol
 _atom_site_label
 _atom_site_symmetry_multiplicity
 _atom_site_fract_x
 _atom_site_fract_y
 _atom_site_fract_z
 _atom_site_occupancy
  Tb  Tb0  1  0.795477  0.105413  0.034198  1
  Tb  Tb1  1  0.263333  0.440039  0.163104  1
  Tb  Tb2  1  0.989169  0.061952  0.337458  1
  Tb  Tb3  1  0.723463  0.395761  0.465535  1
  Tb  Tb4  1  0.275692  0.603549  0.534294  1
  Tb  Tb5  1  0.010454  0.938035  0.662372  1
  Tb  Tb6  1  0.732969  0.560707  0.836785  1
  Sm  Sm7  1  0.209740  0.892612  0.963487  1
  Ge  Ge8  1  0.775405  0.560541  0.192671  1
  Ge  Ge9  1  0.410809  0.940663  0.310229  1
  Ge  Ge10  1  0.592158  0.060975  0.689888  1
  Ge  Ge11  1  0.221931  0.437328  0.807226  1
  O  O12  1  0.628020  0.465487  0.055200  1
  O  O13  1  0.110885  0.137753  0.104389  1
  O  O14  1  0.425212  0.968983  0.135825  1
  O  O15  1  0.954728  0.782527  0.178633  1
  O  O16  1  0.912345  0.410683  0.177017  1
  O  O17  1  0.679983  0.090546  0.326512  1
  O  O18  1  0.349717  0.717673  0.325521  1
  O  O19  1  0.585679  0.531319  0.366052  1
  O  O20  1  0.080126  0.364583  0.396664  1
  O  O21  1  0.220200  0.036732  0.445827  1
  O  O22  1  0.780618  0.963391  0.553683  1
  O  O23  1  0.919642  0.636196  0.603102  1
  O  O24  1  0.413206  0.467608  0.634432  1
  O  O25  1  0.649563  0.282913  0.674484  1
  O  O26  1  0.321148  0.910089  0.676680  1
  O  O27  1  0.081868  0.583007  0.819158  1
  O  O28  1  0.047094  0.215558  0.824687  1
  O  O29  1  0.587211  0.036437  0.863312  1
  O  O30  1  0.883644  0.862376  0.896061  1
  O  O31  1  0.368508  0.538558  0.945511  1
