# generated using pymatgen
data_ErAl7ZnCu4
_symmetry_space_group_name_H-M   'P 1'
_cell_length_a   6.69635103
_cell_length_b   6.69635125
_cell_length_c   6.69635132
_cell_angle_alpha   98.68724603
_cell_angle_beta   98.36299826
_cell_angle_gamma   134.70970441
_symmetry_Int_Tables_number   1
_chemical_formula_structural   ErAl7ZnCu4
_chemical_formula_sum   'Er1 Al7 Zn1 Cu4'
_cell_volume   196.94484364
_cell_formula_units_Z   1
loop_
 _symmetry_equiv_pos_site_id
 _symmetry_equiv_pos_as_xyz
  1  'x, y, z'
loop_
 _atom_site_type_symbol
 _atom_site_label
 _atom_site_symmetry_multiplicity
 _atom_site_fract_x
 _atom_site_fract_y
 _atom_site_fract_z
 _atom_site_occupancy
  Er  Er0  1  0.000000  0.001651  0.001651  1
  Al  Al1  1  0.000000  0.650686  0.650686  1
  Al  Al2  1  0.652111  0.000694  0.652805  1
  Al  Al3  1  0.347889  0.000694  0.348584  1
  Al  Al4  1  0.500000  0.281881  0.781881  1
  Al  Al5  1  0.500000  0.719747  0.219747  1
  Al  Al6  1  0.721759  0.499307  0.221067  1
  Al  Al7  1  0.278241  0.499307  0.777548  1
  Zn  Zn8  1  0.000000  0.348725  0.348725  1
  Cu  Cu9  1  0.999252  0.996772  0.501134  1
  Cu  Cu10  1  0.504362  0.501882  0.501134  1
  Cu  Cu11  1  0.495638  0.996772  0.997519  1
  Cu  Cu12  1  0.000748  0.501882  0.997519  1
