# generated using pymatgen
data_Y3Er7In8(PdAu)2
_symmetry_space_group_name_H-M   'P 1'
_cell_length_a   3.64933700
_cell_length_b   8.13954272
_cell_length_c   18.26511426
_cell_angle_alpha   89.75192768
_cell_angle_beta   90.00000000
_cell_angle_gamma   90.00000000
_symmetry_Int_Tables_number   1
_chemical_formula_structural   Y3Er7In8(PdAu)2
_chemical_formula_sum   'Y3 Er7 In8 Pd2 Au2'
_cell_volume   542.54067060
_cell_formula_units_Z   1
loop_
 _symmetry_equiv_pos_site_id
 _symmetry_equiv_pos_as_xyz
  1  'x, y, z'
loop_
 _atom_site_type_symbol
 _atom_site_label
 _atom_site_symmetry_multiplicity
 _atom_site_fract_x
 _atom_site_fract_y
 _atom_site_fract_z
 _atom_site_occupancy
  Y  Y0  1  0.000000  0.500875  0.499730  1
  Y  Y1  1  0.000000  0.999482  0.999872  1
  Y  Y2  1  0.000000  0.745914  0.284678  1
  Er  Er3  1  0.000000  0.252439  0.716426  1
  Er  Er4  1  0.000000  0.765529  0.779880  1
  Er  Er5  1  0.000000  0.233386  0.219678  1
  Er  Er6  1  0.000000  0.619531  0.080552  1
  Er  Er7  1  0.000000  0.379532  0.918859  1
  Er  Er8  1  0.000000  0.885177  0.583369  1
  Er  Er9  1  0.000000  0.117097  0.417261  1
  In  In10  1  0.500000  0.707788  0.932741  1
  In  In11  1  0.500000  0.290945  0.066818  1
  In  In12  1  0.500000  0.795747  0.434455  1
  In  In13  1  0.500000  0.207270  0.566716  1
  In  In14  1  0.500000  0.583133  0.647739  1
  In  In15  1  0.500000  0.415491  0.351725  1
  In  In16  1  0.500000  0.921150  0.149434  1
  In  In17  1  0.500000  0.078320  0.850574  1
  Pd  Pd18  1  0.500000  0.972999  0.696145  1
  Pd  Pd19  1  0.500000  0.031137  0.304519  1
  Au  Au20  1  0.500000  0.526260  0.196587  1
  Au  Au21  1  0.500000  0.470799  0.802241  1
