# generated using pymatgen
data_Dy20Cd6OsRu
_symmetry_space_group_name_H-M   'P 1'
_cell_length_a   9.58470600
_cell_length_b   9.58470610
_cell_length_c   9.88495800
_cell_angle_alpha   90.00000000
_cell_angle_beta   90.00000000
_cell_angle_gamma   119.99999965
_symmetry_Int_Tables_number   1
_chemical_formula_structural   Dy20Cd6OsRu
_chemical_formula_sum   'Dy20 Cd6 Os1 Ru1'
_cell_volume   786.43540680
_cell_formula_units_Z   1
loop_
 _symmetry_equiv_pos_site_id
 _symmetry_equiv_pos_as_xyz
  1  'x, y, z'
loop_
 _atom_site_type_symbol
 _atom_site_label
 _atom_site_symmetry_multiplicity
 _atom_site_fract_x
 _atom_site_fract_y
 _atom_site_fract_z
 _atom_site_occupancy
  Dy  Dy0  1  0.000000  0.000000  0.499840  1
  Dy  Dy1  1  0.000000  0.000000  0.000160  1
  Dy  Dy2  1  0.209904  0.790096  0.440555  1
  Dy  Dy3  1  0.209904  0.419808  0.440555  1
  Dy  Dy4  1  0.580192  0.790096  0.440555  1
  Dy  Dy5  1  0.789960  0.210040  0.559908  1
  Dy  Dy6  1  0.789960  0.579920  0.559908  1
  Dy  Dy7  1  0.420080  0.210040  0.559908  1
  Dy  Dy8  1  0.789960  0.210040  0.940092  1
  Dy  Dy9  1  0.789960  0.579920  0.940092  1
  Dy  Dy10  1  0.420080  0.210040  0.940092  1
  Dy  Dy11  1  0.209904  0.790096  0.059445  1
  Dy  Dy12  1  0.209904  0.419808  0.059445  1
  Dy  Dy13  1  0.580192  0.790096  0.059445  1
  Dy  Dy14  1  0.540386  0.459614  0.250000  1
  Dy  Dy15  1  0.540386  0.080771  0.250000  1
  Dy  Dy16  1  0.919229  0.459614  0.250000  1
  Dy  Dy17  1  0.458753  0.541247  0.750000  1
  Dy  Dy18  1  0.458753  0.917506  0.750000  1
  Dy  Dy19  1  0.082494  0.541247  0.750000  1
  Cd  Cd20  1  0.885442  0.114558  0.250000  1
  Cd  Cd21  1  0.885442  0.770885  0.250000  1
  Cd  Cd22  1  0.229115  0.114558  0.250000  1
  Cd  Cd23  1  0.114561  0.885439  0.750000  1
  Cd  Cd24  1  0.114561  0.229120  0.750000  1
  Cd  Cd25  1  0.770880  0.885439  0.750000  1
  Os  Os26  1  0.333333  0.666667  0.250000  1
  Ru  Ru27  1  0.666667  0.333333  0.750000  1
