# generated using pymatgen
data_Pr2DyHo3Ta2O14
_symmetry_space_group_name_H-M   'P 1'
_cell_length_a   6.51051683
_cell_length_b   6.50809559
_cell_length_c   7.60657501
_cell_angle_alpha   90.00103051
_cell_angle_beta   90.00594967
_cell_angle_gamma   109.12390610
_symmetry_Int_Tables_number   1
_chemical_formula_structural   Pr2DyHo3Ta2O14
_chemical_formula_sum   'Pr2 Dy1 Ho3 Ta2 O14'
_cell_volume   304.51176575
_cell_formula_units_Z   1
loop_
 _symmetry_equiv_pos_site_id
 _symmetry_equiv_pos_as_xyz
  1  'x, y, z'
loop_
 _atom_site_type_symbol
 _atom_site_label
 _atom_site_symmetry_multiplicity
 _atom_site_fract_x
 _atom_site_fract_y
 _atom_site_fract_z
 _atom_site_occupancy
  Pr  Pr0  1  0.512807  0.513184  0.500165  1
  Pr  Pr1  1  0.486397  0.486232  0.999810  1
  Dy  Dy2  1  0.000731  0.533827  0.245507  1
  Ho  Ho3  1  0.998990  0.466583  0.745502  1
  Ho  Ho4  1  0.533115  0.000933  0.754423  1
  Ho  Ho5  1  0.467089  0.998991  0.254453  1
  Ta  Ta6  1  0.001467  0.001379  0.500245  1
  Ta  Ta7  1  0.998534  0.998607  0.999734  1
  O  O8  1  0.935015  0.064585  0.749988  1
  O  O9  1  0.064695  0.935675  0.249985  1
  O  O10  1  0.356374  0.645103  0.249941  1
  O  O11  1  0.644942  0.354841  0.750022  1
  O  O12  1  0.361774  0.638301  0.750013  1
  O  O13  1  0.636635  0.361075  0.250131  1
  O  O14  1  0.323238  0.071976  0.971885  1
  O  O15  1  0.676900  0.927893  0.471855  1
  O  O16  1  0.314901  0.060923  0.538543  1
  O  O17  1  0.685309  0.939074  0.038575  1
  O  O18  1  0.062090  0.315192  0.462533  1
  O  O19  1  0.938536  0.685282  0.960874  1
  O  O20  1  0.927474  0.677001  0.528716  1
  O  O21  1  0.072987  0.323344  0.027100  1
