# generated using pymatgen
data_Cs6HoInBr12
_symmetry_space_group_name_H-M   'P 1'
_cell_length_a   10.00360700
_cell_length_b   9.98240024
_cell_length_c   8.29897700
_cell_angle_alpha   90.00000000
_cell_angle_beta   90.00000000
_cell_angle_gamma   90.25419403
_symmetry_Int_Tables_number   1
_chemical_formula_structural   Cs6HoInBr12
_chemical_formula_sum   'Cs6 Ho1 In1 Br12'
_cell_volume   828.72776137
_cell_formula_units_Z   1
loop_
 _symmetry_equiv_pos_site_id
 _symmetry_equiv_pos_as_xyz
  1  'x, y, z'
loop_
 _atom_site_type_symbol
 _atom_site_label
 _atom_site_symmetry_multiplicity
 _atom_site_fract_x
 _atom_site_fract_y
 _atom_site_fract_z
 _atom_site_occupancy
  Cs  Cs0  1  0.000000  0.000000  0.500000  1
  Cs  Cs1  1  0.000000  0.000000  0.000000  1
  Cs  Cs2  1  0.236579  0.584858  0.500000  1
  Cs  Cs3  1  0.763421  0.415142  0.500000  1
  Cs  Cs4  1  0.417062  0.233574  0.000000  1
  Cs  Cs5  1  0.582938  0.766426  0.000000  1
  Ho  Ho6  1  0.000000  0.500000  0.000000  1
  In  In7  1  0.500000  0.000000  0.500000  1
  Br  Br8  1  0.686662  0.057502  0.734716  1
  Br  Br9  1  0.313338  0.942498  0.734716  1
  Br  Br10  1  0.942864  0.691754  0.240025  1
  Br  Br11  1  0.057136  0.308246  0.240025  1
  Br  Br12  1  0.313338  0.942498  0.265284  1
  Br  Br13  1  0.686662  0.057502  0.265284  1
  Br  Br14  1  0.057136  0.308246  0.759975  1
  Br  Br15  1  0.942864  0.691754  0.759975  1
  Br  Br16  1  0.570110  0.737584  0.500000  1
  Br  Br17  1  0.429890  0.262416  0.500000  1
  Br  Br18  1  0.270029  0.571841  0.000000  1
  Br  Br19  1  0.729971  0.428159  0.000000  1
