# generated using pymatgen
data_Sm7AsSe7
_symmetry_space_group_name_H-M   'P 1'
_cell_length_a   8.29806300
_cell_length_b   8.29806306
_cell_length_c   8.29806300
_cell_angle_alpha   120.00000374
_cell_angle_beta   90.00000000
_cell_angle_gamma   120.00000374
_symmetry_Int_Tables_number   1
_chemical_formula_structural   Sm7AsSe7
_chemical_formula_sum   'Sm7 As1 Se7'
_cell_volume   404.03141976
_cell_formula_units_Z   1
loop_
 _symmetry_equiv_pos_site_id
 _symmetry_equiv_pos_as_xyz
  1  'x, y, z'
loop_
 _atom_site_type_symbol
 _atom_site_label
 _atom_site_symmetry_multiplicity
 _atom_site_fract_x
 _atom_site_fract_y
 _atom_site_fract_z
 _atom_site_occupancy
  Sm  Sm0  1  0.246444  0.000000  0.246444  1
  Sm  Sm1  1  0.246444  0.492888  0.246444  1
  Sm  Sm2  1  0.753556  0.000000  0.246445  1
  Sm  Sm3  1  0.250001  0.500001  0.750002  1
  Sm  Sm4  1  0.246445  0.000000  0.753556  1
  Sm  Sm5  1  0.753556  0.000000  0.753556  1
  Sm  Sm6  1  0.753556  0.507111  0.753556  1
  As  As7  1  0.000000  0.000000  0.000000  1
  Se  Se8  1  0.500000  0.000000  0.500000  1
  Se  Se9  1  0.997961  0.995924  0.497963  1
  Se  Se10  1  0.997961  0.500001  0.497963  1
  Se  Se11  1  0.502040  0.500001  0.497963  1
  Se  Se12  1  0.997963  0.500001  0.002039  1
  Se  Se13  1  0.502038  0.500001  0.002039  1
  Se  Se14  1  0.502038  0.004075  0.002039  1
