# generated using pymatgen
data_CePr7Zn8Pt7Rh
_symmetry_space_group_name_H-M   'P 1'
_cell_length_a   4.06090700
_cell_length_b   7.43672086
_cell_length_c   16.89491576
_cell_angle_alpha   89.56335012
_cell_angle_beta   90.00000000
_cell_angle_gamma   90.00000000
_symmetry_Int_Tables_number   1
_chemical_formula_structural   CePr7Zn8Pt7Rh
_chemical_formula_sum   'Ce1 Pr7 Zn8 Pt7 Rh1'
_cell_volume   510.20879777
_cell_formula_units_Z   1
loop_
 _symmetry_equiv_pos_site_id
 _symmetry_equiv_pos_as_xyz
  1  'x, y, z'
loop_
 _atom_site_type_symbol
 _atom_site_label
 _atom_site_symmetry_multiplicity
 _atom_site_fract_x
 _atom_site_fract_y
 _atom_site_fract_z
 _atom_site_occupancy
  Ce  Ce0  1  0.750000  0.457916  0.216146  1
  Pr  Pr1  1  0.750000  0.947604  0.282122  1
  Pr  Pr2  1  0.750000  0.828569  0.063116  1
  Pr  Pr3  1  0.250000  0.050276  0.715942  1
  Pr  Pr4  1  0.250000  0.166544  0.941570  1
  Pr  Pr5  1  0.250000  0.549202  0.784724  1
  Pr  Pr6  1  0.750000  0.334052  0.437683  1
  Pr  Pr7  1  0.250000  0.667207  0.559218  1
  Zn  Zn8  1  0.250000  0.003891  0.437099  1
  Zn  Zn9  1  0.750000  0.500098  0.939835  1
  Zn  Zn10  1  0.750000  0.001810  0.560510  1
  Zn  Zn11  1  0.250000  0.625105  0.348018  1
  Zn  Zn12  1  0.750000  0.377350  0.651451  1
  Zn  Zn13  1  0.750000  0.878756  0.849072  1
  Zn  Zn14  1  0.250000  0.498670  0.061185  1
  Zn  Zn15  1  0.250000  0.123087  0.152675  1
  Pt  Pt16  1  0.250000  0.245034  0.564159  1
  Pt  Pt17  1  0.750000  0.257583  0.068867  1
  Pt  Pt18  1  0.250000  0.256404  0.308124  1
  Pt  Pt19  1  0.750000  0.252249  0.815772  1
  Pt  Pt20  1  0.250000  0.743290  0.935436  1
  Pt  Pt21  1  0.750000  0.754122  0.685458  1
  Pt  Pt22  1  0.750000  0.761769  0.434865  1
  Rh  Rh23  1  0.250000  0.719412  0.186952  1
