# generated using pymatgen
data_Dy7ErTa11TiSi16
_symmetry_space_group_name_H-M   'P 1'
_cell_length_a   7.04151008
_cell_length_b   7.03788421
_cell_length_c   12.97719523
_cell_angle_alpha   89.97715157
_cell_angle_beta   90.00812984
_cell_angle_gamma   89.99447871
_symmetry_Int_Tables_number   1
_chemical_formula_structural   Dy7ErTa11TiSi16
_chemical_formula_sum   'Dy7 Er1 Ta11 Ti1 Si16'
_cell_volume   643.11511994
_cell_formula_units_Z   1
loop_
 _symmetry_equiv_pos_site_id
 _symmetry_equiv_pos_as_xyz
  1  'x, y, z'
loop_
 _atom_site_type_symbol
 _atom_site_label
 _atom_site_symmetry_multiplicity
 _atom_site_fract_x
 _atom_site_fract_y
 _atom_site_fract_z
 _atom_site_occupancy
  Dy  Dy0  1  0.342374  0.001813  0.467892  1
  Dy  Dy1  1  0.498373  0.842050  0.717797  1
  Dy  Dy2  1  0.501885  0.158405  0.218019  1
  Dy  Dy3  1  0.841569  0.498034  0.281978  1
  Dy  Dy4  1  0.157866  0.501637  0.782432  1
  Dy  Dy5  1  0.658522  0.997557  0.968018  1
  Dy  Dy6  1  0.002465  0.341434  0.532006  1
  Er  Er7  1  0.998193  0.658869  0.031674  1
  Ta  Ta8  1  0.328556  0.329225  0.999792  1
  Ta  Ta9  1  0.171326  0.828204  0.249892  1
  Ta  Ta10  1  0.827255  0.172640  0.750088  1
  Ta  Ta11  1  0.670780  0.671138  0.499778  1
  Ta  Ta12  1  0.151721  0.007176  0.873820  1
  Ta  Ta13  1  0.492536  0.652476  0.123777  1
  Ta  Ta14  1  0.507644  0.347241  0.623620  1
  Ta  Ta15  1  0.652984  0.491562  0.876715  1
  Ta  Ta16  1  0.347953  0.507706  0.376264  1
  Ta  Ta17  1  0.846435  0.991429  0.373752  1
  Ta  Ta18  1  0.008375  0.152621  0.126007  1
  Ti  Ti19  1  0.992416  0.846382  0.626648  1
  Si  Si20  1  0.202609  0.131936  0.681766  1
  Si  Si21  1  0.365519  0.704506  0.931483  1
  Si  Si22  1  0.634314  0.295719  0.432099  1
  Si  Si23  1  0.704490  0.366300  0.068518  1
  Si  Si24  1  0.295078  0.635183  0.568383  1
  Si  Si25  1  0.796766  0.865379  0.181108  1
  Si  Si26  1  0.134028  0.203835  0.318728  1
  Si  Si27  1  0.865688  0.796776  0.817721  1
  Si  Si28  1  0.293883  0.953870  0.063562  1
  Si  Si29  1  0.545312  0.794127  0.313711  1
  Si  Si30  1  0.453826  0.206054  0.813447  1
  Si  Si31  1  0.795180  0.547026  0.685423  1
  Si  Si32  1  0.205579  0.454973  0.186090  1
  Si  Si33  1  0.708798  0.044807  0.564382  1
  Si  Si34  1  0.954210  0.294914  0.936272  1
  Si  Si35  1  0.045490  0.707002  0.437339  1
