# generated using pymatgen
data_AgP2PdO7
_symmetry_space_group_name_H-M   'P 1'
_cell_length_a   5.25369107
_cell_length_b   7.47383056
_cell_length_c   8.63493691
_cell_angle_alpha   98.40992829
_cell_angle_beta   89.98440828
_cell_angle_gamma   110.59137920
_symmetry_Int_Tables_number   1
_chemical_formula_structural   AgP2PdO7
_chemical_formula_sum   'Ag2 P4 Pd2 O14'
_cell_volume   313.49874652
_cell_formula_units_Z   2
loop_
 _symmetry_equiv_pos_site_id
 _symmetry_equiv_pos_as_xyz
  1  'x, y, z'
loop_
 _atom_site_type_symbol
 _atom_site_label
 _atom_site_symmetry_multiplicity
 _atom_site_fract_x
 _atom_site_fract_y
 _atom_site_fract_z
 _atom_site_occupancy
  Ag  Ag0  1  0.500000  0.500001  0.000000  1
  Ag  Ag1  1  0.000000  0.500000  0.500000  1
  P  P2  1  0.256864  0.791831  0.231144  1
  P  P3  1  0.465092  0.208066  0.268804  1
  P  P4  1  0.534909  0.791935  0.731197  1
  P  P5  1  0.743135  0.208170  0.768856  1
  Pd  Pd6  1  0.000000  0.000000  0.000000  1
  Pd  Pd7  1  0.000000  0.000000  0.500000  1
  O  O8  1  0.060971  0.785488  0.096251  1
  O  O9  1  0.339214  0.212736  0.105619  1
  O  O10  1  0.378195  0.635143  0.208077  1
  O  O11  1  0.505398  0.999956  0.250012  1
  O  O12  1  0.743199  0.364672  0.291933  1
  O  O13  1  0.126213  0.787166  0.394344  1
  O  O14  1  0.275263  0.214434  0.403601  1
  O  O15  1  0.724735  0.785565  0.596400  1
  O  O16  1  0.873789  0.212835  0.605656  1
  O  O17  1  0.256802  0.635329  0.708067  1
  O  O18  1  0.494602  0.000044  0.749988  1
  O  O19  1  0.621806  0.364856  0.791924  1
  O  O20  1  0.660785  0.787264  0.894381  1
  O  O21  1  0.939030  0.214512  0.903749  1
