# generated using pymatgen
data_CaZr3(Ga3Rh)6
_symmetry_space_group_name_H-M   'P 1'
_cell_length_a   7.49927483
_cell_length_b   7.49534791
_cell_length_c   9.41326200
_cell_angle_alpha   90.00000000
_cell_angle_beta   90.00000000
_cell_angle_gamma   119.94442527
_symmetry_Int_Tables_number   1
_chemical_formula_structural   CaZr3(Ga3Rh)6
_chemical_formula_sum   'Ca1 Zr3 Ga18 Rh6'
_cell_volume   458.48462879
_cell_formula_units_Z   1
loop_
 _symmetry_equiv_pos_site_id
 _symmetry_equiv_pos_as_xyz
  1  'x, y, z'
loop_
 _atom_site_type_symbol
 _atom_site_label
 _atom_site_symmetry_multiplicity
 _atom_site_fract_x
 _atom_site_fract_y
 _atom_site_fract_z
 _atom_site_occupancy
  Ca  Ca0  1  0.330639  0.003554  0.750000  1
  Zr  Zr1  1  0.996857  0.670945  0.250000  1
  Zr  Zr2  1  0.005776  0.331918  0.750000  1
  Zr  Zr3  1  0.667551  0.995215  0.250000  1
  Ga  Ga4  1  0.121982  0.123904  0.250000  1
  Ga  Ga5  1  0.873074  0.875547  0.750000  1
  Ga  Ga6  1  0.995918  0.333768  0.081580  1
  Ga  Ga7  1  0.001204  0.663368  0.922449  1
  Ga  Ga8  1  0.001204  0.663368  0.577551  1
  Ga  Ga9  1  0.334346  0.997110  0.415676  1
  Ga  Ga10  1  0.995918  0.333768  0.418420  1
  Ga  Ga11  1  0.668520  0.003218  0.577962  1
  Ga  Ga12  1  0.668520  0.003218  0.922038  1
  Ga  Ga13  1  0.334346  0.997110  0.084324  1
  Ga  Ga14  1  0.330885  0.332732  0.568924  1
  Ga  Ga15  1  0.669680  0.669364  0.427098  1
  Ga  Ga16  1  0.669680  0.669364  0.072902  1
  Ga  Ga17  1  0.330885  0.332732  0.931076  1
  Ga  Ga18  1  0.335877  0.549542  0.250000  1
  Ga  Ga19  1  0.666465  0.453502  0.750000  1
  Ga  Ga20  1  0.552373  0.337418  0.250000  1
  Ga  Ga21  1  0.448528  0.659855  0.750000  1
  Rh  Rh22  1  0.672420  0.329144  0.001942  1
  Rh  Rh23  1  0.328933  0.671532  0.002656  1
  Rh  Rh24  1  0.328933  0.671532  0.497344  1
  Rh  Rh25  1  0.672420  0.329144  0.498058  1
  Rh  Rh26  1  0.998532  0.999064  0.002078  1
  Rh  Rh27  1  0.998532  0.999064  0.497922  1
