# generated using pymatgen
data_Ce4Mg(CdAu5)2
_symmetry_space_group_name_H-M   'P 1'
_cell_length_a   8.59062000
_cell_length_b   8.59061992
_cell_length_c   10.23374400
_cell_angle_alpha   90.00000000
_cell_angle_beta   90.00000000
_cell_angle_gamma   108.32671162
_symmetry_Int_Tables_number   1
_chemical_formula_structural   Ce4Mg(CdAu5)2
_chemical_formula_sum   'Ce8 Mg2 Cd4 Au20'
_cell_volume   716.93111797
_cell_formula_units_Z   2
loop_
 _symmetry_equiv_pos_site_id
 _symmetry_equiv_pos_as_xyz
  1  'x, y, z'
loop_
 _atom_site_type_symbol
 _atom_site_label
 _atom_site_symmetry_multiplicity
 _atom_site_fract_x
 _atom_site_fract_y
 _atom_site_fract_z
 _atom_site_occupancy
  Ce  Ce0  1  0.695917  0.304083  0.000000  1
  Ce  Ce1  1  0.304083  0.695917  0.000000  1
  Ce  Ce2  1  0.804083  0.195917  0.500000  1
  Ce  Ce3  1  0.195917  0.804083  0.500000  1
  Ce  Ce4  1  0.297926  0.297926  0.204596  1
  Ce  Ce5  1  0.702074  0.702074  0.795404  1
  Ce  Ce6  1  0.202074  0.202074  0.704596  1
  Ce  Ce7  1  0.797926  0.797926  0.295404  1
  Mg  Mg8  1  0.000000  0.000000  0.000000  1
  Mg  Mg9  1  0.500000  0.500000  0.500000  1
  Cd  Cd10  1  0.018514  0.518514  0.250000  1
  Cd  Cd11  1  0.981486  0.481486  0.750000  1
  Cd  Cd12  1  0.481486  0.981486  0.750000  1
  Cd  Cd13  1  0.518514  0.018514  0.250000  1
  Au  Au14  1  0.097363  0.097363  0.402534  1
  Au  Au15  1  0.902637  0.902637  0.597466  1
  Au  Au16  1  0.402637  0.402637  0.902534  1
  Au  Au17  1  0.597363  0.597363  0.097466  1
  Au  Au18  1  0.884002  0.159602  0.205224  1
  Au  Au19  1  0.115998  0.840398  0.794776  1
  Au  Au20  1  0.615998  0.340398  0.705224  1
  Au  Au21  1  0.659602  0.384002  0.294776  1
  Au  Au22  1  0.384002  0.659602  0.294776  1
  Au  Au23  1  0.340398  0.615998  0.705224  1
  Au  Au24  1  0.840398  0.115998  0.794776  1
  Au  Au25  1  0.159602  0.884002  0.205224  1
  Au  Au26  1  0.932575  0.655761  0.014513  1
  Au  Au27  1  0.067425  0.344239  0.985487  1
  Au  Au28  1  0.567425  0.844239  0.514513  1
  Au  Au29  1  0.155761  0.432575  0.485487  1
  Au  Au30  1  0.432575  0.155761  0.485487  1
  Au  Au31  1  0.844239  0.567425  0.514513  1
  Au  Au32  1  0.344239  0.067425  0.985487  1
  Au  Au33  1  0.655761  0.932575  0.014513  1
