# generated using pymatgen
data_TmLu(TaN2)2
_symmetry_space_group_name_H-M   'P 1'
_cell_length_a   3.15561600
_cell_length_b   3.15561496
_cell_length_c   10.92871200
_cell_angle_alpha   90.00000000
_cell_angle_beta   90.00000000
_cell_angle_gamma   119.99998991
_symmetry_Int_Tables_number   1
_chemical_formula_structural   TmLu(TaN2)2
_chemical_formula_sum   'Tm1 Lu1 Ta2 N4'
_cell_volume   94.24706038
_cell_formula_units_Z   1
loop_
 _symmetry_equiv_pos_site_id
 _symmetry_equiv_pos_as_xyz
  1  'x, y, z'
loop_
 _atom_site_type_symbol
 _atom_site_label
 _atom_site_symmetry_multiplicity
 _atom_site_fract_x
 _atom_site_fract_y
 _atom_site_fract_z
 _atom_site_occupancy
  Tm  Tm0  1  0.000000  0.000000  0.000000  1
  Lu  Lu1  1  0.000000  0.000000  0.500000  1
  Ta  Ta2  1  0.333333  0.666667  0.250917  1
  Ta  Ta3  1  0.666667  0.333333  0.749083  1
  N  N4  1  0.333333  0.666667  0.628247  1
  N  N5  1  0.666667  0.333333  0.371753  1
  N  N6  1  0.666667  0.333333  0.131297  1
  N  N7  1  0.333333  0.666667  0.868703  1
