# generated using pymatgen
data_CaHo4(In2Ir)2
_symmetry_space_group_name_H-M   'P 1'
_cell_length_a   3.67783500
_cell_length_b   8.00696000
_cell_length_c   18.25284200
_cell_angle_alpha   90.00000000
_cell_angle_beta   90.00000000
_cell_angle_gamma   90.00000000
_symmetry_Int_Tables_number   1
_chemical_formula_structural   CaHo4(In2Ir)2
_chemical_formula_sum   'Ca2 Ho8 In8 Ir4'
_cell_volume   537.51476061
_cell_formula_units_Z   2
loop_
 _symmetry_equiv_pos_site_id
 _symmetry_equiv_pos_as_xyz
  1  'x, y, z'
loop_
 _atom_site_type_symbol
 _atom_site_label
 _atom_site_symmetry_multiplicity
 _atom_site_fract_x
 _atom_site_fract_y
 _atom_site_fract_z
 _atom_site_occupancy
  Ca  Ca0  1  0.000000  0.000000  0.000000  1
  Ca  Ca1  1  0.000000  0.500000  0.500000  1
  Ho  Ho2  1  0.000000  0.116439  0.410945  1
  Ho  Ho3  1  0.000000  0.883561  0.589055  1
  Ho  Ho4  1  0.000000  0.383561  0.910945  1
  Ho  Ho5  1  0.000000  0.616439  0.089055  1
  Ho  Ho6  1  0.000000  0.244602  0.221136  1
  Ho  Ho7  1  0.000000  0.755398  0.778864  1
  Ho  Ho8  1  0.000000  0.255398  0.721136  1
  Ho  Ho9  1  0.000000  0.744602  0.278864  1
  In  In10  1  0.500000  0.426467  0.348761  1
  In  In11  1  0.500000  0.573533  0.651239  1
  In  In12  1  0.500000  0.073533  0.848761  1
  In  In13  1  0.500000  0.926467  0.151239  1
  In  In14  1  0.500000  0.296207  0.067585  1
  In  In15  1  0.500000  0.703793  0.932415  1
  In  In16  1  0.500000  0.203793  0.567585  1
  In  In17  1  0.500000  0.796207  0.432415  1
  Ir  Ir18  1  0.500000  0.021250  0.304918  1
  Ir  Ir19  1  0.500000  0.978750  0.695082  1
  Ir  Ir20  1  0.500000  0.478750  0.804918  1
  Ir  Ir21  1  0.500000  0.521250  0.195082  1
