# generated using pymatgen
data_ZrTa4(NbBr9)2
_symmetry_space_group_name_H-M   'P 1'
_cell_length_a   10.69940183
_cell_length_b   10.70107673
_cell_length_c   10.69949400
_cell_angle_alpha   56.06025541
_cell_angle_beta   56.08779910
_cell_angle_gamma   56.05598133
_symmetry_Int_Tables_number   1
_chemical_formula_structural   ZrTa4(NbBr9)2
_chemical_formula_sum   'Zr1 Ta4 Nb2 Br18'
_cell_volume   787.35061147
_cell_formula_units_Z   1
loop_
 _symmetry_equiv_pos_site_id
 _symmetry_equiv_pos_as_xyz
  1  'x, y, z'
loop_
 _atom_site_type_symbol
 _atom_site_label
 _atom_site_symmetry_multiplicity
 _atom_site_fract_x
 _atom_site_fract_y
 _atom_site_fract_z
 _atom_site_occupancy
  Zr  Zr0  1  0.999933  0.999905  0.000165  1
  Ta  Ta1  1  0.413804  0.314948  0.639370  1
  Ta  Ta2  1  0.360610  0.586468  0.684880  1
  Ta  Ta3  1  0.685691  0.360144  0.586413  1
  Ta  Ta4  1  0.314622  0.640004  0.413087  1
  Nb  Nb5  1  0.640971  0.412976  0.312910  1
  Nb  Nb6  1  0.587224  0.686984  0.358941  1
  Br  Br7  1  0.565948  0.159691  0.445153  1
  Br  Br8  1  0.222386  0.372694  0.907938  1
  Br  Br9  1  0.909039  0.221481  0.374486  1
  Br  Br10  1  0.370027  0.908604  0.222522  1
  Br  Br11  1  0.778465  0.628358  0.089943  1
  Br  Br12  1  0.092114  0.777423  0.627235  1
  Br  Br13  1  0.716786  0.964488  0.151106  1
  Br  Br14  1  0.962665  0.151121  0.716084  1
  Br  Br15  1  0.151963  0.715906  0.962314  1
  Br  Br16  1  0.283628  0.037883  0.848414  1
  Br  Br17  1  0.036837  0.847620  0.284694  1
  Br  Br18  1  0.849818  0.283022  0.035596  1
  Br  Br19  1  0.557332  0.432479  0.838724  1
  Br  Br20  1  0.161285  0.443021  0.567204  1
  Br  Br21  1  0.440286  0.569173  0.161288  1
  Br  Br22  1  0.431023  0.838756  0.559549  1
  Br  Br23  1  0.840164  0.554760  0.434209  1
  Br  Br24  1  0.627381  0.092091  0.777773  1
