# generated using pymatgen
data_AcHo3(AsPt)4
_symmetry_space_group_name_H-M   'P 1'
_cell_length_a   4.29305400
_cell_length_b   4.29305415
_cell_length_c   15.55356300
_cell_angle_alpha   90.00000000
_cell_angle_beta   90.00000000
_cell_angle_gamma   119.99999882
_symmetry_Int_Tables_number   1
_chemical_formula_structural   AcHo3(AsPt)4
_chemical_formula_sum   'Ac1 Ho3 As4 Pt4'
_cell_volume   248.25228093
_cell_formula_units_Z   1
loop_
 _symmetry_equiv_pos_site_id
 _symmetry_equiv_pos_as_xyz
  1  'x, y, z'
loop_
 _atom_site_type_symbol
 _atom_site_label
 _atom_site_symmetry_multiplicity
 _atom_site_fract_x
 _atom_site_fract_y
 _atom_site_fract_z
 _atom_site_occupancy
  Ac  Ac0  1  0.000000  0.000000  0.500000  1
  Ho  Ho1  1  0.000000  0.000000  0.000000  1
  Ho  Ho2  1  0.000000  0.000000  0.242620  1
  Ho  Ho3  1  0.000000  0.000000  0.757380  1
  As  As4  1  0.333333  0.666667  0.889507  1
  As  As5  1  0.666667  0.333333  0.110493  1
  As  As6  1  0.666667  0.333333  0.369675  1
  As  As7  1  0.333333  0.666667  0.630325  1
  Pt  Pt8  1  0.333333  0.666667  0.348107  1
  Pt  Pt9  1  0.666667  0.333333  0.651893  1
  Pt  Pt10  1  0.666667  0.333333  0.867554  1
  Pt  Pt11  1  0.333333  0.666667  0.132446  1
