# generated using pymatgen
data_Cu3OsS8
_symmetry_space_group_name_H-M   'P 1'
_cell_length_a   5.77348881
_cell_length_b   5.77348881
_cell_length_c   5.77348881
_cell_angle_alpha   90.61574330
_cell_angle_beta   90.61574330
_cell_angle_gamma   89.38425670
_symmetry_Int_Tables_number   1
_chemical_formula_structural   Cu3OsS8
_chemical_formula_sum   'Cu3 Os1 S8'
_cell_volume   192.41559968
_cell_formula_units_Z   1
loop_
 _symmetry_equiv_pos_site_id
 _symmetry_equiv_pos_as_xyz
  1  'x, y, z'
loop_
 _atom_site_type_symbol
 _atom_site_label
 _atom_site_symmetry_multiplicity
 _atom_site_fract_x
 _atom_site_fract_y
 _atom_site_fract_z
 _atom_site_occupancy
  Cu  Cu0  1  0.000000  0.000000  0.000000  1
  Cu  Cu1  1  0.000000  0.500000  0.500000  1
  Cu  Cu2  1  0.500000  0.500000  0.000000  1
  Os  Os3  1  0.500000  0.000000  0.500000  1
  S  S4  1  0.885913  0.102318  0.599676  1
  S  S5  1  0.114087  0.897682  0.400324  1
  S  S6  1  0.899571  0.399571  0.100429  1
  S  S7  1  0.602318  0.900324  0.114087  1
  S  S8  1  0.599676  0.614087  0.602318  1
  S  S9  1  0.400324  0.385913  0.397682  1
  S  S10  1  0.397682  0.099676  0.885913  1
  S  S11  1  0.100429  0.600429  0.899571  1
