# generated using pymatgen
data_Np4FeSi12
_symmetry_space_group_name_H-M   'P 1'
_cell_length_a   7.02581215
_cell_length_b   7.02581205
_cell_length_c   7.02581300
_cell_angle_alpha   109.47122625
_cell_angle_beta   109.47122597
_cell_angle_gamma   109.47121966
_symmetry_Int_Tables_number   1
_chemical_formula_structural   Np4FeSi12
_chemical_formula_sum   'Np4 Fe1 Si12'
_cell_volume   266.97322243
_cell_formula_units_Z   1
loop_
 _symmetry_equiv_pos_site_id
 _symmetry_equiv_pos_as_xyz
  1  'x, y, z'
loop_
 _atom_site_type_symbol
 _atom_site_label
 _atom_site_symmetry_multiplicity
 _atom_site_fract_x
 _atom_site_fract_y
 _atom_site_fract_z
 _atom_site_occupancy
  Np  Np0  1  0.500000  0.000000  0.000000  1
  Np  Np1  1  0.000000  0.500000  0.000000  1
  Np  Np2  1  0.000000  0.000000  0.500000  1
  Np  Np3  1  0.500000  0.500000  0.500000  1
  Fe  Fe4  1  0.000000  0.000000  0.000000  1
  Si  Si5  1  0.290016  0.290016  0.000000  1
  Si  Si6  1  0.709983  0.709983  0.000000  1
  Si  Si7  1  0.750000  0.500000  0.250000  1
  Si  Si8  1  0.500000  0.750000  0.250000  1
  Si  Si9  1  0.290016  0.000000  0.290016  1
  Si  Si10  1  0.000000  0.290016  0.290016  1
  Si  Si11  1  0.750000  0.250000  0.500000  1
  Si  Si12  1  0.250000  0.750000  0.500000  1
  Si  Si13  1  0.709983  0.000000  0.709983  1
  Si  Si14  1  0.000000  0.709983  0.709983  1
  Si  Si15  1  0.500000  0.250000  0.750000  1
  Si  Si16  1  0.250000  0.500000  0.750000  1
