# generated using pymatgen
data_Er7Lu3HgSb5
_symmetry_space_group_name_H-M   'P 1'
_cell_length_a   8.79285211
_cell_length_b   8.79001434
_cell_length_c   6.27492300
_cell_angle_alpha   90.01402734
_cell_angle_beta   89.99088387
_cell_angle_gamma   120.02569269
_symmetry_Int_Tables_number   1
_chemical_formula_structural   Er7Lu3HgSb5
_chemical_formula_sum   'Er7 Lu3 Hg1 Sb5'
_cell_volume   419.90000148
_cell_formula_units_Z   1
loop_
 _symmetry_equiv_pos_site_id
 _symmetry_equiv_pos_as_xyz
  1  'x, y, z'
loop_
 _atom_site_type_symbol
 _atom_site_label
 _atom_site_symmetry_multiplicity
 _atom_site_fract_x
 _atom_site_fract_y
 _atom_site_fract_z
 _atom_site_occupancy
  Er  Er0  1  0.007468  0.762228  0.749974  1
  Er  Er1  1  0.999472  0.243042  0.250202  1
  Er  Er2  1  0.755969  0.757472  0.249719  1
  Er  Er3  1  0.756622  0.999868  0.750070  1
  Er  Er4  1  0.245030  0.238134  0.749984  1
  Er  Er5  1  0.243498  0.999933  0.250709  1
  Er  Er6  1  0.334847  0.673343  0.000142  1
  Lu  Lu7  1  0.334832  0.673651  0.500332  1
  Lu  Lu8  1  0.660553  0.325330  0.999196  1
  Lu  Lu9  1  0.661130  0.326158  0.500495  1
  Hg  Hg10  1  0.395442  0.001406  0.748628  1
  Sb  Sb11  1  0.391508  0.395077  0.250655  1
  Sb  Sb12  1  0.994268  0.604114  0.250562  1
  Sb  Sb13  1  0.001185  0.393189  0.749039  1
  Sb  Sb14  1  0.609800  0.606422  0.749163  1
  Sb  Sb15  1  0.608375  0.000635  0.251131  1
