# generated using pymatgen
data_Pr19TmSi15Se
_symmetry_space_group_name_H-M   'P 1'
_cell_length_a   7.93715749
_cell_length_b   7.89772611
_cell_length_c   15.35665600
_cell_angle_alpha   89.76499725
_cell_angle_beta   89.22959953
_cell_angle_gamma   89.90263895
_symmetry_Int_Tables_number   1
_chemical_formula_structural   Pr19TmSi15Se
_chemical_formula_sum   'Pr19 Tm1 Si15 Se1'
_cell_volume   962.54318041
_cell_formula_units_Z   1
loop_
 _symmetry_equiv_pos_site_id
 _symmetry_equiv_pos_as_xyz
  1  'x, y, z'
loop_
 _atom_site_type_symbol
 _atom_site_label
 _atom_site_symmetry_multiplicity
 _atom_site_fract_x
 _atom_site_fract_y
 _atom_site_fract_z
 _atom_site_occupancy
  Pr  Pr0  1  0.188720  0.807840  0.249183  1
  Pr  Pr1  1  0.800926  0.190704  0.752061  1
  Pr  Pr2  1  0.687606  0.689388  0.497493  1
  Pr  Pr3  1  0.379803  0.006841  0.443408  1
  Pr  Pr4  1  0.490973  0.875792  0.698545  1
  Pr  Pr5  1  0.509413  0.121698  0.195529  1
  Pr  Pr6  1  0.876682  0.486480  0.300878  1
  Pr  Pr7  1  0.124274  0.510086  0.803996  1
  Pr  Pr8  1  0.630174  0.985981  0.950660  1
  Pr  Pr9  1  0.000343  0.380040  0.548658  1
  Pr  Pr10  1  0.990842  0.621991  0.053037  1
  Pr  Pr11  1  0.137152  0.987351  0.873848  1
  Pr  Pr12  1  0.518201  0.628701  0.125688  1
  Pr  Pr13  1  0.477309  0.371276  0.631259  1
  Pr  Pr14  1  0.632719  0.521914  0.876264  1
  Pr  Pr15  1  0.370845  0.478073  0.373160  1
  Pr  Pr16  1  0.871017  0.019725  0.376346  1
  Pr  Pr17  1  0.982346  0.128221  0.123908  1
  Pr  Pr18  1  0.015261  0.868862  0.621825  1
  Tm  Tm19  1  0.313720  0.310688  0.999885  1
  Si  Si20  1  0.329524  0.693449  0.952565  1
  Si  Si21  1  0.662942  0.304784  0.454731  1
  Si  Si22  1  0.697152  0.332957  0.048633  1
  Si  Si23  1  0.303499  0.667170  0.548722  1
  Si  Si24  1  0.804103  0.831690  0.202437  1
  Si  Si25  1  0.168266  0.194559  0.296103  1
  Si  Si26  1  0.839840  0.804414  0.797104  1
  Si  Si27  1  0.288262  0.926688  0.057476  1
  Si  Si28  1  0.577262  0.785820  0.308533  1
  Si  Si29  1  0.445353  0.213680  0.827159  1
  Si  Si30  1  0.788264  0.578867  0.689283  1
  Si  Si31  1  0.213873  0.419595  0.186746  1
  Si  Si32  1  0.703259  0.075943  0.561133  1
  Si  Si33  1  0.931449  0.290925  0.941418  1
  Si  Si34  1  0.077370  0.711060  0.440353  1
  Se  Se35  1  0.171255  0.176748  0.691970  1
