# generated using pymatgen
data_Dy2ZnP6(Ir2Rh)4
_symmetry_space_group_name_H-M   'P 1'
_cell_length_a   9.65286362
_cell_length_b   9.64655482
_cell_length_c   3.95340476
_cell_angle_alpha   90.13544806
_cell_angle_beta   89.92718151
_cell_angle_gamma   119.97957439
_symmetry_Int_Tables_number   1
_chemical_formula_structural   Dy2ZnP6(Ir2Rh)4
_chemical_formula_sum   'Dy2 Zn1 P6 Ir8 Rh4'
_cell_volume   318.87351860
_cell_formula_units_Z   1
loop_
 _symmetry_equiv_pos_site_id
 _symmetry_equiv_pos_as_xyz
  1  'x, y, z'
loop_
 _atom_site_type_symbol
 _atom_site_label
 _atom_site_symmetry_multiplicity
 _atom_site_fract_x
 _atom_site_fract_y
 _atom_site_fract_z
 _atom_site_occupancy
  Dy  Dy0  1  0.333557  0.666608  0.746898  1
  Dy  Dy1  1  0.667117  0.334356  0.246113  1
  Zn  Zn2  1  0.999865  0.998512  0.576783  1
  P  P3  1  0.406122  0.283369  0.745801  1
  P  P4  1  0.715945  0.121343  0.745148  1
  P  P5  1  0.879614  0.595573  0.745817  1
  P  P6  1  0.598258  0.720114  0.245785  1
  P  P7  1  0.280034  0.879779  0.248393  1
  P  P8  1  0.121215  0.401339  0.245934  1
  Ir  Ir9  1  0.453537  0.069433  0.746999  1
  Ir  Ir10  1  0.929835  0.383767  0.746165  1
  Ir  Ir11  1  0.616234  0.545178  0.745730  1
  Ir  Ir12  1  0.542224  0.934076  0.246509  1
  Ir  Ir13  1  0.065794  0.608416  0.247346  1
  Ir  Ir14  1  0.391626  0.458975  0.245436  1
  Ir  Ir15  1  0.166173  0.289830  0.745999  1
  Ir  Ir16  1  0.708125  0.874250  0.747225  1
  Rh  Rh17  1  0.124583  0.832864  0.750437  1
  Rh  Rh18  1  0.843442  0.723629  0.244640  1
  Rh  Rh19  1  0.276905  0.123620  0.244399  1
  Rh  Rh20  1  0.879796  0.154969  0.242446  1
