# generated using pymatgen
data_Tb4Al15Co5Si3Ir
_symmetry_space_group_name_H-M   'P 1'
_cell_length_a   7.40035314
_cell_length_b   7.34393719
_cell_length_c   9.34627223
_cell_angle_alpha   90.14621818
_cell_angle_beta   90.08878319
_cell_angle_gamma   119.49037390
_symmetry_Int_Tables_number   1
_chemical_formula_structural   Tb4Al15Co5Si3Ir
_chemical_formula_sum   'Tb4 Al15 Co5 Si3 Ir1'
_cell_volume   442.13429518
_cell_formula_units_Z   1
loop_
 _symmetry_equiv_pos_site_id
 _symmetry_equiv_pos_as_xyz
  1  'x, y, z'
loop_
 _atom_site_type_symbol
 _atom_site_label
 _atom_site_symmetry_multiplicity
 _atom_site_fract_x
 _atom_site_fract_y
 _atom_site_fract_z
 _atom_site_occupancy
  Tb  Tb0  1  0.992877  0.665449  0.247066  1
  Tb  Tb1  1  0.008071  0.340760  0.753355  1
  Tb  Tb2  1  0.678943  0.003060  0.247621  1
  Tb  Tb3  1  0.316021  0.989506  0.749863  1
  Al  Al4  1  0.130457  0.128928  0.244435  1
  Al  Al5  1  0.869880  0.870059  0.756046  1
  Al  Al6  1  0.343595  0.000827  0.426892  1
  Al  Al7  1  0.002063  0.337488  0.433655  1
  Al  Al8  1  0.661544  0.004275  0.572454  1
  Al  Al9  1  0.663765  0.003630  0.927581  1
  Al  Al10  1  0.337235  0.998269  0.071282  1
  Al  Al11  1  0.338322  0.336236  0.551714  1
  Al  Al12  1  0.658843  0.662598  0.450892  1
  Al  Al13  1  0.665204  0.668070  0.047264  1
  Al  Al14  1  0.332802  0.330448  0.952068  1
  Al  Al15  1  0.337666  0.555575  0.248784  1
  Al  Al16  1  0.661739  0.443801  0.751431  1
  Al  Al17  1  0.551690  0.342112  0.249299  1
  Al  Al18  1  0.451797  0.658620  0.751071  1
  Co  Co19  1  0.692744  0.341315  0.002358  1
  Co  Co20  1  0.307194  0.659458  0.996775  1
  Co  Co21  1  0.318712  0.668958  0.503584  1
  Co  Co22  1  0.681153  0.339751  0.499791  1
  Co  Co23  1  0.999727  0.999978  0.000059  1
  Si  Si24  1  0.001618  0.332204  0.066663  1
  Si  Si25  1  0.997675  0.668540  0.937144  1
  Si  Si26  1  0.997826  0.656766  0.560078  1
  Ir  Ir27  1  0.000835  0.993324  0.500774  1
