# generated using pymatgen
data_Ce6Cd22InP
_symmetry_space_group_name_H-M   'P 1'
_cell_length_a   10.14704820
_cell_length_b   10.14704948
_cell_length_c   10.14704800
_cell_angle_alpha   59.99999830
_cell_angle_beta   59.99999415
_cell_angle_gamma   59.99999648
_symmetry_Int_Tables_number   1
_chemical_formula_structural   Ce6Cd22InP
_chemical_formula_sum   'Ce6 Cd22 In1 P1'
_cell_volume   738.76137704
_cell_formula_units_Z   1
loop_
 _symmetry_equiv_pos_site_id
 _symmetry_equiv_pos_as_xyz
  1  'x, y, z'
loop_
 _atom_site_type_symbol
 _atom_site_label
 _atom_site_symmetry_multiplicity
 _atom_site_fract_x
 _atom_site_fract_y
 _atom_site_fract_z
 _atom_site_occupancy
  Ce  Ce0  1  0.796577  0.796577  0.203423  1
  Ce  Ce1  1  0.203423  0.796577  0.203423  1
  Ce  Ce2  1  0.796577  0.203423  0.203423  1
  Ce  Ce3  1  0.203423  0.203423  0.796577  1
  Ce  Ce4  1  0.796577  0.203423  0.796577  1
  Ce  Ce5  1  0.203423  0.796577  0.796577  1
  Cd  Cd6  1  0.833083  0.833083  0.500749  1
  Cd  Cd7  1  0.833083  0.500749  0.833083  1
  Cd  Cd8  1  0.500749  0.833083  0.833083  1
  Cd  Cd9  1  0.833083  0.833083  0.833083  1
  Cd  Cd10  1  0.166917  0.166917  0.499251  1
  Cd  Cd11  1  0.166917  0.499251  0.166917  1
  Cd  Cd12  1  0.499251  0.166917  0.166917  1
  Cd  Cd13  1  0.166917  0.166917  0.166917  1
  Cd  Cd14  1  0.622468  0.622468  0.132596  1
  Cd  Cd15  1  0.622468  0.132596  0.622468  1
  Cd  Cd16  1  0.132596  0.622468  0.622468  1
  Cd  Cd17  1  0.622468  0.622468  0.622468  1
  Cd  Cd18  1  0.377532  0.377532  0.867404  1
  Cd  Cd19  1  0.377532  0.867404  0.377532  1
  Cd  Cd20  1  0.867404  0.377532  0.377532  1
  Cd  Cd21  1  0.377532  0.377532  0.377532  1
  Cd  Cd22  1  0.000000  0.000000  0.500000  1
  Cd  Cd23  1  0.500000  0.000000  0.500000  1
  Cd  Cd24  1  0.000000  0.500000  0.500000  1
  Cd  Cd25  1  0.500000  0.500000  0.000000  1
  Cd  Cd26  1  0.000000  0.500000  0.000000  1
  Cd  Cd27  1  0.500000  0.000000  0.000000  1
  In  In28  1  0.500000  0.500000  0.500000  1
  P  P29  1  0.000000  0.000000  0.000000  1
