# generated using pymatgen
data_Sc8Tc3B24Ir
_symmetry_space_group_name_H-M   'P 1'
_cell_length_a   3.50836600
_cell_length_b   8.89802241
_cell_length_c   11.20695903
_cell_angle_alpha   90.08429721
_cell_angle_beta   90.00000000
_cell_angle_gamma   90.00000000
_symmetry_Int_Tables_number   1
_chemical_formula_structural   Sc8Tc3B24Ir
_chemical_formula_sum   'Sc8 Tc3 B24 Ir1'
_cell_volume   349.85308104
_cell_formula_units_Z   1
loop_
 _symmetry_equiv_pos_site_id
 _symmetry_equiv_pos_as_xyz
  1  'x, y, z'
loop_
 _atom_site_type_symbol
 _atom_site_label
 _atom_site_symmetry_multiplicity
 _atom_site_fract_x
 _atom_site_fract_y
 _atom_site_fract_z
 _atom_site_occupancy
  Sc  Sc0  1  0.500000  0.313803  0.415715  1
  Sc  Sc1  1  0.500000  0.681540  0.592303  1
  Sc  Sc2  1  0.500000  0.178549  0.911707  1
  Sc  Sc3  1  0.500000  0.825604  0.080312  1
  Sc  Sc4  1  0.500000  0.441396  0.127094  1
  Sc  Sc5  1  0.500000  0.556081  0.871333  1
  Sc  Sc6  1  0.500000  0.055437  0.628468  1
  Sc  Sc7  1  0.500000  0.946154  0.371799  1
  Tc  Tc8  1  0.500000  0.139210  0.180603  1
  Tc  Tc9  1  0.500000  0.860931  0.820487  1
  Tc  Tc10  1  0.500000  0.361421  0.678345  1
  B  B11  1  0.000000  0.098981  0.472648  1
  B  B12  1  0.000000  0.899158  0.527477  1
  B  B13  1  0.000000  0.400699  0.972802  1
  B  B14  1  0.000000  0.599851  0.027692  1
  B  B15  1  0.000000  0.130356  0.318102  1
  B  B16  1  0.000000  0.869749  0.682545  1
  B  B17  1  0.000000  0.370378  0.817358  1
  B  B18  1  0.000000  0.630508  0.181494  1
  B  B19  1  0.000000  0.052918  0.064929  1
  B  B20  1  0.000000  0.946982  0.934832  1
  B  B21  1  0.000000  0.446832  0.564543  1
  B  B22  1  0.000000  0.553935  0.435714  1
  B  B23  1  0.000000  0.479884  0.287441  1
  B  B24  1  0.000000  0.520869  0.712481  1
  B  B25  1  0.000000  0.020692  0.787140  1
  B  B26  1  0.000000  0.979368  0.212460  1
  B  B27  1  0.000000  0.252538  0.078588  1
  B  B28  1  0.000000  0.747346  0.921307  1
  B  B29  1  0.000000  0.246784  0.578932  1
  B  B30  1  0.000000  0.752842  0.422240  1
  B  B31  1  0.000000  0.295152  0.236797  1
  B  B32  1  0.000000  0.705145  0.764242  1
  B  B33  1  0.000000  0.205275  0.735908  1
  B  B34  1  0.000000  0.794529  0.263776  1
  Ir  Ir35  1  0.500000  0.639104  0.320388  1
