# generated using pymatgen
data_Na2Ni5(MoO4)6
_symmetry_space_group_name_H-M   'P 1'
_cell_length_a   6.99612138
_cell_length_b   8.62143545
_cell_length_c   10.31002775
_cell_angle_alpha   107.14480699
_cell_angle_beta   104.50713013
_cell_angle_gamma   103.24322916
_symmetry_Int_Tables_number   1
_chemical_formula_structural   Na2Ni5(MoO4)6
_chemical_formula_sum   'Na2 Ni5 Mo6 O24'
_cell_volume   543.56781409
_cell_formula_units_Z   1
loop_
 _symmetry_equiv_pos_site_id
 _symmetry_equiv_pos_as_xyz
  1  'x, y, z'
loop_
 _atom_site_type_symbol
 _atom_site_label
 _atom_site_symmetry_multiplicity
 _atom_site_fract_x
 _atom_site_fract_y
 _atom_site_fract_z
 _atom_site_occupancy
  Na  Na0  1  0.028014  0.505320  0.021406  1
  Na  Na1  1  0.282218  0.290803  0.298423  1
  Ni  Ni2  1  0.382142  0.955999  0.102554  1
  Ni  Ni3  1  0.627946  0.045688  0.898475  1
  Ni  Ni4  1  0.953508  0.800426  0.483609  1
  Ni  Ni5  1  0.034188  0.192254  0.511503  1
  Ni  Ni6  1  0.724957  0.724856  0.698041  1
  Mo  Mo7  1  0.408771  0.750860  0.377948  1
  Mo  Mo8  1  0.590434  0.269180  0.631474  1
  Mo  Mo9  1  0.879720  0.893526  0.161156  1
  Mo  Mo10  1  0.117181  0.089154  0.830949  1
  Mo  Mo11  1  0.785120  0.336862  0.239175  1
  Mo  Mo12  1  0.221113  0.664350  0.760532  1
  O  O13  1  0.245156  0.818200  0.473772  1
  O  O14  1  0.751672  0.193782  0.536327  1
  O  O15  1  0.664858  0.955864  0.068817  1
  O  O16  1  0.333185  0.023731  0.916977  1
  O  O17  1  0.824228  0.674262  0.075633  1
  O  O18  1  0.171663  0.305873  0.923608  1
  O  O19  1  0.117583  0.996671  0.139458  1
  O  O20  1  0.868421  0.976182  0.841229  1
  O  O21  1  0.443239  0.866848  0.263432  1
  O  O22  1  0.579499  0.170794  0.761130  1
  O  O23  1  0.268020  0.534678  0.260105  1
  O  O24  1  0.701552  0.501536  0.720980  1
  O  O25  1  0.796931  0.288626  0.059092  1
  O  O26  1  0.227163  0.702940  0.942468  1
  O  O27  1  0.829773  0.559071  0.329216  1
  O  O28  1  0.160384  0.442457  0.670642  1
  O  O29  1  0.914025  0.937488  0.352029  1
  O  O30  1  0.079859  0.056873  0.643719  1
  O  O31  1  0.977116  0.270659  0.342968  1
  O  O32  1  0.012355  0.732759  0.667604  1
  O  O33  1  0.657068  0.765012  0.509268  1
  O  O34  1  0.334671  0.220132  0.504773  1
  O  O35  1  0.531526  0.215713  0.227239  1
  O  O36  1  0.474743  0.770570  0.754268  1
