# generated using pymatgen
data_Hf9Ir8Rh3
_symmetry_space_group_name_H-M   'P 1'
_cell_length_a   7.14899405
_cell_length_b   7.81258795
_cell_length_c   7.82250785
_cell_angle_alpha   77.95045217
_cell_angle_beta   62.80952042
_cell_angle_gamma   62.77213626
_symmetry_Int_Tables_number   1
_chemical_formula_structural   Hf9Ir8Rh3
_chemical_formula_sum   'Hf9 Ir8 Rh3'
_cell_volume   345.56085507
_cell_formula_units_Z   1
loop_
 _symmetry_equiv_pos_site_id
 _symmetry_equiv_pos_as_xyz
  1  'x, y, z'
loop_
 _atom_site_type_symbol
 _atom_site_label
 _atom_site_symmetry_multiplicity
 _atom_site_fract_x
 _atom_site_fract_y
 _atom_site_fract_z
 _atom_site_occupancy
  Hf  Hf0  1  0.999877  0.000000  0.000000  1
  Hf  Hf1  1  0.688850  0.407262  0.216054  1
  Hf  Hf2  1  0.312164  0.592738  0.783946  1
  Hf  Hf3  1  0.096185  0.216223  0.592829  1
  Hf  Hf4  1  0.905239  0.783777  0.407171  1
  Hf  Hf5  1  0.758826  0.650751  0.830993  1
  Hf  Hf6  1  0.240571  0.349249  0.169007  1
  Hf  Hf7  1  0.410019  0.830272  0.349081  1
  Hf  Hf8  1  0.589372  0.169728  0.650919  1
  Ir  Ir9  1  0.251282  0.500000  0.500000  1
  Ir  Ir10  1  0.751171  0.500000  0.500000  1
  Ir  Ir11  1  0.675352  0.312567  0.895933  1
  Ir  Ir12  1  0.883852  0.687433  0.104067  1
  Ir  Ir13  1  0.988550  0.897031  0.686362  1
  Ir  Ir14  1  0.571942  0.102969  0.313638  1
  Ir  Ir15  1  0.324293  0.687123  0.103227  1
  Ir  Ir16  1  0.114642  0.312877  0.896773  1
  Rh  Rh17  1  0.499378  0.000000  0.000000  1
  Rh  Rh18  1  0.012271  0.102767  0.311125  1
  Rh  Rh19  1  0.426164  0.897233  0.688875  1
