# generated using pymatgen
data_TmLuAlRe3
_symmetry_space_group_name_H-M   'P 1'
_cell_length_a   5.33318100
_cell_length_b   5.33318192
_cell_length_c   8.92076300
_cell_angle_alpha   90.00000000
_cell_angle_beta   90.00000000
_cell_angle_gamma   120.00000051
_symmetry_Int_Tables_number   1
_chemical_formula_structural   TmLuAlRe3
_chemical_formula_sum   'Tm2 Lu2 Al2 Re6'
_cell_volume   219.73809350
_cell_formula_units_Z   2
loop_
 _symmetry_equiv_pos_site_id
 _symmetry_equiv_pos_as_xyz
  1  'x, y, z'
loop_
 _atom_site_type_symbol
 _atom_site_label
 _atom_site_symmetry_multiplicity
 _atom_site_fract_x
 _atom_site_fract_y
 _atom_site_fract_z
 _atom_site_occupancy
  Tm  Tm0  1  0.666667  0.333333  0.932384  1
  Tm  Tm1  1  0.333333  0.666667  0.067616  1
  Lu  Lu2  1  0.333333  0.666667  0.433025  1
  Lu  Lu3  1  0.666667  0.333333  0.566975  1
  Al  Al4  1  0.000000  0.000000  0.500000  1
  Al  Al5  1  0.000000  0.000000  0.000000  1
  Re  Re6  1  0.830378  0.169622  0.251305  1
  Re  Re7  1  0.830378  0.660755  0.251305  1
  Re  Re8  1  0.339245  0.169622  0.251305  1
  Re  Re9  1  0.169622  0.830378  0.748695  1
  Re  Re10  1  0.169622  0.339245  0.748695  1
  Re  Re11  1  0.660755  0.830378  0.748695  1
