# generated using pymatgen
data_Y6Tm4SnSb5
_symmetry_space_group_name_H-M   'P 1'
_cell_length_a   6.32577000
_cell_length_b   8.94520198
_cell_length_c   8.92048315
_cell_angle_alpha   120.09171028
_cell_angle_beta   89.99994706
_cell_angle_gamma   90.00011045
_symmetry_Int_Tables_number   1
_chemical_formula_structural   Y6Tm4SnSb5
_chemical_formula_sum   'Y6 Tm4 Sn1 Sb5'
_cell_volume   436.73748539
_cell_formula_units_Z   1
loop_
 _symmetry_equiv_pos_site_id
 _symmetry_equiv_pos_as_xyz
  1  'x, y, z'
loop_
 _atom_site_type_symbol
 _atom_site_label
 _atom_site_symmetry_multiplicity
 _atom_site_fract_x
 _atom_site_fract_y
 _atom_site_fract_z
 _atom_site_occupancy
  Y  Y0  1  0.749998  0.246956  0.000000  1
  Y  Y1  1  0.750000  0.753038  0.753933  1
  Y  Y2  1  0.750000  0.999105  0.246067  1
  Y  Y3  1  0.249999  0.753233  0.000000  1
  Y  Y4  1  0.250002  0.247469  0.246834  1
  Y  Y5  1  0.250002  0.000634  0.753166  1
  Tm  Tm6  1  0.500072  0.333900  0.667485  1
  Tm  Tm7  1  0.500072  0.666415  0.332515  1
  Tm  Tm8  1  0.999932  0.666416  0.332515  1
  Tm  Tm9  1  0.999932  0.333901  0.667485  1
  Sn  Sn10  1  0.750000  0.607958  0.000000  1
  Sb  Sb11  1  0.750000  0.390196  0.390492  1
  Sb  Sb12  1  0.750000  0.999704  0.609508  1
  Sb  Sb13  1  0.249998  0.390592  0.000000  1
  Sb  Sb14  1  0.249999  0.610079  0.609674  1
  Sb  Sb15  1  0.249999  0.000405  0.390326  1
