# generated using pymatgen
data_Tb3Zn3Ag2Ir
_symmetry_space_group_name_H-M   'P 1'
_cell_length_a   7.60942500
_cell_length_b   7.60942544
_cell_length_c   3.77478500
_cell_angle_alpha   90.00000000
_cell_angle_beta   90.00000000
_cell_angle_gamma   120.00001113
_symmetry_Int_Tables_number   1
_chemical_formula_structural   Tb3Zn3Ag2Ir
_chemical_formula_sum   'Tb3 Zn3 Ag2 Ir1'
_cell_volume   189.28949409
_cell_formula_units_Z   1
loop_
 _symmetry_equiv_pos_site_id
 _symmetry_equiv_pos_as_xyz
  1  'x, y, z'
loop_
 _atom_site_type_symbol
 _atom_site_label
 _atom_site_symmetry_multiplicity
 _atom_site_fract_x
 _atom_site_fract_y
 _atom_site_fract_z
 _atom_site_occupancy
  Tb  Tb0  1  0.419557  0.395373  0.000000  1
  Tb  Tb1  1  0.604627  0.024184  0.000000  1
  Tb  Tb2  1  0.975816  0.580443  0.000000  1
  Zn  Zn3  1  0.995167  0.263115  0.500000  1
  Zn  Zn4  1  0.736885  0.732053  0.500000  1
  Zn  Zn5  1  0.267947  0.004833  0.500000  1
  Ag  Ag6  1  0.000000  0.000000  0.000000  1
  Ag  Ag7  1  0.333333  0.666667  0.500000  1
  Ir  Ir8  1  0.666667  0.333333  0.500000  1
