# generated using pymatgen
data_Mg2CdSi(PPd4)5
_symmetry_space_group_name_H-M   'P 1'
_cell_length_a   8.58836787
_cell_length_b   8.58774679
_cell_length_c   8.58774707
_cell_angle_alpha   60.00143696
_cell_angle_beta   59.99761562
_cell_angle_gamma   59.99760949
_symmetry_Int_Tables_number   1
_chemical_formula_structural   Mg2CdSi(PPd4)5
_chemical_formula_sum   'Mg2 Cd1 Si1 P5 Pd20'
_cell_volume   447.86091096
_cell_formula_units_Z   1
loop_
 _symmetry_equiv_pos_site_id
 _symmetry_equiv_pos_as_xyz
  1  'x, y, z'
loop_
 _atom_site_type_symbol
 _atom_site_label
 _atom_site_symmetry_multiplicity
 _atom_site_fract_x
 _atom_site_fract_y
 _atom_site_fract_z
 _atom_site_occupancy
  Mg  Mg0  1  0.251130  0.248870  0.248870  1
  Mg  Mg1  1  0.997843  0.002157  0.002157  1
  Cd  Cd2  1  0.751223  0.748777  0.748777  1
  Si  Si3  1  0.733497  0.266503  0.266503  1
  P  P4  1  0.265774  0.734226  0.734226  1
  P  P5  1  0.267364  0.732571  0.265409  1
  P  P6  1  0.734657  0.265409  0.732571  1
  P  P7  1  0.267364  0.265409  0.732571  1
  P  P8  1  0.734657  0.732571  0.265409  1
  Pd  Pd9  1  0.380465  0.381739  0.381739  1
  Pd  Pd10  1  0.615892  0.615506  0.615506  1
  Pd  Pd11  1  0.382244  0.381758  0.853754  1
  Pd  Pd12  1  0.382244  0.853754  0.381758  1
  Pd  Pd13  1  0.616074  0.618108  0.149742  1
  Pd  Pd14  1  0.616074  0.149742  0.618108  1
  Pd  Pd15  1  0.856057  0.381739  0.381739  1
  Pd  Pd16  1  0.153093  0.615506  0.615506  1
  Pd  Pd17  1  0.339486  0.002015  0.002015  1
  Pd  Pd18  1  0.656482  0.002015  0.002015  1
  Pd  Pd19  1  0.999027  0.342595  0.659351  1
  Pd  Pd20  1  0.999027  0.659351  0.342595  1
  Pd  Pd21  1  0.002239  0.342775  0.998493  1
  Pd  Pd22  1  0.656491  0.998493  0.342775  1
  Pd  Pd23  1  0.000360  0.657812  0.000758  1
  Pd  Pd24  1  0.341068  0.000758  0.657812  1
  Pd  Pd25  1  0.002239  0.998493  0.342775  1
  Pd  Pd26  1  0.000360  0.000758  0.657812  1
  Pd  Pd27  1  0.656491  0.342775  0.998493  1
  Pd  Pd28  1  0.341068  0.657812  0.000758  1
