# generated using pymatgen
data_Hf3Sc8TiGa20
_symmetry_space_group_name_H-M   'P 1'
_cell_length_a   5.73532633
_cell_length_b   9.16231700
_cell_length_c   11.00002200
_cell_angle_alpha   90.00000000
_cell_angle_beta   89.90841185
_cell_angle_gamma   90.00000000
_symmetry_Int_Tables_number   1
_chemical_formula_structural   Hf3Sc8TiGa20
_chemical_formula_sum   'Hf3 Sc8 Ti1 Ga20'
_cell_volume   578.03807459
_cell_formula_units_Z   1
loop_
 _symmetry_equiv_pos_site_id
 _symmetry_equiv_pos_as_xyz
  1  'x, y, z'
loop_
 _atom_site_type_symbol
 _atom_site_label
 _atom_site_symmetry_multiplicity
 _atom_site_fract_x
 _atom_site_fract_y
 _atom_site_fract_z
 _atom_site_occupancy
  Hf  Hf0  1  0.856485  0.750000  0.066916  1
  Hf  Hf1  1  0.642912  0.750000  0.566887  1
  Hf  Hf2  1  0.142807  0.250000  0.932616  1
  Sc  Sc3  1  0.884429  0.505997  0.354169  1
  Sc  Sc4  1  0.611846  0.998140  0.853083  1
  Sc  Sc5  1  0.113610  0.001546  0.646857  1
  Sc  Sc6  1  0.384121  0.497751  0.144300  1
  Sc  Sc7  1  0.113610  0.498454  0.646857  1
  Sc  Sc8  1  0.384121  0.002249  0.144300  1
  Sc  Sc9  1  0.884429  0.994003  0.354169  1
  Sc  Sc10  1  0.611846  0.501860  0.853083  1
  Ti  Ti11  1  0.360361  0.250000  0.433028  1
  Ga  Ga12  1  0.873240  0.050001  0.095244  1
  Ga  Ga13  1  0.629142  0.448973  0.593209  1
  Ga  Ga14  1  0.125353  0.549922  0.906288  1
  Ga  Ga15  1  0.373774  0.950735  0.404599  1
  Ga  Ga16  1  0.125353  0.950078  0.906288  1
  Ga  Ga17  1  0.373774  0.549265  0.404599  1
  Ga  Ga18  1  0.873240  0.449999  0.095244  1
  Ga  Ga19  1  0.629142  0.051027  0.593209  1
  Ga  Ga20  1  0.154817  0.750000  0.253673  1
  Ga  Ga21  1  0.346283  0.750000  0.754753  1
  Ga  Ga22  1  0.845622  0.250000  0.745513  1
  Ga  Ga23  1  0.651974  0.250000  0.246441  1
  Ga  Ga24  1  0.392032  0.750000  0.003636  1
  Ga  Ga25  1  0.112264  0.750000  0.504170  1
  Ga  Ga26  1  0.607228  0.250000  0.997580  1
  Ga  Ga27  1  0.902033  0.250000  0.495705  1
  Ga  Ga28  1  0.620365  0.750000  0.290754  1
  Ga  Ga29  1  0.873807  0.750000  0.791719  1
  Ga  Ga30  1  0.376865  0.250000  0.708239  1
  Ga  Ga31  1  0.123119  0.250000  0.212872  1
