# generated using pymatgen
data_Th14Tc4IrOs
_symmetry_space_group_name_H-M   'P 1'
_cell_length_a   9.98069094
_cell_length_b   9.96146290
_cell_length_c   6.34841170
_cell_angle_alpha   90.08955730
_cell_angle_beta   89.88425494
_cell_angle_gamma   119.57220290
_symmetry_Int_Tables_number   1
_chemical_formula_structural   Th14Tc4IrOs
_chemical_formula_sum   'Th14 Tc4 Ir1 Os1'
_cell_volume   548.95217998
_cell_formula_units_Z   1
loop_
 _symmetry_equiv_pos_site_id
 _symmetry_equiv_pos_as_xyz
  1  'x, y, z'
loop_
 _atom_site_type_symbol
 _atom_site_label
 _atom_site_symmetry_multiplicity
 _atom_site_fract_x
 _atom_site_fract_y
 _atom_site_fract_z
 _atom_site_occupancy
  Th  Th0  1  0.460942  0.540350  0.298508  1
  Th  Th1  1  0.076333  0.537063  0.295248  1
  Th  Th2  1  0.919095  0.458204  0.799864  1
  Th  Th3  1  0.254912  0.129581  0.504731  1
  Th  Th4  1  0.542535  0.080142  0.799506  1
  Th  Th5  1  0.752885  0.875376  0.004065  1
  Th  Th6  1  0.666484  0.333658  0.283919  1
  Th  Th7  1  0.125825  0.875389  0.004346  1
  Th  Th8  1  0.462098  0.920821  0.297243  1
  Th  Th9  1  0.540776  0.460386  0.799070  1
  Th  Th10  1  0.872996  0.125692  0.503582  1
  Th  Th11  1  0.125768  0.249613  0.003965  1
  Th  Th12  1  0.870076  0.748052  0.504769  1
  Th  Th13  1  0.333623  0.665331  0.790928  1
  Tc  Tc14  1  0.816340  0.631545  0.047256  1
  Tc  Tc15  1  0.815524  0.184945  0.047413  1
  Tc  Tc16  1  0.624153  0.812571  0.550754  1
  Tc  Tc17  1  0.369337  0.185307  0.045891  1
  Ir  Ir18  1  0.185340  0.811290  0.551446  1
  Os  Os19  1  0.184959  0.374686  0.551498  1
