# generated using pymatgen
data_Zr8In4Cu2IrAu5
_symmetry_space_group_name_H-M   'P 1'
_cell_length_a   7.52596929
_cell_length_b   7.52596938
_cell_length_c   7.06472922
_cell_angle_alpha   90.15081755
_cell_angle_beta   90.15081313
_cell_angle_gamma   90.90844872
_symmetry_Int_Tables_number   1
_chemical_formula_structural   Zr8In4Cu2IrAu5
_chemical_formula_sum   'Zr8 In4 Cu2 Ir1 Au5'
_cell_volume   400.09466509
_cell_formula_units_Z   1
loop_
 _symmetry_equiv_pos_site_id
 _symmetry_equiv_pos_as_xyz
  1  'x, y, z'
loop_
 _atom_site_type_symbol
 _atom_site_label
 _atom_site_symmetry_multiplicity
 _atom_site_fract_x
 _atom_site_fract_y
 _atom_site_fract_z
 _atom_site_occupancy
  Zr  Zr0  1  0.155177  0.155177  0.009036  1
  Zr  Zr1  1  0.844052  0.844052  0.997584  1
  Zr  Zr2  1  0.641318  0.355643  0.490377  1
  Zr  Zr3  1  0.355643  0.641318  0.490377  1
  Zr  Zr4  1  0.686012  0.314356  0.006378  1
  Zr  Zr5  1  0.314356  0.686012  0.006378  1
  Zr  Zr6  1  0.796826  0.796826  0.499602  1
  Zr  Zr7  1  0.202579  0.202579  0.492122  1
  In  In8  1  0.503208  0.996421  0.245122  1
  In  In9  1  0.502874  0.990126  0.750688  1
  In  In10  1  0.996421  0.503208  0.245122  1
  In  In11  1  0.990126  0.502874  0.750688  1
  Cu  Cu12  1  0.626998  0.626998  0.795798  1
  Cu  Cu13  1  0.629786  0.629786  0.199164  1
  Ir  Ir14  1  0.378472  0.378472  0.217382  1
  Au  Au15  1  0.869978  0.131164  0.709790  1
  Au  Au16  1  0.870066  0.128462  0.294481  1
  Au  Au17  1  0.376480  0.376480  0.795641  1
  Au  Au18  1  0.128462  0.870066  0.294481  1
  Au  Au19  1  0.131164  0.869978  0.709790  1
