# generated using pymatgen
data_La2Y6GaPd24
_symmetry_space_group_name_H-M   'P 1'
_cell_length_a   8.41342738
_cell_length_b   8.41342801
_cell_length_c   8.41342878
_cell_angle_alpha   90.07751653
_cell_angle_beta   89.92248653
_cell_angle_gamma   89.92248134
_symmetry_Int_Tables_number   1
_chemical_formula_structural   La2Y6GaPd24
_chemical_formula_sum   'La2 Y6 Ga1 Pd24'
_cell_volume   595.54936046
_cell_formula_units_Z   1
loop_
 _symmetry_equiv_pos_site_id
 _symmetry_equiv_pos_as_xyz
  1  'x, y, z'
loop_
 _atom_site_type_symbol
 _atom_site_label
 _atom_site_symmetry_multiplicity
 _atom_site_fract_x
 _atom_site_fract_y
 _atom_site_fract_z
 _atom_site_occupancy
  La  La0  1  0.253313  0.746687  0.746687  1
  La  La1  1  0.746687  0.253313  0.253313  1
  Y  Y2  1  0.251953  0.251705  0.251705  1
  Y  Y3  1  0.748047  0.748295  0.748295  1
  Y  Y4  1  0.748295  0.748047  0.251705  1
  Y  Y5  1  0.748295  0.251705  0.748047  1
  Y  Y6  1  0.251705  0.251953  0.748295  1
  Y  Y7  1  0.251705  0.748295  0.251953  1
  Ga  Ga8  1  0.000000  0.000000  0.000000  1
  Pd  Pd9  1  0.260120  0.498081  0.002712  1
  Pd  Pd10  1  0.739880  0.501919  0.997288  1
  Pd  Pd11  1  0.002712  0.260120  0.501919  1
  Pd  Pd12  1  0.498081  0.260120  0.997288  1
  Pd  Pd13  1  0.997288  0.739880  0.498081  1
  Pd  Pd14  1  0.501919  0.739880  0.002712  1
  Pd  Pd15  1  0.498081  0.997288  0.260120  1
  Pd  Pd16  1  0.260120  0.002712  0.498081  1
  Pd  Pd17  1  0.501919  0.002712  0.739880  1
  Pd  Pd18  1  0.739880  0.997288  0.501919  1
  Pd  Pd19  1  0.002712  0.501919  0.260120  1
  Pd  Pd20  1  0.997288  0.498081  0.739880  1
  Pd  Pd21  1  0.252568  0.497016  0.497016  1
  Pd  Pd22  1  0.747432  0.502984  0.502984  1
  Pd  Pd23  1  0.497016  0.252568  0.502984  1
  Pd  Pd24  1  0.502984  0.747432  0.497016  1
  Pd  Pd25  1  0.497016  0.502984  0.252568  1
  Pd  Pd26  1  0.502984  0.497016  0.747432  1
  Pd  Pd27  1  0.292075  0.002103  0.002103  1
  Pd  Pd28  1  0.707925  0.997897  0.997897  1
  Pd  Pd29  1  0.002103  0.292075  0.997897  1
  Pd  Pd30  1  0.997897  0.707925  0.002103  1
  Pd  Pd31  1  0.002103  0.997897  0.292075  1
  Pd  Pd32  1  0.997897  0.002103  0.707925  1
