# generated using pymatgen
data_Er8SiHgPd23
_symmetry_space_group_name_H-M   'P 1'
_cell_length_a   8.27681300
_cell_length_b   8.36867300
_cell_length_c   8.35666400
_cell_angle_alpha   90.00000000
_cell_angle_beta   90.00000000
_cell_angle_gamma   90.00000000
_symmetry_Int_Tables_number   1
_chemical_formula_structural   Er8SiHgPd23
_chemical_formula_sum   'Er8 Si1 Hg1 Pd23'
_cell_volume   578.83219958
_cell_formula_units_Z   1
loop_
 _symmetry_equiv_pos_site_id
 _symmetry_equiv_pos_as_xyz
  1  'x, y, z'
loop_
 _atom_site_type_symbol
 _atom_site_label
 _atom_site_symmetry_multiplicity
 _atom_site_fract_x
 _atom_site_fract_y
 _atom_site_fract_z
 _atom_site_occupancy
  Er  Er0  1  0.254223  0.246480  0.262978  1
  Er  Er1  1  0.745618  0.746464  0.744664  1
  Er  Er2  1  0.745618  0.746464  0.255336  1
  Er  Er3  1  0.745618  0.253536  0.744664  1
  Er  Er4  1  0.254223  0.246480  0.737022  1
  Er  Er5  1  0.254223  0.753520  0.262978  1
  Er  Er6  1  0.254223  0.753520  0.737022  1
  Er  Er7  1  0.745618  0.253536  0.255336  1
  Si  Si8  1  0.999745  0.000000  0.000000  1
  Hg  Hg9  1  0.260130  0.500000  0.000000  1
  Pd  Pd10  1  0.743153  0.500000  0.000000  1
  Pd  Pd11  1  0.999652  0.256510  0.500000  1
  Pd  Pd12  1  0.499969  0.253850  0.000000  1
  Pd  Pd13  1  0.999652  0.743490  0.500000  1
  Pd  Pd14  1  0.499969  0.746150  0.000000  1
  Pd  Pd15  1  0.500455  0.000000  0.256406  1
  Pd  Pd16  1  0.256441  0.000000  0.500000  1
  Pd  Pd17  1  0.500455  0.000000  0.743594  1
  Pd  Pd18  1  0.743286  0.000000  0.500000  1
  Pd  Pd19  1  0.000368  0.500000  0.258389  1
  Pd  Pd20  1  0.000368  0.500000  0.741611  1
  Pd  Pd21  1  0.251950  0.500000  0.500000  1
  Pd  Pd22  1  0.747995  0.500000  0.500000  1
  Pd  Pd23  1  0.500587  0.252106  0.500000  1
  Pd  Pd24  1  0.500587  0.747894  0.500000  1
  Pd  Pd25  1  0.499702  0.500000  0.254842  1
  Pd  Pd26  1  0.499702  0.500000  0.745158  1
  Pd  Pd27  1  0.278904  0.000000  0.000000  1
  Pd  Pd28  1  0.720354  0.000000  0.000000  1
  Pd  Pd29  1  0.999329  0.277266  0.000000  1
  Pd  Pd30  1  0.999329  0.722734  0.000000  1
  Pd  Pd31  1  0.999278  0.000000  0.278610  1
  Pd  Pd32  1  0.999278  0.000000  0.721390  1
