# generated using pymatgen
data_Zn21AgPt4
_symmetry_space_group_name_H-M   'P 1'
_cell_length_a   7.95955994
_cell_length_b   8.00580632
_cell_length_c   7.95956131
_cell_angle_alpha   109.87552998
_cell_angle_beta   108.88849012
_cell_angle_gamma   109.87552770
_symmetry_Int_Tables_number   1
_chemical_formula_structural   Zn21AgPt4
_chemical_formula_sum   'Zn21 Ag1 Pt4'
_cell_volume   389.32531316
_cell_formula_units_Z   1
loop_
 _symmetry_equiv_pos_site_id
 _symmetry_equiv_pos_as_xyz
  1  'x, y, z'
loop_
 _atom_site_type_symbol
 _atom_site_label
 _atom_site_symmetry_multiplicity
 _atom_site_fract_x
 _atom_site_fract_y
 _atom_site_fract_z
 _atom_site_occupancy
  Zn  Zn0  1  0.621910  0.353387  0.350519  1
  Zn  Zn1  1  0.350519  0.353387  0.621910  1
  Zn  Zn2  1  0.652242  0.272062  0.001621  1
  Zn  Zn3  1  0.218759  0.216010  0.218759  1
  Zn  Zn4  1  0.001906  0.000224  0.783506  1
  Zn  Zn5  1  0.783506  0.000224  0.001906  1
  Zn  Zn6  1  0.997034  0.782304  0.997034  1
  Zn  Zn7  1  0.360174  0.359153  0.000861  1
  Zn  Zn8  1  0.997974  0.641140  0.642061  1
  Zn  Zn9  1  0.000861  0.359153  0.360174  1
  Zn  Zn10  1  0.356429  0.998407  0.356429  1
  Zn  Zn11  1  0.642092  0.997617  0.642092  1
  Zn  Zn12  1  0.642061  0.641140  0.997974  1
  Zn  Zn13  1  0.350521  0.625445  0.350521  1
  Zn  Zn14  1  0.272039  0.999583  0.648813  1
  Zn  Zn15  1  0.648813  0.999583  0.272039  1
  Zn  Zn16  1  0.270468  0.648733  0.000214  1
  Zn  Zn17  1  0.727526  0.726871  0.373944  1
  Zn  Zn18  1  0.373944  0.726871  0.727526  1
  Zn  Zn19  1  0.000214  0.648733  0.270468  1
  Zn  Zn20  1  0.001621  0.272062  0.652242  1
  Ag  Ag21  1  0.721743  0.369684  0.721743  1
  Pt  Pt22  1  0.010106  0.342972  0.010106  1
  Pt  Pt23  1  0.346789  0.000070  0.000045  1
  Pt  Pt24  1  0.000045  0.000070  0.346789  1
  Pt  Pt25  1  0.650704  0.665118  0.650704  1
