# generated using pymatgen
data_CeGd2(B2C)3
_symmetry_space_group_name_H-M   'P 1'
_cell_length_a   5.30721129
_cell_length_b   5.30721188
_cell_length_c   5.30721240
_cell_angle_alpha   77.09872879
_cell_angle_beta   77.09873254
_cell_angle_gamma   77.09871955
_symmetry_Int_Tables_number   1
_chemical_formula_structural   CeGd2(B2C)3
_chemical_formula_sum   'Ce1 Gd2 B6 C3'
_cell_volume   139.64780609
_cell_formula_units_Z   1
loop_
 _symmetry_equiv_pos_site_id
 _symmetry_equiv_pos_as_xyz
  1  'x, y, z'
loop_
 _atom_site_type_symbol
 _atom_site_label
 _atom_site_symmetry_multiplicity
 _atom_site_fract_x
 _atom_site_fract_y
 _atom_site_fract_z
 _atom_site_occupancy
  Ce  Ce0  1  0.000000  0.000000  0.000000  1
  Gd  Gd1  1  0.688879  0.688879  0.688879  1
  Gd  Gd2  1  0.311121  0.311121  0.311121  1
  B  B3  1  0.500000  0.774191  0.225809  1
  B  B4  1  0.225809  0.500000  0.774191  1
  B  B5  1  0.774191  0.225809  0.500000  1
  B  B6  1  0.500000  0.225809  0.774191  1
  B  B7  1  0.225809  0.774191  0.500000  1
  B  B8  1  0.774191  0.500000  0.225809  1
  C  C9  1  0.000000  0.000000  0.500000  1
  C  C10  1  0.000000  0.500000  0.000000  1
  C  C11  1  0.500000  0.000000  0.000000  1
