# generated using pymatgen
data_K2Ge4O7
_symmetry_space_group_name_H-M   'P 1'
_cell_length_a   5.61327200
_cell_length_b   5.61327237
_cell_length_c   8.09141300
_cell_angle_alpha   90.00000000
_cell_angle_beta   90.00000000
_cell_angle_gamma   119.99999940
_symmetry_Int_Tables_number   1
_chemical_formula_structural   K2Ge4O7
_chemical_formula_sum   'K2 Ge4 O7'
_cell_volume   220.79396885
_cell_formula_units_Z   1
loop_
 _symmetry_equiv_pos_site_id
 _symmetry_equiv_pos_as_xyz
  1  'x, y, z'
loop_
 _atom_site_type_symbol
 _atom_site_label
 _atom_site_symmetry_multiplicity
 _atom_site_fract_x
 _atom_site_fract_y
 _atom_site_fract_z
 _atom_site_occupancy
  K  K0  1  0.666667  0.333333  0.908077  1
  K  K1  1  0.333333  0.666667  0.091923  1
  Ge  Ge2  1  0.000000  0.000000  0.282935  1
  Ge  Ge3  1  0.000000  0.000000  0.717065  1
  Ge  Ge4  1  0.333333  0.666667  0.651049  1
  Ge  Ge5  1  0.666667  0.333333  0.348951  1
  O  O6  1  0.814019  0.156291  0.208463  1
  O  O7  1  0.185981  0.843709  0.791537  1
  O  O8  1  0.342272  0.185981  0.208463  1
  O  O9  1  0.000000  0.000000  0.500000  1
  O  O10  1  0.156291  0.342272  0.791537  1
  O  O11  1  0.843709  0.657728  0.208463  1
  O  O12  1  0.657728  0.814019  0.791537  1
