# generated using pymatgen
data_LiEr2Co6(P2Rh)3
_symmetry_space_group_name_H-M   'P 1'
_cell_length_a   3.70971600
_cell_length_b   10.41111600
_cell_length_c   12.14001600
_cell_angle_alpha   90.00000000
_cell_angle_beta   90.00000000
_cell_angle_gamma   90.00000000
_symmetry_Int_Tables_number   1
_chemical_formula_structural   LiEr2Co6(P2Rh)3
_chemical_formula_sum   'Li2 Er4 Co12 P12 Rh6'
_cell_volume   468.87514090
_cell_formula_units_Z   2
loop_
 _symmetry_equiv_pos_site_id
 _symmetry_equiv_pos_as_xyz
  1  'x, y, z'
loop_
 _atom_site_type_symbol
 _atom_site_label
 _atom_site_symmetry_multiplicity
 _atom_site_fract_x
 _atom_site_fract_y
 _atom_site_fract_z
 _atom_site_occupancy
  Li  Li0  1  0.250000  0.706433  0.990098  1
  Li  Li1  1  0.250000  0.793567  0.490098  1
  Er  Er2  1  0.250000  0.583721  0.710465  1
  Er  Er3  1  0.250000  0.916279  0.210465  1
  Er  Er4  1  0.750000  0.418770  0.290179  1
  Er  Er5  1  0.750000  0.081230  0.790179  1
  Co  Co6  1  0.250000  0.222312  0.177227  1
  Co  Co7  1  0.250000  0.277688  0.677227  1
  Co  Co8  1  0.750000  0.779911  0.822547  1
  Co  Co9  1  0.750000  0.720089  0.322547  1
  Co  Co10  1  0.250000  0.882521  0.695895  1
  Co  Co11  1  0.250000  0.617479  0.195895  1
  Co  Co12  1  0.750000  0.117641  0.302908  1
  Co  Co13  1  0.750000  0.382359  0.802908  1
  Co  Co14  1  0.250000  0.465636  0.933131  1
  Co  Co15  1  0.250000  0.034364  0.433131  1
  Co  Co16  1  0.750000  0.537050  0.065801  1
  Co  Co17  1  0.750000  0.962950  0.565801  1
  P  P18  1  0.250000  0.424106  0.111831  1
  P  P19  1  0.250000  0.075894  0.611831  1
  P  P20  1  0.750000  0.578689  0.885878  1
  P  P21  1  0.750000  0.921311  0.385878  1
  P  P22  1  0.250000  0.274218  0.860280  1
  P  P23  1  0.250000  0.225782  0.360280  1
  P  P24  1  0.750000  0.725968  0.140804  1
  P  P25  1  0.750000  0.774032  0.640804  1
  P  P26  1  0.250000  0.605806  0.379797  1
  P  P27  1  0.250000  0.894194  0.879797  1
  P  P28  1  0.750000  0.397266  0.619852  1
  P  P29  1  0.750000  0.102734  0.119852  1
  Rh  Rh30  1  0.750000  0.292184  0.014509  1
  Rh  Rh31  1  0.750000  0.207816  0.514509  1
  Rh  Rh32  1  0.250000  0.403666  0.478764  1
  Rh  Rh33  1  0.250000  0.096334  0.978764  1
  Rh  Rh34  1  0.750000  0.595923  0.520033  1
  Rh  Rh35  1  0.750000  0.904077  0.020033  1
