# generated using pymatgen
data_Lu2U(InIr)3
_symmetry_space_group_name_H-M   'P 1'
_cell_length_a   7.46047504
_cell_length_b   7.70205332
_cell_length_c   3.80415700
_cell_angle_alpha   90.00000000
_cell_angle_beta   90.00000000
_cell_angle_gamma   121.07707134
_symmetry_Int_Tables_number   1
_chemical_formula_structural   Lu2U(InIr)3
_chemical_formula_sum   'Lu2 U1 In3 Ir3'
_cell_volume   187.21708447
_cell_formula_units_Z   1
loop_
 _symmetry_equiv_pos_site_id
 _symmetry_equiv_pos_as_xyz
  1  'x, y, z'
loop_
 _atom_site_type_symbol
 _atom_site_label
 _atom_site_symmetry_multiplicity
 _atom_site_fract_x
 _atom_site_fract_y
 _atom_site_fract_z
 _atom_site_occupancy
  Lu  Lu0  1  0.401479  0.403249  0.500000  1
  Lu  Lu1  1  0.598521  0.001771  0.500000  1
  U  U2  1  0.000000  0.585384  0.500000  1
  In  In3  1  0.722683  0.738749  0.000000  1
  In  In4  1  0.277317  0.016066  0.000000  1
  In  In5  1  0.000000  0.243574  0.000000  1
  Ir  Ir6  1  0.700525  0.362913  0.000000  1
  Ir  Ir7  1  0.299475  0.662389  0.000000  1
  Ir  Ir8  1  0.000000  0.985902  0.500000  1
