# generated using pymatgen
data_Tm4SnPd3F28
_symmetry_space_group_name_H-M   'P 1'
_cell_length_a   5.46219817
_cell_length_b   8.77265582
_cell_length_c   11.83896300
_cell_angle_alpha   62.46023675
_cell_angle_beta   89.98570280
_cell_angle_gamma   90.02643725
_symmetry_Int_Tables_number   1
_chemical_formula_structural   Tm4SnPd3F28
_chemical_formula_sum   'Tm4 Sn1 Pd3 F28'
_cell_volume   503.01854083
_cell_formula_units_Z   1
loop_
 _symmetry_equiv_pos_site_id
 _symmetry_equiv_pos_as_xyz
  1  'x, y, z'
loop_
 _atom_site_type_symbol
 _atom_site_label
 _atom_site_symmetry_multiplicity
 _atom_site_fract_x
 _atom_site_fract_y
 _atom_site_fract_z
 _atom_site_occupancy
  Tm  Tm0  1  0.259832  0.814890  0.262350  1
  Tm  Tm1  1  0.738005  0.182232  0.737576  1
  Tm  Tm2  1  0.761681  0.185809  0.236544  1
  Tm  Tm3  1  0.239610  0.813850  0.766927  1
  Sn  Sn4  1  0.743245  0.726620  0.542156  1
  Pd  Pd5  1  0.758576  0.726821  0.043024  1
  Pd  Pd6  1  0.240391  0.271924  0.957850  1
  Pd  Pd7  1  0.260352  0.272882  0.456848  1
  F  F8  1  0.946094  0.705804  0.410804  1
  F  F9  1  0.063949  0.296665  0.584985  1
  F  F10  1  0.436596  0.296546  0.085213  1
  F  F11  1  0.562990  0.702650  0.915259  1
  F  F12  1  0.463401  0.726041  0.134996  1
  F  F13  1  0.535424  0.273254  0.865039  1
  F  F14  1  0.966468  0.276809  0.362965  1
  F  F15  1  0.039153  0.728797  0.640088  1
  F  F16  1  0.948955  0.743723  0.175803  1
  F  F17  1  0.049402  0.255589  0.824039  1
  F  F18  1  0.448809  0.257455  0.322418  1
  F  F19  1  0.546622  0.745787  0.677612  1
  F  F20  1  0.771986  0.477275  0.142264  1
  F  F21  1  0.227302  0.521508  0.859006  1
  F  F22  1  0.277208  0.522054  0.356067  1
  F  F23  1  0.725883  0.472147  0.643538  1
  F  F24  1  0.938296  0.279806  0.043135  1
  F  F25  1  0.061487  0.719047  0.958266  1
  F  F26  1  0.432446  0.721653  0.454269  1
  F  F27  1  0.562157  0.278764  0.543579  1
  F  F28  1  0.739908  0.981697  0.444927  1
  F  F29  1  0.257235  0.023708  0.550812  1
  F  F30  1  0.242478  0.022904  0.050121  1
  F  F31  1  0.757344  0.976064  0.949995  1
  F  F32  1  0.585769  0.969844  0.232505  1
  F  F33  1  0.412277  0.030505  0.769143  1
  F  F34  1  0.085709  0.030223  0.267769  1
  F  F35  1  0.912959  0.968653  0.732107  1
