# generated using pymatgen
data_Sc20Si2Bi9Se
_symmetry_space_group_name_H-M   'P 1'
_cell_length_a   7.62693892
_cell_length_b   8.79242300
_cell_length_c   11.28419502
_cell_angle_alpha   90.00000000
_cell_angle_beta   89.66737267
_cell_angle_gamma   90.00000000
_symmetry_Int_Tables_number   1
_chemical_formula_structural   Sc20Si2Bi9Se
_chemical_formula_sum   'Sc20 Si2 Bi9 Se1'
_cell_volume   756.69716482
_cell_formula_units_Z   1
loop_
 _symmetry_equiv_pos_site_id
 _symmetry_equiv_pos_as_xyz
  1  'x, y, z'
loop_
 _atom_site_type_symbol
 _atom_site_label
 _atom_site_symmetry_multiplicity
 _atom_site_fract_x
 _atom_site_fract_y
 _atom_site_fract_z
 _atom_site_occupancy
  Sc  Sc0  1  0.190950  0.043580  0.935692  1
  Sc  Sc1  1  0.323654  0.063800  0.443486  1
  Sc  Sc2  1  0.323654  0.436200  0.443486  1
  Sc  Sc3  1  0.329369  0.750000  0.718788  1
  Sc  Sc4  1  0.460731  0.750000  0.002846  1
  Sc  Sc5  1  0.158707  0.250000  0.218674  1
  Sc  Sc6  1  0.815729  0.926317  0.060332  1
  Sc  Sc7  1  0.643860  0.750000  0.295363  1
  Sc  Sc8  1  0.032552  0.750000  0.502534  1
  Sc  Sc9  1  0.685646  0.945447  0.560843  1
  Sc  Sc10  1  0.190950  0.456420  0.935692  1
  Sc  Sc11  1  0.358278  0.250000  0.707683  1
  Sc  Sc12  1  0.156045  0.750000  0.204870  1
  Sc  Sc13  1  0.968109  0.250000  0.495514  1
  Sc  Sc14  1  0.685646  0.554553  0.560843  1
  Sc  Sc15  1  0.660241  0.250000  0.293218  1
  Sc  Sc16  1  0.815729  0.573683  0.060332  1
  Sc  Sc17  1  0.518586  0.250000  0.994841  1
  Sc  Sc18  1  0.813286  0.250000  0.762410  1
  Sc  Sc19  1  0.858463  0.750000  0.791480  1
  Si  Si20  1  0.089010  0.750000  0.971872  1
  Si  Si21  1  0.598399  0.250000  0.530577  1
  Bi  Bi22  1  0.068034  0.489350  0.673710  1
  Bi  Bi23  1  0.566803  0.513150  0.824761  1
  Bi  Bi24  1  0.933943  0.989095  0.325084  1
  Bi  Bi25  1  0.433745  0.007525  0.177272  1
  Bi  Bi26  1  0.566803  0.986850  0.824761  1
  Bi  Bi27  1  0.433745  0.492475  0.177272  1
  Bi  Bi28  1  0.068034  0.010650  0.673710  1
  Bi  Bi29  1  0.933943  0.510905  0.325084  1
  Bi  Bi30  1  0.905048  0.250000  0.023790  1
  Se  Se31  1  0.412302  0.750000  0.483180  1
