# generated using pymatgen
data_Y4Al13Si5(Os2Pd)2
_symmetry_space_group_name_H-M   'P 1'
_cell_length_a   7.51218055
_cell_length_b   7.48815720
_cell_length_c   9.44017602
_cell_angle_alpha   90.02377454
_cell_angle_beta   90.08864247
_cell_angle_gamma   119.65846481
_symmetry_Int_Tables_number   1
_chemical_formula_structural   Y4Al13Si5(Os2Pd)2
_chemical_formula_sum   'Y4 Al13 Si5 Os4 Pd2'
_cell_volume   461.46115595
_cell_formula_units_Z   1
loop_
 _symmetry_equiv_pos_site_id
 _symmetry_equiv_pos_as_xyz
  1  'x, y, z'
loop_
 _atom_site_type_symbol
 _atom_site_label
 _atom_site_symmetry_multiplicity
 _atom_site_fract_x
 _atom_site_fract_y
 _atom_site_fract_z
 _atom_site_occupancy
  Y  Y0  1  0.000722  0.669034  0.252557  1
  Y  Y1  1  0.005861  0.334815  0.749774  1
  Y  Y2  1  0.677430  0.006398  0.251404  1
  Y  Y3  1  0.319341  0.993000  0.746148  1
  Al  Al4  1  0.133931  0.133320  0.251383  1
  Al  Al5  1  0.867795  0.865734  0.751023  1
  Al  Al6  1  0.659784  0.994900  0.579398  1
  Al  Al7  1  0.656043  0.995632  0.922653  1
  Al  Al8  1  0.344801  0.005404  0.072611  1
  Al  Al9  1  0.340279  0.339076  0.557498  1
  Al  Al10  1  0.658341  0.662727  0.441682  1
  Al  Al11  1  0.659256  0.663662  0.056859  1
  Al  Al12  1  0.341325  0.337043  0.942125  1
  Al  Al13  1  0.337674  0.549721  0.249760  1
  Al  Al14  1  0.660298  0.446721  0.750282  1
  Al  Al15  1  0.548753  0.343162  0.249056  1
  Al  Al16  1  0.450641  0.658670  0.749239  1
  Si  Si17  1  0.002971  0.338111  0.067855  1
  Si  Si18  1  0.996089  0.661072  0.932084  1
  Si  Si19  1  0.988821  0.656055  0.572060  1
  Si  Si20  1  0.349932  0.008416  0.424530  1
  Si  Si21  1  0.003297  0.338435  0.430372  1
  Os  Os22  1  0.688344  0.336025  0.002357  1
  Os  Os23  1  0.311270  0.663823  0.998535  1
  Os  Os24  1  0.310209  0.672941  0.499893  1
  Os  Os25  1  0.681097  0.328423  0.497431  1
  Pd  Pd26  1  0.000503  0.999663  0.001399  1
  Pd  Pd27  1  0.005193  0.998015  0.500032  1
