# generated using pymatgen
data_BaBi2F12
_symmetry_space_group_name_H-M   'P 1'
_cell_length_a   5.91870651
_cell_length_b   5.98945423
_cell_length_c   9.62668268
_cell_angle_alpha   96.81649658
_cell_angle_beta   97.82678874
_cell_angle_gamma   118.35391951
_symmetry_Int_Tables_number   1
_chemical_formula_structural   BaBi2F12
_chemical_formula_sum   'Ba1 Bi2 F12'
_cell_volume   290.87043638
_cell_formula_units_Z   1
loop_
 _symmetry_equiv_pos_site_id
 _symmetry_equiv_pos_as_xyz
  1  'x, y, z'
loop_
 _atom_site_type_symbol
 _atom_site_label
 _atom_site_symmetry_multiplicity
 _atom_site_fract_x
 _atom_site_fract_y
 _atom_site_fract_z
 _atom_site_occupancy
  Ba  Ba0  1  0.006045  0.975023  0.920961  1
  Bi  Bi1  1  0.203542  0.498614  0.584722  1
  Bi  Bi2  1  0.390530  0.694901  0.152344  1
  F  F3  1  0.277422  0.955232  0.216585  1
  F  F4  1  0.567610  0.661805  0.726540  1
  F  F5  1  0.062881  0.567576  0.984155  1
  F  F6  1  0.142865  0.358794  0.208722  1
  F  F7  1  0.467359  0.446623  0.021254  1
  F  F8  1  0.276457  0.229216  0.489362  1
  F  F9  1  0.739238  0.821502  0.285552  1
  F  F10  1  0.161401  0.776652  0.711886  1
  F  F11  1  0.838474  0.356352  0.464843  1
  F  F12  1  0.046557  0.260243  0.727555  1
  F  F13  1  0.375829  0.753504  0.457202  1
  F  F14  1  0.591790  0.953963  0.026315  1
