# generated using pymatgen
data_Zr6Tl4FeCl18
_symmetry_space_group_name_H-M   'P 1'
_cell_length_a   10.24439072
_cell_length_b   10.40911770
_cell_length_c   10.53957100
_cell_angle_alpha   118.35878765
_cell_angle_beta   100.08973324
_cell_angle_gamma   104.47525459
_symmetry_Int_Tables_number   1
_chemical_formula_structural   Zr6Tl4FeCl18
_chemical_formula_sum   'Zr6 Tl4 Fe1 Cl18'
_cell_volume   898.83634286
_cell_formula_units_Z   1
loop_
 _symmetry_equiv_pos_site_id
 _symmetry_equiv_pos_as_xyz
  1  'x, y, z'
loop_
 _atom_site_type_symbol
 _atom_site_label
 _atom_site_symmetry_multiplicity
 _atom_site_fract_x
 _atom_site_fract_y
 _atom_site_fract_z
 _atom_site_occupancy
  Zr  Zr0  1  0.158098  0.059225  0.240023  1
  Zr  Zr1  1  0.841902  0.940775  0.759977  1
  Zr  Zr2  1  0.855471  0.131314  0.138110  1
  Zr  Zr3  1  0.144529  0.868686  0.861890  1
  Zr  Zr4  1  0.153068  0.249658  0.046852  1
  Zr  Zr5  1  0.846932  0.750342  0.953148  1
  Tl  Tl6  1  0.651342  0.536256  0.224806  1
  Tl  Tl7  1  0.348658  0.463744  0.775194  1
  Tl  Tl8  1  0.684564  0.226853  0.562363  1
  Tl  Tl9  1  0.315436  0.773147  0.437637  1
  Fe  Fe10  1  0.000000  0.000000  0.000000  1
  Cl  Cl11  1  0.011045  0.404616  0.193914  1
  Cl  Cl12  1  0.988955  0.595384  0.806086  1
  Cl  Cl13  1  0.327065  0.330715  0.306551  1
  Cl  Cl14  1  0.672935  0.669285  0.693449  1
  Cl  Cl15  1  0.330275  0.521482  0.102326  1
  Cl  Cl16  1  0.669725  0.478518  0.897674  1
  Cl  Cl17  1  0.003116  0.797740  0.205348  1
  Cl  Cl18  1  0.996884  0.202260  0.794652  1
  Cl  Cl19  1  0.705946  0.276713  0.290176  1
  Cl  Cl20  1  0.294054  0.723287  0.709824  1
  Cl  Cl21  1  0.313969  0.127364  0.904840  1
  Cl  Cl22  1  0.686031  0.872636  0.095160  1
  Cl  Cl23  1  0.016062  0.200421  0.400020  1
  Cl  Cl24  1  0.983938  0.799579  0.599980  1
  Cl  Cl25  1  0.315624  0.923122  0.107791  1
  Cl  Cl26  1  0.684376  0.076878  0.892209  1
  Cl  Cl27  1  0.338798  0.122856  0.500088  1
  Cl  Cl28  1  0.661202  0.877144  0.499912  1
