# generated using pymatgen
data_Mg3P6IN12
_symmetry_space_group_name_H-M   'P 1'
_cell_length_a   7.33869671
_cell_length_b   7.33869598
_cell_length_c   7.33869677
_cell_angle_alpha   109.57235735
_cell_angle_beta   109.57235546
_cell_angle_gamma   109.57233443
_symmetry_Int_Tables_number   1
_chemical_formula_structural   Mg3P6IN12
_chemical_formula_sum   'Mg3 P6 I1 N12'
_cell_volume   303.10848399
_cell_formula_units_Z   1
loop_
 _symmetry_equiv_pos_site_id
 _symmetry_equiv_pos_as_xyz
  1  'x, y, z'
loop_
 _atom_site_type_symbol
 _atom_site_label
 _atom_site_symmetry_multiplicity
 _atom_site_fract_x
 _atom_site_fract_y
 _atom_site_fract_z
 _atom_site_occupancy
  Mg  Mg0  1  0.003764  0.382263  0.003764  1
  Mg  Mg1  1  0.003764  0.003764  0.382263  1
  Mg  Mg2  1  0.382263  0.003764  0.003764  1
  P  P3  1  0.500274  0.253436  0.748930  1
  P  P4  1  0.253436  0.748930  0.500274  1
  P  P5  1  0.748930  0.500274  0.253436  1
  P  P6  1  0.748930  0.253436  0.500274  1
  P  P7  1  0.500274  0.748930  0.253436  1
  P  P8  1  0.253436  0.500274  0.748930  1
  I  I9  1  0.978074  0.978074  0.978074  1
  N  N10  1  0.422539  0.709830  0.422539  1
  N  N11  1  0.709830  0.422539  0.422539  1
  N  N12  1  0.422539  0.422539  0.709830  1
  N  N13  1  0.720734  0.287920  0.720734  1
  N  N14  1  0.999089  0.569892  0.282298  1
  N  N15  1  0.282298  0.569892  0.999089  1
  N  N16  1  0.282298  0.999089  0.569892  1
  N  N17  1  0.999089  0.282298  0.569892  1
  N  N18  1  0.720734  0.720734  0.287920  1
  N  N19  1  0.569892  0.999089  0.282298  1
  N  N20  1  0.287920  0.720734  0.720734  1
  N  N21  1  0.569892  0.282298  0.999089  1
