# generated using pymatgen
data_Er2ThZnPd5
_symmetry_space_group_name_H-M   'P 1'
_cell_length_a   8.33248700
_cell_length_b   8.33248829
_cell_length_c   13.15273000
_cell_angle_alpha   90.00000000
_cell_angle_beta   90.00000000
_cell_angle_gamma   127.83198934
_symmetry_Int_Tables_number   1
_chemical_formula_structural   Er2ThZnPd5
_chemical_formula_sum   'Er8 Th4 Zn4 Pd20'
_cell_volume   721.25588487
_cell_formula_units_Z   4
loop_
 _symmetry_equiv_pos_site_id
 _symmetry_equiv_pos_as_xyz
  1  'x, y, z'
loop_
 _atom_site_type_symbol
 _atom_site_label
 _atom_site_symmetry_multiplicity
 _atom_site_fract_x
 _atom_site_fract_y
 _atom_site_fract_z
 _atom_site_occupancy
  Er  Er0  1  0.629828  0.370172  0.460278  1
  Er  Er1  1  0.370172  0.629828  0.539722  1
  Er  Er2  1  0.629828  0.370172  0.039722  1
  Er  Er3  1  0.370172  0.629828  0.960278  1
  Er  Er4  1  0.880835  0.119165  0.948381  1
  Er  Er5  1  0.119165  0.880835  0.051619  1
  Er  Er6  1  0.880835  0.119165  0.551619  1
  Er  Er7  1  0.119165  0.880835  0.448381  1
  Th  Th8  1  0.933187  0.066813  0.250000  1
  Th  Th9  1  0.066813  0.933187  0.750000  1
  Th  Th10  1  0.317070  0.682930  0.250000  1
  Th  Th11  1  0.682930  0.317070  0.750000  1
  Zn  Zn12  1  0.718837  0.281163  0.250000  1
  Zn  Zn13  1  0.281163  0.718837  0.750000  1
  Zn  Zn14  1  0.534282  0.465718  0.250000  1
  Zn  Zn15  1  0.465718  0.534282  0.750000  1
  Pd  Pd16  1  0.318669  0.065618  0.250000  1
  Pd  Pd17  1  0.065618  0.318669  0.750000  1
  Pd  Pd18  1  0.681331  0.934382  0.750000  1
  Pd  Pd19  1  0.934382  0.681331  0.250000  1
  Pd  Pd20  1  0.566187  0.000849  0.396956  1
  Pd  Pd21  1  0.000849  0.566187  0.603044  1
  Pd  Pd22  1  0.566187  0.000849  0.103044  1
  Pd  Pd23  1  0.000849  0.566187  0.896956  1
  Pd  Pd24  1  0.433813  0.999151  0.603044  1
  Pd  Pd25  1  0.999151  0.433813  0.396956  1
  Pd  Pd26  1  0.433813  0.999151  0.896956  1
  Pd  Pd27  1  0.999151  0.433813  0.103044  1
  Pd  Pd28  1  0.688708  0.745205  0.394936  1
  Pd  Pd29  1  0.745205  0.688708  0.605064  1
  Pd  Pd30  1  0.688708  0.745205  0.105064  1
  Pd  Pd31  1  0.745205  0.688708  0.894936  1
  Pd  Pd32  1  0.311292  0.254795  0.605064  1
  Pd  Pd33  1  0.254795  0.311292  0.394936  1
  Pd  Pd34  1  0.311292  0.254795  0.894936  1
  Pd  Pd35  1  0.254795  0.311292  0.105064  1
