# generated using pymatgen
data_EuAsRhF
_symmetry_space_group_name_H-M   'P 1'
_cell_length_a   4.09038700
_cell_length_b   4.09038700
_cell_length_c   8.65681000
_cell_angle_alpha   89.99992488
_cell_angle_beta   89.99992488
_cell_angle_gamma   89.99994397
_symmetry_Int_Tables_number   1
_chemical_formula_structural   EuAsRhF
_chemical_formula_sum   'Eu2 As2 Rh2 F2'
_cell_volume   144.83938917
_cell_formula_units_Z   2
loop_
 _symmetry_equiv_pos_site_id
 _symmetry_equiv_pos_as_xyz
  1  'x, y, z'
loop_
 _atom_site_type_symbol
 _atom_site_label
 _atom_site_symmetry_multiplicity
 _atom_site_fract_x
 _atom_site_fract_y
 _atom_site_fract_z
 _atom_site_occupancy
  Eu  Eu0  1  0.250002  0.250002  0.169762  1
  Eu  Eu1  1  0.750003  0.750003  0.830128  1
  As  As2  1  0.750001  0.750001  0.336970  1
  As  As3  1  0.250001  0.250001  0.663222  1
  Rh  Rh4  1  0.750001  0.250001  0.500121  1
  Rh  Rh5  1  0.250001  0.750001  0.500121  1
  F  F6  1  0.750003  0.250004  0.999838  1
  F  F7  1  0.250004  0.750003  0.999838  1
