# generated using pymatgen
data_Tb4Er(Lu5Bi4)3
_symmetry_space_group_name_H-M   'P 1'
_cell_length_a   8.18345553
_cell_length_b   9.38972900
_cell_length_c   11.88471877
_cell_angle_alpha   90.00000000
_cell_angle_beta   90.04134483
_cell_angle_gamma   90.00000000
_symmetry_Int_Tables_number   1
_chemical_formula_structural   Tb4Er(Lu5Bi4)3
_chemical_formula_sum   'Tb4 Er1 Lu15 Bi12'
_cell_volume   913.22666008
_cell_formula_units_Z   1
loop_
 _symmetry_equiv_pos_site_id
 _symmetry_equiv_pos_as_xyz
  1  'x, y, z'
loop_
 _atom_site_type_symbol
 _atom_site_label
 _atom_site_symmetry_multiplicity
 _atom_site_fract_x
 _atom_site_fract_y
 _atom_site_fract_z
 _atom_site_occupancy
  Tb  Tb0  1  0.313315  0.250000  0.218168  1
  Tb  Tb1  1  0.812867  0.250000  0.282059  1
  Tb  Tb2  1  0.686950  0.750000  0.781898  1
  Tb  Tb3  1  0.186856  0.750000  0.718095  1
  Er  Er4  1  0.352628  0.750000  0.218071  1
  Lu  Lu5  1  0.852285  0.750000  0.281708  1
  Lu  Lu6  1  0.647559  0.250000  0.781673  1
  Lu  Lu7  1  0.147393  0.250000  0.718467  1
  Lu  Lu8  1  0.692977  0.567325  0.060124  1
  Lu  Lu9  1  0.192785  0.932841  0.440130  1
  Lu  Lu10  1  0.307023  0.067294  0.939794  1
  Lu  Lu11  1  0.807113  0.432731  0.560119  1
  Lu  Lu12  1  0.307023  0.432706  0.939794  1
  Lu  Lu13  1  0.807113  0.067269  0.560119  1
  Lu  Lu14  1  0.692977  0.932675  0.060124  1
  Lu  Lu15  1  0.192785  0.567159  0.440130  1
  Lu  Lu16  1  0.476599  0.250000  0.489145  1
  Lu  Lu17  1  0.976327  0.250000  0.010709  1
  Lu  Lu18  1  0.523804  0.750000  0.511046  1
  Lu  Lu19  1  0.023521  0.750000  0.989135  1
  Bi  Bi20  1  0.403949  0.750000  0.959282  1
  Bi  Bi21  1  0.903724  0.750000  0.539992  1
  Bi  Bi22  1  0.596194  0.250000  0.040121  1
  Bi  Bi23  1  0.096264  0.250000  0.459982  1
  Bi  Bi24  1  0.565895  0.994261  0.326229  1
  Bi  Bi25  1  0.065448  0.506054  0.173823  1
  Bi  Bi26  1  0.434321  0.493895  0.673899  1
  Bi  Bi27  1  0.934321  0.006245  0.826106  1
  Bi  Bi28  1  0.434321  0.006105  0.673899  1
  Bi  Bi29  1  0.934321  0.493755  0.826106  1
  Bi  Bi30  1  0.565895  0.505739  0.326229  1
  Bi  Bi31  1  0.065448  0.993946  0.173823  1
