# generated using pymatgen
data_TaNb2(Co3B2)3
_symmetry_space_group_name_H-M   'P 1'
_cell_length_a   5.63024206
_cell_length_b   5.63024292
_cell_length_c   5.63024163
_cell_angle_alpha   95.30603641
_cell_angle_beta   95.30602909
_cell_angle_gamma   95.30603310
_symmetry_Int_Tables_number   1
_chemical_formula_structural   TaNb2(Co3B2)3
_chemical_formula_sum   'Ta1 Nb2 Co9 B6'
_cell_volume   176.02923793
_cell_formula_units_Z   1
loop_
 _symmetry_equiv_pos_site_id
 _symmetry_equiv_pos_as_xyz
  1  'x, y, z'
loop_
 _atom_site_type_symbol
 _atom_site_label
 _atom_site_symmetry_multiplicity
 _atom_site_fract_x
 _atom_site_fract_y
 _atom_site_fract_z
 _atom_site_occupancy
  Ta  Ta0  1  0.000000  0.000000  0.000000  1
  Nb  Nb1  1  0.668281  0.668281  0.668281  1
  Nb  Nb2  1  0.331719  0.331719  0.331719  1
  Co  Co3  1  0.500000  0.000000  0.000000  1
  Co  Co4  1  0.000000  0.500000  0.000000  1
  Co  Co5  1  0.000000  0.000000  0.500000  1
  Co  Co6  1  0.700686  0.201901  0.700686  1
  Co  Co7  1  0.700686  0.700686  0.201901  1
  Co  Co8  1  0.201901  0.700686  0.700686  1
  Co  Co9  1  0.299314  0.798099  0.299314  1
  Co  Co10  1  0.299314  0.299314  0.798099  1
  Co  Co11  1  0.798099  0.299314  0.299314  1
  B  B12  1  0.384622  0.000000  0.615378  1
  B  B13  1  0.615378  0.384622  0.000000  1
  B  B14  1  0.000000  0.615378  0.384622  1
  B  B15  1  0.615378  0.000000  0.384622  1
  B  B16  1  0.384622  0.615378  0.000000  1
  B  B17  1  0.000000  0.384622  0.615378  1
