# generated using pymatgen
data_Er3LuCu3Sb8
_symmetry_space_group_name_H-M   'P 1'
_cell_length_a   10.50393028
_cell_length_b   10.51745133
_cell_length_c   10.50849326
_cell_angle_alpha   146.34375510
_cell_angle_beta   146.32142045
_cell_angle_gamma   48.37970479
_symmetry_Int_Tables_number   1
_chemical_formula_structural   Er3LuCu3Sb8
_chemical_formula_sum   'Er3 Lu1 Cu3 Sb8'
_cell_volume   355.24741721
_cell_formula_units_Z   1
loop_
 _symmetry_equiv_pos_site_id
 _symmetry_equiv_pos_as_xyz
  1  'x, y, z'
loop_
 _atom_site_type_symbol
 _atom_site_label
 _atom_site_symmetry_multiplicity
 _atom_site_fract_x
 _atom_site_fract_y
 _atom_site_fract_z
 _atom_site_occupancy
  Er  Er0  1  0.633079  0.633225  0.509613  1
  Er  Er1  1  0.123466  0.123612  0.490387  1
  Er  Er2  1  0.876268  0.366664  0.000000  1
  Lu  Lu3  1  0.365717  0.876530  0.000000  1
  Cu  Cu4  1  0.002811  0.998650  0.000000  1
  Cu  Cu5  1  0.001356  0.502496  0.502583  1
  Cu  Cu6  1  0.498773  0.999913  0.497417  1
  Sb  Sb7  1  0.335667  0.336642  0.517499  1
  Sb  Sb8  1  0.818168  0.819142  0.482501  1
  Sb  Sb9  1  0.666318  0.180777  0.000000  1
  Sb  Sb10  1  0.180778  0.664508  0.000000  1
  Sb  Sb11  1  0.250198  0.249566  0.000000  1
  Sb  Sb12  1  0.748688  0.749423  0.000000  1
  Sb  Sb13  1  0.748945  0.249014  0.499177  1
  Sb  Sb14  1  0.249768  0.749837  0.500823  1
