# generated using pymatgen
data_Yb2Dy2Ir3RuO14
_symmetry_space_group_name_H-M   'P 1'
_cell_length_a   7.21256693
_cell_length_b   7.23713901
_cell_length_c   7.20688870
_cell_angle_alpha   60.09014576
_cell_angle_beta   59.97392539
_cell_angle_gamma   60.11224679
_symmetry_Int_Tables_number   1
_chemical_formula_structural   Yb2Dy2Ir3RuO14
_chemical_formula_sum   'Yb2 Dy2 Ir3 Ru1 O14'
_cell_volume   266.35830258
_cell_formula_units_Z   1
loop_
 _symmetry_equiv_pos_site_id
 _symmetry_equiv_pos_as_xyz
  1  'x, y, z'
loop_
 _atom_site_type_symbol
 _atom_site_label
 _atom_site_symmetry_multiplicity
 _atom_site_fract_x
 _atom_site_fract_y
 _atom_site_fract_z
 _atom_site_occupancy
  Yb  Yb0  1  0.125000  0.125000  0.625000  1
  Yb  Yb1  1  0.125000  0.625000  0.125000  1
  Dy  Dy2  1  0.625000  0.125000  0.125000  1
  Dy  Dy3  1  0.125000  0.125000  0.125000  1
  Ir  Ir4  1  0.625000  0.625000  0.125000  1
  Ir  Ir5  1  0.125000  0.625000  0.625000  1
  Ir  Ir6  1  0.625000  0.625000  0.625000  1
  Ru  Ru7  1  0.625000  0.125000  0.625000  1
  O  O8  1  0.254528  0.245583  0.245360  1
  O  O9  1  0.995472  0.004417  0.004640  1
  O  O10  1  0.293353  0.712144  0.292217  1
  O  O11  1  0.549280  0.954790  0.542234  1
  O  O12  1  0.296304  0.295210  0.707766  1
  O  O13  1  0.706334  0.293805  0.293527  1
  O  O14  1  0.295953  0.705223  0.702872  1
  O  O15  1  0.702286  0.712144  0.292217  1
  O  O16  1  0.700720  0.295210  0.707766  1
  O  O17  1  0.954047  0.544777  0.547128  1
  O  O18  1  0.543666  0.956195  0.956473  1
  O  O19  1  0.956647  0.537856  0.957783  1
  O  O20  1  0.547714  0.537856  0.957783  1
  O  O21  1  0.953696  0.954790  0.542234  1
