# generated using pymatgen
data_Hf2InCo5B2
_symmetry_space_group_name_H-M   'P 1'
_cell_length_a   8.77856400
_cell_length_b   8.77856400
_cell_length_c   3.14299700
_cell_angle_alpha   90.00000000
_cell_angle_beta   90.00000000
_cell_angle_gamma   90.00000000
_symmetry_Int_Tables_number   1
_chemical_formula_structural   Hf2InCo5B2
_chemical_formula_sum   'Hf4 In2 Co10 B4'
_cell_volume   242.20936210
_cell_formula_units_Z   2
loop_
 _symmetry_equiv_pos_site_id
 _symmetry_equiv_pos_as_xyz
  1  'x, y, z'
loop_
 _atom_site_type_symbol
 _atom_site_label
 _atom_site_symmetry_multiplicity
 _atom_site_fract_x
 _atom_site_fract_y
 _atom_site_fract_z
 _atom_site_occupancy
  Hf  Hf0  1  0.823683  0.323683  0.000000  1
  Hf  Hf1  1  0.323683  0.176317  0.000000  1
  Hf  Hf2  1  0.676317  0.823683  0.000000  1
  Hf  Hf3  1  0.176317  0.676317  0.000000  1
  In  In4  1  0.000000  0.000000  0.000000  1
  In  In5  1  0.500000  0.500000  0.000000  1
  Co  Co6  1  0.500000  0.000000  0.500000  1
  Co  Co7  1  0.000000  0.500000  0.500000  1
  Co  Co8  1  0.069714  0.231671  0.500000  1
  Co  Co9  1  0.231671  0.930286  0.500000  1
  Co  Co10  1  0.768329  0.069714  0.500000  1
  Co  Co11  1  0.930286  0.768329  0.500000  1
  Co  Co12  1  0.430286  0.731671  0.500000  1
  Co  Co13  1  0.569714  0.268329  0.500000  1
  Co  Co14  1  0.731671  0.569714  0.500000  1
  Co  Co15  1  0.268329  0.430286  0.500000  1
  B  B16  1  0.618070  0.118070  0.000000  1
  B  B17  1  0.118070  0.381930  0.000000  1
  B  B18  1  0.881930  0.618070  0.000000  1
  B  B19  1  0.381930  0.881930  0.000000  1
