# generated using pymatgen
data_Ta6VGaS12
_symmetry_space_group_name_H-M   'P 1'
_cell_length_a   5.79212900
_cell_length_b   5.79212937
_cell_length_c   13.56643400
_cell_angle_alpha   90.00000000
_cell_angle_beta   90.00000000
_cell_angle_gamma   120.00000357
_symmetry_Int_Tables_number   1
_chemical_formula_structural   Ta6VGaS12
_chemical_formula_sum   'Ta6 V1 Ga1 S12'
_cell_volume   394.16022935
_cell_formula_units_Z   1
loop_
 _symmetry_equiv_pos_site_id
 _symmetry_equiv_pos_as_xyz
  1  'x, y, z'
loop_
 _atom_site_type_symbol
 _atom_site_label
 _atom_site_symmetry_multiplicity
 _atom_site_fract_x
 _atom_site_fract_y
 _atom_site_fract_z
 _atom_site_occupancy
  Ta  Ta0  1  0.000000  0.000000  0.524469  1
  Ta  Ta1  1  0.000000  0.000000  0.975531  1
  Ta  Ta2  1  0.333333  0.666667  0.974255  1
  Ta  Ta3  1  0.666667  0.333333  0.977331  1
  Ta  Ta4  1  0.666667  0.333333  0.522669  1
  Ta  Ta5  1  0.333333  0.666667  0.525745  1
  V  V6  1  0.666667  0.333333  0.750000  1
  Ga  Ga7  1  0.333333  0.666667  0.250000  1
  S  S8  1  0.331621  0.334791  0.409396  1
  S  S9  1  0.665209  0.996830  0.409396  1
  S  S10  1  0.003170  0.668379  0.409396  1
  S  S11  1  0.334713  0.332453  0.639826  1
  S  S12  1  0.997740  0.665287  0.639826  1
  S  S13  1  0.667547  0.002260  0.639826  1
  S  S14  1  0.667547  0.665287  0.860174  1
  S  S15  1  0.334713  0.002260  0.860174  1
  S  S16  1  0.997740  0.332453  0.860174  1
  S  S17  1  0.665209  0.668379  0.090604  1
  S  S18  1  0.003170  0.334791  0.090604  1
  S  S19  1  0.331621  0.996830  0.090604  1
