# generated using pymatgen
data_Tb4YBi2Ir
_symmetry_space_group_name_H-M   'P 1'
_cell_length_a   8.04997900
_cell_length_b   9.02315200
_cell_length_c   12.53772800
_cell_angle_alpha   90.00000000
_cell_angle_beta   90.00000000
_cell_angle_gamma   90.00000000
_symmetry_Int_Tables_number   1
_chemical_formula_structural   Tb4YBi2Ir
_chemical_formula_sum   'Tb16 Y4 Bi8 Ir4'
_cell_volume   910.69271938
_cell_formula_units_Z   4
loop_
 _symmetry_equiv_pos_site_id
 _symmetry_equiv_pos_as_xyz
  1  'x, y, z'
loop_
 _atom_site_type_symbol
 _atom_site_label
 _atom_site_symmetry_multiplicity
 _atom_site_fract_x
 _atom_site_fract_y
 _atom_site_fract_z
 _atom_site_occupancy
  Tb  Tb0  1  0.376490  0.750000  0.694572  1
  Tb  Tb1  1  0.623510  0.250000  0.305428  1
  Tb  Tb2  1  0.876490  0.250000  0.805428  1
  Tb  Tb3  1  0.123510  0.750000  0.194572  1
  Tb  Tb4  1  0.947034  0.750000  0.501122  1
  Tb  Tb5  1  0.052966  0.250000  0.498878  1
  Tb  Tb6  1  0.447034  0.250000  0.998878  1
  Tb  Tb7  1  0.552966  0.750000  0.001122  1
  Tb  Tb8  1  0.677065  0.041325  0.565677  1
  Tb  Tb9  1  0.322935  0.958675  0.434323  1
  Tb  Tb10  1  0.177065  0.958675  0.934323  1
  Tb  Tb11  1  0.322935  0.541325  0.434323  1
  Tb  Tb12  1  0.822935  0.041325  0.065677  1
  Tb  Tb13  1  0.677065  0.458675  0.565677  1
  Tb  Tb14  1  0.822935  0.458675  0.065677  1
  Tb  Tb15  1  0.177065  0.541325  0.934323  1
  Y  Y16  1  0.840560  0.750000  0.792476  1
  Y  Y17  1  0.159440  0.250000  0.207524  1
  Y  Y18  1  0.340560  0.250000  0.707524  1
  Y  Y19  1  0.659440  0.750000  0.292476  1
  Bi  Bi20  1  0.569826  0.490965  0.827085  1
  Bi  Bi21  1  0.430174  0.509035  0.172915  1
  Bi  Bi22  1  0.069826  0.509035  0.672915  1
  Bi  Bi23  1  0.430174  0.990965  0.172915  1
  Bi  Bi24  1  0.930174  0.490965  0.327085  1
  Bi  Bi25  1  0.569826  0.009035  0.827085  1
  Bi  Bi26  1  0.930174  0.009035  0.327085  1
  Bi  Bi27  1  0.069826  0.990965  0.672915  1
  Ir  Ir28  1  0.569867  0.750000  0.509810  1
  Ir  Ir29  1  0.430133  0.250000  0.490190  1
  Ir  Ir30  1  0.069867  0.250000  0.990190  1
  Ir  Ir31  1  0.930133  0.750000  0.009810  1
