# generated using pymatgen
data_KGeSbPt2
_symmetry_space_group_name_H-M   'P 1'
_cell_length_a   4.58748403
_cell_length_b   4.58748442
_cell_length_c   6.99601800
_cell_angle_alpha   102.59109645
_cell_angle_beta   102.59109753
_cell_angle_gamma   100.82186494
_symmetry_Int_Tables_number   1
_chemical_formula_structural   KGeSbPt2
_chemical_formula_sum   'K1 Ge1 Sb1 Pt2'
_cell_volume   135.88916581
_cell_formula_units_Z   1
loop_
 _symmetry_equiv_pos_site_id
 _symmetry_equiv_pos_as_xyz
  1  'x, y, z'
loop_
 _atom_site_type_symbol
 _atom_site_label
 _atom_site_symmetry_multiplicity
 _atom_site_fract_x
 _atom_site_fract_y
 _atom_site_fract_z
 _atom_site_occupancy
  K  K0  1  0.988693  0.988693  0.989032  1
  Ge  Ge1  1  0.379863  0.379863  0.658657  1
  Sb  Sb2  1  0.615454  0.615454  0.321020  1
  Pt  Pt3  1  0.803791  0.212197  0.515645  1
  Pt  Pt4  1  0.212197  0.803791  0.515645  1
