# generated using pymatgen
data_Nd7Y(Tm3Pt4)4
_symmetry_space_group_name_H-M   'P 1'
_cell_length_a   7.53804301
_cell_length_b   7.63262411
_cell_length_c   14.65999800
_cell_angle_alpha   90.00313780
_cell_angle_beta   90.02962824
_cell_angle_gamma   90.04252380
_symmetry_Int_Tables_number   1
_chemical_formula_structural   Nd7Y(Tm3Pt4)4
_chemical_formula_sum   'Nd7 Y1 Tm12 Pt16'
_cell_volume   843.46335445
_cell_formula_units_Z   1
loop_
 _symmetry_equiv_pos_site_id
 _symmetry_equiv_pos_as_xyz
  1  'x, y, z'
loop_
 _atom_site_type_symbol
 _atom_site_label
 _atom_site_symmetry_multiplicity
 _atom_site_fract_x
 _atom_site_fract_y
 _atom_site_fract_z
 _atom_site_occupancy
  Nd  Nd0  1  0.500609  0.678479  0.593465  1
  Nd  Nd1  1  0.999701  0.822940  0.905935  1
  Nd  Nd2  1  0.499428  0.323174  0.093921  1
  Nd  Nd3  1  0.999961  0.174973  0.407328  1
  Nd  Nd4  1  0.499415  0.323206  0.406089  1
  Nd  Nd5  1  0.999719  0.177327  0.093570  1
  Nd  Nd6  1  0.500528  0.677158  0.905670  1
  Y  Y7  1  0.001837  0.820905  0.594959  1
  Tm  Tm8  1  0.658925  0.166082  0.622772  1
  Tm  Tm9  1  0.156724  0.332126  0.875767  1
  Tm  Tm10  1  0.342930  0.832648  0.123511  1
  Tm  Tm11  1  0.844693  0.668470  0.377565  1
  Tm  Tm12  1  0.342633  0.833089  0.376864  1
  Tm  Tm13  1  0.842859  0.666948  0.123778  1
  Tm  Tm14  1  0.657114  0.167181  0.875853  1
  Tm  Tm15  1  0.156737  0.332660  0.623346  1
  Tm  Tm16  1  0.820176  0.508824  0.749032  1
  Tm  Tm17  1  0.319500  0.991786  0.748786  1
  Tm  Tm18  1  0.179506  0.491774  0.250333  1
  Tm  Tm19  1  0.679871  0.008230  0.250242  1
  Pt  Pt20  1  0.678541  0.961216  0.458459  1
  Pt  Pt21  1  0.178291  0.537116  0.042964  1
  Pt  Pt22  1  0.322178  0.037358  0.956656  1
  Pt  Pt23  1  0.823851  0.467169  0.544896  1
  Pt  Pt24  1  0.316188  0.033672  0.544144  1
  Pt  Pt25  1  0.822456  0.462625  0.956615  1
  Pt  Pt26  1  0.677991  0.962612  0.042994  1
  Pt  Pt27  1  0.177769  0.539801  0.458162  1
  Pt  Pt28  1  0.453279  0.377206  0.749595  1
  Pt  Pt29  1  0.954926  0.121125  0.748913  1
  Pt  Pt30  1  0.546072  0.623717  0.250343  1
  Pt  Pt31  1  0.045991  0.876579  0.250030  1
  Pt  Pt32  1  0.687533  0.862193  0.748912  1
  Pt  Pt33  1  0.183476  0.639431  0.748046  1
  Pt  Pt34  1  0.314129  0.137747  0.250125  1
  Pt  Pt35  1  0.814464  0.362457  0.250361  1
