# generated using pymatgen
data_LaTbSbI2
_symmetry_space_group_name_H-M   'P 1'
_cell_length_a   4.46671800
_cell_length_b   4.46671691
_cell_length_c   11.26859100
_cell_angle_alpha   90.00000000
_cell_angle_beta   90.00000000
_cell_angle_gamma   120.00000808
_symmetry_Int_Tables_number   1
_chemical_formula_structural   LaTbSbI2
_chemical_formula_sum   'La1 Tb1 Sb1 I2'
_cell_volume   194.70503216
_cell_formula_units_Z   1
loop_
 _symmetry_equiv_pos_site_id
 _symmetry_equiv_pos_as_xyz
  1  'x, y, z'
loop_
 _atom_site_type_symbol
 _atom_site_label
 _atom_site_symmetry_multiplicity
 _atom_site_fract_x
 _atom_site_fract_y
 _atom_site_fract_z
 _atom_site_occupancy
  La  La0  1  0.666667  0.333333  0.845014  1
  Tb  Tb1  1  0.333333  0.666667  0.156382  1
  Sb  Sb2  1  0.000000  0.000000  0.010342  1
  I  I3  1  0.333333  0.666667  0.662524  1
  I  I4  1  0.666667  0.333333  0.325739  1
