# generated using pymatgen
data_Tm5Lu3(HfGa5)4
_symmetry_space_group_name_H-M   'P 1'
_cell_length_a   5.84881708
_cell_length_b   9.35503001
_cell_length_c   11.33007916
_cell_angle_alpha   89.99552290
_cell_angle_beta   89.98139353
_cell_angle_gamma   89.99611238
_symmetry_Int_Tables_number   1
_chemical_formula_structural   Tm5Lu3(HfGa5)4
_chemical_formula_sum   'Tm5 Lu3 Hf4 Ga20'
_cell_volume   619.93498135
_cell_formula_units_Z   1
loop_
 _symmetry_equiv_pos_site_id
 _symmetry_equiv_pos_as_xyz
  1  'x, y, z'
loop_
 _atom_site_type_symbol
 _atom_site_label
 _atom_site_symmetry_multiplicity
 _atom_site_fract_x
 _atom_site_fract_y
 _atom_site_fract_z
 _atom_site_occupancy
  Tm  Tm0  1  0.885890  0.500656  0.352922  1
  Tm  Tm1  1  0.614023  0.999339  0.853114  1
  Tm  Tm2  1  0.114058  0.000604  0.646902  1
  Tm  Tm3  1  0.386005  0.499352  0.146903  1
  Tm  Tm4  1  0.113992  0.499417  0.647163  1
  Lu  Lu5  1  0.386145  0.000628  0.147122  1
  Lu  Lu6  1  0.886094  0.999417  0.352830  1
  Lu  Lu7  1  0.613909  0.500616  0.853001  1
  Hf  Hf8  1  0.857135  0.749950  0.071851  1
  Hf  Hf9  1  0.642605  0.750107  0.571748  1
  Hf  Hf10  1  0.142869  0.249905  0.928236  1
  Hf  Hf11  1  0.357232  0.249973  0.428114  1
  Ga  Ga12  1  0.875252  0.052263  0.090807  1
  Ga  Ga13  1  0.624542  0.447621  0.590671  1
  Ga  Ga14  1  0.124758  0.552323  0.909444  1
  Ga  Ga15  1  0.375230  0.947756  0.409203  1
  Ga  Ga16  1  0.124673  0.947561  0.909666  1
  Ga  Ga17  1  0.375419  0.552475  0.409571  1
  Ga  Ga18  1  0.875397  0.447552  0.090327  1
  Ga  Ga19  1  0.624617  0.052388  0.590345  1
  Ga  Ga20  1  0.151346  0.750473  0.256491  1
  Ga  Ga21  1  0.348882  0.749790  0.756696  1
  Ga  Ga22  1  0.848468  0.250252  0.743571  1
  Ga  Ga23  1  0.651384  0.249516  0.243492  1
  Ga  Ga24  1  0.396426  0.750272  0.998705  1
  Ga  Ga25  1  0.103517  0.750141  0.498365  1
  Ga  Ga26  1  0.603607  0.250250  0.001322  1
  Ga  Ga27  1  0.896248  0.249694  0.501258  1
  Ga  Ga28  1  0.614689  0.750410  0.293430  1
  Ga  Ga29  1  0.885252  0.749646  0.793451  1
  Ga  Ga30  1  0.385672  0.250082  0.706674  1
  Ga  Ga31  1  0.114665  0.249571  0.206604  1
