# generated using pymatgen
data_Ta4Mo2RuW
_symmetry_space_group_name_H-M   'P 1'
_cell_length_a   6.41278700
_cell_length_b   4.57445700
_cell_length_c   9.12874100
_cell_angle_alpha   90.00000000
_cell_angle_beta   90.00003456
_cell_angle_gamma   90.00000000
_symmetry_Int_Tables_number   1
_chemical_formula_structural   Ta4Mo2RuW
_chemical_formula_sum   'Ta8 Mo4 Ru2 W2'
_cell_volume   267.79178504
_cell_formula_units_Z   2
loop_
 _symmetry_equiv_pos_site_id
 _symmetry_equiv_pos_as_xyz
  1  'x, y, z'
loop_
 _atom_site_type_symbol
 _atom_site_label
 _atom_site_symmetry_multiplicity
 _atom_site_fract_x
 _atom_site_fract_y
 _atom_site_fract_z
 _atom_site_occupancy
  Ta  Ta0  1  0.499531  0.750000  0.123761  1
  Ta  Ta1  1  0.000503  0.750000  0.123765  1
  Ta  Ta2  1  0.500489  0.250000  0.376238  1
  Ta  Ta3  1  0.999550  0.250000  0.376243  1
  Ta  Ta4  1  0.999670  0.750000  0.626441  1
  Ta  Ta5  1  0.500289  0.750000  0.626440  1
  Ta  Ta6  1  0.000313  0.250000  0.873550  1
  Ta  Ta7  1  0.499657  0.250000  0.873551  1
  Mo  Mo8  1  0.750016  0.250000  0.124195  1
  Mo  Mo9  1  0.250017  0.750000  0.375814  1
  Mo  Mo10  1  0.749981  0.250000  0.625992  1
  Mo  Mo11  1  0.249981  0.750000  0.874004  1
  Ru  Ru12  1  0.249984  0.250000  0.626933  1
  Ru  Ru13  1  0.749985  0.750000  0.873061  1
  W  W14  1  0.250015  0.250000  0.123334  1
  W  W15  1  0.750016  0.750000  0.376674  1
