# generated using pymatgen
data_TmTh7(CoSi3)4
_symmetry_space_group_name_H-M   'P 1'
_cell_length_a   8.04395600
_cell_length_b   8.04395666
_cell_length_c   8.36805500
_cell_angle_alpha   90.00000000
_cell_angle_beta   90.00000000
_cell_angle_gamma   119.99999730
_symmetry_Int_Tables_number   1
_chemical_formula_structural   TmTh7(CoSi3)4
_chemical_formula_sum   'Tm1 Th7 Co4 Si12'
_cell_volume   468.91548815
_cell_formula_units_Z   1
loop_
 _symmetry_equiv_pos_site_id
 _symmetry_equiv_pos_as_xyz
  1  'x, y, z'
loop_
 _atom_site_type_symbol
 _atom_site_label
 _atom_site_symmetry_multiplicity
 _atom_site_fract_x
 _atom_site_fract_y
 _atom_site_fract_z
 _atom_site_occupancy
  Tm  Tm0  1  0.000000  0.000000  0.750000  1
  Th  Th1  1  0.500291  0.000581  0.250000  1
  Th  Th2  1  0.499739  0.999479  0.750000  1
  Th  Th3  1  0.999419  0.499709  0.250000  1
  Th  Th4  1  0.000521  0.500261  0.750000  1
  Th  Th5  1  0.500291  0.499709  0.250000  1
  Th  Th6  1  0.499739  0.500261  0.750000  1
  Th  Th7  1  0.000000  0.000000  0.250000  1
  Co  Co8  1  0.333333  0.666667  0.001418  1
  Co  Co9  1  0.666667  0.333333  0.998753  1
  Co  Co10  1  0.666667  0.333333  0.501247  1
  Co  Co11  1  0.333333  0.666667  0.498582  1
  Si  Si12  1  0.170455  0.340909  0.997962  1
  Si  Si13  1  0.829561  0.659121  0.997185  1
  Si  Si14  1  0.659091  0.829545  0.997962  1
  Si  Si15  1  0.829561  0.659121  0.502815  1
  Si  Si16  1  0.340879  0.170439  0.997185  1
  Si  Si17  1  0.170455  0.340909  0.502038  1
  Si  Si18  1  0.170455  0.829545  0.997962  1
  Si  Si19  1  0.340879  0.170439  0.502815  1
  Si  Si20  1  0.829561  0.170439  0.997185  1
  Si  Si21  1  0.659091  0.829545  0.502038  1
  Si  Si22  1  0.829561  0.170439  0.502815  1
  Si  Si23  1  0.170455  0.829545  0.502038  1
