# generated using pymatgen
data_Y2Nb3Co9As3P4
_symmetry_space_group_name_H-M   'P 1'
_cell_length_a   3.74651400
_cell_length_b   9.37371721
_cell_length_c   9.37371700
_cell_angle_alpha   120.00000280
_cell_angle_beta   90.00000000
_cell_angle_gamma   90.00000000
_symmetry_Int_Tables_number   1
_chemical_formula_structural   Y2Nb3Co9As3P4
_chemical_formula_sum   'Y2 Nb3 Co9 As3 P4'
_cell_volume   285.08979009
_cell_formula_units_Z   1
loop_
 _symmetry_equiv_pos_site_id
 _symmetry_equiv_pos_as_xyz
  1  'x, y, z'
loop_
 _atom_site_type_symbol
 _atom_site_label
 _atom_site_symmetry_multiplicity
 _atom_site_fract_x
 _atom_site_fract_y
 _atom_site_fract_z
 _atom_site_occupancy
  Y  Y0  1  0.000000  0.666667  0.333333  1
  Y  Y1  1  0.500000  0.333333  0.666667  1
  Nb  Nb2  1  0.500000  0.777241  0.895404  1
  Nb  Nb3  1  0.500000  0.118163  0.222759  1
  Nb  Nb4  1  0.500000  0.104596  0.881837  1
  Co  Co5  1  0.000000  0.563512  0.929620  1
  Co  Co6  1  0.000000  0.366108  0.436488  1
  Co  Co7  1  0.000000  0.070380  0.633892  1
  Co  Co8  1  0.000000  0.884770  0.162642  1
  Co  Co9  1  0.000000  0.277872  0.115230  1
  Co  Co10  1  0.000000  0.837358  0.722128  1
  Co  Co11  1  0.500000  0.958239  0.388819  1
  Co  Co12  1  0.500000  0.430579  0.041761  1
  Co  Co13  1  0.500000  0.611181  0.569421  1
  As  As14  1  0.500000  0.709001  0.123998  1
  As  As15  1  0.500000  0.414998  0.290999  1
  As  As16  1  0.500000  0.876002  0.585002  1
  P  P17  1  0.000000  0.000000  0.000000  1
  P  P18  1  0.000000  0.580896  0.691850  1
  P  P19  1  0.000000  0.110955  0.419104  1
  P  P20  1  0.000000  0.308150  0.889045  1
