# generated using pymatgen
data_Lu8Sc12Si15Hg
_symmetry_space_group_name_H-M   'P 1'
_cell_length_a   7.06221024
_cell_length_b   7.32939948
_cell_length_c   13.95913489
_cell_angle_alpha   89.92635753
_cell_angle_beta   89.51739862
_cell_angle_gamma   90.14018428
_symmetry_Int_Tables_number   1
_chemical_formula_structural   Lu8Sc12Si15Hg
_chemical_formula_sum   'Lu8 Sc12 Si15 Hg1'
_cell_volume   722.52098159
_cell_formula_units_Z   1
loop_
 _symmetry_equiv_pos_site_id
 _symmetry_equiv_pos_as_xyz
  1  'x, y, z'
loop_
 _atom_site_type_symbol
 _atom_site_label
 _atom_site_symmetry_multiplicity
 _atom_site_fract_x
 _atom_site_fract_y
 _atom_site_fract_z
 _atom_site_occupancy
  Lu  Lu0  1  0.012516  0.176505  0.097157  1
  Lu  Lu1  1  0.987202  0.824141  0.904675  1
  Lu  Lu2  1  0.487117  0.677849  0.904160  1
  Lu  Lu3  1  0.988201  0.830289  0.597871  1
  Lu  Lu4  1  0.512300  0.322637  0.096543  1
  Lu  Lu5  1  0.008033  0.172150  0.398522  1
  Lu  Lu6  1  0.511378  0.321637  0.399287  1
  Lu  Lu7  1  0.496163  0.682136  0.599661  1
  Sc  Sc8  1  0.162428  0.502677  0.754052  1
  Sc  Sc9  1  0.837085  0.497258  0.250221  1
  Sc  Sc10  1  0.337676  0.002418  0.248962  1
  Sc  Sc11  1  0.664558  0.995020  0.751388  1
  Sc  Sc12  1  0.341163  0.167961  0.628777  1
  Sc  Sc13  1  0.664903  0.824796  0.372805  1
  Sc  Sc14  1  0.166944  0.678075  0.370764  1
  Sc  Sc15  1  0.669821  0.823755  0.124549  1
  Sc  Sc16  1  0.825674  0.324900  0.626062  1
  Sc  Sc17  1  0.328810  0.175053  0.876182  1
  Sc  Sc18  1  0.829955  0.322705  0.876288  1
  Sc  Sc19  1  0.169205  0.676985  0.125041  1
  Si  Si20  1  0.034467  0.117480  0.751505  1
  Si  Si21  1  0.965707  0.887060  0.247864  1
  Si  Si22  1  0.467056  0.612437  0.247880  1
  Si  Si23  1  0.532821  0.388677  0.752083  1
  Si  Si24  1  0.284333  0.869135  0.751770  1
  Si  Si25  1  0.713382  0.131125  0.247890  1
  Si  Si26  1  0.213597  0.368101  0.247872  1
  Si  Si27  1  0.788050  0.631074  0.752722  1
  Si  Si28  1  0.830559  0.537111  0.459038  1
  Si  Si29  1  0.337182  0.963845  0.459694  1
  Si  Si30  1  0.841764  0.534690  0.038909  1
  Si  Si31  1  0.661644  0.036077  0.537540  1
  Si  Si32  1  0.158359  0.464549  0.962423  1
  Si  Si33  1  0.657749  0.033922  0.960799  1
  Si  Si34  1  0.341629  0.966006  0.039986  1
  Hg  Hg35  1  0.170571  0.459766  0.539059  1
