# generated using pymatgen
data_DyEr3Zn2(Co2B)6
_symmetry_space_group_name_H-M   'P 1'
_cell_length_a   5.06961700
_cell_length_b   5.06926902
_cell_length_c   12.60770900
_cell_angle_alpha   90.00000000
_cell_angle_beta   90.00000000
_cell_angle_gamma   119.97073950
_symmetry_Int_Tables_number   1
_chemical_formula_structural   DyEr3Zn2(Co2B)6
_chemical_formula_sum   'Dy1 Er3 Zn2 Co12 B6'
_cell_volume   280.68245955
_cell_formula_units_Z   1
loop_
 _symmetry_equiv_pos_site_id
 _symmetry_equiv_pos_as_xyz
  1  'x, y, z'
loop_
 _atom_site_type_symbol
 _atom_site_label
 _atom_site_symmetry_multiplicity
 _atom_site_fract_x
 _atom_site_fract_y
 _atom_site_fract_z
 _atom_site_occupancy
  Dy  Dy0  1  0.000000  0.000000  0.000000  1
  Er  Er1  1  0.000000  0.000000  0.500000  1
  Er  Er2  1  0.000000  0.000000  0.739078  1
  Er  Er3  1  0.000000  0.000000  0.260922  1
  Zn  Zn4  1  0.666398  0.333019  0.000000  1
  Zn  Zn5  1  0.333602  0.666981  0.000000  1
  Co  Co6  1  0.500000  0.500000  0.838420  1
  Co  Co7  1  0.500000  0.000000  0.838394  1
  Co  Co8  1  0.000000  0.500000  0.838404  1
  Co  Co9  1  0.500000  0.500000  0.161580  1
  Co  Co10  1  0.500000  0.000000  0.161606  1
  Co  Co11  1  0.000000  0.500000  0.161596  1
  Co  Co12  1  0.500000  0.500000  0.613787  1
  Co  Co13  1  0.500000  0.000000  0.613758  1
  Co  Co14  1  0.000000  0.500000  0.613775  1
  Co  Co15  1  0.500000  0.500000  0.386213  1
  Co  Co16  1  0.500000  0.000000  0.386242  1
  Co  Co17  1  0.000000  0.500000  0.386225  1
  B  B18  1  0.666667  0.333422  0.500000  1
  B  B19  1  0.333333  0.666578  0.500000  1
  B  B20  1  0.666666  0.333355  0.730215  1
  B  B21  1  0.333334  0.666645  0.730215  1
  B  B22  1  0.333334  0.666645  0.269785  1
  B  B23  1  0.666666  0.333355  0.269785  1
