# generated using pymatgen
data_Tb2Ho3Bi2Pt
_symmetry_space_group_name_H-M   'P 1'
_cell_length_a   8.07867900
_cell_length_b   9.04530400
_cell_length_c   12.43965000
_cell_angle_alpha   90.00000000
_cell_angle_beta   90.00000000
_cell_angle_gamma   90.00000000
_symmetry_Int_Tables_number   1
_chemical_formula_structural   Tb2Ho3Bi2Pt
_chemical_formula_sum   'Tb8 Ho12 Bi8 Pt4'
_cell_volume   909.01632103
_cell_formula_units_Z   4
loop_
 _symmetry_equiv_pos_site_id
 _symmetry_equiv_pos_as_xyz
  1  'x, y, z'
loop_
 _atom_site_type_symbol
 _atom_site_label
 _atom_site_symmetry_multiplicity
 _atom_site_fract_x
 _atom_site_fract_y
 _atom_site_fract_z
 _atom_site_occupancy
  Tb  Tb0  1  0.340069  0.750000  0.709944  1
  Tb  Tb1  1  0.659931  0.250000  0.290056  1
  Tb  Tb2  1  0.840069  0.250000  0.790056  1
  Tb  Tb3  1  0.159931  0.750000  0.209944  1
  Tb  Tb4  1  0.872596  0.750000  0.801446  1
  Tb  Tb5  1  0.127404  0.250000  0.198554  1
  Tb  Tb6  1  0.372596  0.250000  0.698554  1
  Tb  Tb7  1  0.627404  0.750000  0.301446  1
  Ho  Ho8  1  0.679749  0.545791  0.566227  1
  Ho  Ho9  1  0.320251  0.454209  0.433773  1
  Ho  Ho10  1  0.179749  0.454209  0.933773  1
  Ho  Ho11  1  0.320251  0.045791  0.433773  1
  Ho  Ho12  1  0.820251  0.545791  0.066227  1
  Ho  Ho13  1  0.679749  0.954209  0.566227  1
  Ho  Ho14  1  0.820251  0.954209  0.066227  1
  Ho  Ho15  1  0.179749  0.045791  0.933773  1
  Ho  Ho16  1  0.051325  0.750000  0.500182  1
  Ho  Ho17  1  0.948675  0.250000  0.499818  1
  Ho  Ho18  1  0.551325  0.250000  0.999818  1
  Ho  Ho19  1  0.448675  0.750000  0.000182  1
  Bi  Bi20  1  0.570123  0.509352  0.828670  1
  Bi  Bi21  1  0.429877  0.490648  0.171330  1
  Bi  Bi22  1  0.070123  0.490648  0.671330  1
  Bi  Bi23  1  0.429877  0.009352  0.171330  1
  Bi  Bi24  1  0.929877  0.509352  0.328670  1
  Bi  Bi25  1  0.570123  0.990648  0.828670  1
  Bi  Bi26  1  0.929877  0.990648  0.328670  1
  Bi  Bi27  1  0.070123  0.009352  0.671330  1
  Pt  Pt28  1  0.074249  0.750000  0.988398  1
  Pt  Pt29  1  0.925751  0.250000  0.011602  1
  Pt  Pt30  1  0.574249  0.250000  0.511602  1
  Pt  Pt31  1  0.425751  0.750000  0.488398  1
