# generated using pymatgen
data_Ce2Co3As4Rh
_symmetry_space_group_name_H-M   'P 1'
_cell_length_a   4.18994900
_cell_length_b   4.19014700
_cell_length_c   9.47492900
_cell_angle_alpha   90.00000000
_cell_angle_beta   90.00000000
_cell_angle_gamma   90.00000000
_symmetry_Int_Tables_number   1
_chemical_formula_structural   Ce2Co3As4Rh
_chemical_formula_sum   'Ce2 Co3 As4 Rh1'
_cell_volume   166.34661214
_cell_formula_units_Z   1
loop_
 _symmetry_equiv_pos_site_id
 _symmetry_equiv_pos_as_xyz
  1  'x, y, z'
loop_
 _atom_site_type_symbol
 _atom_site_label
 _atom_site_symmetry_multiplicity
 _atom_site_fract_x
 _atom_site_fract_y
 _atom_site_fract_z
 _atom_site_occupancy
  Ce  Ce0  1  0.000000  0.500000  0.254029  1
  Ce  Ce1  1  0.500000  0.000000  0.745982  1
  Co  Co2  1  0.000000  0.000000  0.000011  1
  Co  Co3  1  0.000000  0.500000  0.611696  1
  Co  Co4  1  0.500000  0.000000  0.388280  1
  As  As5  1  0.000000  0.000000  0.499991  1
  As  As6  1  0.500000  0.500000  0.499993  1
  As  As7  1  0.000000  0.500000  0.857325  1
  As  As8  1  0.500000  0.000000  0.142676  1
  Rh  Rh9  1  0.500000  0.500000  0.000016  1
