# generated using pymatgen
data_Tb2Y2Mg3(Ga5Rh2)3
_symmetry_space_group_name_H-M   'P 1'
_cell_length_a   7.67214878
_cell_length_b   7.67361337
_cell_length_c   9.52398603
_cell_angle_alpha   90.05442759
_cell_angle_beta   90.04986872
_cell_angle_gamma   119.80483290
_symmetry_Int_Tables_number   1
_chemical_formula_structural   Tb2Y2Mg3(Ga5Rh2)3
_chemical_formula_sum   'Tb2 Y2 Mg3 Ga15 Rh6'
_cell_volume   486.53752159
_cell_formula_units_Z   1
loop_
 _symmetry_equiv_pos_site_id
 _symmetry_equiv_pos_as_xyz
  1  'x, y, z'
loop_
 _atom_site_type_symbol
 _atom_site_label
 _atom_site_symmetry_multiplicity
 _atom_site_fract_x
 _atom_site_fract_y
 _atom_site_fract_z
 _atom_site_occupancy
  Tb  Tb0  1  0.012403  0.665697  0.249409  1
  Tb  Tb1  1  0.993752  0.333755  0.753733  1
  Y  Y2  1  0.665672  0.012434  0.249412  1
  Y  Y3  1  0.333782  0.993730  0.753711  1
  Mg  Mg4  1  0.332432  0.332428  0.553226  1
  Mg  Mg5  1  0.668233  0.668237  0.446729  1
  Mg  Mg6  1  0.664050  0.664046  0.050183  1
  Ga  Ga7  1  0.332096  0.332104  0.934574  1
  Ga  Ga8  1  0.343659  0.550967  0.251392  1
  Ga  Ga9  1  0.659173  0.449549  0.748772  1
  Ga  Ga10  1  0.550993  0.343697  0.251392  1
  Ga  Ga11  1  0.449528  0.659124  0.748763  1
  Ga  Ga12  1  0.006418  0.335205  0.080319  1
  Ga  Ga13  1  0.991370  0.664662  0.922870  1
  Ga  Ga14  1  0.992463  0.664014  0.577535  1
  Ga  Ga15  1  0.336150  0.008592  0.423542  1
  Ga  Ga16  1  0.008600  0.336084  0.423543  1
  Ga  Ga17  1  0.663966  0.992489  0.577535  1
  Ga  Ga18  1  0.664579  0.991378  0.922876  1
  Ga  Ga19  1  0.335282  0.006426  0.080307  1
  Ga  Ga20  1  0.117261  0.117218  0.250940  1
  Ga  Ga21  1  0.879146  0.879181  0.750371  1
  Rh  Rh22  1  0.008316  0.008300  0.997187  1
  Rh  Rh23  1  0.999618  0.999620  0.501200  1
  Rh  Rh24  1  0.671732  0.319324  0.999450  1
  Rh  Rh25  1  0.319439  0.671860  0.999479  1
  Rh  Rh26  1  0.320239  0.679775  0.500762  1
  Rh  Rh27  1  0.679646  0.320105  0.500789  1
