# generated using pymatgen
data_PrLuTe2Se
_symmetry_space_group_name_H-M   'P 1'
_cell_length_a   7.30603585
_cell_length_b   7.30603636
_cell_length_c   10.13363400
_cell_angle_alpha   90.00000000
_cell_angle_beta   90.00000000
_cell_angle_gamma   145.56770192
_symmetry_Int_Tables_number   1
_chemical_formula_structural   PrLuTe2Se
_chemical_formula_sum   'Pr2 Lu2 Te4 Se2'
_cell_volume   305.85054182
_cell_formula_units_Z   2
loop_
 _symmetry_equiv_pos_site_id
 _symmetry_equiv_pos_as_xyz
  1  'x, y, z'
loop_
 _atom_site_type_symbol
 _atom_site_label
 _atom_site_symmetry_multiplicity
 _atom_site_fract_x
 _atom_site_fract_y
 _atom_site_fract_z
 _atom_site_occupancy
  Pr  Pr0  1  0.267153  0.732847  0.750000  1
  Pr  Pr1  1  0.732847  0.267153  0.250000  1
  Lu  Lu2  1  0.000000  0.000000  0.000000  1
  Lu  Lu3  1  0.000000  0.000000  0.500000  1
  Te  Te4  1  0.645307  0.354693  0.561279  1
  Te  Te5  1  0.354693  0.645307  0.438721  1
  Te  Te6  1  0.645307  0.354693  0.938721  1
  Te  Te7  1  0.354693  0.645307  0.061279  1
  Se  Se8  1  0.083453  0.916547  0.250000  1
  Se  Se9  1  0.916547  0.083453  0.750000  1
