# generated using pymatgen
data_Hf18BeRe8Si
_symmetry_space_group_name_H-M   'P 1'
_cell_length_a   8.53152700
_cell_length_b   8.53152715
_cell_length_c   8.67577900
_cell_angle_alpha   90.00000000
_cell_angle_beta   90.00000000
_cell_angle_gamma   120.00000329
_symmetry_Int_Tables_number   1
_chemical_formula_structural   Hf18BeRe8Si
_chemical_formula_sum   'Hf18 Be1 Re8 Si1'
_cell_volume   546.88076005
_cell_formula_units_Z   1
loop_
 _symmetry_equiv_pos_site_id
 _symmetry_equiv_pos_as_xyz
  1  'x, y, z'
loop_
 _atom_site_type_symbol
 _atom_site_label
 _atom_site_symmetry_multiplicity
 _atom_site_fract_x
 _atom_site_fract_y
 _atom_site_fract_z
 _atom_site_occupancy
  Hf  Hf0  1  0.198731  0.801269  0.447208  1
  Hf  Hf1  1  0.198731  0.397462  0.447208  1
  Hf  Hf2  1  0.602538  0.801269  0.447208  1
  Hf  Hf3  1  0.805246  0.194754  0.547567  1
  Hf  Hf4  1  0.805246  0.610492  0.547567  1
  Hf  Hf5  1  0.389508  0.194754  0.547567  1
  Hf  Hf6  1  0.805246  0.194754  0.952433  1
  Hf  Hf7  1  0.805246  0.610492  0.952433  1
  Hf  Hf8  1  0.389508  0.194754  0.952433  1
  Hf  Hf9  1  0.198731  0.801269  0.052792  1
  Hf  Hf10  1  0.198731  0.397462  0.052792  1
  Hf  Hf11  1  0.602538  0.801269  0.052792  1
  Hf  Hf12  1  0.540023  0.459977  0.250000  1
  Hf  Hf13  1  0.540023  0.080044  0.250000  1
  Hf  Hf14  1  0.919956  0.459977  0.250000  1
  Hf  Hf15  1  0.460211  0.539789  0.750000  1
  Hf  Hf16  1  0.460211  0.920423  0.750000  1
  Hf  Hf17  1  0.079577  0.539789  0.750000  1
  Be  Be18  1  0.333333  0.666667  0.250000  1
  Re  Re19  1  0.890398  0.109602  0.250000  1
  Re  Re20  1  0.890398  0.780794  0.250000  1
  Re  Re21  1  0.219206  0.109602  0.250000  1
  Re  Re22  1  0.109968  0.890032  0.750000  1
  Re  Re23  1  0.109968  0.219937  0.750000  1
  Re  Re24  1  0.780063  0.890032  0.750000  1
  Re  Re25  1  0.000000  0.000000  0.499708  1
  Re  Re26  1  0.000000  0.000000  0.000292  1
  Si  Si27  1  0.666667  0.333333  0.750000  1
