# generated using pymatgen
data_KNdH6Os
_symmetry_space_group_name_H-M   'P 1'
_cell_length_a   5.31382437
_cell_length_b   5.31382446
_cell_length_c   5.31382400
_cell_angle_alpha   60.00000289
_cell_angle_beta   60.00000229
_cell_angle_gamma   60.00001291
_symmetry_Int_Tables_number   1
_chemical_formula_structural   KNdH6Os
_chemical_formula_sum   'K1 Nd1 H6 Os1'
_cell_volume   106.09786080
_cell_formula_units_Z   1
loop_
 _symmetry_equiv_pos_site_id
 _symmetry_equiv_pos_as_xyz
  1  'x, y, z'
loop_
 _atom_site_type_symbol
 _atom_site_label
 _atom_site_symmetry_multiplicity
 _atom_site_fract_x
 _atom_site_fract_y
 _atom_site_fract_z
 _atom_site_occupancy
  K  K0  1  0.250000  0.250000  0.250000  1
  Nd  Nd1  1  0.750000  0.750000  0.750000  1
  H  H2  1  0.769398  0.769398  0.230602  1
  H  H3  1  0.230602  0.769398  0.230602  1
  H  H4  1  0.769398  0.230602  0.230602  1
  H  H5  1  0.230602  0.230602  0.769398  1
  H  H6  1  0.769398  0.230602  0.769398  1
  H  H7  1  0.230602  0.769398  0.769398  1
  Os  Os8  1  0.000000  0.000000  0.000000  1
