# generated using pymatgen
data_Tc6Se5S3F2
_symmetry_space_group_name_H-M   'P 1'
_cell_length_a   11.15571999
_cell_length_b   6.52026598
_cell_length_c   10.98584186
_cell_angle_alpha   68.44641210
_cell_angle_beta   89.91682599
_cell_angle_gamma   90.20112413
_symmetry_Int_Tables_number   1
_chemical_formula_structural   Tc6Se5S3F2
_chemical_formula_sum   'Tc12 Se10 S6 F4'
_cell_volume   743.20629266
_cell_formula_units_Z   2
loop_
 _symmetry_equiv_pos_site_id
 _symmetry_equiv_pos_as_xyz
  1  'x, y, z'
loop_
 _atom_site_type_symbol
 _atom_site_label
 _atom_site_symmetry_multiplicity
 _atom_site_fract_x
 _atom_site_fract_y
 _atom_site_fract_z
 _atom_site_occupancy
  Tc  Tc0  1  0.991284  0.306371  0.933689  1
  Tc  Tc1  1  0.011206  0.698429  0.066057  1
  Tc  Tc2  1  0.365041  0.010823  0.596774  1
  Tc  Tc3  1  0.099488  0.012364  0.862621  1
  Tc  Tc4  1  0.598535  0.986267  0.639581  1
  Tc  Tc5  1  0.135578  0.019625  0.093944  1
  Tc  Tc6  1  0.635517  0.986165  0.404231  1
  Tc  Tc7  1  0.401847  0.011079  0.360959  1
  Tc  Tc8  1  0.902097  0.992797  0.138604  1
  Tc  Tc9  1  0.865812  0.984911  0.904581  1
  Tc  Tc10  1  0.510144  0.299735  0.435431  1
  Tc  Tc11  1  0.490141  0.691179  0.564898  1
  Se  Se12  1  0.788143  0.683517  0.107599  1
  Se  Se13  1  0.455409  0.704300  0.787959  1
  Se  Se14  1  0.529151  0.726493  0.318090  1
  Se  Se15  1  0.044602  0.715050  0.289035  1
  Se  Se16  1  0.287090  0.314215  0.395791  1
  Se  Se17  1  0.957365  0.289802  0.710746  1
  Se  Se18  1  0.732697  0.267747  0.477656  1
  Se  Se19  1  0.712453  0.681618  0.605704  1
  Se  Se20  1  0.768026  0.268490  0.975262  1
  Se  Se21  1  0.267883  0.729081  0.523674  1
  S  S22  1  0.543323  0.273854  0.226754  1
  S  S23  1  0.975907  0.723532  0.839406  1
  S  S24  1  0.202699  0.305255  0.897687  1
  S  S25  1  0.026796  0.281412  0.160236  1
  S  S26  1  0.474588  0.275033  0.660675  1
  S  S27  1  0.221586  0.749427  0.022809  1
  F  F28  1  0.793828  0.978851  0.298771  1
  F  F29  1  0.210087  0.026742  0.703882  1
  F  F30  1  0.293278  0.038460  0.196231  1
  F  F31  1  0.708400  0.967375  0.800663  1
