# generated using pymatgen
data_Pr3Th2P12Ru19
_symmetry_space_group_name_H-M   'P 1'
_cell_length_a   12.65750200
_cell_length_b   12.65750176
_cell_length_c   4.03383100
_cell_angle_alpha   90.00000000
_cell_angle_beta   90.00000000
_cell_angle_gamma   120.00000063
_symmetry_Int_Tables_number   1
_chemical_formula_structural   Pr3Th2P12Ru19
_chemical_formula_sum   'Pr3 Th2 P12 Ru19'
_cell_volume   559.68585252
_cell_formula_units_Z   1
loop_
 _symmetry_equiv_pos_site_id
 _symmetry_equiv_pos_as_xyz
  1  'x, y, z'
loop_
 _atom_site_type_symbol
 _atom_site_label
 _atom_site_symmetry_multiplicity
 _atom_site_fract_x
 _atom_site_fract_y
 _atom_site_fract_z
 _atom_site_occupancy
  Pr  Pr0  1  0.815104  0.000000  0.500000  1
  Pr  Pr1  1  0.000000  0.815104  0.500000  1
  Pr  Pr2  1  0.184896  0.184896  0.500000  1
  Th  Th3  1  0.333333  0.666667  0.000000  1
  Th  Th4  1  0.666667  0.333333  0.000000  1
  P  P5  1  0.187442  0.000000  0.000000  1
  P  P6  1  0.000000  0.187442  0.000000  1
  P  P7  1  0.812558  0.812558  0.000000  1
  P  P8  1  0.525262  0.695540  0.500000  1
  P  P9  1  0.304460  0.829721  0.500000  1
  P  P10  1  0.170279  0.474738  0.500000  1
  P  P11  1  0.474738  0.170279  0.500000  1
  P  P12  1  0.695540  0.525262  0.500000  1
  P  P13  1  0.829721  0.304460  0.500000  1
  P  P14  1  0.626046  0.000000  0.000000  1
  P  P15  1  0.000000  0.626046  0.000000  1
  P  P16  1  0.373954  0.373954  0.000000  1
  Ru  Ru17  1  0.446198  0.000000  0.000000  1
  Ru  Ru18  1  0.000000  0.446198  0.000000  1
  Ru  Ru19  1  0.553802  0.553802  0.000000  1
  Ru  Ru20  1  0.284843  0.000000  0.500000  1
  Ru  Ru21  1  0.000000  0.284843  0.500000  1
  Ru  Ru22  1  0.715157  0.715157  0.500000  1
  Ru  Ru23  1  0.620963  0.805494  0.000000  1
  Ru  Ru24  1  0.194506  0.815469  0.000000  1
  Ru  Ru25  1  0.184531  0.379037  0.000000  1
  Ru  Ru26  1  0.379037  0.184531  0.000000  1
  Ru  Ru27  1  0.805494  0.620963  0.000000  1
  Ru  Ru28  1  0.815469  0.194506  0.000000  1
  Ru  Ru29  1  0.506415  0.873758  0.500000  1
  Ru  Ru30  1  0.126242  0.632656  0.500000  1
  Ru  Ru31  1  0.367344  0.493585  0.500000  1
  Ru  Ru32  1  0.493585  0.367344  0.500000  1
  Ru  Ru33  1  0.873758  0.506415  0.500000  1
  Ru  Ru34  1  0.632656  0.126242  0.500000  1
  Ru  Ru35  1  0.000000  0.000000  0.000000  1
