# generated using pymatgen
data_NdCo4TcP3
_symmetry_space_group_name_H-M   'P 1'
_cell_length_a   3.74517300
_cell_length_b   10.47353300
_cell_length_c   11.91206700
_cell_angle_alpha   90.00000000
_cell_angle_beta   90.00000000
_cell_angle_gamma   90.00000000
_symmetry_Int_Tables_number   1
_chemical_formula_structural   NdCo4TcP3
_chemical_formula_sum   'Nd4 Co16 Tc4 P12'
_cell_volume   467.25312718
_cell_formula_units_Z   4
loop_
 _symmetry_equiv_pos_site_id
 _symmetry_equiv_pos_as_xyz
  1  'x, y, z'
loop_
 _atom_site_type_symbol
 _atom_site_label
 _atom_site_symmetry_multiplicity
 _atom_site_fract_x
 _atom_site_fract_y
 _atom_site_fract_z
 _atom_site_occupancy
  Nd  Nd0  1  0.250000  0.584151  0.703810  1
  Nd  Nd1  1  0.250000  0.915849  0.203810  1
  Nd  Nd2  1  0.750000  0.415849  0.296190  1
  Nd  Nd3  1  0.750000  0.084151  0.796190  1
  Co  Co4  1  0.250000  0.405460  0.490694  1
  Co  Co5  1  0.250000  0.094540  0.990694  1
  Co  Co6  1  0.750000  0.594540  0.509306  1
  Co  Co7  1  0.750000  0.905460  0.009306  1
  Co  Co8  1  0.250000  0.221942  0.175123  1
  Co  Co9  1  0.250000  0.278058  0.675123  1
  Co  Co10  1  0.750000  0.778058  0.824877  1
  Co  Co11  1  0.750000  0.721942  0.324877  1
  Co  Co12  1  0.250000  0.884966  0.701625  1
  Co  Co13  1  0.250000  0.615034  0.201625  1
  Co  Co14  1  0.750000  0.115034  0.298375  1
  Co  Co15  1  0.750000  0.384966  0.798375  1
  Co  Co16  1  0.250000  0.464870  0.932432  1
  Co  Co17  1  0.250000  0.035130  0.432432  1
  Co  Co18  1  0.750000  0.535130  0.067568  1
  Co  Co19  1  0.750000  0.964870  0.567568  1
  Tc  Tc20  1  0.250000  0.708734  0.989648  1
  Tc  Tc21  1  0.250000  0.791266  0.489648  1
  Tc  Tc22  1  0.750000  0.291266  0.010352  1
  Tc  Tc23  1  0.750000  0.208734  0.510352  1
  P  P24  1  0.250000  0.420479  0.110787  1
  P  P25  1  0.250000  0.079521  0.610787  1
  P  P26  1  0.750000  0.579521  0.889213  1
  P  P27  1  0.750000  0.920479  0.389213  1
  P  P28  1  0.250000  0.274521  0.865033  1
  P  P29  1  0.250000  0.225479  0.365033  1
  P  P30  1  0.750000  0.725479  0.134967  1
  P  P31  1  0.750000  0.774521  0.634967  1
  P  P32  1  0.250000  0.600015  0.393130  1
  P  P33  1  0.250000  0.899985  0.893130  1
  P  P34  1  0.750000  0.399985  0.606870  1
  P  P35  1  0.750000  0.100015  0.106870  1
