# generated using pymatgen
data_Pr2TmSn2Hg3
_symmetry_space_group_name_H-M   'P 1'
_cell_length_a   6.43403227
_cell_length_b   6.43403198
_cell_length_c   10.63351400
_cell_angle_alpha   90.00000000
_cell_angle_beta   90.00000000
_cell_angle_gamma   102.56783126
_symmetry_Int_Tables_number   1
_chemical_formula_structural   Pr2TmSn2Hg3
_chemical_formula_sum   'Pr4 Tm2 Sn4 Hg6'
_cell_volume   429.64569680
_cell_formula_units_Z   2
loop_
 _symmetry_equiv_pos_site_id
 _symmetry_equiv_pos_as_xyz
  1  'x, y, z'
loop_
 _atom_site_type_symbol
 _atom_site_label
 _atom_site_symmetry_multiplicity
 _atom_site_fract_x
 _atom_site_fract_y
 _atom_site_fract_z
 _atom_site_occupancy
  Pr  Pr0  1  0.201735  0.798265  0.500000  1
  Pr  Pr1  1  0.201735  0.798265  0.000000  1
  Pr  Pr2  1  0.798265  0.201735  0.500000  1
  Pr  Pr3  1  0.798265  0.201735  0.000000  1
  Tm  Tm4  1  0.634032  0.634032  0.250000  1
  Tm  Tm5  1  0.365968  0.365968  0.750000  1
  Sn  Sn6  1  0.318717  0.318717  0.045974  1
  Sn  Sn7  1  0.681283  0.681283  0.954026  1
  Sn  Sn8  1  0.318717  0.318717  0.454026  1
  Sn  Sn9  1  0.681283  0.681283  0.545974  1
  Hg  Hg10  1  0.011268  0.011268  0.250000  1
  Hg  Hg11  1  0.988732  0.988732  0.750000  1
  Hg  Hg12  1  0.508224  0.071146  0.250000  1
  Hg  Hg13  1  0.928854  0.491776  0.750000  1
  Hg  Hg14  1  0.491776  0.928854  0.750000  1
  Hg  Hg15  1  0.071146  0.508224  0.250000  1
