# generated using pymatgen
data_Ba4LaAl2BiSe10
_symmetry_space_group_name_H-M   'P 1'
_cell_length_a   7.41698614
_cell_length_b   9.01109033
_cell_length_c   9.72327534
_cell_angle_alpha   104.18836896
_cell_angle_beta   102.32592558
_cell_angle_gamma   107.85489357
_symmetry_Int_Tables_number   1
_chemical_formula_structural   Ba4LaAl2BiSe10
_chemical_formula_sum   'Ba4 La1 Al2 Bi1 Se10'
_cell_volume   569.60057568
_cell_formula_units_Z   1
loop_
 _symmetry_equiv_pos_site_id
 _symmetry_equiv_pos_as_xyz
  1  'x, y, z'
loop_
 _atom_site_type_symbol
 _atom_site_label
 _atom_site_symmetry_multiplicity
 _atom_site_fract_x
 _atom_site_fract_y
 _atom_site_fract_z
 _atom_site_occupancy
  Ba  Ba0  1  0.629846  0.977776  0.293335  1
  Ba  Ba1  1  0.365670  0.019505  0.703111  1
  Ba  Ba2  1  0.338503  0.511419  0.700184  1
  Ba  Ba3  1  0.670577  0.492965  0.307310  1
  La  La4  1  0.001821  0.266823  0.002256  1
  Al  Al5  1  0.806038  0.871223  0.689933  1
  Al  Al6  1  0.195186  0.128603  0.309851  1
  Bi  Bi7  1  0.996714  0.717690  0.998950  1
  Se  Se8  1  0.988329  0.689996  0.679399  1
  Se  Se9  1  0.011014  0.308566  0.322313  1
  Se  Se10  1  0.984519  0.141298  0.681969  1
  Se  Se11  1  0.015791  0.855047  0.310707  1
  Se  Se12  1  0.701482  0.907011  0.914058  1
  Se  Se13  1  0.299742  0.102374  0.085555  1
  Se  Se14  1  0.692429  0.414205  0.952656  1
  Se  Se15  1  0.302382  0.596091  0.048424  1
  Se  Se16  1  0.497504  0.742782  0.493716  1
  Se  Se17  1  0.502454  0.256628  0.506272  1
