# generated using pymatgen
data_Tb8Tm2Sn5Pb3
_symmetry_space_group_name_H-M   'P 1'
_cell_length_a   8.10569700
_cell_length_b   8.25489967
_cell_length_c   15.60415000
_cell_angle_alpha   90.11856319
_cell_angle_beta   90.00000000
_cell_angle_gamma   90.00000000
_symmetry_Int_Tables_number   1
_chemical_formula_structural   Tb8Tm2Sn5Pb3
_chemical_formula_sum   'Tb16 Tm4 Sn10 Pb6'
_cell_volume   1044.09821032
_cell_formula_units_Z   2
loop_
 _symmetry_equiv_pos_site_id
 _symmetry_equiv_pos_as_xyz
  1  'x, y, z'
loop_
 _atom_site_type_symbol
 _atom_site_label
 _atom_site_symmetry_multiplicity
 _atom_site_fract_x
 _atom_site_fract_y
 _atom_site_fract_z
 _atom_site_occupancy
  Tb  Tb0  1  0.367284  0.837670  0.876508  1
  Tb  Tb1  1  0.867284  0.662330  0.623492  1
  Tb  Tb2  1  0.630357  0.162251  0.376907  1
  Tb  Tb3  1  0.130357  0.337749  0.123093  1
  Tb  Tb4  1  0.633316  0.164768  0.122997  1
  Tb  Tb5  1  0.133316  0.335232  0.377003  1
  Tb  Tb6  1  0.366954  0.839029  0.622566  1
  Tb  Tb7  1  0.866954  0.660971  0.877434  1
  Tb  Tb8  1  0.523673  0.322159  0.900691  1
  Tb  Tb9  1  0.023673  0.177841  0.599309  1
  Tb  Tb10  1  0.477693  0.681373  0.399963  1
  Tb  Tb11  1  0.977693  0.818627  0.100037  1
  Tb  Tb12  1  0.480376  0.677454  0.099985  1
  Tb  Tb13  1  0.980376  0.822546  0.400015  1
  Tb  Tb14  1  0.520677  0.319438  0.599684  1
  Tb  Tb15  1  0.020677  0.180562  0.900316  1
  Tm  Tm16  1  0.198635  0.502247  0.750107  1
  Tm  Tm17  1  0.698635  0.997753  0.749893  1
  Tm  Tm18  1  0.801061  0.497564  0.248573  1
  Tm  Tm19  1  0.301061  0.002436  0.251427  1
  Sn  Sn20  1  0.291676  0.035229  0.457415  1
  Sn  Sn21  1  0.791676  0.464771  0.042585  1
  Sn  Sn22  1  0.563430  0.619165  0.749730  1
  Sn  Sn23  1  0.063430  0.880835  0.750270  1
  Sn  Sn24  1  0.435732  0.381827  0.250153  1
  Sn  Sn25  1  0.935732  0.118173  0.249847  1
  Sn  Sn26  1  0.329283  0.148460  0.750403  1
  Sn  Sn27  1  0.829283  0.351540  0.749597  1
  Sn  Sn28  1  0.671163  0.852263  0.249892  1
  Sn  Sn29  1  0.171163  0.647737  0.250108  1
  Pb  Pb30  1  0.291349  0.035789  0.042224  1
  Pb  Pb31  1  0.791349  0.464211  0.457776  1
  Pb  Pb32  1  0.708778  0.963536  0.541648  1
  Pb  Pb33  1  0.208778  0.536464  0.958352  1
  Pb  Pb34  1  0.708563  0.963883  0.958223  1
  Pb  Pb35  1  0.208563  0.536117  0.541777  1
