# generated using pymatgen
data_CsNd2CuS4
_symmetry_space_group_name_H-M   'P 1'
_cell_length_a   4.12775900
_cell_length_b   7.51684597
_cell_length_c   14.17153500
_cell_angle_alpha   90.00000000
_cell_angle_beta   90.00000000
_cell_angle_gamma   105.93622099
_symmetry_Int_Tables_number   1
_chemical_formula_structural   CsNd2CuS4
_chemical_formula_sum   'Cs2 Nd4 Cu2 S8'
_cell_volume   422.81155442
_cell_formula_units_Z   2
loop_
 _symmetry_equiv_pos_site_id
 _symmetry_equiv_pos_as_xyz
  1  'x, y, z'
loop_
 _atom_site_type_symbol
 _atom_site_label
 _atom_site_symmetry_multiplicity
 _atom_site_fract_x
 _atom_site_fract_y
 _atom_site_fract_z
 _atom_site_occupancy
  Cs  Cs0  1  0.105015  0.210030  0.250000  1
  Cs  Cs1  1  0.894984  0.789969  0.750000  1
  Nd  Nd2  1  0.366016  0.732032  0.060373  1
  Nd  Nd3  1  0.366016  0.732032  0.439627  1
  Nd  Nd4  1  0.633983  0.267968  0.560373  1
  Nd  Nd5  1  0.633983  0.267968  0.939627  1
  Cu  Cu6  1  0.833112  0.666225  0.250000  1
  Cu  Cu7  1  0.166887  0.333775  0.750000  1
  S  S8  1  0.000000  0.000000  0.000000  1
  S  S9  1  0.744578  0.489156  0.109185  1
  S  S10  1  0.416295  0.832590  0.250000  1
  S  S11  1  0.744578  0.489156  0.390815  1
  S  S12  1  0.000000  0.000000  0.500000  1
  S  S13  1  0.255422  0.510844  0.609185  1
  S  S14  1  0.583704  0.167409  0.750000  1
  S  S15  1  0.255422  0.510844  0.890815  1
