# generated using pymatgen
data_CaYB4Ir5
_symmetry_space_group_name_H-M   'P 1'
_cell_length_a   7.51875638
_cell_length_b   6.33059942
_cell_length_c   5.63294148
_cell_angle_alpha   77.64450454
_cell_angle_beta   55.32582679
_cell_angle_gamma   47.02023071
_symmetry_Int_Tables_number   1
_chemical_formula_structural   CaYB4Ir5
_chemical_formula_sum   'Ca1 Y1 B4 Ir5'
_cell_volume   154.43413867
_cell_formula_units_Z   1
loop_
 _symmetry_equiv_pos_site_id
 _symmetry_equiv_pos_as_xyz
  1  'x, y, z'
loop_
 _atom_site_type_symbol
 _atom_site_label
 _atom_site_symmetry_multiplicity
 _atom_site_fract_x
 _atom_site_fract_y
 _atom_site_fract_z
 _atom_site_occupancy
  Ca  Ca0  1  0.857908  0.857539  0.142232  1
  Y  Y1  1  0.136842  0.137337  0.863006  1
  B  B2  1  0.475142  0.790194  0.209602  1
  B  B3  1  0.211793  0.525766  0.473866  1
  B  B4  1  0.790215  0.475095  0.525012  1
  B  B5  1  0.525778  0.211826  0.788568  1
  Ir  Ir6  1  0.499873  0.499823  0.000170  1
  Ir  Ir7  1  0.250393  0.249903  0.249812  1
  Ir  Ir8  1  0.999704  0.999683  0.500333  1
  Ir  Ir9  1  0.502084  0.502022  0.497927  1
  Ir  Ir10  1  0.750275  0.750807  0.749468  1
