# generated using pymatgen
data_Li2Tb3MgAlSi2
_symmetry_space_group_name_H-M   'P 1'
_cell_length_a   7.11189309
_cell_length_b   7.11189316
_cell_length_c   4.35531500
_cell_angle_alpha   90.00000000
_cell_angle_beta   90.00000000
_cell_angle_gamma   119.39688868
_symmetry_Int_Tables_number   1
_chemical_formula_structural   Li2Tb3MgAlSi2
_chemical_formula_sum   'Li2 Tb3 Mg1 Al1 Si2'
_cell_volume   191.92345534
_cell_formula_units_Z   1
loop_
 _symmetry_equiv_pos_site_id
 _symmetry_equiv_pos_as_xyz
  1  'x, y, z'
loop_
 _atom_site_type_symbol
 _atom_site_label
 _atom_site_symmetry_multiplicity
 _atom_site_fract_x
 _atom_site_fract_y
 _atom_site_fract_z
 _atom_site_occupancy
  Li  Li0  1  0.247209  0.999438  0.500000  1
  Li  Li1  1  0.999438  0.247209  0.500000  1
  Tb  Tb2  1  0.558630  0.999336  0.000000  1
  Tb  Tb3  1  0.999336  0.558630  0.000000  1
  Tb  Tb4  1  0.432424  0.432424  0.000000  1
  Mg  Mg5  1  0.760408  0.760408  0.500000  1
  Al  Al6  1  0.007438  0.007438  0.000000  1
  Si  Si7  1  0.330149  0.664967  0.500000  1
  Si  Si8  1  0.664967  0.330149  0.500000  1
