# generated using pymatgen
data_DyHoMn4Ni8P7
_symmetry_space_group_name_H-M   'P 1'
_cell_length_a   9.15749500
_cell_length_b   9.14229140
_cell_length_c   3.67416400
_cell_angle_alpha   90.00000000
_cell_angle_beta   90.00000000
_cell_angle_gamma   120.06877408
_symmetry_Int_Tables_number   1
_chemical_formula_structural   DyHoMn4Ni8P7
_chemical_formula_sum   'Dy1 Ho1 Mn4 Ni8 P7'
_cell_volume   266.20703623
_cell_formula_units_Z   1
loop_
 _symmetry_equiv_pos_site_id
 _symmetry_equiv_pos_as_xyz
  1  'x, y, z'
loop_
 _atom_site_type_symbol
 _atom_site_label
 _atom_site_symmetry_multiplicity
 _atom_site_fract_x
 _atom_site_fract_y
 _atom_site_fract_z
 _atom_site_occupancy
  Dy  Dy0  1  0.331654  0.665155  0.500000  1
  Ho  Ho1  1  0.667838  0.333396  0.000000  1
  Mn  Mn2  1  0.844103  0.120151  0.000000  1
  Mn  Mn3  1  0.119982  0.902396  0.500000  1
  Mn  Mn4  1  0.100807  0.221708  0.500000  1
  Mn  Mn5  1  0.776289  0.876193  0.500000  1
  Ni  Ni6  1  0.375162  0.940089  0.000000  1
  Ni  Ni7  1  0.063321  0.435683  0.000000  1
  Ni  Ni8  1  0.565703  0.627604  0.000000  1
  Ni  Ni9  1  0.877405  0.722988  0.000000  1
  Ni  Ni10  1  0.278827  0.154351  0.000000  1
  Ni  Ni11  1  0.946866  0.563002  0.500000  1
  Ni  Ni12  1  0.437534  0.385658  0.500000  1
  Ni  Ni13  1  0.614764  0.051206  0.500000  1
  P  P14  1  0.113249  0.705749  0.000000  1
  P  P15  1  0.293673  0.406475  0.000000  1
  P  P16  1  0.592831  0.887998  0.000000  1
  P  P17  1  0.709269  0.594598  0.500000  1
  P  P18  1  0.404470  0.114344  0.500000  1
  P  P19  1  0.886513  0.288206  0.500000  1
  P  P20  1  0.999738  0.003051  0.000000  1
