# generated using pymatgen
data_Yb2B8Os3Ru4
_symmetry_space_group_name_H-M   'P 1'
_cell_length_a   6.43642400
_cell_length_b   6.43642400
_cell_length_c   10.04818000
_cell_angle_alpha   90.00000000
_cell_angle_beta   90.00000000
_cell_angle_gamma   90.00000000
_symmetry_Int_Tables_number   1
_chemical_formula_structural   Yb2B8Os3Ru4
_chemical_formula_sum   'Yb4 B16 Os6 Ru8'
_cell_volume   416.27151863
_cell_formula_units_Z   2
loop_
 _symmetry_equiv_pos_site_id
 _symmetry_equiv_pos_as_xyz
  1  'x, y, z'
loop_
 _atom_site_type_symbol
 _atom_site_label
 _atom_site_symmetry_multiplicity
 _atom_site_fract_x
 _atom_site_fract_y
 _atom_site_fract_z
 _atom_site_occupancy
  Yb  Yb0  1  0.732062  0.886305  0.000000  1
  Yb  Yb1  1  0.113695  0.732062  0.500000  1
  Yb  Yb2  1  0.886305  0.267938  0.500000  1
  Yb  Yb3  1  0.267938  0.113695  0.000000  1
  B  B4  1  0.500000  0.000000  0.589059  1
  B  B5  1  0.500000  0.000000  0.410941  1
  B  B6  1  0.899366  0.266950  0.160945  1
  B  B7  1  0.100634  0.733050  0.839055  1
  B  B8  1  0.500000  0.500000  0.339489  1
  B  B9  1  0.500000  0.500000  0.839489  1
  B  B10  1  0.266950  0.100634  0.660945  1
  B  B11  1  0.100634  0.733050  0.160945  1
  B  B12  1  0.266950  0.100634  0.339055  1
  B  B13  1  0.899366  0.266950  0.839055  1
  B  B14  1  0.500000  0.500000  0.660511  1
  B  B15  1  0.500000  0.500000  0.160511  1
  B  B16  1  0.000000  0.500000  0.910941  1
  B  B17  1  0.733050  0.899366  0.660945  1
  B  B18  1  0.733050  0.899366  0.339055  1
  B  B19  1  0.000000  0.500000  0.089059  1
  Os  Os20  1  0.407144  0.290479  0.500000  1
  Os  Os21  1  0.592856  0.709521  0.500000  1
  Os  Os22  1  0.290479  0.592856  0.000000  1
  Os  Os23  1  0.709521  0.407144  0.000000  1
  Os  Os24  1  0.000000  0.000000  0.250000  1
  Os  Os25  1  0.000000  0.000000  0.750000  1
  Ru  Ru26  1  0.203726  0.392065  0.754147  1
  Ru  Ru27  1  0.392065  0.796274  0.254147  1
  Ru  Ru28  1  0.203726  0.392065  0.245853  1
  Ru  Ru29  1  0.607935  0.203726  0.745853  1
  Ru  Ru30  1  0.796274  0.607935  0.245853  1
  Ru  Ru31  1  0.796274  0.607935  0.754147  1
  Ru  Ru32  1  0.392065  0.796274  0.745853  1
  Ru  Ru33  1  0.607935  0.203726  0.254147  1
