# generated using pymatgen
data_HfBi2PtF14
_symmetry_space_group_name_H-M   'P 1'
_cell_length_a   5.73598510
_cell_length_b   9.26737864
_cell_length_c   12.31963007
_cell_angle_alpha   61.79716980
_cell_angle_beta   90.02509585
_cell_angle_gamma   90.17161372
_symmetry_Int_Tables_number   1
_chemical_formula_structural   HfBi2PtF14
_chemical_formula_sum   'Hf2 Bi4 Pt2 F28'
_cell_volume   577.13091845
_cell_formula_units_Z   2
loop_
 _symmetry_equiv_pos_site_id
 _symmetry_equiv_pos_as_xyz
  1  'x, y, z'
loop_
 _atom_site_type_symbol
 _atom_site_label
 _atom_site_symmetry_multiplicity
 _atom_site_fract_x
 _atom_site_fract_y
 _atom_site_fract_z
 _atom_site_occupancy
  Hf  Hf0  1  0.755605  0.726271  0.042450  1
  Hf  Hf1  1  0.244395  0.273729  0.957550  1
  Bi  Bi2  1  0.258271  0.813493  0.268071  1
  Bi  Bi3  1  0.741729  0.186507  0.731929  1
  Bi  Bi4  1  0.760982  0.180660  0.242677  1
  Bi  Bi5  1  0.239018  0.819340  0.757323  1
  Pt  Pt6  1  0.258556  0.273078  0.456207  1
  Pt  Pt7  1  0.741444  0.726922  0.543793  1
  F  F8  1  0.925529  0.706978  0.416292  1
  F  F9  1  0.074471  0.293022  0.583708  1
  F  F10  1  0.457626  0.287586  0.080705  1
  F  F11  1  0.542374  0.712414  0.919295  1
  F  F12  1  0.483566  0.735956  0.140691  1
  F  F13  1  0.516434  0.264044  0.859309  1
  F  F14  1  0.969611  0.271373  0.369836  1
  F  F15  1  0.030389  0.728627  0.630164  1
  F  F16  1  0.957651  0.753009  0.166017  1
  F  F17  1  0.042349  0.246991  0.833983  1
  F  F18  1  0.438537  0.260152  0.323953  1
  F  F19  1  0.561463  0.739848  0.676047  1
  F  F20  1  0.778422  0.484236  0.137523  1
  F  F21  1  0.221578  0.515764  0.862477  1
  F  F22  1  0.265063  0.513216  0.359799  1
  F  F23  1  0.734937  0.486784  0.640201  1
  F  F24  1  0.953492  0.271979  0.051647  1
  F  F25  1  0.046508  0.728021  0.948353  1
  F  F26  1  0.447127  0.717461  0.463493  1
  F  F27  1  0.552873  0.282539  0.536507  1
  F  F28  1  0.739762  0.970001  0.452595  1
  F  F29  1  0.260238  0.029999  0.547405  1
  F  F30  1  0.241754  0.026393  0.062102  1
  F  F31  1  0.758246  0.973607  0.937898  1
  F  F32  1  0.589329  0.968552  0.233853  1
  F  F33  1  0.410671  0.031448  0.766147  1
  F  F34  1  0.090222  0.028429  0.274641  1
  F  F35  1  0.909778  0.971571  0.725359  1
