# generated using pymatgen
data_Rb8CrGeSe8
_symmetry_space_group_name_H-M   'P 1'
_cell_length_a   8.76948900
_cell_length_b   10.32384600
_cell_length_c   15.35013100
_cell_angle_alpha   90.00000000
_cell_angle_beta   89.68325905
_cell_angle_gamma   90.00000000
_symmetry_Int_Tables_number   1
_chemical_formula_structural   Rb8CrGeSe8
_chemical_formula_sum   'Rb16 Cr2 Ge2 Se16'
_cell_volume   1389.70063266
_cell_formula_units_Z   2
loop_
 _symmetry_equiv_pos_site_id
 _symmetry_equiv_pos_as_xyz
  1  'x, y, z'
loop_
 _atom_site_type_symbol
 _atom_site_label
 _atom_site_symmetry_multiplicity
 _atom_site_fract_x
 _atom_site_fract_y
 _atom_site_fract_z
 _atom_site_occupancy
  Rb  Rb0  1  0.000000  0.000000  0.000000  1
  Rb  Rb1  1  0.500000  0.000000  0.500000  1
  Rb  Rb2  1  0.000000  0.500000  0.000000  1
  Rb  Rb3  1  0.500000  0.500000  0.500000  1
  Rb  Rb4  1  0.985158  0.750000  0.424261  1
  Rb  Rb5  1  0.486406  0.250000  0.073712  1
  Rb  Rb6  1  0.014842  0.250000  0.575739  1
  Rb  Rb7  1  0.513594  0.750000  0.926288  1
  Rb  Rb8  1  0.838837  0.053228  0.277839  1
  Rb  Rb9  1  0.339301  0.948883  0.222821  1
  Rb  Rb10  1  0.161163  0.553228  0.722161  1
  Rb  Rb11  1  0.660699  0.448883  0.777179  1
  Rb  Rb12  1  0.161163  0.946772  0.722161  1
  Rb  Rb13  1  0.660699  0.051117  0.777179  1
  Rb  Rb14  1  0.838837  0.446772  0.277839  1
  Rb  Rb15  1  0.339301  0.551117  0.222821  1
  Cr  Cr16  1  0.741234  0.750000  0.166118  1
  Cr  Cr17  1  0.258766  0.250000  0.833882  1
  Ge  Ge18  1  0.760812  0.750000  0.665639  1
  Ge  Ge19  1  0.239188  0.250000  0.334361  1
  Se  Se20  1  0.990759  0.250000  0.825417  1
  Se  Se21  1  0.514742  0.250000  0.324620  1
  Se  Se22  1  0.485258  0.750000  0.675380  1
  Se  Se23  1  0.009241  0.750000  0.174583  1
  Se  Se24  1  0.658780  0.564459  0.093158  1
  Se  Se25  1  0.153718  0.439773  0.410019  1
  Se  Se26  1  0.341220  0.064459  0.906842  1
  Se  Se27  1  0.846282  0.939773  0.589981  1
  Se  Se28  1  0.341220  0.435541  0.906842  1
  Se  Se29  1  0.846282  0.560227  0.589981  1
  Se  Se30  1  0.658780  0.935541  0.093158  1
  Se  Se31  1  0.153718  0.060227  0.410019  1
  Se  Se32  1  0.636681  0.750000  0.308317  1
  Se  Se33  1  0.135383  0.250000  0.187984  1
  Se  Se34  1  0.363319  0.250000  0.691683  1
  Se  Se35  1  0.864617  0.750000  0.812016  1
