# generated using pymatgen
data_YEr5NiI10
_symmetry_space_group_name_H-M   'P 1'
_cell_length_a   7.64890581
_cell_length_b   9.58802907
_cell_length_c   9.61740300
_cell_angle_alpha   107.07445121
_cell_angle_beta   97.01090105
_cell_angle_gamma   104.61482965
_symmetry_Int_Tables_number   1
_chemical_formula_structural   YEr5NiI10
_chemical_formula_sum   'Y1 Er5 Ni1 I10'
_cell_volume   637.58080710
_cell_formula_units_Z   1
loop_
 _symmetry_equiv_pos_site_id
 _symmetry_equiv_pos_as_xyz
  1  'x, y, z'
loop_
 _atom_site_type_symbol
 _atom_site_label
 _atom_site_symmetry_multiplicity
 _atom_site_fract_x
 _atom_site_fract_y
 _atom_site_fract_z
 _atom_site_occupancy
  Y  Y0  1  0.342236  0.121523  0.162617  1
  Er  Er1  1  0.888070  0.959576  0.233695  1
  Er  Er2  1  0.109816  0.039226  0.765319  1
  Er  Er3  1  0.029505  0.722119  0.916690  1
  Er  Er4  1  0.969350  0.277544  0.082394  1
  Er  Er5  1  0.662246  0.879884  0.839319  1
  Ni  Ni6  1  0.999783  0.999952  0.000018  1
  I  I7  1  0.647490  0.548506  0.726907  1
  I  I8  1  0.350251  0.453884  0.272843  1
  I  I9  1  0.740910  0.911553  0.535876  1
  I  I10  1  0.256022  0.087358  0.465152  1
  I  I11  1  0.084777  0.373196  0.819388  1
  I  I12  1  0.914590  0.626618  0.180056  1
  I  I13  1  0.454271  0.812035  0.092355  1
  I  I14  1  0.546083  0.185330  0.904757  1
  I  I15  1  0.225393  0.743161  0.655563  1
  I  I16  1  0.779208  0.258533  0.347052  1
