# generated using pymatgen
data_Y4Zn(Ga2Pt)10
_symmetry_space_group_name_H-M   'P 1'
_cell_length_a   4.15143793
_cell_length_b   11.14982954
_cell_length_c   13.64951646
_cell_angle_alpha   81.49594019
_cell_angle_beta   81.25293135
_cell_angle_gamma   79.27088531
_symmetry_Int_Tables_number   1
_chemical_formula_structural   Y4Zn(Ga2Pt)10
_chemical_formula_sum   'Y4 Zn1 Ga20 Pt10'
_cell_volume   608.87292287
_cell_formula_units_Z   1
loop_
 _symmetry_equiv_pos_site_id
 _symmetry_equiv_pos_as_xyz
  1  'x, y, z'
loop_
 _atom_site_type_symbol
 _atom_site_label
 _atom_site_symmetry_multiplicity
 _atom_site_fract_x
 _atom_site_fract_y
 _atom_site_fract_z
 _atom_site_occupancy
  Y  Y0  1  0.125673  0.086285  0.662369  1
  Y  Y1  1  0.874327  0.913715  0.337631  1
  Y  Y2  1  0.773707  0.631843  0.820743  1
  Y  Y3  1  0.226293  0.368157  0.179257  1
  Zn  Zn4  1  0.500000  0.500000  0.500000  1
  Ga  Ga5  1  0.009696  0.070604  0.910004  1
  Ga  Ga6  1  0.990304  0.929396  0.089996  1
  Ga  Ga7  1  0.064324  0.670931  0.200422  1
  Ga  Ga8  1  0.935676  0.329069  0.799578  1
  Ga  Ga9  1  0.109449  0.330455  0.450646  1
  Ga  Ga10  1  0.890551  0.669545  0.549354  1
  Ga  Ga11  1  0.202552  0.603490  0.991405  1
  Ga  Ga12  1  0.797448  0.396510  0.008595  1
  Ga  Ga13  1  0.257336  0.781865  0.703464  1
  Ga  Ga14  1  0.742664  0.218135  0.296536  1
  Ga  Ga15  1  0.302178  0.900159  0.495485  1
  Ga  Ga16  1  0.697822  0.099841  0.504515  1
  Ga  Ga17  1  0.385495  0.526265  0.702744  1
  Ga  Ga18  1  0.614505  0.473735  0.297256  1
  Ga  Ga19  1  0.397786  0.204056  0.000372  1
  Ga  Ga20  1  0.602214  0.795944  0.999628  1
  Ga  Ga21  1  0.544384  0.280429  0.630803  1
  Ga  Ga22  1  0.455616  0.719571  0.369197  1
  Ga  Ga23  1  0.634905  0.937261  0.792929  1
  Ga  Ga24  1  0.365095  0.062739  0.207071  1
  Pt  Pt25  1  0.024608  0.567430  0.383353  1
  Pt  Pt26  1  0.975392  0.432570  0.616647  1
  Pt  Pt27  1  0.137024  0.836262  0.889690  1
  Pt  Pt28  1  0.862976  0.163738  0.110310  1
  Pt  Pt29  1  0.242319  0.125580  0.389780  1
  Pt  Pt30  1  0.757681  0.874420  0.610220  1
  Pt  Pt31  1  0.345532  0.417811  0.891126  1
  Pt  Pt32  1  0.654468  0.582189  0.108874  1
  Pt  Pt33  1  0.505683  0.171411  0.817225  1
  Pt  Pt34  1  0.494317  0.828589  0.182775  1
