# generated using pymatgen
data_Zr24GeSe7
_symmetry_space_group_name_H-M   'P 1'
_cell_length_a   10.99645587
_cell_length_b   11.00519149
_cell_length_c   5.50837569
_cell_angle_alpha   89.79856835
_cell_angle_beta   90.10389997
_cell_angle_gamma   89.97216500
_symmetry_Int_Tables_number   1
_chemical_formula_structural   Zr24GeSe7
_chemical_formula_sum   'Zr24 Ge1 Se7'
_cell_volume   666.60787748
_cell_formula_units_Z   1
loop_
 _symmetry_equiv_pos_site_id
 _symmetry_equiv_pos_as_xyz
  1  'x, y, z'
loop_
 _atom_site_type_symbol
 _atom_site_label
 _atom_site_symmetry_multiplicity
 _atom_site_fract_x
 _atom_site_fract_y
 _atom_site_fract_z
 _atom_site_occupancy
  Zr  Zr0  1  0.914770  0.602979  0.548426  1
  Zr  Zr1  1  0.085868  0.396182  0.544851  1
  Zr  Zr2  1  0.897234  0.414572  0.045202  1
  Zr  Zr3  1  0.102396  0.586243  0.040135  1
  Zr  Zr4  1  0.585418  0.897857  0.955399  1
  Zr  Zr5  1  0.414744  0.102952  0.956454  1
  Zr  Zr6  1  0.602505  0.085196  0.453884  1
  Zr  Zr7  1  0.397014  0.914037  0.456455  1
  Zr  Zr8  1  0.858263  0.976898  0.717572  1
  Zr  Zr9  1  0.140550  0.027090  0.716230  1
  Zr  Zr10  1  0.524898  0.359066  0.215931  1
  Zr  Zr11  1  0.474666  0.639955  0.217236  1
  Zr  Zr12  1  0.640650  0.523610  0.783462  1
  Zr  Zr13  1  0.359436  0.474251  0.782787  1
  Zr  Zr14  1  0.975083  0.140403  0.285331  1
  Zr  Zr15  1  0.025896  0.858861  0.281521  1
  Zr  Zr16  1  0.817190  0.714764  0.014032  1
  Zr  Zr17  1  0.182546  0.284937  0.016614  1
  Zr  Zr18  1  0.785579  0.317567  0.515687  1
  Zr  Zr19  1  0.213890  0.681242  0.515094  1
  Zr  Zr20  1  0.682172  0.785101  0.485808  1
  Zr  Zr21  1  0.318501  0.214043  0.484247  1
  Zr  Zr22  1  0.714705  0.182743  0.985829  1
  Zr  Zr23  1  0.285569  0.818416  0.982315  1
  Ge  Ge24  1  0.037343  0.796527  0.787139  1
  Se  Se25  1  0.793417  0.961469  0.211227  1
  Se  Se26  1  0.206941  0.036628  0.212128  1
  Se  Se27  1  0.537572  0.292685  0.711012  1
  Se  Se28  1  0.462890  0.706547  0.712290  1
  Se  Se29  1  0.706987  0.537463  0.288303  1
  Se  Se30  1  0.292533  0.462601  0.287627  1
  Se  Se31  1  0.962774  0.207114  0.789769  1
