# generated using pymatgen
data_TeP4SeO14
_symmetry_space_group_name_H-M   'P 1'
_cell_length_a   4.97064352
_cell_length_b   7.18448948
_cell_length_c   8.31407300
_cell_angle_alpha   91.64322770
_cell_angle_beta   92.90680415
_cell_angle_gamma   105.98498654
_symmetry_Int_Tables_number   1
_chemical_formula_structural   TeP4SeO14
_chemical_formula_sum   'Te1 P4 Se1 O14'
_cell_volume   284.77949449
_cell_formula_units_Z   1
loop_
 _symmetry_equiv_pos_site_id
 _symmetry_equiv_pos_as_xyz
  1  'x, y, z'
loop_
 _atom_site_type_symbol
 _atom_site_label
 _atom_site_symmetry_multiplicity
 _atom_site_fract_x
 _atom_site_fract_y
 _atom_site_fract_z
 _atom_site_occupancy
  Te  Te0  1  0.500000  0.500000  0.500000  1
  P  P1  1  0.528406  0.134053  0.772707  1
  P  P2  1  0.121509  0.754770  0.700004  1
  P  P3  1  0.878491  0.245230  0.299996  1
  P  P4  1  0.471594  0.865947  0.227293  1
  Se  Se5  1  0.000000  0.000000  0.000000  1
  O  O6  1  0.377373  0.165024  0.924067  1
  O  O7  1  0.031846  0.762074  0.874414  1
  O  O8  1  0.795045  0.068272  0.805400  1
  O  O9  1  0.294405  0.608950  0.689799  1
  O  O10  1  0.607376  0.312782  0.671715  1
  O  O11  1  0.315892  0.966243  0.658823  1
  O  O12  1  0.882270  0.720274  0.569896  1
  O  O13  1  0.117730  0.279726  0.430104  1
  O  O14  1  0.684108  0.033757  0.341177  1
  O  O15  1  0.392624  0.687218  0.328285  1
  O  O16  1  0.705595  0.391050  0.310201  1
  O  O17  1  0.204955  0.931728  0.194600  1
  O  O18  1  0.968154  0.237926  0.125586  1
  O  O19  1  0.622627  0.834976  0.075933  1
