# generated using pymatgen
data_YOsO4
_symmetry_space_group_name_H-M   'P 1'
_cell_length_a   5.38029837
_cell_length_b   7.70197823
_cell_length_c   7.45752509
_cell_angle_alpha   79.65981144
_cell_angle_beta   91.08046955
_cell_angle_gamma   93.76848068
_symmetry_Int_Tables_number   1
_chemical_formula_structural   YOsO4
_chemical_formula_sum   'Y4 Os4 O16'
_cell_volume   303.34788200
_cell_formula_units_Z   4
loop_
 _symmetry_equiv_pos_site_id
 _symmetry_equiv_pos_as_xyz
  1  'x, y, z'
loop_
 _atom_site_type_symbol
 _atom_site_label
 _atom_site_symmetry_multiplicity
 _atom_site_fract_x
 _atom_site_fract_y
 _atom_site_fract_z
 _atom_site_occupancy
  Y  Y0  1  0.262500  0.117310  0.609880  1
  Y  Y1  1  0.737529  0.882734  0.390116  1
  Y  Y2  1  0.196159  0.171277  0.102292  1
  Y  Y3  1  0.803876  0.828730  0.897710  1
  Os  Os4  1  0.246156  0.664465  0.206188  1
  Os  Os5  1  0.753964  0.335598  0.793799  1
  Os  Os6  1  0.715837  0.335703  0.299312  1
  Os  Os7  1  0.284021  0.664168  0.700705  1
  O  O8  1  0.057506  0.464960  0.710200  1
  O  O9  1  0.942415  0.535000  0.289836  1
  O  O10  1  0.616962  0.326164  0.550301  1
  O  O11  1  0.382963  0.673856  0.449697  1
  O  O12  1  0.843222  0.321572  0.054376  1
  O  O13  1  0.156859  0.678440  0.945620  1
  O  O14  1  0.407506  0.441374  0.200387  1
  O  O15  1  0.592508  0.558590  0.799623  1
  O  O16  1  0.052832  0.886264  0.177838  1
  O  O17  1  0.947126  0.113755  0.822138  1
  O  O18  1  0.491742  0.110657  0.321896  1
  O  O19  1  0.508300  0.889388  0.678104  1
  O  O20  1  0.449410  0.198370  0.868526  1
  O  O21  1  0.550608  0.801604  0.131456  1
  O  O22  1  0.976830  0.164646  0.381467  1
  O  O23  1  0.023169  0.835375  0.618532  1
