# generated using pymatgen
data_Ba(VSe2)3
_symmetry_space_group_name_H-M   'P 1'
_cell_length_a   5.88551000
_cell_length_b   5.88550885
_cell_length_c   16.52468700
_cell_angle_alpha   90.00000000
_cell_angle_beta   90.00000000
_cell_angle_gamma   119.99998399
_symmetry_Int_Tables_number   1
_chemical_formula_structural   Ba(VSe2)3
_chemical_formula_sum   'Ba2 V6 Se12'
_cell_volume   495.71500261
_cell_formula_units_Z   2
loop_
 _symmetry_equiv_pos_site_id
 _symmetry_equiv_pos_as_xyz
  1  'x, y, z'
loop_
 _atom_site_type_symbol
 _atom_site_label
 _atom_site_symmetry_multiplicity
 _atom_site_fract_x
 _atom_site_fract_y
 _atom_site_fract_z
 _atom_site_occupancy
  Ba  Ba0  1  0.000000  0.000000  0.500000  1
  Ba  Ba1  1  0.000000  0.000000  0.000000  1
  V  V2  1  0.000000  0.000000  0.250000  1
  V  V3  1  0.000000  0.000000  0.750000  1
  V  V4  1  0.333333  0.666667  0.250000  1
  V  V5  1  0.666667  0.333333  0.750000  1
  V  V6  1  0.666667  0.333333  0.250000  1
  V  V7  1  0.333333  0.666667  0.750000  1
  Se  Se8  1  0.337520  0.000000  0.155545  1
  Se  Se9  1  0.000000  0.337520  0.155545  1
  Se  Se10  1  0.662480  0.662480  0.155545  1
  Se  Se11  1  0.337520  0.337520  0.655545  1
  Se  Se12  1  0.662480  0.662480  0.344455  1
  Se  Se13  1  0.662480  0.000000  0.655545  1
  Se  Se14  1  0.000000  0.662480  0.655545  1
  Se  Se15  1  0.000000  0.662480  0.844455  1
  Se  Se16  1  0.337520  0.337520  0.844455  1
  Se  Se17  1  0.000000  0.337520  0.344455  1
  Se  Se18  1  0.337520  0.000000  0.344455  1
  Se  Se19  1  0.662480  0.000000  0.844455  1
