# generated using pymatgen
data_Er4Tm4Sc12Si15Ge
_symmetry_space_group_name_H-M   'P 1'
_cell_length_a   7.06890120
_cell_length_b   7.35990279
_cell_length_c   13.93398651
_cell_angle_alpha   90.00734749
_cell_angle_beta   89.88535620
_cell_angle_gamma   90.03760323
_symmetry_Int_Tables_number   1
_chemical_formula_structural   Er4Tm4Sc12Si15Ge
_chemical_formula_sum   'Er4 Tm4 Sc12 Si15 Ge1'
_cell_volume   724.93390065
_cell_formula_units_Z   1
loop_
 _symmetry_equiv_pos_site_id
 _symmetry_equiv_pos_as_xyz
  1  'x, y, z'
loop_
 _atom_site_type_symbol
 _atom_site_label
 _atom_site_symmetry_multiplicity
 _atom_site_fract_x
 _atom_site_fract_y
 _atom_site_fract_z
 _atom_site_occupancy
  Er  Er0  1  0.012292  0.176404  0.096420  1
  Er  Er1  1  0.987892  0.823793  0.903595  1
  Er  Er2  1  0.488293  0.676411  0.903654  1
  Er  Er3  1  0.987456  0.824592  0.596543  1
  Tm  Tm4  1  0.512032  0.323552  0.096634  1
  Tm  Tm5  1  0.010893  0.175874  0.402810  1
  Tm  Tm6  1  0.512583  0.322128  0.402617  1
  Tm  Tm7  1  0.490940  0.678069  0.596937  1
  Sc  Sc8  1  0.161045  0.503345  0.751128  1
  Sc  Sc9  1  0.838858  0.496586  0.250070  1
  Sc  Sc10  1  0.339101  0.003373  0.249977  1
  Sc  Sc11  1  0.660954  0.996590  0.750031  1
  Sc  Sc12  1  0.332837  0.174635  0.626020  1
  Sc  Sc13  1  0.668315  0.823622  0.374397  1
  Sc  Sc14  1  0.168026  0.677579  0.374217  1
  Sc  Sc15  1  0.668858  0.822898  0.125225  1
  Sc  Sc16  1  0.829785  0.323088  0.625365  1
  Sc  Sc17  1  0.331176  0.176794  0.874774  1
  Sc  Sc18  1  0.831018  0.323005  0.874793  1
  Sc  Sc19  1  0.168906  0.676983  0.125303  1
  Si  Si20  1  0.033048  0.114452  0.750165  1
  Si  Si21  1  0.967039  0.886375  0.249603  1
  Si  Si22  1  0.466838  0.614024  0.249725  1
  Si  Si23  1  0.532619  0.386321  0.750210  1
  Si  Si24  1  0.285144  0.870585  0.750184  1
  Si  Si25  1  0.714876  0.128968  0.249691  1
  Si  Si26  1  0.214822  0.370953  0.250024  1
  Si  Si27  1  0.785549  0.628911  0.750016  1
  Si  Si28  1  0.835127  0.535616  0.459785  1
  Si  Si29  1  0.340007  0.965342  0.460442  1
  Si  Si30  1  0.840612  0.534533  0.039457  1
  Si  Si31  1  0.659616  0.035120  0.539339  1
  Si  Si32  1  0.159153  0.465331  0.960778  1
  Si  Si33  1  0.659072  0.034872  0.960622  1
  Si  Si34  1  0.340966  0.965395  0.039539  1
  Ge  Ge35  1  0.164257  0.463880  0.539910  1
