# generated using pymatgen
data_Ga12CoRe2Rh
_symmetry_space_group_name_H-M   'P 1'
_cell_length_a   6.50529857
_cell_length_b   6.51710075
_cell_length_c   6.84317700
_cell_angle_alpha   90.00000000
_cell_angle_beta   90.00000000
_cell_angle_gamma   90.22597258
_symmetry_Int_Tables_number   1
_chemical_formula_structural   Ga12CoRe2Rh
_chemical_formula_sum   'Ga12 Co1 Re2 Rh1'
_cell_volume   290.11892826
_cell_formula_units_Z   1
loop_
 _symmetry_equiv_pos_site_id
 _symmetry_equiv_pos_as_xyz
  1  'x, y, z'
loop_
 _atom_site_type_symbol
 _atom_site_label
 _atom_site_symmetry_multiplicity
 _atom_site_fract_x
 _atom_site_fract_y
 _atom_site_fract_z
 _atom_site_occupancy
  Ga  Ga0  1  0.495311  0.993718  0.000000  1
  Ga  Ga1  1  0.495728  0.000431  0.500000  1
  Ga  Ga2  1  0.009321  0.507354  0.000000  1
  Ga  Ga3  1  0.997987  0.499619  0.500000  1
  Ga  Ga4  1  0.658419  0.347213  0.739503  1
  Ga  Ga5  1  0.845762  0.845194  0.764068  1
  Ga  Ga6  1  0.156232  0.154419  0.769098  1
  Ga  Ga7  1  0.340968  0.664247  0.739912  1
  Ga  Ga8  1  0.340968  0.664247  0.260088  1
  Ga  Ga9  1  0.658419  0.347213  0.260497  1
  Ga  Ga10  1  0.845762  0.845194  0.235932  1
  Ga  Ga11  1  0.156232  0.154419  0.230902  1
  Co  Co12  1  0.164308  0.835425  0.000000  1
  Re  Re13  1  0.848510  0.151512  0.000000  1
  Re  Re14  1  0.651787  0.654411  0.500000  1
  Rh  Rh15  1  0.334288  0.335383  0.500000  1
