# generated using pymatgen
data_NaDy(InBr3)2
_symmetry_space_group_name_H-M   'P 1'
_cell_length_a   8.21560800
_cell_length_b   7.66033173
_cell_length_c   13.24122522
_cell_angle_alpha   56.40865646
_cell_angle_beta   90.00000000
_cell_angle_gamma   90.00000000
_symmetry_Int_Tables_number   1
_chemical_formula_structural   NaDy(InBr3)2
_chemical_formula_sum   'Na2 Dy2 In4 Br12'
_cell_volume   694.16543265
_cell_formula_units_Z   2
loop_
 _symmetry_equiv_pos_site_id
 _symmetry_equiv_pos_as_xyz
  1  'x, y, z'
loop_
 _atom_site_type_symbol
 _atom_site_label
 _atom_site_symmetry_multiplicity
 _atom_site_fract_x
 _atom_site_fract_y
 _atom_site_fract_z
 _atom_site_occupancy
  Na  Na0  1  0.500000  0.500000  0.000000  1
  Na  Na1  1  0.000000  0.500000  0.500000  1
  Dy  Dy2  1  0.500000  0.000000  0.500000  1
  Dy  Dy3  1  0.000000  0.000000  0.000000  1
  In  In4  1  0.070102  0.718175  0.758287  1
  In  In5  1  0.929898  0.281825  0.241713  1
  In  In6  1  0.570102  0.281825  0.741713  1
  In  In7  1  0.429898  0.718175  0.258287  1
  Br  Br8  1  0.784426  0.756605  0.561767  1
  Br  Br9  1  0.215574  0.243395  0.438233  1
  Br  Br10  1  0.284426  0.243395  0.938233  1
  Br  Br11  1  0.715574  0.756605  0.061767  1
  Br  Br12  1  0.458841  0.870031  0.743281  1
  Br  Br13  1  0.541159  0.129969  0.256719  1
  Br  Br14  1  0.958841  0.129969  0.756719  1
  Br  Br15  1  0.041159  0.870031  0.243281  1
  Br  Br16  1  0.312797  0.655460  0.544640  1
  Br  Br17  1  0.687203  0.344540  0.455360  1
  Br  Br18  1  0.812797  0.344540  0.955360  1
  Br  Br19  1  0.187203  0.655460  0.044640  1
