# generated using pymatgen
data_Ca16La4Ru3Rh
_symmetry_space_group_name_H-M   'P 1'
_cell_length_a   6.81533573
_cell_length_b   7.51760481
_cell_length_c   16.51833300
_cell_angle_alpha   90.00000000
_cell_angle_beta   90.00000000
_cell_angle_gamma   90.05316631
_symmetry_Int_Tables_number   1
_chemical_formula_structural   Ca16La4Ru3Rh
_chemical_formula_sum   'Ca16 La4 Ru3 Rh1'
_cell_volume   846.31643823
_cell_formula_units_Z   1
loop_
 _symmetry_equiv_pos_site_id
 _symmetry_equiv_pos_as_xyz
  1  'x, y, z'
loop_
 _atom_site_type_symbol
 _atom_site_label
 _atom_site_symmetry_multiplicity
 _atom_site_fract_x
 _atom_site_fract_y
 _atom_site_fract_z
 _atom_site_occupancy
  Ca  Ca0  1  0.351362  0.308541  0.058522  1
  Ca  Ca1  1  0.648711  0.691721  0.940402  1
  Ca  Ca2  1  0.851348  0.191200  0.940348  1
  Ca  Ca3  1  0.648711  0.691721  0.559598  1
  Ca  Ca4  1  0.149591  0.808995  0.058956  1
  Ca  Ca5  1  0.351362  0.308541  0.441478  1
  Ca  Ca6  1  0.149591  0.808995  0.441044  1
  Ca  Ca7  1  0.851348  0.191200  0.559652  1
  Ca  Ca8  1  0.322883  0.037833  0.646196  1
  Ca  Ca9  1  0.676302  0.961948  0.354690  1
  Ca  Ca10  1  0.825494  0.460695  0.354924  1
  Ca  Ca11  1  0.676302  0.961948  0.145310  1
  Ca  Ca12  1  0.176809  0.537840  0.646127  1
  Ca  Ca13  1  0.322883  0.037833  0.853804  1
  Ca  Ca14  1  0.176809  0.537840  0.853873  1
  Ca  Ca15  1  0.825494  0.460695  0.145076  1
  La  La16  1  0.169919  0.086745  0.250000  1
  La  La17  1  0.838298  0.922749  0.750000  1
  La  La18  1  0.661342  0.422828  0.750000  1
  La  La19  1  0.341864  0.576620  0.250000  1
  Ru  Ru20  1  0.494135  0.274558  0.250000  1
  Ru  Ru21  1  0.506312  0.725048  0.750000  1
  Ru  Ru22  1  0.993681  0.225223  0.750000  1
  Rh  Rh23  1  0.989451  0.768683  0.250000  1
