# generated using pymatgen
data_Al3V12Ga3(CoN2)2
_symmetry_space_group_name_H-M   'P 1'
_cell_length_a   6.56083635
_cell_length_b   6.56083592
_cell_length_c   6.56083577
_cell_angle_alpha   89.97535321
_cell_angle_beta   90.02465128
_cell_angle_gamma   90.02464389
_symmetry_Int_Tables_number   1
_chemical_formula_structural   Al3V12Ga3(CoN2)2
_chemical_formula_sum   'Al3 V12 Ga3 Co2 N4'
_cell_volume   282.40828165
_cell_formula_units_Z   1
loop_
 _symmetry_equiv_pos_site_id
 _symmetry_equiv_pos_as_xyz
  1  'x, y, z'
loop_
 _atom_site_type_symbol
 _atom_site_label
 _atom_site_symmetry_multiplicity
 _atom_site_fract_x
 _atom_site_fract_y
 _atom_site_fract_z
 _atom_site_occupancy
  Al  Al0  1  0.332036  0.190031  0.825515  1
  Al  Al1  1  0.809969  0.325515  0.167964  1
  Al  Al2  1  0.674485  0.667964  0.690031  1
  V  V3  1  0.793147  0.959508  0.374146  1
  V  V4  1  0.709455  0.040848  0.876219  1
  V  V5  1  0.212422  0.463659  0.123079  1
  V  V6  1  0.290379  0.541299  0.624743  1
  V  V7  1  0.959152  0.376219  0.790545  1
  V  V8  1  0.040492  0.874146  0.706853  1
  V  V9  1  0.458701  0.124743  0.209621  1
  V  V10  1  0.536341  0.623079  0.287578  1
  V  V11  1  0.376921  0.787578  0.963659  1
  V  V12  1  0.875257  0.709621  0.041299  1
  V  V13  1  0.125854  0.206853  0.459508  1
  V  V14  1  0.623781  0.290545  0.540848  1
  Ga  Ga15  1  0.421669  0.925180  0.563102  1
  Ga  Ga16  1  0.936898  0.578331  0.425180  1
  Ga  Ga17  1  0.074820  0.063102  0.078331  1
  Co  Co18  1  0.179709  0.820291  0.320291  1
  Co  Co19  1  0.570376  0.429624  0.929624  1
  N  N20  1  0.874680  0.125320  0.625320  1
  N  N21  1  0.625712  0.875205  0.127053  1
  N  N22  1  0.124795  0.627053  0.874288  1
  N  N23  1  0.372947  0.374288  0.375205  1
