# generated using pymatgen
data_NdDy3Ho2Ta2O14
_symmetry_space_group_name_H-M   'P 1'
_cell_length_a   6.50008114
_cell_length_b   6.50402203
_cell_length_c   7.52258608
_cell_angle_alpha   89.90055529
_cell_angle_beta   90.10387474
_cell_angle_gamma   108.73875053
_symmetry_Int_Tables_number   1
_chemical_formula_structural   NdDy3Ho2Ta2O14
_chemical_formula_sum   'Nd1 Dy3 Ho2 Ta2 O14'
_cell_volume   301.17143852
_cell_formula_units_Z   1
loop_
 _symmetry_equiv_pos_site_id
 _symmetry_equiv_pos_as_xyz
  1  'x, y, z'
loop_
 _atom_site_type_symbol
 _atom_site_label
 _atom_site_symmetry_multiplicity
 _atom_site_fract_x
 _atom_site_fract_y
 _atom_site_fract_z
 _atom_site_occupancy
  Nd  Nd0  1  0.519365  0.519997  0.499993  1
  Dy  Dy1  1  0.461377  0.460704  0.999945  1
  Dy  Dy2  1  0.999703  0.535139  0.240045  1
  Dy  Dy3  1  0.998987  0.465321  0.744754  1
  Ho  Ho4  1  0.534370  0.999992  0.759931  1
  Ho  Ho5  1  0.466142  0.998715  0.254979  1
  Ta  Ta6  1  0.001837  0.001772  0.499886  1
  Ta  Ta7  1  0.997215  0.997286  0.999877  1
  O  O8  1  0.932340  0.066872  0.749644  1
  O  O9  1  0.067839  0.933414  0.250317  1
  O  O10  1  0.358959  0.642925  0.241227  1
  O  O11  1  0.641135  0.357138  0.758607  1
  O  O12  1  0.368155  0.633339  0.758745  1
  O  O13  1  0.630692  0.365523  0.241778  1
  O  O14  1  0.327203  0.080461  0.974611  1
  O  O15  1  0.674099  0.924917  0.473604  1
  O  O16  1  0.312177  0.057153  0.542828  1
  O  O17  1  0.693027  0.952791  0.043501  1
  O  O18  1  0.059251  0.312758  0.457909  1
  O  O19  1  0.950594  0.692442  0.957040  1
  O  O20  1  0.923404  0.674368  0.525845  1
  O  O21  1  0.082128  0.326975  0.024935  1
