# generated using pymatgen
data_La2Tb5ErSe12
_symmetry_space_group_name_H-M   'P 1'
_cell_length_a   4.18489000
_cell_length_b   11.69591208
_cell_length_c   11.98000200
_cell_angle_alpha   70.97798169
_cell_angle_beta   90.00000000
_cell_angle_gamma   90.00000000
_symmetry_Int_Tables_number   1
_chemical_formula_structural   La2Tb5ErSe12
_chemical_formula_sum   'La2 Tb5 Er1 Se12'
_cell_volume   554.35452286
_cell_formula_units_Z   1
loop_
 _symmetry_equiv_pos_site_id
 _symmetry_equiv_pos_as_xyz
  1  'x, y, z'
loop_
 _atom_site_type_symbol
 _atom_site_label
 _atom_site_symmetry_multiplicity
 _atom_site_fract_x
 _atom_site_fract_y
 _atom_site_fract_z
 _atom_site_occupancy
  La  La0  1  0.250000  0.452528  0.194460  1
  La  La1  1  0.750000  0.548628  0.804971  1
  Tb  Tb2  1  0.250000  0.339649  0.586219  1
  Tb  Tb3  1  0.750000  0.659786  0.413941  1
  Tb  Tb4  1  0.250000  0.820651  0.998743  1
  Tb  Tb5  1  0.750000  0.179751  0.999547  1
  Tb  Tb6  1  0.250000  0.060349  0.334377  1
  Er  Er7  1  0.750000  0.939080  0.666473  1
  Se  Se8  1  0.250000  0.697474  0.249820  1
  Se  Se9  1  0.750000  0.302849  0.750070  1
  Se  Se10  1  0.250000  0.583206  0.594059  1
  Se  Se11  1  0.750000  0.416375  0.406220  1
  Se  Se12  1  0.250000  0.381094  0.964449  1
  Se  Se13  1  0.750000  0.619247  0.034894  1
  Se  Se14  1  0.250000  0.019464  0.113335  1
  Se  Se15  1  0.750000  0.980370  0.884108  1
  Se  Se16  1  0.750000  0.893623  0.443440  1
  Se  Se17  1  0.250000  0.103394  0.562538  1
  Se  Se18  1  0.750000  0.236772  0.227858  1
  Se  Se19  1  0.250000  0.765709  0.770479  1
