# generated using pymatgen
data_Ba6Li2Ag21Pb
_symmetry_space_group_name_H-M   'P 1'
_cell_length_a   10.06918000
_cell_length_b   10.06917892
_cell_length_c   8.43310800
_cell_angle_alpha   90.00000000
_cell_angle_beta   90.00000000
_cell_angle_gamma   119.99999699
_symmetry_Int_Tables_number   1
_chemical_formula_structural   Ba6Li2Ag21Pb
_chemical_formula_sum   'Ba6 Li2 Ag21 Pb1'
_cell_volume   740.46829752
_cell_formula_units_Z   1
loop_
 _symmetry_equiv_pos_site_id
 _symmetry_equiv_pos_as_xyz
  1  'x, y, z'
loop_
 _atom_site_type_symbol
 _atom_site_label
 _atom_site_symmetry_multiplicity
 _atom_site_fract_x
 _atom_site_fract_y
 _atom_site_fract_z
 _atom_site_occupancy
  Ba  Ba0  1  0.525233  0.050467  0.248323  1
  Ba  Ba1  1  0.477364  0.954728  0.751733  1
  Ba  Ba2  1  0.949533  0.474767  0.248323  1
  Ba  Ba3  1  0.045272  0.522636  0.751733  1
  Ba  Ba4  1  0.525233  0.474767  0.248323  1
  Ba  Ba5  1  0.477364  0.522636  0.751733  1
  Li  Li6  1  0.000000  0.000000  0.000671  1
  Li  Li7  1  0.000000  0.000000  0.500769  1
  Ag  Ag8  1  0.164567  0.329133  0.065675  1
  Ag  Ag9  1  0.835741  0.671482  0.937389  1
  Ag  Ag10  1  0.670867  0.835433  0.065675  1
  Ag  Ag11  1  0.835151  0.670301  0.563074  1
  Ag  Ag12  1  0.328518  0.164259  0.937389  1
  Ag  Ag13  1  0.163266  0.326531  0.433473  1
  Ag  Ag14  1  0.164567  0.835433  0.065675  1
  Ag  Ag15  1  0.329699  0.164849  0.563074  1
  Ag  Ag16  1  0.835741  0.164259  0.937389  1
  Ag  Ag17  1  0.673469  0.836734  0.433473  1
  Ag  Ag18  1  0.835151  0.164849  0.563074  1
  Ag  Ag19  1  0.163266  0.836734  0.433473  1
  Ag  Ag20  1  0.900084  0.800167  0.251470  1
  Ag  Ag21  1  0.099770  0.199538  0.749510  1
  Ag  Ag22  1  0.199833  0.099916  0.251470  1
  Ag  Ag23  1  0.800462  0.900230  0.749510  1
  Ag  Ag24  1  0.900084  0.099916  0.251470  1
  Ag  Ag25  1  0.099770  0.900230  0.749510  1
  Ag  Ag26  1  0.333333  0.666667  0.068846  1
  Ag  Ag27  1  0.666667  0.333333  0.925572  1
  Ag  Ag28  1  0.666667  0.333333  0.571594  1
  Pb  Pb29  1  0.333333  0.666667  0.430607  1
