# generated using pymatgen
data_LiFe5(Co2Si)6
_symmetry_space_group_name_H-M   'P 1'
_cell_length_a   3.97423800
_cell_length_b   5.58190100
_cell_length_c   11.92971300
_cell_angle_alpha   90.00000000
_cell_angle_beta   90.00085995
_cell_angle_gamma   90.00000000
_symmetry_Int_Tables_number   1
_chemical_formula_structural   LiFe5(Co2Si)6
_chemical_formula_sum   'Li1 Fe5 Co12 Si6'
_cell_volume   264.64640382
_cell_formula_units_Z   1
loop_
 _symmetry_equiv_pos_site_id
 _symmetry_equiv_pos_as_xyz
  1  'x, y, z'
loop_
 _atom_site_type_symbol
 _atom_site_label
 _atom_site_symmetry_multiplicity
 _atom_site_fract_x
 _atom_site_fract_y
 _atom_site_fract_z
 _atom_site_occupancy
  Li  Li0  1  0.500258  0.500001  0.833343  1
  Fe  Fe1  1  0.999989  0.000000  0.998395  1
  Fe  Fe2  1  0.499739  0.500001  0.165208  1
  Fe  Fe3  1  0.999744  0.000000  0.333339  1
  Fe  Fe4  1  0.500004  0.500001  0.501511  1
  Fe  Fe5  1  0.000254  0.000000  0.668265  1
  Co  Co6  1  0.499995  0.248004  0.001852  1
  Co  Co7  1  0.499995  0.751996  0.001852  1
  Co  Co8  1  0.999758  0.250828  0.166550  1
  Co  Co9  1  0.999758  0.749172  0.166550  1
  Co  Co10  1  0.499749  0.249828  0.333303  1
  Co  Co11  1  0.499749  0.750172  0.333303  1
  Co  Co12  1  0.000010  0.250752  0.500122  1
  Co  Co13  1  0.000010  0.749248  0.500122  1
  Co  Co14  1  0.500255  0.247984  0.664815  1
  Co  Co15  1  0.500255  0.752016  0.664815  1
  Co  Co16  1  0.000224  0.244947  0.833321  1
  Co  Co17  1  0.000224  0.755053  0.833321  1
  Si  Si18  1  0.000014  0.500001  0.994485  1
  Si  Si19  1  0.499746  0.000000  0.165235  1
  Si  Si20  1  0.999762  0.500001  0.333351  1
  Si  Si21  1  0.500008  0.000000  0.501459  1
  Si  Si22  1  0.000269  0.500001  0.672166  1
  Si  Si23  1  0.500239  0.000000  0.833311  1
