# generated using pymatgen
data_TiBe2Zn3(B2Rh5)2
_symmetry_space_group_name_H-M   'P 1'
_cell_length_a   2.86112000
_cell_length_b   9.16989977
_cell_length_c   9.16989977
_cell_angle_alpha   90.89833187
_cell_angle_beta   90.00000000
_cell_angle_gamma   90.00000000
_symmetry_Int_Tables_number   1
_chemical_formula_structural   TiBe2Zn3(B2Rh5)2
_chemical_formula_sum   'Ti1 Be2 Zn3 B4 Rh10'
_cell_volume   240.55360421
_cell_formula_units_Z   1
loop_
 _symmetry_equiv_pos_site_id
 _symmetry_equiv_pos_as_xyz
  1  'x, y, z'
loop_
 _atom_site_type_symbol
 _atom_site_label
 _atom_site_symmetry_multiplicity
 _atom_site_fract_x
 _atom_site_fract_y
 _atom_site_fract_z
 _atom_site_occupancy
  Ti  Ti0  1  0.000000  0.173212  0.826789  1
  Be  Be1  1  0.000000  0.497284  0.997201  1
  Be  Be2  1  0.000000  0.002799  0.502716  1
  Zn  Zn3  1  0.000000  0.821477  0.178524  1
  Zn  Zn4  1  0.000000  0.325043  0.323000  1
  Zn  Zn5  1  0.000000  0.677000  0.674957  1
  B  B6  1  0.000000  0.131605  0.131864  1
  B  B7  1  0.000000  0.631880  0.368121  1
  B  B8  1  0.000000  0.372406  0.627595  1
  B  B9  1  0.000000  0.868137  0.868396  1
  Rh  Rh10  1  0.499999  0.997479  0.002521  1
  Rh  Rh11  1  0.499999  0.292400  0.067240  1
  Rh  Rh12  1  0.499999  0.570915  0.203196  1
  Rh  Rh13  1  0.499999  0.073506  0.296190  1
  Rh  Rh14  1  0.499999  0.796806  0.429087  1
  Rh  Rh15  1  0.499999  0.501014  0.498986  1
  Rh  Rh16  1  0.499999  0.206316  0.575843  1
  Rh  Rh17  1  0.499999  0.932761  0.707602  1
  Rh  Rh18  1  0.499999  0.424159  0.793686  1
  Rh  Rh19  1  0.499999  0.703812  0.926495  1
