# generated using pymatgen
data_Zr18FeCu(Re3Mo)2
_symmetry_space_group_name_H-M   'P 1'
_cell_length_a   8.74622200
_cell_length_b   8.74622212
_cell_length_c   8.53160800
_cell_angle_alpha   90.00000000
_cell_angle_beta   90.00000000
_cell_angle_gamma   120.00000711
_symmetry_Int_Tables_number   1
_chemical_formula_structural   Zr18FeCu(Re3Mo)2
_chemical_formula_sum   'Zr18 Fe1 Cu1 Re6 Mo2'
_cell_volume   565.20044157
_cell_formula_units_Z   1
loop_
 _symmetry_equiv_pos_site_id
 _symmetry_equiv_pos_as_xyz
  1  'x, y, z'
loop_
 _atom_site_type_symbol
 _atom_site_label
 _atom_site_symmetry_multiplicity
 _atom_site_fract_x
 _atom_site_fract_y
 _atom_site_fract_z
 _atom_site_occupancy
  Zr  Zr0  1  0.195335  0.804665  0.445165  1
  Zr  Zr1  1  0.195335  0.390669  0.445165  1
  Zr  Zr2  1  0.609331  0.804665  0.445165  1
  Zr  Zr3  1  0.798628  0.201372  0.558196  1
  Zr  Zr4  1  0.798628  0.597256  0.558196  1
  Zr  Zr5  1  0.402744  0.201372  0.558196  1
  Zr  Zr6  1  0.798628  0.201372  0.941804  1
  Zr  Zr7  1  0.798628  0.597256  0.941804  1
  Zr  Zr8  1  0.402744  0.201372  0.941804  1
  Zr  Zr9  1  0.195335  0.804665  0.054835  1
  Zr  Zr10  1  0.195335  0.390669  0.054835  1
  Zr  Zr11  1  0.609331  0.804665  0.054835  1
  Zr  Zr12  1  0.541958  0.458042  0.250000  1
  Zr  Zr13  1  0.541958  0.083915  0.250000  1
  Zr  Zr14  1  0.916085  0.458042  0.250000  1
  Zr  Zr15  1  0.458996  0.541004  0.750000  1
  Zr  Zr16  1  0.458996  0.917990  0.750000  1
  Zr  Zr17  1  0.082010  0.541004  0.750000  1
  Fe  Fe18  1  0.666667  0.333333  0.750000  1
  Cu  Cu19  1  0.333333  0.666667  0.250000  1
  Re  Re20  1  0.890844  0.109156  0.250000  1
  Re  Re21  1  0.890844  0.781688  0.250000  1
  Re  Re22  1  0.218312  0.109156  0.250000  1
  Re  Re23  1  0.108665  0.891335  0.750000  1
  Re  Re24  1  0.108665  0.217331  0.750000  1
  Re  Re25  1  0.782669  0.891335  0.750000  1
  Mo  Mo26  1  0.000000  0.000000  0.500164  1
  Mo  Mo27  1  0.000000  0.000000  0.999836  1
