# generated using pymatgen
data_TmPa3Al18(OsRh2)2
_symmetry_space_group_name_H-M   'P 1'
_cell_length_a   7.58142703
_cell_length_b   7.58133392
_cell_length_c   9.32763300
_cell_angle_alpha   90.00000000
_cell_angle_beta   90.00000000
_cell_angle_gamma   118.78269078
_symmetry_Int_Tables_number   1
_chemical_formula_structural   TmPa3Al18(OsRh2)2
_chemical_formula_sum   'Tm1 Pa3 Al18 Os2 Rh4'
_cell_volume   469.89006249
_cell_formula_units_Z   1
loop_
 _symmetry_equiv_pos_site_id
 _symmetry_equiv_pos_as_xyz
  1  'x, y, z'
loop_
 _atom_site_type_symbol
 _atom_site_label
 _atom_site_symmetry_multiplicity
 _atom_site_fract_x
 _atom_site_fract_y
 _atom_site_fract_z
 _atom_site_occupancy
  Tm  Tm0  1  0.319215  0.005616  0.750000  1
  Pa  Pa1  1  0.993141  0.690397  0.250000  1
  Pa  Pa2  1  0.001573  0.315297  0.750000  1
  Pa  Pa3  1  0.690122  0.994232  0.250000  1
  Al  Al4  1  0.147429  0.145753  0.250000  1
  Al  Al5  1  0.865319  0.865167  0.750000  1
  Al  Al6  1  0.005218  0.344036  0.079787  1
  Al  Al7  1  0.000055  0.663906  0.919756  1
  Al  Al8  1  0.000055  0.663906  0.580244  1
  Al  Al9  1  0.341487  0.003321  0.423733  1
  Al  Al10  1  0.005218  0.344036  0.420213  1
  Al  Al11  1  0.656044  0.995130  0.580283  1
  Al  Al12  1  0.656044  0.995130  0.919717  1
  Al  Al13  1  0.341487  0.003321  0.076267  1
  Al  Al14  1  0.331342  0.328735  0.550865  1
  Al  Al15  1  0.660969  0.660858  0.457751  1
  Al  Al16  1  0.660969  0.660858  0.042249  1
  Al  Al17  1  0.331342  0.328735  0.949135  1
  Al  Al18  1  0.347986  0.558718  0.250000  1
  Al  Al19  1  0.656480  0.442937  0.750000  1
  Al  Al20  1  0.557820  0.345105  0.250000  1
  Al  Al21  1  0.441740  0.652833  0.750000  1
  Os  Os22  1  0.993918  0.997118  0.006209  1
  Os  Os23  1  0.993918  0.997118  0.493791  1
  Rh  Rh24  1  0.674402  0.327071  0.000199  1
  Rh  Rh25  1  0.326155  0.671798  0.000314  1
  Rh  Rh26  1  0.326155  0.671798  0.499686  1
  Rh  Rh27  1  0.674402  0.327071  0.499801  1
