# generated using pymatgen
data_Cs3TbIrBr9
_symmetry_space_group_name_H-M   'P 1'
_cell_length_a   7.96942600
_cell_length_b   7.96942468
_cell_length_c   20.01558400
_cell_angle_alpha   90.00000000
_cell_angle_beta   90.00000000
_cell_angle_gamma   119.99998888
_symmetry_Int_Tables_number   1
_chemical_formula_structural   Cs3TbIrBr9
_chemical_formula_sum   'Cs6 Tb2 Ir2 Br18'
_cell_volume   1100.91289662
_cell_formula_units_Z   2
loop_
 _symmetry_equiv_pos_site_id
 _symmetry_equiv_pos_as_xyz
  1  'x, y, z'
loop_
 _atom_site_type_symbol
 _atom_site_label
 _atom_site_symmetry_multiplicity
 _atom_site_fract_x
 _atom_site_fract_y
 _atom_site_fract_z
 _atom_site_occupancy
  Cs  Cs0  1  0.333333  0.666667  0.063569  1
  Cs  Cs1  1  0.666667  0.333333  0.936431  1
  Cs  Cs2  1  0.666667  0.333333  0.566780  1
  Cs  Cs3  1  0.333333  0.666667  0.433220  1
  Cs  Cs4  1  0.000000  0.000000  0.256070  1
  Cs  Cs5  1  0.000000  0.000000  0.743930  1
  Tb  Tb6  1  0.666667  0.333333  0.164445  1
  Tb  Tb7  1  0.333333  0.666667  0.835555  1
  Ir  Ir8  1  0.333333  0.666667  0.666699  1
  Ir  Ir9  1  0.666667  0.333333  0.333301  1
  Br  Br10  1  0.184518  0.369036  0.595394  1
  Br  Br11  1  0.815482  0.630964  0.404606  1
  Br  Br12  1  0.630964  0.815482  0.595394  1
  Br  Br13  1  0.833834  0.667669  0.091425  1
  Br  Br14  1  0.369036  0.184518  0.404606  1
  Br  Br15  1  0.166166  0.332331  0.908575  1
  Br  Br16  1  0.184518  0.815482  0.595394  1
  Br  Br17  1  0.332331  0.166166  0.091425  1
  Br  Br18  1  0.815482  0.184518  0.404606  1
  Br  Br19  1  0.667669  0.833834  0.908575  1
  Br  Br20  1  0.833834  0.166166  0.091425  1
  Br  Br21  1  0.166166  0.833834  0.908575  1
  Br  Br22  1  0.511878  0.023758  0.262132  1
  Br  Br23  1  0.488122  0.976242  0.737868  1
  Br  Br24  1  0.976242  0.488122  0.262132  1
  Br  Br25  1  0.023758  0.511878  0.737868  1
  Br  Br26  1  0.511878  0.488122  0.262132  1
  Br  Br27  1  0.488122  0.511878  0.737868  1
