# generated using pymatgen
data_MnCd2Ni(SnO4)2
_symmetry_space_group_name_H-M   'P 1'
_cell_length_a   6.40395204
_cell_length_b   6.50398718
_cell_length_c   6.40395101
_cell_angle_alpha   121.05006056
_cell_angle_beta   119.12873726
_cell_angle_gamma   89.40100203
_symmetry_Int_Tables_number   1
_chemical_formula_structural   MnCd2Ni(SnO4)2
_chemical_formula_sum   'Mn1 Cd2 Ni1 Sn2 O8'
_cell_volume   189.01442804
_cell_formula_units_Z   1
loop_
 _symmetry_equiv_pos_site_id
 _symmetry_equiv_pos_as_xyz
  1  'x, y, z'
loop_
 _atom_site_type_symbol
 _atom_site_label
 _atom_site_symmetry_multiplicity
 _atom_site_fract_x
 _atom_site_fract_y
 _atom_site_fract_z
 _atom_site_occupancy
  Mn  Mn0  1  0.500000  0.000000  0.000000  1
  Cd  Cd1  1  0.891059  0.138635  0.747575  1
  Cd  Cd2  1  0.108941  0.861365  0.252425  1
  Ni  Ni3  1  0.500000  0.500000  0.500000  1
  Sn  Sn4  1  0.500000  0.500000  0.000000  1
  Sn  Sn5  1  0.000000  0.500000  0.500000  1
  O  O6  1  0.744674  0.275442  0.030768  1
  O  O7  1  0.740672  0.712787  0.472115  1
  O  O8  1  0.746504  0.283199  0.478290  1
  O  O9  1  0.304908  0.283199  0.036696  1
  O  O10  1  0.695092  0.716801  0.963304  1
  O  O11  1  0.253496  0.716801  0.521710  1
  O  O12  1  0.259328  0.287213  0.527885  1
  O  O13  1  0.255326  0.724558  0.969232  1
