# generated using pymatgen
data_Sm7Ho(Si4Mo3)4
_symmetry_space_group_name_H-M   'P 1'
_cell_length_a   6.86000417
_cell_length_b   7.02319217
_cell_length_c   13.02933802
_cell_angle_alpha   89.95506724
_cell_angle_beta   89.98933917
_cell_angle_gamma   89.90585024
_symmetry_Int_Tables_number   1
_chemical_formula_structural   Sm7Ho(Si4Mo3)4
_chemical_formula_sum   'Sm7 Ho1 Si16 Mo12'
_cell_volume   627.74108737
_cell_formula_units_Z   1
loop_
 _symmetry_equiv_pos_site_id
 _symmetry_equiv_pos_as_xyz
  1  'x, y, z'
loop_
 _atom_site_type_symbol
 _atom_site_label
 _atom_site_symmetry_multiplicity
 _atom_site_fract_x
 _atom_site_fract_y
 _atom_site_fract_z
 _atom_site_occupancy
  Sm  Sm0  1  0.497268  0.334544  0.094076  1
  Sm  Sm1  1  0.997520  0.165330  0.406066  1
  Sm  Sm2  1  0.502787  0.665317  0.594174  1
  Sm  Sm3  1  0.001846  0.834131  0.906633  1
  Sm  Sm4  1  0.502257  0.666101  0.906678  1
  Sm  Sm5  1  0.002410  0.834739  0.594174  1
  Sm  Sm6  1  0.497111  0.334457  0.404818  1
  Ho  Ho7  1  0.996563  0.166460  0.094861  1
  Si  Si8  1  0.655888  0.045226  0.548752  1
  Si  Si9  1  0.156206  0.453886  0.952541  1
  Si  Si10  1  0.340578  0.957334  0.048940  1
  Si  Si11  1  0.843762  0.544801  0.451036  1
  Si  Si12  1  0.344283  0.954676  0.450652  1
  Si  Si13  1  0.844697  0.541745  0.049064  1
  Si  Si14  1  0.657020  0.044786  0.952572  1
  Si  Si15  1  0.156218  0.455564  0.548507  1
  Si  Si16  1  0.535972  0.361035  0.750685  1
  Si  Si17  1  0.035955  0.138111  0.750268  1
  Si  Si18  1  0.464756  0.639552  0.249247  1
  Si  Si19  1  0.964884  0.863526  0.248754  1
  Si  Si20  1  0.804916  0.622545  0.750605  1
  Si  Si21  1  0.304764  0.876358  0.750372  1
  Si  Si22  1  0.193561  0.374892  0.248827  1
  Si  Si23  1  0.697250  0.124321  0.248896  1
  Mo  Mo24  1  0.831712  0.334386  0.626459  1
  Mo  Mo25  1  0.330435  0.164420  0.874656  1
  Mo  Mo26  1  0.168281  0.665476  0.126026  1
  Mo  Mo27  1  0.669738  0.835757  0.373038  1
  Mo  Mo28  1  0.167964  0.665389  0.372708  1
  Mo  Mo29  1  0.669985  0.836272  0.125287  1
  Mo  Mo30  1  0.832333  0.333228  0.874803  1
  Mo  Mo31  1  0.331241  0.164679  0.626216  1
  Mo  Mo32  1  0.664938  0.002890  0.750557  1
  Mo  Mo33  1  0.165148  0.496915  0.750447  1
  Mo  Mo34  1  0.334597  0.998846  0.249163  1
  Mo  Mo35  1  0.835156  0.502304  0.249444  1
