# generated using pymatgen
data_EuHfP2
_symmetry_space_group_name_H-M   'P 1'
_cell_length_a   3.85434300
_cell_length_b   3.85434142
_cell_length_c   13.56402300
_cell_angle_alpha   90.00000000
_cell_angle_beta   90.00000000
_cell_angle_gamma   119.99998777
_symmetry_Int_Tables_number   1
_chemical_formula_structural   EuHfP2
_chemical_formula_sum   'Eu2 Hf2 P4'
_cell_volume   174.50976975
_cell_formula_units_Z   2
loop_
 _symmetry_equiv_pos_site_id
 _symmetry_equiv_pos_as_xyz
  1  'x, y, z'
loop_
 _atom_site_type_symbol
 _atom_site_label
 _atom_site_symmetry_multiplicity
 _atom_site_fract_x
 _atom_site_fract_y
 _atom_site_fract_z
 _atom_site_occupancy
  Eu  Eu0  1  0.333333  0.666667  0.379544  1
  Eu  Eu1  1  0.666667  0.333333  0.879544  1
  Hf  Hf2  1  0.666667  0.333333  0.621487  1
  Hf  Hf3  1  0.333333  0.666667  0.121487  1
  P  P4  1  0.666667  0.333333  0.233699  1
  P  P5  1  0.333333  0.666667  0.733699  1
  P  P6  1  0.000000  0.000000  0.515271  1
  P  P7  1  0.000000  0.000000  0.015271  1
