# generated using pymatgen
data_La2PrYCoI5
_symmetry_space_group_name_H-M   'P 1'
_cell_length_a   9.84593867
_cell_length_b   9.84593782
_cell_length_c   9.27335715
_cell_angle_alpha   76.62001866
_cell_angle_beta   76.62001962
_cell_angle_gamma   25.30121184
_symmetry_Int_Tables_number   1
_chemical_formula_structural   La2PrYCoI5
_chemical_formula_sum   'La2 Pr1 Y1 Co1 I5'
_cell_volume   373.24276308
_cell_formula_units_Z   1
loop_
 _symmetry_equiv_pos_site_id
 _symmetry_equiv_pos_as_xyz
  1  'x, y, z'
loop_
 _atom_site_type_symbol
 _atom_site_label
 _atom_site_symmetry_multiplicity
 _atom_site_fract_x
 _atom_site_fract_y
 _atom_site_fract_z
 _atom_site_occupancy
  La  La0  1  0.867027  0.867027  0.072381  1
  La  La1  1  0.132764  0.132764  0.934955  1
  Pr  Pr2  1  0.499349  0.499349  0.780496  1
  Y  Y3  1  0.500331  0.500331  0.208397  1
  Co  Co4  1  0.999879  0.999879  0.001192  1
  I  I5  1  0.669583  0.669583  0.180136  1
  I  I6  1  0.325953  0.325953  0.829005  1
  I  I7  1  0.668872  0.668872  0.657186  1
  I  I8  1  0.335811  0.335811  0.347436  1
  I  I9  1  0.000431  0.000431  0.488816  1
