# generated using pymatgen
data_CaLa2(NdSi2)2
_symmetry_space_group_name_H-M   'P 1'
_cell_length_a   7.99212300
_cell_length_b   7.99212300
_cell_length_c   15.02455400
_cell_angle_alpha   90.00000000
_cell_angle_beta   90.00000000
_cell_angle_gamma   90.00000000
_symmetry_Int_Tables_number   1
_chemical_formula_structural   CaLa2(NdSi2)2
_chemical_formula_sum   'Ca4 La8 Nd8 Si16'
_cell_volume   959.67881364
_cell_formula_units_Z   4
loop_
 _symmetry_equiv_pos_site_id
 _symmetry_equiv_pos_as_xyz
  1  'x, y, z'
loop_
 _atom_site_type_symbol
 _atom_site_label
 _atom_site_symmetry_multiplicity
 _atom_site_fract_x
 _atom_site_fract_y
 _atom_site_fract_z
 _atom_site_occupancy
  Ca  Ca0  1  0.689344  0.689344  0.500000  1
  Ca  Ca1  1  0.810656  0.189344  0.750000  1
  Ca  Ca2  1  0.189344  0.810656  0.250000  1
  Ca  Ca3  1  0.310656  0.310656  0.000000  1
  La  La4  1  0.988917  0.624879  0.048628  1
  La  La5  1  0.011083  0.375121  0.548628  1
  La  La6  1  0.624879  0.988917  0.951372  1
  La  La7  1  0.124879  0.511083  0.798628  1
  La  La8  1  0.875121  0.488917  0.298628  1
  La  La9  1  0.511083  0.124879  0.201372  1
  La  La10  1  0.488917  0.875121  0.701372  1
  La  La11  1  0.375121  0.011083  0.451372  1
  Nd  Nd12  1  0.373696  0.488040  0.374586  1
  Nd  Nd13  1  0.873696  0.011960  0.375414  1
  Nd  Nd14  1  0.988040  0.126304  0.124586  1
  Nd  Nd15  1  0.011960  0.873696  0.624586  1
  Nd  Nd16  1  0.626304  0.511960  0.874586  1
  Nd  Nd17  1  0.488040  0.373696  0.625414  1
  Nd  Nd18  1  0.511960  0.626304  0.125414  1
  Nd  Nd19  1  0.126304  0.988040  0.875414  1
  Si  Si20  1  0.081405  0.712456  0.440784  1
  Si  Si21  1  0.918595  0.287544  0.940784  1
  Si  Si22  1  0.712456  0.081405  0.559216  1
  Si  Si23  1  0.212457  0.418595  0.190784  1
  Si  Si24  1  0.787544  0.581405  0.690784  1
  Si  Si25  1  0.418595  0.212457  0.809216  1
  Si  Si26  1  0.581405  0.787544  0.309216  1
  Si  Si27  1  0.287544  0.918595  0.059216  1
  Si  Si28  1  0.833821  0.797280  0.803551  1
  Si  Si29  1  0.166179  0.202720  0.303551  1
  Si  Si30  1  0.797280  0.833821  0.196449  1
  Si  Si31  1  0.297280  0.666179  0.553551  1
  Si  Si32  1  0.702720  0.333821  0.053551  1
  Si  Si33  1  0.666179  0.297280  0.446449  1
  Si  Si34  1  0.333821  0.702720  0.946449  1
  Si  Si35  1  0.202720  0.166179  0.696449  1
