# generated using pymatgen
data_CaYb(PO3)4
_symmetry_space_group_name_H-M   'P 1'
_cell_length_a   7.75108415
_cell_length_b   7.75108450
_cell_length_c   10.78805875
_cell_angle_alpha   66.02156778
_cell_angle_beta   66.02156916
_cell_angle_gamma   69.95877732
_symmetry_Int_Tables_number   1
_chemical_formula_structural   CaYb(PO3)4
_chemical_formula_sum   'Ca2 Yb2 P8 O24'
_cell_volume   528.71836479
_cell_formula_units_Z   2
loop_
 _symmetry_equiv_pos_site_id
 _symmetry_equiv_pos_as_xyz
  1  'x, y, z'
loop_
 _atom_site_type_symbol
 _atom_site_label
 _atom_site_symmetry_multiplicity
 _atom_site_fract_x
 _atom_site_fract_y
 _atom_site_fract_z
 _atom_site_occupancy
  Ca  Ca0  1  0.964202  0.035798  0.750000  1
  Ca  Ca1  1  0.035798  0.964202  0.250000  1
  Yb  Yb2  1  0.500000  0.000000  0.000000  1
  Yb  Yb3  1  0.000000  0.500000  0.500000  1
  P  P4  1  0.320566  0.303379  0.688354  1
  P  P5  1  0.696621  0.679434  0.811646  1
  P  P6  1  0.679434  0.696621  0.311646  1
  P  P7  1  0.303379  0.320566  0.188354  1
  P  P8  1  0.718621  0.265657  0.479784  1
  P  P9  1  0.734343  0.281379  0.020216  1
  P  P10  1  0.281379  0.734343  0.520216  1
  P  P11  1  0.265657  0.718621  0.979784  1
  O  O12  1  0.313943  0.530655  0.644035  1
  O  O13  1  0.469345  0.686057  0.855965  1
  O  O14  1  0.686057  0.469345  0.355965  1
  O  O15  1  0.530655  0.313943  0.144035  1
  O  O16  1  0.501177  0.233708  0.563216  1
  O  O17  1  0.766292  0.498823  0.936784  1
  O  O18  1  0.498823  0.766292  0.436784  1
  O  O19  1  0.233708  0.501177  0.063216  1
  O  O20  1  0.357171  0.205387  0.828391  1
  O  O21  1  0.794613  0.642829  0.671609  1
  O  O22  1  0.642829  0.794613  0.171609  1
  O  O23  1  0.205387  0.357171  0.328391  1
  O  O24  1  0.144976  0.280581  0.671850  1
  O  O25  1  0.719419  0.855024  0.828150  1
  O  O26  1  0.855024  0.719419  0.328150  1
  O  O27  1  0.280581  0.144976  0.171850  1
  O  O28  1  0.801174  0.287729  0.577027  1
  O  O29  1  0.712271  0.198826  0.922973  1
  O  O30  1  0.198826  0.712271  0.422973  1
  O  O31  1  0.287729  0.801174  0.077027  1
  O  O32  1  0.825298  0.111878  0.411077  1
  O  O33  1  0.888122  0.174702  0.088923  1
  O  O34  1  0.174702  0.888122  0.588923  1
  O  O35  1  0.111878  0.825298  0.911077  1
