# generated using pymatgen
data_Cr2NiSb12Os
_symmetry_space_group_name_H-M   'P 1'
_cell_length_a   8.13263249
_cell_length_b   8.10688996
_cell_length_c   9.42191414
_cell_angle_alpha   54.82432223
_cell_angle_beta   55.30067122
_cell_angle_gamma   70.71212626
_symmetry_Int_Tables_number   1
_chemical_formula_structural   Cr2NiSb12Os
_chemical_formula_sum   'Cr2 Ni1 Sb12 Os1'
_cell_volume   417.44799291
_cell_formula_units_Z   1
loop_
 _symmetry_equiv_pos_site_id
 _symmetry_equiv_pos_as_xyz
  1  'x, y, z'
loop_
 _atom_site_type_symbol
 _atom_site_label
 _atom_site_symmetry_multiplicity
 _atom_site_fract_x
 _atom_site_fract_y
 _atom_site_fract_z
 _atom_site_occupancy
  Cr  Cr0  1  0.000000  0.500000  0.000000  1
  Cr  Cr1  1  0.500000  0.000000  0.000000  1
  Ni  Ni2  1  0.500000  0.000000  0.500000  1
  Sb  Sb3  1  0.154571  0.153929  0.192064  1
  Sb  Sb4  1  0.845429  0.846071  0.807936  1
  Sb  Sb5  1  0.843651  0.846749  0.490047  1
  Sb  Sb6  1  0.156349  0.153251  0.509953  1
  Sb  Sb7  1  0.813800  0.506509  0.342414  1
  Sb  Sb8  1  0.186200  0.493491  0.657586  1
  Sb  Sb9  1  0.502160  0.813427  0.348716  1
  Sb  Sb10  1  0.497840  0.186573  0.651284  1
  Sb  Sb11  1  0.666357  0.344028  0.840192  1
  Sb  Sb12  1  0.333643  0.655972  0.159808  1
  Sb  Sb13  1  0.651104  0.334261  0.162449  1
  Sb  Sb14  1  0.348896  0.665739  0.837551  1
  Os  Os15  1  0.000000  0.500000  0.500000  1
