# generated using pymatgen
data_LaPrNd2(Re2Si)8
_symmetry_space_group_name_H-M   'P 1'
_cell_length_a   4.17431000
_cell_length_b   7.36637094
_cell_length_c   15.58016712
_cell_angle_alpha   89.84388719
_cell_angle_beta   90.00000000
_cell_angle_gamma   90.00000000
_symmetry_Int_Tables_number   1
_chemical_formula_structural   LaPrNd2(Re2Si)8
_chemical_formula_sum   'La1 Pr1 Nd2 Re16 Si8'
_cell_volume   479.08081780
_cell_formula_units_Z   1
loop_
 _symmetry_equiv_pos_site_id
 _symmetry_equiv_pos_as_xyz
  1  'x, y, z'
loop_
 _atom_site_type_symbol
 _atom_site_label
 _atom_site_symmetry_multiplicity
 _atom_site_fract_x
 _atom_site_fract_y
 _atom_site_fract_z
 _atom_site_occupancy
  La  La0  1  0.000000  0.421737  0.881376  1
  Pr  Pr1  1  0.000000  0.578316  0.118913  1
  Nd  Nd2  1  0.500000  0.078333  0.382244  1
  Nd  Nd3  1  0.500000  0.921872  0.617507  1
  Re  Re4  1  0.000000  0.136405  0.052963  1
  Re  Re5  1  0.000000  0.865171  0.947787  1
  Re  Re6  1  0.500000  0.637649  0.447931  1
  Re  Re7  1  0.500000  0.362063  0.551954  1
  Re  Re8  1  0.000000  0.732155  0.321627  1
  Re  Re9  1  0.000000  0.267314  0.678135  1
  Re  Re10  1  0.500000  0.230339  0.180267  1
  Re  Re11  1  0.500000  0.769416  0.819736  1
  Re  Re12  1  0.000000  0.432481  0.418603  1
  Re  Re13  1  0.000000  0.567486  0.581284  1
  Re  Re14  1  0.500000  0.932780  0.081924  1
  Re  Re15  1  0.500000  0.067475  0.918673  1
  Re  Re16  1  0.000000  0.990501  0.207164  1
  Re  Re17  1  0.000000  0.008267  0.792591  1
  Re  Re18  1  0.500000  0.489175  0.294473  1
  Re  Re19  1  0.500000  0.511116  0.705291  1
  Si  Si20  1  0.000000  0.827137  0.475709  1
  Si  Si21  1  0.000000  0.172800  0.524178  1
  Si  Si22  1  0.500000  0.324400  0.025419  1
  Si  Si23  1  0.500000  0.676304  0.975117  1
  Si  Si24  1  0.000000  0.291019  0.274470  1
  Si  Si25  1  0.000000  0.709419  0.724999  1
  Si  Si26  1  0.500000  0.792177  0.227461  1
  Si  Si27  1  0.500000  0.206692  0.772207  1
