# generated using pymatgen
data_Tm4Al15(SiRh2)3
_symmetry_space_group_name_H-M   'P 1'
_cell_length_a   7.52007504
_cell_length_b   7.46962321
_cell_length_c   9.34068701
_cell_angle_alpha   89.98641674
_cell_angle_beta   89.93623604
_cell_angle_gamma   119.79721658
_symmetry_Int_Tables_number   1
_chemical_formula_structural   Tm4Al15(SiRh2)3
_chemical_formula_sum   'Tm4 Al15 Si3 Rh6'
_cell_volume   455.31680447
_cell_formula_units_Z   1
loop_
 _symmetry_equiv_pos_site_id
 _symmetry_equiv_pos_as_xyz
  1  'x, y, z'
loop_
 _atom_site_type_symbol
 _atom_site_label
 _atom_site_symmetry_multiplicity
 _atom_site_fract_x
 _atom_site_fract_y
 _atom_site_fract_z
 _atom_site_occupancy
  Tm  Tm0  1  0.994284  0.664653  0.247376  1
  Tm  Tm1  1  0.006241  0.342022  0.754493  1
  Tm  Tm2  1  0.676296  0.001753  0.247688  1
  Tm  Tm3  1  0.317895  0.990799  0.749581  1
  Al  Al4  1  0.128382  0.125666  0.249901  1
  Al  Al5  1  0.871509  0.871916  0.749167  1
  Al  Al6  1  0.339043  0.002372  0.421874  1
  Al  Al7  1  0.001060  0.330529  0.428469  1
  Al  Al8  1  0.666053  0.002718  0.576602  1
  Al  Al9  1  0.661976  0.998835  0.921282  1
  Al  Al10  1  0.339102  0.002221  0.078120  1
  Al  Al11  1  0.332628  0.330566  0.557240  1
  Al  Al12  1  0.664099  0.668452  0.444167  1
  Al  Al13  1  0.663924  0.668245  0.057106  1
  Al  Al14  1  0.335332  0.331163  0.943349  1
  Al  Al15  1  0.338252  0.551947  0.250237  1
  Al  Al16  1  0.661262  0.448792  0.750349  1
  Al  Al17  1  0.549393  0.343350  0.249880  1
  Al  Al18  1  0.454221  0.657949  0.749643  1
  Si  Si19  1  0.002158  0.328933  0.077694  1
  Si  Si20  1  0.997476  0.671723  0.929267  1
  Si  Si21  1  0.998336  0.665366  0.566585  1
  Rh  Rh22  1  0.690478  0.337476  0.001555  1
  Rh  Rh23  1  0.310011  0.662951  0.997020  1
  Rh  Rh24  1  0.318467  0.670694  0.502869  1
  Rh  Rh25  1  0.680739  0.335927  0.499441  1
  Rh  Rh26  1  0.000372  0.999981  0.999036  1
  Rh  Rh27  1  0.001016  0.992999  0.500010  1
