# generated using pymatgen
data_Nd6Gd13ThSn16
_symmetry_space_group_name_H-M   'P 1'
_cell_length_a   8.12873155
_cell_length_b   8.28278598
_cell_length_c   15.63014800
_cell_angle_alpha   90.06243002
_cell_angle_beta   90.24703133
_cell_angle_gamma   89.81074052
_symmetry_Int_Tables_number   1
_chemical_formula_structural   Nd6Gd13ThSn16
_chemical_formula_sum   'Nd6 Gd13 Th1 Sn16'
_cell_volume   1052.33897207
_cell_formula_units_Z   1
loop_
 _symmetry_equiv_pos_site_id
 _symmetry_equiv_pos_as_xyz
  1  'x, y, z'
loop_
 _atom_site_type_symbol
 _atom_site_label
 _atom_site_symmetry_multiplicity
 _atom_site_fract_x
 _atom_site_fract_y
 _atom_site_fract_z
 _atom_site_occupancy
  Nd  Nd0  1  0.013704  0.180895  0.597699  1
  Nd  Nd1  1  0.487112  0.680878  0.403030  1
  Nd  Nd2  1  0.985837  0.818682  0.095827  1
  Nd  Nd3  1  0.486612  0.678763  0.095870  1
  Nd  Nd4  1  0.987416  0.819616  0.403315  1
  Nd  Nd5  1  0.511794  0.320472  0.596484  1
  Gd  Gd6  1  0.363069  0.834680  0.878678  1
  Gd  Gd7  1  0.861011  0.666269  0.623128  1
  Gd  Gd8  1  0.638674  0.165226  0.377198  1
  Gd  Gd9  1  0.136317  0.336160  0.121556  1
  Gd  Gd10  1  0.635416  0.163133  0.122181  1
  Gd  Gd11  1  0.138806  0.335168  0.376811  1
  Gd  Gd12  1  0.360824  0.835718  0.623273  1
  Gd  Gd13  1  0.863231  0.663265  0.878512  1
  Gd  Gd14  1  0.518359  0.319951  0.903209  1
  Gd  Gd15  1  0.191967  0.502670  0.750768  1
  Gd  Gd16  1  0.691605  0.996922  0.750612  1
  Gd  Gd17  1  0.807466  0.496134  0.249613  1
  Gd  Gd18  1  0.307597  0.003067  0.249074  1
  Th  Th19  1  0.012953  0.181939  0.903755  1
  Sn  Sn20  1  0.297842  0.040031  0.040738  1
  Sn  Sn21  1  0.802042  0.461084  0.458785  1
  Sn  Sn22  1  0.697929  0.962444  0.541593  1
  Sn  Sn23  1  0.203810  0.533496  0.957563  1
  Sn  Sn24  1  0.701243  0.963976  0.958356  1
  Sn  Sn25  1  0.197086  0.540557  0.541258  1
  Sn  Sn26  1  0.301942  0.039049  0.458679  1
  Sn  Sn27  1  0.798278  0.456669  0.040431  1
  Sn  Sn28  1  0.560777  0.616826  0.751109  1
  Sn  Sn29  1  0.060804  0.884257  0.752590  1
  Sn  Sn30  1  0.438858  0.383099  0.248137  1
  Sn  Sn31  1  0.938727  0.117393  0.249059  1
  Sn  Sn32  1  0.321178  0.144620  0.752093  1
  Sn  Sn33  1  0.818562  0.357501  0.750447  1
  Sn  Sn34  1  0.680874  0.857376  0.249145  1
  Sn  Sn35  1  0.180277  0.642017  0.249424  1
