# generated using pymatgen
data_Nb6Si5Mo6P
_symmetry_space_group_name_H-M   'P 1'
_cell_length_a   7.69393084
_cell_length_b   7.69688231
_cell_length_c   7.69390496
_cell_angle_alpha   126.51770661
_cell_angle_beta   128.26963081
_cell_angle_gamma   77.60890712
_symmetry_Int_Tables_number   1
_chemical_formula_structural   Nb6Si5Mo6P
_chemical_formula_sum   'Nb6 Si5 Mo6 P1'
_cell_volume   278.79402959
_cell_formula_units_Z   1
loop_
 _symmetry_equiv_pos_site_id
 _symmetry_equiv_pos_as_xyz
  1  'x, y, z'
loop_
 _atom_site_type_symbol
 _atom_site_label
 _atom_site_symmetry_multiplicity
 _atom_site_fract_x
 _atom_site_fract_y
 _atom_site_fract_z
 _atom_site_occupancy
  Nb  Nb0  1  0.548013  0.091068  0.043055  1
  Nb  Nb1  1  0.450221  0.497697  0.547480  1
  Nb  Nb2  1  0.952516  0.495755  0.043244  1
  Nb  Nb3  1  0.048939  0.094190  0.545255  1
  Nb  Nb4  1  0.750890  0.902312  0.651421  1
  Nb  Nb5  1  0.249807  0.899603  0.149793  1
  Si  Si6  1  0.249323  0.497276  0.747951  1
  Si  Si7  1  0.333366  0.829846  0.496425  1
  Si  Si8  1  0.665506  0.163754  0.495255  1
  Si  Si9  1  0.833422  0.829847  0.996484  1
  Si  Si10  1  0.168499  0.163753  0.998251  1
  Mo  Mo11  1  0.504294  0.241587  0.745741  1
  Mo  Mo12  1  0.995844  0.241583  0.237290  1
  Mo  Mo13  1  0.123029  0.751967  0.619771  1
  Mo  Mo14  1  0.866993  0.496794  0.619514  1
  Mo  Mo15  1  0.632196  0.751968  0.128937  1
  Mo  Mo16  1  0.377276  0.496790  0.129793  1
  P  P17  1  0.749865  0.496409  0.246540  1
