# generated using pymatgen
data_Sm2Mn3Fe8NiP7
_symmetry_space_group_name_H-M   'P 1'
_cell_length_a   9.14224990
_cell_length_b   9.08923387
_cell_length_c   3.66799700
_cell_angle_alpha   90.00000000
_cell_angle_beta   90.00000000
_cell_angle_gamma   119.99946891
_symmetry_Int_Tables_number   1
_chemical_formula_structural   Sm2Mn3Fe8NiP7
_chemical_formula_sum   'Sm2 Mn3 Fe8 Ni1 P7'
_cell_volume   263.96253732
_cell_formula_units_Z   1
loop_
 _symmetry_equiv_pos_site_id
 _symmetry_equiv_pos_as_xyz
  1  'x, y, z'
loop_
 _atom_site_type_symbol
 _atom_site_label
 _atom_site_symmetry_multiplicity
 _atom_site_fract_x
 _atom_site_fract_y
 _atom_site_fract_z
 _atom_site_occupancy
  Sm  Sm0  1  0.664405  0.332434  0.000000  1
  Sm  Sm1  1  0.334870  0.667517  0.500000  1
  Mn  Mn2  1  0.217117  0.102706  0.000000  1
  Mn  Mn3  1  0.895970  0.113605  0.000000  1
  Mn  Mn4  1  0.883080  0.780713  0.000000  1
  Fe  Fe5  1  0.424548  0.057477  0.500000  1
  Fe  Fe6  1  0.944172  0.371020  0.500000  1
  Fe  Fe7  1  0.630384  0.577064  0.500000  1
  Fe  Fe8  1  0.151960  0.272271  0.500000  1
  Fe  Fe9  1  0.728969  0.881240  0.500000  1
  Fe  Fe10  1  0.119172  0.843433  0.500000  1
  Fe  Fe11  1  0.383690  0.434131  0.000000  1
  Fe  Fe12  1  0.567883  0.950521  0.000000  1
  Ni  Ni13  1  0.052431  0.614048  0.000000  1
  P  P14  1  0.115973  0.397722  0.000000  1
  P  P15  1  0.596003  0.709989  0.000000  1
  P  P16  1  0.296929  0.894322  0.000000  1
  P  P17  1  0.000701  0.998473  0.500000  1
  P  P18  1  0.410283  0.304043  0.500000  1
  P  P19  1  0.695229  0.107526  0.500000  1
  P  P20  1  0.886232  0.589747  0.500000  1
