# generated using pymatgen
data_ErLu2Ga2Ag3Ge
_symmetry_space_group_name_H-M   'P 1'
_cell_length_a   7.17705006
_cell_length_b   7.18563639
_cell_length_c   4.10047900
_cell_angle_alpha   90.00000000
_cell_angle_beta   90.00000000
_cell_angle_gamma   119.94522868
_symmetry_Int_Tables_number   1
_chemical_formula_structural   ErLu2Ga2Ag3Ge
_chemical_formula_sum   'Er1 Lu2 Ga2 Ag3 Ge1'
_cell_volume   183.23813579
_cell_formula_units_Z   1
loop_
 _symmetry_equiv_pos_site_id
 _symmetry_equiv_pos_as_xyz
  1  'x, y, z'
loop_
 _atom_site_type_symbol
 _atom_site_label
 _atom_site_symmetry_multiplicity
 _atom_site_fract_x
 _atom_site_fract_y
 _atom_site_fract_z
 _atom_site_occupancy
  Er  Er0  1  0.582934  0.002753  0.000000  1
  Lu  Lu1  1  0.997255  0.580527  0.000000  1
  Lu  Lu2  1  0.419444  0.416992  0.000000  1
  Ga  Ga3  1  0.332718  0.665704  0.500000  1
  Ga  Ga4  1  0.000747  0.000027  0.000000  1
  Ag  Ag5  1  0.248325  0.996837  0.500000  1
  Ag  Ag6  1  0.003560  0.252304  0.500000  1
  Ag  Ag7  1  0.747983  0.750673  0.500000  1
  Ge  Ge8  1  0.667034  0.334183  0.500000  1
