# generated using pymatgen
data_Tb6AuO12
_symmetry_space_group_name_H-M   'P 1'
_cell_length_a   6.53569405
_cell_length_b   6.53569417
_cell_length_c   6.53569382
_cell_angle_alpha   98.84629058
_cell_angle_beta   98.84628386
_cell_angle_gamma   98.84629441
_symmetry_Int_Tables_number   1
_chemical_formula_structural   Tb6AuO12
_chemical_formula_sum   'Tb6 Au1 O12'
_cell_volume   268.03293752
_cell_formula_units_Z   1
loop_
 _symmetry_equiv_pos_site_id
 _symmetry_equiv_pos_as_xyz
  1  'x, y, z'
loop_
 _atom_site_type_symbol
 _atom_site_label
 _atom_site_symmetry_multiplicity
 _atom_site_fract_x
 _atom_site_fract_y
 _atom_site_fract_z
 _atom_site_occupancy
  Tb  Tb0  1  0.140631  0.302513  0.610272  1
  Tb  Tb1  1  0.389728  0.859369  0.697487  1
  Tb  Tb2  1  0.697487  0.389728  0.859369  1
  Tb  Tb3  1  0.302513  0.610272  0.140631  1
  Tb  Tb4  1  0.610272  0.140631  0.302513  1
  Tb  Tb5  1  0.859369  0.697487  0.389728  1
  Au  Au6  1  0.000000  0.000000  0.000000  1
  O  O7  1  0.058869  0.307896  0.954362  1
  O  O8  1  0.045638  0.941131  0.692104  1
  O  O9  1  0.410413  0.560574  0.821828  1
  O  O10  1  0.178172  0.589587  0.439426  1
  O  O11  1  0.692104  0.045638  0.941131  1
  O  O12  1  0.439426  0.178172  0.589587  1
  O  O13  1  0.560574  0.821828  0.410413  1
  O  O14  1  0.307896  0.954362  0.058869  1
  O  O15  1  0.821828  0.410413  0.560574  1
  O  O16  1  0.589587  0.439426  0.178172  1
  O  O17  1  0.954362  0.058869  0.307896  1
  O  O18  1  0.941131  0.692104  0.045638  1
