# generated using pymatgen
data_K2PuScO6
_symmetry_space_group_name_H-M   'P 1'
_cell_length_a   5.88768767
_cell_length_b   5.88768705
_cell_length_c   5.88768700
_cell_angle_alpha   120.00000535
_cell_angle_beta   120.00000184
_cell_angle_gamma   59.99999526
_symmetry_Int_Tables_number   1
_chemical_formula_structural   K2PuScO6
_chemical_formula_sum   'K2 Pu1 Sc1 O6'
_cell_volume   144.31755364
_cell_formula_units_Z   1
loop_
 _symmetry_equiv_pos_site_id
 _symmetry_equiv_pos_as_xyz
  1  'x, y, z'
loop_
 _atom_site_type_symbol
 _atom_site_label
 _atom_site_symmetry_multiplicity
 _atom_site_fract_x
 _atom_site_fract_y
 _atom_site_fract_z
 _atom_site_occupancy
  K  K0  1  0.750001  0.750001  0.250000  1
  K  K1  1  0.250000  0.250000  0.749999  1
  Pu  Pu2  1  0.500001  0.500001  0.500001  1
  Sc  Sc3  1  0.000000  0.000000  0.000000  1
  O  O4  1  0.256654  0.256654  0.256653  1
  O  O5  1  0.743344  0.256655  0.256655  1
  O  O6  1  0.256655  0.743344  0.256655  1
  O  O7  1  0.743345  0.256657  0.743345  1
  O  O8  1  0.256657  0.743345  0.743345  1
  O  O9  1  0.743345  0.743345  0.743345  1
