# generated using pymatgen
data_NaEuNpI6
_symmetry_space_group_name_H-M   'P 1'
_cell_length_a   8.77016965
_cell_length_b   8.77085368
_cell_length_c   8.77026300
_cell_angle_alpha   54.52638406
_cell_angle_beta   54.52486819
_cell_angle_gamma   54.52532325
_symmetry_Int_Tables_number   1
_chemical_formula_structural   NaEuNpI6
_chemical_formula_sum   'Na1 Eu1 Np1 I6'
_cell_volume   416.15498676
_cell_formula_units_Z   1
loop_
 _symmetry_equiv_pos_site_id
 _symmetry_equiv_pos_as_xyz
  1  'x, y, z'
loop_
 _atom_site_type_symbol
 _atom_site_label
 _atom_site_symmetry_multiplicity
 _atom_site_fract_x
 _atom_site_fract_y
 _atom_site_fract_z
 _atom_site_occupancy
  Na  Na0  1  0.669806  0.669226  0.668819  1
  Eu  Eu1  1  0.331406  0.331622  0.331875  1
  Np  Np2  1  0.999753  0.999566  0.999644  1
  I  I3  1  0.243310  0.598201  0.918092  1
  I  I4  1  0.598344  0.919012  0.241226  1
  I  I5  1  0.916221  0.243756  0.599522  1
  I  I6  1  0.754704  0.398137  0.086986  1
  I  I7  1  0.398551  0.085416  0.756393  1
  I  I8  1  0.087907  0.755063  0.397444  1
