# generated using pymatgen
data_KAs12Ir3Os
_symmetry_space_group_name_H-M   'P 1'
_cell_length_a   7.46921024
_cell_length_b   7.46921016
_cell_length_c   7.45363700
_cell_angle_alpha   109.42899314
_cell_angle_beta   109.42899293
_cell_angle_gamma   109.51341551
_symmetry_Int_Tables_number   1
_chemical_formula_structural   KAs12Ir3Os
_chemical_formula_sum   'K1 As12 Ir3 Os1'
_cell_volume   320.27406670
_cell_formula_units_Z   1
loop_
 _symmetry_equiv_pos_site_id
 _symmetry_equiv_pos_as_xyz
  1  'x, y, z'
loop_
 _atom_site_type_symbol
 _atom_site_label
 _atom_site_symmetry_multiplicity
 _atom_site_fract_x
 _atom_site_fract_y
 _atom_site_fract_z
 _atom_site_occupancy
  K  K0  1  0.000000  0.000000  0.000000  1
  As  As1  1  0.853402  0.652659  0.502776  1
  As  As2  1  0.146598  0.347341  0.497224  1
  As  As3  1  0.147272  0.649490  0.796300  1
  As  As4  1  0.852728  0.350510  0.203700  1
  As  As5  1  0.649490  0.502218  0.853191  1
  As  As6  1  0.350510  0.497782  0.146809  1
  As  As7  1  0.652659  0.799257  0.149883  1
  As  As8  1  0.347341  0.200743  0.850117  1
  As  As9  1  0.502218  0.852728  0.649028  1
  As  As10  1  0.497782  0.147272  0.350972  1
  As  As11  1  0.799257  0.146598  0.649375  1
  As  As12  1  0.200743  0.853402  0.350625  1
  Ir  Ir13  1  0.500000  0.500000  0.500000  1
  Ir  Ir14  1  0.500000  0.000000  0.000000  1
  Ir  Ir15  1  0.000000  0.500000  0.000000  1
  Os  Os16  1  0.000000  0.000000  0.500000  1
