# generated using pymatgen
data_Sc4Ga2HgOs
_symmetry_space_group_name_H-M   'P 1'
_cell_length_a   6.83435001
_cell_length_b   6.57416700
_cell_length_c   6.83589801
_cell_angle_alpha   90.00000000
_cell_angle_beta   90.00673119
_cell_angle_gamma   90.00000000
_symmetry_Int_Tables_number   1
_chemical_formula_structural   Sc4Ga2HgOs
_chemical_formula_sum   'Sc8 Ga4 Hg2 Os2'
_cell_volume   307.13797777
_cell_formula_units_Z   2
loop_
 _symmetry_equiv_pos_site_id
 _symmetry_equiv_pos_as_xyz
  1  'x, y, z'
loop_
 _atom_site_type_symbol
 _atom_site_label
 _atom_site_symmetry_multiplicity
 _atom_site_fract_x
 _atom_site_fract_y
 _atom_site_fract_z
 _atom_site_occupancy
  Sc  Sc0  1  0.766780  0.500564  0.266785  1
  Sc  Sc1  1  0.766780  0.999436  0.266785  1
  Sc  Sc2  1  0.233262  0.000567  0.266743  1
  Sc  Sc3  1  0.233262  0.499433  0.266743  1
  Sc  Sc4  1  0.766738  0.500566  0.733257  1
  Sc  Sc5  1  0.766738  0.999434  0.733257  1
  Sc  Sc6  1  0.233218  0.000565  0.733214  1
  Sc  Sc7  1  0.233218  0.499435  0.733214  1
  Ga  Ga8  1  0.999184  0.250000  0.000001  1
  Ga  Ga9  1  0.000815  0.750000  0.999999  1
  Ga  Ga10  1  0.498875  0.750000  0.499994  1
  Ga  Ga11  1  0.501125  0.250000  0.500005  1
  Hg  Hg12  1  0.500761  0.250000  0.999997  1
  Hg  Hg13  1  0.499240  0.750000  0.000003  1
  Os  Os14  1  0.999284  0.250000  0.499993  1
  Os  Os15  1  0.000717  0.750000  0.500007  1
