# generated using pymatgen
data_Ac3Pb4
_symmetry_space_group_name_H-M   'P 1'
_cell_length_a   6.76826400
_cell_length_b   6.76826545
_cell_length_c   16.93594400
_cell_angle_alpha   90.00000000
_cell_angle_beta   90.00000000
_cell_angle_gamma   138.19604456
_symmetry_Int_Tables_number   1
_chemical_formula_structural   Ac3Pb4
_chemical_formula_sum   'Ac6 Pb8'
_cell_volume   517.15285153
_cell_formula_units_Z   2
loop_
 _symmetry_equiv_pos_site_id
 _symmetry_equiv_pos_as_xyz
  1  'x, y, z'
loop_
 _atom_site_type_symbol
 _atom_site_label
 _atom_site_symmetry_multiplicity
 _atom_site_fract_x
 _atom_site_fract_y
 _atom_site_fract_z
 _atom_site_occupancy
  Ac  Ac0  1  0.674700  0.325300  0.097592  1
  Ac  Ac1  1  0.952871  0.047129  0.250000  1
  Ac  Ac2  1  0.674700  0.325300  0.402408  1
  Ac  Ac3  1  0.325300  0.674700  0.597592  1
  Ac  Ac4  1  0.047129  0.952871  0.750000  1
  Ac  Ac5  1  0.325300  0.674700  0.902408  1
  Pb  Pb6  1  0.000000  0.000000  0.000000  1
  Pb  Pb7  1  0.384941  0.615059  0.106836  1
  Pb  Pb8  1  0.222628  0.777372  0.250000  1
  Pb  Pb9  1  0.384941  0.615059  0.393164  1
  Pb  Pb10  1  0.000000  0.000000  0.500000  1
  Pb  Pb11  1  0.615059  0.384941  0.606836  1
  Pb  Pb12  1  0.777372  0.222628  0.750000  1
  Pb  Pb13  1  0.615059  0.384941  0.893164  1
