# generated using pymatgen
data_Os(SeBr)4
_symmetry_space_group_name_H-M   'P 1'
_cell_length_a   9.85910600
_cell_length_b   10.26281691
_cell_length_c   12.56836445
_cell_angle_alpha   73.55664872
_cell_angle_beta   90.00000000
_cell_angle_gamma   90.00000000
_symmetry_Int_Tables_number   1
_chemical_formula_structural   Os(SeBr)4
_chemical_formula_sum   'Os4 Se16 Br16'
_cell_volume   1219.68254068
_cell_formula_units_Z   4
loop_
 _symmetry_equiv_pos_site_id
 _symmetry_equiv_pos_as_xyz
  1  'x, y, z'
loop_
 _atom_site_type_symbol
 _atom_site_label
 _atom_site_symmetry_multiplicity
 _atom_site_fract_x
 _atom_site_fract_y
 _atom_site_fract_z
 _atom_site_occupancy
  Os  Os0  1  0.802387  0.056367  0.780906  1
  Os  Os1  1  0.302387  0.943633  0.219094  1
  Os  Os2  1  0.672689  0.310643  0.714188  1
  Os  Os3  1  0.172689  0.689357  0.285812  1
  Se  Se4  1  0.791482  0.491973  0.784110  1
  Se  Se5  1  0.291482  0.508027  0.215890  1
  Se  Se6  1  0.398346  0.013071  0.878872  1
  Se  Se7  1  0.898346  0.986929  0.121128  1
  Se  Se8  1  0.972596  0.154960  0.207238  1
  Se  Se9  1  0.472596  0.845040  0.792762  1
  Se  Se10  1  0.309346  0.162400  0.710174  1
  Se  Se11  1  0.809346  0.837600  0.289826  1
  Se  Se12  1  0.512533  0.222239  0.607527  1
  Se  Se13  1  0.012533  0.777761  0.392473  1
  Se  Se14  1  0.866802  0.244050  0.626200  1
  Se  Se15  1  0.366802  0.755950  0.373800  1
  Se  Se16  1  0.645714  0.967074  0.675334  1
  Se  Se17  1  0.145714  0.032926  0.324666  1
  Se  Se18  1  0.642250  0.142031  0.885474  1
  Se  Se19  1  0.142250  0.857969  0.114526  1
  Br  Br20  1  0.483352  0.073550  0.299902  1
  Br  Br21  1  0.983352  0.926450  0.700098  1
  Br  Br22  1  0.006769  0.131135  0.881132  1
  Br  Br23  1  0.506769  0.868865  0.118868  1
  Br  Br24  1  0.803154  0.200963  0.451633  1
  Br  Br25  1  0.303154  0.799037  0.548367  1
  Br  Br26  1  0.810297  0.414606  0.983752  1
  Br  Br27  1  0.310297  0.585394  0.016248  1
  Br  Br28  1  0.496279  0.450097  0.788159  1
  Br  Br29  1  0.996279  0.549903  0.211841  1
  Br  Br30  1  0.027352  0.509090  0.735581  1
  Br  Br31  1  0.527352  0.490910  0.264419  1
  Br  Br32  1  0.698970  0.540571  0.556736  1
  Br  Br33  1  0.198970  0.459429  0.443264  1
  Br  Br34  1  0.802680  0.838252  0.944578  1
  Br  Br35  1  0.302680  0.161748  0.055422  1
