# generated using pymatgen
data_Th2Mn3Fe3Co6P7
_symmetry_space_group_name_H-M   'P 1'
_cell_length_a   9.08170700
_cell_length_b   9.08170764
_cell_length_c   3.69358800
_cell_angle_alpha   90.00000000
_cell_angle_beta   90.00000000
_cell_angle_gamma   119.99999402
_symmetry_Int_Tables_number   1
_chemical_formula_structural   Th2Mn3Fe3Co6P7
_chemical_formula_sum   'Th2 Mn3 Fe3 Co6 P7'
_cell_volume   263.82388518
_cell_formula_units_Z   1
loop_
 _symmetry_equiv_pos_site_id
 _symmetry_equiv_pos_as_xyz
  1  'x, y, z'
loop_
 _atom_site_type_symbol
 _atom_site_label
 _atom_site_symmetry_multiplicity
 _atom_site_fract_x
 _atom_site_fract_y
 _atom_site_fract_z
 _atom_site_occupancy
  Th  Th0  1  0.333333  0.666667  0.000000  1
  Th  Th1  1  0.000000  0.000000  0.500000  1
  Mn  Mn2  1  0.787482  0.230104  0.500000  1
  Mn  Mn3  1  0.769896  0.557378  0.500000  1
  Mn  Mn4  1  0.442622  0.212518  0.500000  1
  Fe  Fe5  1  0.543373  0.059420  0.000000  1
  Fe  Fe6  1  0.940580  0.483953  0.000000  1
  Fe  Fe7  1  0.516047  0.456627  0.000000  1
  Co  Co8  1  0.035297  0.269342  0.000000  1
  Co  Co9  1  0.730658  0.765954  0.000000  1
  Co  Co10  1  0.234046  0.964703  0.000000  1
  Co  Co11  1  0.614397  0.897650  0.500000  1
  Co  Co12  1  0.102350  0.716746  0.500000  1
  Co  Co13  1  0.283254  0.385603  0.500000  1
  P  P14  1  0.768979  0.035186  0.000000  1
  P  P15  1  0.964814  0.733793  0.000000  1
  P  P16  1  0.266207  0.231021  0.000000  1
  P  P17  1  0.377799  0.940274  0.500000  1
  P  P18  1  0.059726  0.437526  0.500000  1
  P  P19  1  0.562474  0.622201  0.500000  1
  P  P20  1  0.666667  0.333333  0.000000  1
