# generated using pymatgen
data_Eu4MgAg3Sn4
_symmetry_space_group_name_H-M   'P 1'
_cell_length_a   4.90701700
_cell_length_b   7.84226576
_cell_length_c   8.40751092
_cell_angle_alpha   90.92906371
_cell_angle_beta   90.00000000
_cell_angle_gamma   90.00000000
_symmetry_Int_Tables_number   1
_chemical_formula_structural   Eu4MgAg3Sn4
_chemical_formula_sum   'Eu4 Mg1 Ag3 Sn4'
_cell_volume   323.49640633
_cell_formula_units_Z   1
loop_
 _symmetry_equiv_pos_site_id
 _symmetry_equiv_pos_as_xyz
  1  'x, y, z'
loop_
 _atom_site_type_symbol
 _atom_site_label
 _atom_site_symmetry_multiplicity
 _atom_site_fract_x
 _atom_site_fract_y
 _atom_site_fract_z
 _atom_site_occupancy
  Eu  Eu0  1  0.250000  0.993760  0.288883  1
  Eu  Eu1  1  0.250000  0.507702  0.198777  1
  Eu  Eu2  1  0.750000  0.999663  0.713726  1
  Eu  Eu3  1  0.750000  0.502053  0.798862  1
  Mg  Mg4  1  0.750000  0.325215  0.421155  1
  Ag  Ag5  1  0.250000  0.184945  0.924656  1
  Ag  Ag6  1  0.250000  0.673707  0.575377  1
  Ag  Ag7  1  0.750000  0.813495  0.076742  1
  Sn  Sn8  1  0.250000  0.285480  0.598795  1
  Sn  Sn9  1  0.250000  0.795888  0.904156  1
  Sn  Sn10  1  0.750000  0.714062  0.406254  1
  Sn  Sn11  1  0.750000  0.204030  0.092616  1
