# generated using pymatgen
data_CaDy3As6Rh7
_symmetry_space_group_name_H-M   'P 1'
_cell_length_a   7.30021775
_cell_length_b   7.30021701
_cell_length_c   7.29662800
_cell_angle_alpha   109.46126747
_cell_angle_beta   109.46126543
_cell_angle_gamma   109.48117605
_symmetry_Int_Tables_number   1
_chemical_formula_structural   CaDy3As6Rh7
_chemical_formula_sum   'Ca1 Dy3 As6 Rh7'
_cell_volume   299.38167941
_cell_formula_units_Z   1
loop_
 _symmetry_equiv_pos_site_id
 _symmetry_equiv_pos_as_xyz
  1  'x, y, z'
loop_
 _atom_site_type_symbol
 _atom_site_label
 _atom_site_symmetry_multiplicity
 _atom_site_fract_x
 _atom_site_fract_y
 _atom_site_fract_z
 _atom_site_occupancy
  Ca  Ca0  1  0.000000  0.000000  0.500000  1
  Dy  Dy1  1  0.500000  0.000000  0.000000  1
  Dy  Dy2  1  0.000000  0.500000  0.000000  1
  Dy  Dy3  1  0.500000  0.500000  0.500000  1
  As  As4  1  0.679882  0.679882  0.000846  1
  As  As5  1  0.320118  0.320118  0.999154  1
  As  As6  1  0.000000  0.679882  0.679035  1
  As  As7  1  0.000000  0.320118  0.320965  1
  As  As8  1  0.679882  0.000000  0.679035  1
  As  As9  1  0.320118  0.000000  0.320965  1
  Rh  Rh10  1  0.000000  0.000000  0.000000  1
  Rh  Rh11  1  0.252245  0.504490  0.752245  1
  Rh  Rh12  1  0.747755  0.252245  0.500000  1
  Rh  Rh13  1  0.504490  0.252245  0.752245  1
  Rh  Rh14  1  0.495510  0.747755  0.247755  1
  Rh  Rh15  1  0.747755  0.495510  0.247755  1
  Rh  Rh16  1  0.252245  0.747755  0.500000  1
