# generated using pymatgen
data_Ho2ErHg5
_symmetry_space_group_name_H-M   'P 1'
_cell_length_a   6.35178223
_cell_length_b   6.35178189
_cell_length_c   10.12509400
_cell_angle_alpha   90.00000000
_cell_angle_beta   90.00000000
_cell_angle_gamma   104.97110826
_symmetry_Int_Tables_number   1
_chemical_formula_structural   Ho2ErHg5
_chemical_formula_sum   'Ho4 Er2 Hg10'
_cell_volume   394.63230898
_cell_formula_units_Z   2
loop_
 _symmetry_equiv_pos_site_id
 _symmetry_equiv_pos_as_xyz
  1  'x, y, z'
loop_
 _atom_site_type_symbol
 _atom_site_label
 _atom_site_symmetry_multiplicity
 _atom_site_fract_x
 _atom_site_fract_y
 _atom_site_fract_z
 _atom_site_occupancy
  Ho  Ho0  1  0.214641  0.785359  0.500000  1
  Ho  Ho1  1  0.214641  0.785359  0.000000  1
  Ho  Ho2  1  0.785359  0.214641  0.500000  1
  Ho  Ho3  1  0.785359  0.214641  0.000000  1
  Er  Er4  1  0.565362  0.565362  0.250000  1
  Er  Er5  1  0.434638  0.434638  0.750000  1
  Hg  Hg6  1  0.966354  0.966354  0.250000  1
  Hg  Hg7  1  0.033646  0.033646  0.750000  1
  Hg  Hg8  1  0.291331  0.291331  0.029177  1
  Hg  Hg9  1  0.708669  0.708669  0.970823  1
  Hg  Hg10  1  0.291331  0.291331  0.470823  1
  Hg  Hg11  1  0.708669  0.708669  0.529177  1
  Hg  Hg12  1  0.476061  0.035008  0.250000  1
  Hg  Hg13  1  0.964992  0.523939  0.750000  1
  Hg  Hg14  1  0.523939  0.964992  0.750000  1
  Hg  Hg15  1  0.035008  0.476061  0.250000  1
