# generated using pymatgen
data_Pr12IrRuAu2
_symmetry_space_group_name_H-M   'P 1'
_cell_length_a   6.68041800
_cell_length_b   7.45957416
_cell_length_c   10.11399300
_cell_angle_alpha   90.00000000
_cell_angle_beta   90.00000000
_cell_angle_gamma   89.95661388
_symmetry_Int_Tables_number   1
_chemical_formula_structural   Pr12IrRuAu2
_chemical_formula_sum   'Pr12 Ir1 Ru1 Au2'
_cell_volume   504.01121218
_cell_formula_units_Z   1
loop_
 _symmetry_equiv_pos_site_id
 _symmetry_equiv_pos_as_xyz
  1  'x, y, z'
loop_
 _atom_site_type_symbol
 _atom_site_label
 _atom_site_symmetry_multiplicity
 _atom_site_fract_x
 _atom_site_fract_y
 _atom_site_fract_z
 _atom_site_occupancy
  Pr  Pr0  1  0.325350  0.687875  0.058787  1
  Pr  Pr1  1  0.160129  0.168253  0.436642  1
  Pr  Pr2  1  0.661523  0.332610  0.565212  1
  Pr  Pr3  1  0.822592  0.812100  0.939981  1
  Pr  Pr4  1  0.661523  0.332610  0.934788  1
  Pr  Pr5  1  0.822592  0.812100  0.560019  1
  Pr  Pr6  1  0.325350  0.687875  0.441213  1
  Pr  Pr7  1  0.160129  0.168253  0.063358  1
  Pr  Pr8  1  0.873111  0.541734  0.250000  1
  Pr  Pr9  1  0.651844  0.023814  0.250000  1
  Pr  Pr10  1  0.151039  0.478062  0.750000  1
  Pr  Pr11  1  0.375675  0.955194  0.750000  1
  Ir  Ir12  1  0.067941  0.883266  0.250000  1
  Ru  Ru13  1  0.566530  0.616435  0.750000  1
  Au  Au14  1  0.435171  0.387367  0.250000  1
  Au  Au15  1  0.939500  0.112449  0.750000  1
