# generated using pymatgen
data_Nd8Be4Si11Ge
_symmetry_space_group_name_H-M   'P 1'
_cell_length_a   7.96655758
_cell_length_b   7.96655804
_cell_length_c   8.57735900
_cell_angle_alpha   90.00087888
_cell_angle_beta   89.99912051
_cell_angle_gamma   119.95630328
_symmetry_Int_Tables_number   1
_chemical_formula_structural   Nd8Be4Si11Ge
_chemical_formula_sum   'Nd8 Be4 Si11 Ge1'
_cell_volume   471.64659383
_cell_formula_units_Z   1
loop_
 _symmetry_equiv_pos_site_id
 _symmetry_equiv_pos_as_xyz
  1  'x, y, z'
loop_
 _atom_site_type_symbol
 _atom_site_label
 _atom_site_symmetry_multiplicity
 _atom_site_fract_x
 _atom_site_fract_y
 _atom_site_fract_z
 _atom_site_occupancy
  Nd  Nd0  1  0.000618  0.999382  0.749226  1
  Nd  Nd1  1  0.000582  0.999418  0.250757  1
  Nd  Nd2  1  0.499554  0.500446  0.749580  1
  Nd  Nd3  1  0.498254  0.998289  0.748874  1
  Nd  Nd4  1  0.001711  0.501746  0.748874  1
  Nd  Nd5  1  0.500428  0.499572  0.250437  1
  Nd  Nd6  1  0.000055  0.500903  0.251122  1
  Nd  Nd7  1  0.499097  0.999945  0.251122  1
  Be  Be8  1  0.664134  0.335866  0.997347  1
  Be  Be9  1  0.666572  0.333428  0.502614  1
  Be  Be10  1  0.333408  0.666592  0.497399  1
  Be  Be11  1  0.333061  0.666939  0.002612  1
  Si  Si12  1  0.828215  0.655477  0.999431  1
  Si  Si13  1  0.344523  0.171785  0.999431  1
  Si  Si14  1  0.827761  0.172239  0.500561  1
  Si  Si15  1  0.827807  0.655603  0.500549  1
  Si  Si16  1  0.344397  0.172193  0.500549  1
  Si  Si17  1  0.172302  0.827698  0.499452  1
  Si  Si18  1  0.655246  0.827501  0.499457  1
  Si  Si19  1  0.172499  0.344754  0.499457  1
  Si  Si20  1  0.172301  0.827699  0.000575  1
  Si  Si21  1  0.652285  0.821824  0.000568  1
  Si  Si22  1  0.178176  0.347715  0.000568  1
  Ge  Ge23  1  0.827014  0.172986  0.999438  1
