# generated using pymatgen
data_Er5Zr3(ReB6)4
_symmetry_space_group_name_H-M   'P 1'
_cell_length_a   3.61686100
_cell_length_b   9.05395507
_cell_length_c   11.42429917
_cell_angle_alpha   89.98270525
_cell_angle_beta   90.00000000
_cell_angle_gamma   90.00000000
_symmetry_Int_Tables_number   1
_chemical_formula_structural   Er5Zr3(ReB6)4
_chemical_formula_sum   'Er5 Zr3 Re4 B24'
_cell_volume   374.11033130
_cell_formula_units_Z   1
loop_
 _symmetry_equiv_pos_site_id
 _symmetry_equiv_pos_as_xyz
  1  'x, y, z'
loop_
 _atom_site_type_symbol
 _atom_site_label
 _atom_site_symmetry_multiplicity
 _atom_site_fract_x
 _atom_site_fract_y
 _atom_site_fract_z
 _atom_site_occupancy
  Er  Er0  1  0.000000  0.321708  0.412742  1
  Er  Er1  1  0.000000  0.678125  0.586277  1
  Er  Er2  1  0.000000  0.821503  0.086680  1
  Er  Er3  1  0.000000  0.178673  0.914105  1
  Er  Er4  1  0.000000  0.944072  0.372270  1
  Zr  Zr5  1  0.000000  0.056702  0.629266  1
  Zr  Zr6  1  0.000000  0.443957  0.127184  1
  Zr  Zr7  1  0.000000  0.556048  0.872669  1
  Re  Re8  1  0.000000  0.636016  0.318573  1
  Re  Re9  1  0.000000  0.360869  0.681594  1
  Re  Re10  1  0.000000  0.142007  0.177960  1
  Re  Re11  1  0.000000  0.860345  0.820196  1
  B  B12  1  0.500000  0.552355  0.433521  1
  B  B13  1  0.500000  0.446249  0.566446  1
  B  B14  1  0.500000  0.053848  0.066229  1
  B  B15  1  0.500000  0.946688  0.933656  1
  B  B16  1  0.500000  0.749296  0.418375  1
  B  B17  1  0.500000  0.248402  0.581621  1
  B  B18  1  0.500000  0.252110  0.080778  1
  B  B19  1  0.500000  0.748403  0.918906  1
  B  B20  1  0.500000  0.792384  0.264289  1
  B  B21  1  0.500000  0.206177  0.735775  1
  B  B22  1  0.500000  0.294244  0.234631  1
  B  B23  1  0.500000  0.706008  0.764566  1
  B  B24  1  0.500000  0.629984  0.183712  1
  B  B25  1  0.500000  0.369627  0.816366  1
  B  B26  1  0.500000  0.131981  0.315013  1
  B  B27  1  0.500000  0.869392  0.683921  1
  B  B28  1  0.500000  0.982968  0.212081  1
  B  B29  1  0.500000  0.018186  0.787386  1
  B  B30  1  0.500000  0.480755  0.286770  1
  B  B31  1  0.500000  0.518630  0.712915  1
  B  B32  1  0.500000  0.601150  0.027267  1
  B  B33  1  0.500000  0.399330  0.972290  1
  B  B34  1  0.500000  0.102682  0.474282  1
  B  B35  1  0.500000  0.899125  0.529689  1
