# generated using pymatgen
data_Dy3Y7(SiBi)4
_symmetry_space_group_name_H-M   'P 1'
_cell_length_a   8.66673206
_cell_length_b   8.66726650
_cell_length_c   7.93571100
_cell_angle_alpha   90.00310807
_cell_angle_beta   89.99790843
_cell_angle_gamma   125.60383563
_symmetry_Int_Tables_number   1
_chemical_formula_structural   Dy3Y7(SiBi)4
_chemical_formula_sum   'Dy3 Y7 Si4 Bi4'
_cell_volume   484.67086605
_cell_formula_units_Z   1
loop_
 _symmetry_equiv_pos_site_id
 _symmetry_equiv_pos_as_xyz
  1  'x, y, z'
loop_
 _atom_site_type_symbol
 _atom_site_label
 _atom_site_symmetry_multiplicity
 _atom_site_fract_x
 _atom_site_fract_y
 _atom_site_fract_z
 _atom_site_occupancy
  Dy  Dy0  1  0.288361  0.044062  0.334198  1
  Dy  Dy1  1  0.000031  0.999992  0.000042  1
  Dy  Dy2  1  0.499975  0.499947  0.499983  1
  Y  Y3  1  0.043972  0.288362  0.334248  1
  Y  Y4  1  0.956049  0.711647  0.665749  1
  Y  Y5  1  0.456036  0.211636  0.834249  1
  Y  Y6  1  0.788358  0.543963  0.165755  1
  Y  Y7  1  0.543968  0.788376  0.165759  1
  Y  Y8  1  0.211626  0.456036  0.834233  1
  Y  Y9  1  0.711621  0.956034  0.665749  1
  Si  Si10  1  0.367466  0.367411  0.131492  1
  Si  Si11  1  0.632496  0.632498  0.868577  1
  Si  Si12  1  0.132541  0.132469  0.631359  1
  Si  Si13  1  0.867599  0.867534  0.368566  1
  Bi  Bi14  1  0.792159  0.207812  0.000010  1
  Bi  Bi15  1  0.207810  0.792215  0.000051  1
  Bi  Bi16  1  0.707745  0.292140  0.499992  1
  Bi  Bi17  1  0.292185  0.707866  0.499987  1
