# generated using pymatgen
data_RbLa2CuSe4
_symmetry_space_group_name_H-M   'P 1'
_cell_length_a   7.76771186
_cell_length_b   7.76771167
_cell_length_c   14.77234800
_cell_angle_alpha   90.00000000
_cell_angle_beta   90.00000000
_cell_angle_gamma   147.52139478
_symmetry_Int_Tables_number   1
_chemical_formula_structural   RbLa2CuSe4
_chemical_formula_sum   'Rb2 La4 Cu2 Se8'
_cell_volume   478.62744442
_cell_formula_units_Z   2
loop_
 _symmetry_equiv_pos_site_id
 _symmetry_equiv_pos_as_xyz
  1  'x, y, z'
loop_
 _atom_site_type_symbol
 _atom_site_label
 _atom_site_symmetry_multiplicity
 _atom_site_fract_x
 _atom_site_fract_y
 _atom_site_fract_z
 _atom_site_occupancy
  Rb  Rb0  1  0.107109  0.892891  0.250000  1
  Rb  Rb1  1  0.892891  0.107109  0.750000  1
  La  La2  1  0.634259  0.365741  0.938444  1
  La  La3  1  0.365741  0.634259  0.438444  1
  La  La4  1  0.634259  0.365741  0.561556  1
  La  La5  1  0.365741  0.634259  0.061556  1
  Cu  Cu6  1  0.163337  0.836663  0.750000  1
  Cu  Cu7  1  0.836663  0.163337  0.250000  1
  Se  Se8  1  0.000000  0.000000  0.500000  1
  Se  Se9  1  0.000000  0.000000  0.000000  1
  Se  Se10  1  0.739129  0.260871  0.113911  1
  Se  Se11  1  0.260871  0.739129  0.886089  1
  Se  Se12  1  0.573174  0.426826  0.750000  1
  Se  Se13  1  0.739129  0.260871  0.386089  1
  Se  Se14  1  0.426826  0.573174  0.250000  1
  Se  Se15  1  0.260871  0.739129  0.613911  1
