# generated using pymatgen
data_Sc3CdSn3Ru2
_symmetry_space_group_name_H-M   'P 1'
_cell_length_a   7.83111500
_cell_length_b   7.83111516
_cell_length_c   6.79652700
_cell_angle_alpha   90.00000000
_cell_angle_beta   90.00000000
_cell_angle_gamma   119.99999511
_symmetry_Int_Tables_number   1
_chemical_formula_structural   Sc3CdSn3Ru2
_chemical_formula_sum   'Sc6 Cd2 Sn6 Ru4'
_cell_volume   360.96484859
_cell_formula_units_Z   2
loop_
 _symmetry_equiv_pos_site_id
 _symmetry_equiv_pos_as_xyz
  1  'x, y, z'
loop_
 _atom_site_type_symbol
 _atom_site_label
 _atom_site_symmetry_multiplicity
 _atom_site_fract_x
 _atom_site_fract_y
 _atom_site_fract_z
 _atom_site_occupancy
  Sc  Sc0  1  0.368682  0.966540  0.250000  1
  Sc  Sc1  1  0.597859  0.631318  0.250000  1
  Sc  Sc2  1  0.033460  0.402141  0.250000  1
  Sc  Sc3  1  0.367274  0.964620  0.750000  1
  Sc  Sc4  1  0.597346  0.632726  0.750000  1
  Sc  Sc5  1  0.035380  0.402654  0.750000  1
  Cd  Cd6  1  0.666667  0.333333  0.995609  1
  Cd  Cd7  1  0.666667  0.333333  0.504391  1
  Sn  Sn8  1  0.726261  0.001276  0.000273  1
  Sn  Sn9  1  0.275015  0.273739  0.499727  1
  Sn  Sn10  1  0.998724  0.724985  0.499727  1
  Sn  Sn11  1  0.998724  0.724985  0.000273  1
  Sn  Sn12  1  0.275015  0.273739  0.000273  1
  Sn  Sn13  1  0.726261  0.001276  0.499727  1
  Ru  Ru14  1  0.333333  0.666667  0.000648  1
  Ru  Ru15  1  0.333333  0.666667  0.499352  1
  Ru  Ru16  1  0.000000  0.000000  0.250000  1
  Ru  Ru17  1  0.000000  0.000000  0.750000  1
