# generated using pymatgen
data_Lu12CdNi4Sn
_symmetry_space_group_name_H-M   'P 1'
_cell_length_a   8.20466452
_cell_length_b   8.20466525
_cell_length_c   8.20466453
_cell_angle_alpha   112.54624523
_cell_angle_beta   109.65943573
_cell_angle_gamma   106.26870096
_symmetry_Int_Tables_number   1
_chemical_formula_structural   Lu12CdNi4Sn
_chemical_formula_sum   'Lu12 Cd1 Ni4 Sn1'
_cell_volume   423.89295495
_cell_formula_units_Z   1
loop_
 _symmetry_equiv_pos_site_id
 _symmetry_equiv_pos_as_xyz
  1  'x, y, z'
loop_
 _atom_site_type_symbol
 _atom_site_label
 _atom_site_symmetry_multiplicity
 _atom_site_fract_x
 _atom_site_fract_y
 _atom_site_fract_z
 _atom_site_occupancy
  Lu  Lu0  1  0.675058  0.868489  0.193431  1
  Lu  Lu1  1  0.324942  0.518373  0.193431  1
  Lu  Lu2  1  0.817728  0.790616  0.608344  1
  Lu  Lu3  1  0.182272  0.790616  0.972887  1
  Lu  Lu4  1  0.817728  0.209384  0.027113  1
  Lu  Lu5  1  0.182272  0.209384  0.391656  1
  Lu  Lu6  1  0.675058  0.481627  0.806569  1
  Lu  Lu7  1  0.324942  0.131511  0.806569  1
  Lu  Lu8  1  0.562400  0.267123  0.295276  1
  Lu  Lu9  1  0.437600  0.732877  0.704724  1
  Lu  Lu10  1  0.028153  0.732877  0.295276  1
  Lu  Lu11  1  0.971847  0.267123  0.704724  1
  Cd  Cd12  1  0.000000  0.500000  0.500000  1
  Ni  Ni13  1  0.349314  0.500000  0.849314  1
  Ni  Ni14  1  0.650686  0.500000  0.150686  1
  Ni  Ni15  1  0.875195  0.875195  0.000000  1
  Ni  Ni16  1  0.124805  0.124805  0.000000  1
  Sn  Sn17  1  0.500000  0.000000  0.500000  1
