# generated using pymatgen
data_Sc(B6C)2
_symmetry_space_group_name_H-M   'P 1'
_cell_length_a   5.58681161
_cell_length_b   6.93323830
_cell_length_c   6.93323826
_cell_angle_alpha   91.10183618
_cell_angle_beta   113.75963065
_cell_angle_gamma   113.75963115
_symmetry_Int_Tables_number   1
_chemical_formula_structural   Sc(B6C)2
_chemical_formula_sum   'Sc2 B24 C4'
_cell_volume   219.61476363
_cell_formula_units_Z   2
loop_
 _symmetry_equiv_pos_site_id
 _symmetry_equiv_pos_as_xyz
  1  'x, y, z'
loop_
 _atom_site_type_symbol
 _atom_site_label
 _atom_site_symmetry_multiplicity
 _atom_site_fract_x
 _atom_site_fract_y
 _atom_site_fract_z
 _atom_site_occupancy
  Sc  Sc0  1  0.350868  0.600868  0.100868  1
  Sc  Sc1  1  0.649133  0.399133  0.899133  1
  B  B2  1  0.323533  0.221394  0.098993  1
  B  B3  1  0.996853  0.221394  0.098993  1
  B  B4  1  0.313950  0.966357  0.137898  1
  B  B5  1  0.790305  0.966357  0.137898  1
  B  B6  1  0.973585  0.806481  0.140690  1
  B  B7  1  0.179090  0.082702  0.275477  1
  B  B8  1  0.003146  0.401007  0.278606  1
  B  B9  1  0.676467  0.401007  0.278606  1
  B  B10  1  0.973585  0.640690  0.306481  1
  B  B11  1  0.820909  0.224523  0.417297  1
  B  B12  1  0.313950  0.637898  0.466357  1
  B  B13  1  0.790305  0.637898  0.466357  1
  B  B14  1  0.209695  0.362102  0.533642  1
  B  B15  1  0.686049  0.362102  0.533642  1
  B  B16  1  0.179091  0.775477  0.582703  1
  B  B17  1  0.026416  0.359311  0.693520  1
  B  B18  1  0.323533  0.598993  0.721393  1
  B  B19  1  0.996853  0.598993  0.721393  1
  B  B20  1  0.820910  0.917297  0.724523  1
  B  B21  1  0.026416  0.193520  0.859311  1
  B  B22  1  0.209695  0.033642  0.862102  1
  B  B23  1  0.686049  0.033642  0.862102  1
  B  B24  1  0.003148  0.778607  0.901008  1
  B  B25  1  0.676468  0.778607  0.901008  1
  C  C26  1  0.631188  0.967376  0.295002  1
  C  C27  1  0.631188  0.795002  0.467376  1
  C  C28  1  0.368811  0.204998  0.532624  1
  C  C29  1  0.368811  0.032624  0.704998  1
