# generated using pymatgen
data_MnNbFeP12
_symmetry_space_group_name_H-M   'P 1'
_cell_length_a   8.55530592
_cell_length_b   8.55530561
_cell_length_c   10.67742424
_cell_angle_alpha   65.73101524
_cell_angle_beta   65.73101751
_cell_angle_gamma   39.43975345
_symmetry_Int_Tables_number   1
_chemical_formula_structural   MnNbFeP12
_chemical_formula_sum   'Mn2 Nb2 Fe2 P24'
_cell_volume   446.64596809
_cell_formula_units_Z   2
loop_
 _symmetry_equiv_pos_site_id
 _symmetry_equiv_pos_as_xyz
  1  'x, y, z'
loop_
 _atom_site_type_symbol
 _atom_site_label
 _atom_site_symmetry_multiplicity
 _atom_site_fract_x
 _atom_site_fract_y
 _atom_site_fract_z
 _atom_site_occupancy
  Mn  Mn0  1  0.628079  0.007352  0.545352  1
  Mn  Mn1  1  0.992648  0.371921  0.954648  1
  Nb  Nb2  1  0.301780  0.698220  0.250000  1
  Nb  Nb3  1  0.696578  0.303422  0.750000  1
  Fe  Fe4  1  0.370513  0.990700  0.454595  1
  Fe  Fe5  1  0.009300  0.629487  0.045405  1
  P  P6  1  0.595798  0.952479  0.074120  1
  P  P7  1  0.047521  0.404202  0.425880  1
  P  P8  1  0.404984  0.048190  0.925791  1
  P  P9  1  0.951810  0.595016  0.574209  1
  P  P10  1  0.578055  0.295928  0.165500  1
  P  P11  1  0.704072  0.421945  0.334500  1
  P  P12  1  0.977747  0.331619  0.758467  1
  P  P13  1  0.668381  0.022253  0.741533  1
  P  P14  1  0.022587  0.665651  0.240428  1
  P  P15  1  0.334349  0.977413  0.259572  1
  P  P16  1  0.015152  0.919930  0.925978  1
  P  P17  1  0.080070  0.984848  0.574022  1
  P  P18  1  0.983325  0.080280  0.073217  1
  P  P19  1  0.919720  0.016675  0.426783  1
  P  P20  1  0.332682  0.433343  0.504082  1
  P  P21  1  0.566657  0.667318  0.995918  1
  P  P22  1  0.667474  0.564252  0.496796  1
  P  P23  1  0.435748  0.332526  0.003204  1
  P  P24  1  0.995012  0.648225  0.835051  1
  P  P25  1  0.351775  0.004988  0.664949  1
  P  P26  1  0.005902  0.350264  0.163406  1
  P  P27  1  0.649736  0.994098  0.336594  1
  P  P28  1  0.293821  0.581277  0.665657  1
  P  P29  1  0.418723  0.706179  0.834343  1
