# generated using pymatgen
data_Lu4Ge6Ir5Pt2
_symmetry_space_group_name_H-M   'P 1'
_cell_length_a   7.23735732
_cell_length_b   7.23991577
_cell_length_c   7.23991624
_cell_angle_alpha   109.80783707
_cell_angle_beta   109.31026509
_cell_angle_gamma   109.31026171
_symmetry_Int_Tables_number   1
_chemical_formula_structural   Lu4Ge6Ir5Pt2
_chemical_formula_sum   'Lu4 Ge6 Ir5 Pt2'
_cell_volume   291.96995057
_cell_formula_units_Z   1
loop_
 _symmetry_equiv_pos_site_id
 _symmetry_equiv_pos_as_xyz
  1  'x, y, z'
loop_
 _atom_site_type_symbol
 _atom_site_label
 _atom_site_symmetry_multiplicity
 _atom_site_fract_x
 _atom_site_fract_y
 _atom_site_fract_z
 _atom_site_occupancy
  Lu  Lu0  1  0.002355  0.001178  0.501178  1
  Lu  Lu1  1  0.002355  0.501178  0.001178  1
  Lu  Lu2  1  0.497539  0.996679  0.996679  1
  Lu  Lu3  1  0.497539  0.500860  0.500860  1
  Ge  Ge4  1  0.681183  0.684842  0.996342  1
  Ge  Ge5  1  0.312539  0.996841  0.315697  1
  Ge  Ge6  1  0.005945  0.316654  0.316654  1
  Ge  Ge7  1  0.312539  0.315697  0.996841  1
  Ge  Ge8  1  0.681183  0.996342  0.684842  1
  Ge  Ge9  1  0.005945  0.689291  0.689291  1
  Ir  Ir10  1  0.500680  0.250340  0.750340  1
  Ir  Ir11  1  0.249699  0.500249  0.749450  1
  Ir  Ir12  1  0.249699  0.749450  0.500249  1
  Ir  Ir13  1  0.500680  0.750340  0.250340  1
  Ir  Ir14  1  0.999176  0.999588  0.999588  1
  Pt  Pt15  1  0.750472  0.250389  0.500083  1
  Pt  Pt16  1  0.750472  0.500083  0.250389  1
