# generated using pymatgen
data_Zr6Co15Si7Ru
_symmetry_space_group_name_H-M   'P 1'
_cell_length_a   8.10689866
_cell_length_b   8.10690645
_cell_length_c   8.13452303
_cell_angle_alpha   60.11102689
_cell_angle_beta   60.11181597
_cell_angle_gamma   60.00205716
_symmetry_Int_Tables_number   1
_chemical_formula_structural   Zr6Co15Si7Ru
_chemical_formula_sum   'Zr6 Co15 Si7 Ru1'
_cell_volume   378.67194984
_cell_formula_units_Z   1
loop_
 _symmetry_equiv_pos_site_id
 _symmetry_equiv_pos_as_xyz
  1  'x, y, z'
loop_
 _atom_site_type_symbol
 _atom_site_label
 _atom_site_symmetry_multiplicity
 _atom_site_fract_x
 _atom_site_fract_y
 _atom_site_fract_z
 _atom_site_occupancy
  Zr  Zr0  1  0.707589  0.293680  0.291145  1
  Zr  Zr1  1  0.294422  0.294419  0.707428  1
  Zr  Zr2  1  0.294419  0.703741  0.707425  1
  Zr  Zr3  1  0.707587  0.707590  0.291140  1
  Zr  Zr4  1  0.293679  0.707593  0.291142  1
  Zr  Zr5  1  0.703738  0.294418  0.707424  1
  Co  Co6  1  0.672406  0.981902  0.673284  1
  Co  Co7  1  0.359908  0.877984  0.884141  1
  Co  Co8  1  0.017006  0.329616  0.323775  1
  Co  Co9  1  0.981898  0.672405  0.673287  1
  Co  Co10  1  0.326621  0.326617  0.020147  1
  Co  Co11  1  0.673278  0.673276  0.980169  1
  Co  Co12  1  0.639831  0.120307  0.119559  1
  Co  Co13  1  0.672407  0.672405  0.673293  1
  Co  Co14  1  0.879610  0.879610  0.361184  1
  Co  Co15  1  0.120306  0.120303  0.119557  1
  Co  Co16  1  0.877981  0.359915  0.884137  1
  Co  Co17  1  0.877974  0.877976  0.884141  1
  Co  Co18  1  0.329617  0.329610  0.323785  1
  Co  Co19  1  0.120306  0.639841  0.119556  1
  Co  Co20  1  0.329618  0.017010  0.323772  1
  Si  Si21  1  0.999718  0.500902  0.998495  1
  Si  Si22  1  0.999377  0.999384  0.496966  1
  Si  Si23  1  0.996416  0.996403  0.010779  1
  Si  Si24  1  0.500876  0.500883  0.998510  1
  Si  Si25  1  0.504230  0.999392  0.497003  1
  Si  Si26  1  0.500904  0.999714  0.998488  1
  Si  Si27  1  0.999397  0.504226  0.496995  1
  Ru  Ru28  1  0.118878  0.118874  0.643277  1
