# generated using pymatgen
data_Sr2GaSi3Ir4
_symmetry_space_group_name_H-M   'P 1'
_cell_length_a   8.26254043
_cell_length_b   7.21344745
_cell_length_c   5.93665089
_cell_angle_alpha   77.17736048
_cell_angle_beta   57.25733129
_cell_angle_gamma   44.47384807
_symmetry_Int_Tables_number   1
_chemical_formula_structural   Sr2GaSi3Ir4
_chemical_formula_sum   'Sr2 Ga1 Si3 Ir4'
_cell_volume   200.26275801
_cell_formula_units_Z   1
loop_
 _symmetry_equiv_pos_site_id
 _symmetry_equiv_pos_as_xyz
  1  'x, y, z'
loop_
 _atom_site_type_symbol
 _atom_site_label
 _atom_site_symmetry_multiplicity
 _atom_site_fract_x
 _atom_site_fract_y
 _atom_site_fract_z
 _atom_site_occupancy
  Sr  Sr0  1  0.499866  0.500134  0.499866  1
  Sr  Sr1  1  0.748697  0.751303  0.748697  1
  Ga  Ga2  1  0.064378  0.435622  0.064378  1
  Si  Si3  1  0.818548  0.181452  0.818548  1
  Si  Si4  1  0.181440  0.818560  0.181440  1
  Si  Si5  1  0.429481  0.070519  0.429481  1
  Ir  Ir6  1  0.125164  0.105993  0.873179  1
  Ir  Ir7  1  0.873179  0.895665  0.125164  1
  Ir  Ir8  1  0.138511  0.113901  0.370736  1
  Ir  Ir9  1  0.370736  0.376853  0.138511  1
