# generated using pymatgen
data_Nd3CuPt2Pb3
_symmetry_space_group_name_H-M   'P 1'
_cell_length_a   7.89483500
_cell_length_b   7.89483417
_cell_length_c   4.05634500
_cell_angle_alpha   90.00000000
_cell_angle_beta   90.00000000
_cell_angle_gamma   119.99999928
_symmetry_Int_Tables_number   1
_chemical_formula_structural   Nd3CuPt2Pb3
_chemical_formula_sum   'Nd3 Cu1 Pt2 Pb3'
_cell_volume   218.95334798
_cell_formula_units_Z   1
loop_
 _symmetry_equiv_pos_site_id
 _symmetry_equiv_pos_as_xyz
  1  'x, y, z'
loop_
 _atom_site_type_symbol
 _atom_site_label
 _atom_site_symmetry_multiplicity
 _atom_site_fract_x
 _atom_site_fract_y
 _atom_site_fract_z
 _atom_site_occupancy
  Nd  Nd0  1  0.000000  0.597040  0.500000  1
  Nd  Nd1  1  0.402960  0.402960  0.500000  1
  Nd  Nd2  1  0.597040  0.000000  0.500000  1
  Cu  Cu3  1  0.000000  0.000000  0.500000  1
  Pt  Pt4  1  0.333333  0.666667  0.000000  1
  Pt  Pt5  1  0.666667  0.333333  0.000000  1
  Pb  Pb6  1  0.745432  0.745432  0.000000  1
  Pb  Pb7  1  0.000000  0.254568  0.000000  1
  Pb  Pb8  1  0.254568  0.000000  0.000000  1
