# generated using pymatgen
data_ZrU5(Co3P2)6
_symmetry_space_group_name_H-M   'P 1'
_cell_length_a   3.71870200
_cell_length_b   10.43407400
_cell_length_c   12.19523944
_cell_angle_alpha   90.38463680
_cell_angle_beta   90.00000000
_cell_angle_gamma   90.00000000
_symmetry_Int_Tables_number   1
_chemical_formula_structural   ZrU5(Co3P2)6
_chemical_formula_sum   'Zr1 U5 Co18 P12'
_cell_volume   473.17940663
_cell_formula_units_Z   1
loop_
 _symmetry_equiv_pos_site_id
 _symmetry_equiv_pos_as_xyz
  1  'x, y, z'
loop_
 _atom_site_type_symbol
 _atom_site_label
 _atom_site_symmetry_multiplicity
 _atom_site_fract_x
 _atom_site_fract_y
 _atom_site_fract_z
 _atom_site_occupancy
  Zr  Zr0  1  0.000000  0.315681  0.795047  1
  U  U1  1  0.000000  0.498412  0.528547  1
  U  U2  1  0.500000  0.000064  0.474404  1
  U  U3  1  0.500000  0.819765  0.206027  1
  U  U4  1  0.500000  0.182728  0.206621  1
  U  U5  1  0.000000  0.678270  0.793080  1
  Co  Co6  1  0.000000  0.499097  0.983400  1
  Co  Co7  1  0.500000  0.001294  0.012793  1
  Co  Co8  1  0.500000  0.300805  0.433331  1
  Co  Co9  1  0.500000  0.699472  0.431296  1
  Co  Co10  1  0.000000  0.200662  0.572126  1
  Co  Co11  1  0.000000  0.800969  0.569177  1
  Co  Co12  1  0.500000  0.879579  0.710044  1
  Co  Co13  1  0.500000  0.122961  0.711927  1
  Co  Co14  1  0.000000  0.620533  0.289686  1
  Co  Co15  1  0.000000  0.377314  0.290371  1
  Co  Co16  1  0.500000  0.332471  0.993682  1
  Co  Co17  1  0.500000  0.665161  0.994440  1
  Co  Co18  1  0.000000  0.168230  0.001578  1
  Co  Co19  1  0.000000  0.831817  0.003569  1
  Co  Co20  1  0.500000  0.500728  0.161837  1
  Co  Co21  1  0.000000  0.999709  0.838382  1
  Co  Co22  1  0.500000  0.503931  0.699823  1
  Co  Co23  1  0.000000  0.999960  0.298620  1
  P  P24  1  0.500000  0.310165  0.620517  1
  P  P25  1  0.500000  0.692457  0.613987  1
  P  P26  1  0.000000  0.191318  0.388752  1
  P  P27  1  0.000000  0.808393  0.385742  1
  P  P28  1  0.500000  0.495485  0.880121  1
  P  P29  1  0.000000  0.001745  0.114654  1
  P  P30  1  0.500000  0.845025  0.892326  1
  P  P31  1  0.500000  0.155207  0.890948  1
  P  P32  1  0.000000  0.652157  0.106362  1
  P  P33  1  0.000000  0.347260  0.105183  1
  P  P34  1  0.500000  0.500211  0.346912  1
  P  P35  1  0.000000  0.000964  0.654688  1
