# generated using pymatgen
data_Ho5Lu3(TcB6)4
_symmetry_space_group_name_H-M   'P 1'
_cell_length_a   3.64793800
_cell_length_b   9.09521413
_cell_length_c   11.47167322
_cell_angle_alpha   89.99854935
_cell_angle_beta   90.00000000
_cell_angle_gamma   90.00000000
_symmetry_Int_Tables_number   1
_chemical_formula_structural   Ho5Lu3(TcB6)4
_chemical_formula_sum   'Ho5 Lu3 Tc4 B24'
_cell_volume   380.61609007
_cell_formula_units_Z   1
loop_
 _symmetry_equiv_pos_site_id
 _symmetry_equiv_pos_as_xyz
  1  'x, y, z'
loop_
 _atom_site_type_symbol
 _atom_site_label
 _atom_site_symmetry_multiplicity
 _atom_site_fract_x
 _atom_site_fract_y
 _atom_site_fract_z
 _atom_site_occupancy
  Ho  Ho0  1  0.000000  0.323751  0.414259  1
  Ho  Ho1  1  0.000000  0.676032  0.586165  1
  Ho  Ho2  1  0.000000  0.823554  0.085540  1
  Ho  Ho3  1  0.000000  0.176523  0.913950  1
  Ho  Ho4  1  0.000000  0.943285  0.370146  1
  Lu  Lu5  1  0.000000  0.057040  0.631082  1
  Lu  Lu6  1  0.000000  0.443144  0.129995  1
  Lu  Lu7  1  0.000000  0.557031  0.869575  1
  Tc  Tc8  1  0.000000  0.638155  0.319530  1
  Tc  Tc9  1  0.000000  0.360642  0.680618  1
  Tc  Tc10  1  0.000000  0.140317  0.179249  1
  Tc  Tc11  1  0.000000  0.860478  0.820103  1
  B  B12  1  0.500000  0.552690  0.432803  1
  B  B13  1  0.500000  0.446271  0.567497  1
  B  B14  1  0.500000  0.053930  0.066691  1
  B  B15  1  0.500000  0.946405  0.932745  1
  B  B16  1  0.500000  0.748742  0.418700  1
  B  B17  1  0.500000  0.249731  0.581718  1
  B  B18  1  0.500000  0.251007  0.080832  1
  B  B19  1  0.500000  0.749360  0.918785  1
  B  B20  1  0.500000  0.791822  0.264717  1
  B  B21  1  0.500000  0.207113  0.735089  1
  B  B22  1  0.500000  0.293535  0.234323  1
  B  B23  1  0.500000  0.706956  0.765396  1
  B  B24  1  0.500000  0.629864  0.184243  1
  B  B25  1  0.500000  0.369830  0.815518  1
  B  B26  1  0.500000  0.131680  0.314600  1
  B  B27  1  0.500000  0.869495  0.685043  1
  B  B28  1  0.500000  0.982428  0.211554  1
  B  B29  1  0.500000  0.018233  0.787671  1
  B  B30  1  0.500000  0.481244  0.287199  1
  B  B31  1  0.500000  0.518405  0.712622  1
  B  B32  1  0.500000  0.598313  0.027147  1
  B  B33  1  0.500000  0.401873  0.972481  1
  B  B34  1  0.500000  0.100463  0.473509  1
  B  B35  1  0.500000  0.900654  0.528904  1
