# generated using pymatgen
data_ThSc7(SiI6)2
_symmetry_space_group_name_H-M   'P 1'
_cell_length_a   4.06179800
_cell_length_b   13.64324585
_cell_length_c   14.39531103
_cell_angle_alpha   89.05036632
_cell_angle_beta   90.00000000
_cell_angle_gamma   90.00000000
_symmetry_Int_Tables_number   1
_chemical_formula_structural   ThSc7(SiI6)2
_chemical_formula_sum   'Th1 Sc7 Si2 I12'
_cell_volume   797.62255280
_cell_formula_units_Z   1
loop_
 _symmetry_equiv_pos_site_id
 _symmetry_equiv_pos_as_xyz
  1  'x, y, z'
loop_
 _atom_site_type_symbol
 _atom_site_label
 _atom_site_symmetry_multiplicity
 _atom_site_fract_x
 _atom_site_fract_y
 _atom_site_fract_z
 _atom_site_occupancy
  Th  Th0  1  0.000000  0.110081  0.575924  1
  Sc  Sc1  1  0.500000  0.108728  0.350171  1
  Sc  Sc2  1  0.500000  0.883388  0.645525  1
  Sc  Sc3  1  0.500000  0.613705  0.148380  1
  Sc  Sc4  1  0.500000  0.392993  0.857625  1
  Sc  Sc5  1  0.000000  0.887943  0.423329  1
  Sc  Sc6  1  0.000000  0.607937  0.928781  1
  Sc  Sc7  1  0.000000  0.394227  0.074667  1
  Si  Si8  1  0.500000  0.990099  0.493690  1
  Si  Si9  1  0.500000  0.502242  0.003282  1
  I  I10  1  0.500000  0.254465  0.160785  1
  I  I11  1  0.500000  0.743293  0.837159  1
  I  I12  1  0.500000  0.749748  0.333113  1
  I  I13  1  0.500000  0.265029  0.670406  1
  I  I14  1  0.000000  0.256940  0.403788  1
  I  I15  1  0.000000  0.744158  0.582639  1
  I  I16  1  0.000000  0.753471  0.081211  1
  I  I17  1  0.000000  0.250248  0.919312  1
  I  I18  1  0.000000  0.003033  0.243486  1
  I  I19  1  0.000000  0.984123  0.763332  1
  I  I20  1  0.000000  0.502355  0.253538  1
  I  I21  1  0.000000  0.501798  0.749857  1
