# generated using pymatgen
data_Ca5Th3(Ge3Rh4)2
_symmetry_space_group_name_H-M   'P 1'
_cell_length_a   10.95843087
_cell_length_b   10.96468006
_cell_length_c   7.84787204
_cell_angle_alpha   70.87453237
_cell_angle_beta   70.87436043
_cell_angle_gamma   30.68052290
_symmetry_Int_Tables_number   1
_chemical_formula_structural   Ca5Th3(Ge3Rh4)2
_chemical_formula_sum   'Ca5 Th3 Ge6 Rh8'
_cell_volume   452.52949466
_cell_formula_units_Z   1
loop_
 _symmetry_equiv_pos_site_id
 _symmetry_equiv_pos_as_xyz
  1  'x, y, z'
loop_
 _atom_site_type_symbol
 _atom_site_label
 _atom_site_symmetry_multiplicity
 _atom_site_fract_x
 _atom_site_fract_y
 _atom_site_fract_z
 _atom_site_occupancy
  Ca  Ca0  1  0.929698  0.200700  0.339596  1
  Ca  Ca1  1  0.804832  0.066390  0.164551  1
  Ca  Ca2  1  0.066455  0.803491  0.666030  1
  Ca  Ca3  1  0.208743  0.924913  0.829654  1
  Ca  Ca4  1  0.783151  0.558264  0.599223  1
  Th  Th5  1  0.229461  0.432005  0.396196  1
  Th  Th6  1  0.571007  0.769167  0.104094  1
  Th  Th7  1  0.430296  0.234467  0.896028  1
  Ge  Ge8  1  0.621823  0.385813  0.750074  1
  Ge  Ge9  1  0.377304  0.617555  0.256367  1
  Ge  Ge10  1  0.285902  0.050922  0.448367  1
  Ge  Ge11  1  0.931826  0.721139  0.058374  1
  Ge  Ge12  1  0.722822  0.934400  0.555286  1
  Ge  Ge13  1  0.057002  0.273997  0.947118  1
  Rh  Rh14  1  0.299536  0.571319  0.028942  1
  Rh  Rh15  1  0.569840  0.300427  0.538454  1
  Rh  Rh16  1  0.687435  0.435546  0.985023  1
  Rh  Rh17  1  0.091928  0.356013  0.178666  1
  Rh  Rh18  1  0.596311  0.963288  0.304561  1
  Rh  Rh19  1  0.425484  0.701236  0.465995  1
  Rh  Rh20  1  0.947548  0.606494  0.807607  1
  Rh  Rh21  1  0.361594  0.092455  0.679794  1
