# generated using pymatgen
data_Sc4Zn2HgIr
_symmetry_space_group_name_H-M   'P 1'
_cell_length_a   6.73698001
_cell_length_b   6.75671200
_cell_length_c   6.73647601
_cell_angle_alpha   90.00000000
_cell_angle_beta   90.00544319
_cell_angle_gamma   90.00000000
_symmetry_Int_Tables_number   1
_chemical_formula_structural   Sc4Zn2HgIr
_chemical_formula_sum   'Sc8 Zn4 Hg2 Ir2'
_cell_volume   306.64326594
_cell_formula_units_Z   2
loop_
 _symmetry_equiv_pos_site_id
 _symmetry_equiv_pos_as_xyz
  1  'x, y, z'
loop_
 _atom_site_type_symbol
 _atom_site_label
 _atom_site_symmetry_multiplicity
 _atom_site_fract_x
 _atom_site_fract_y
 _atom_site_fract_z
 _atom_site_occupancy
  Sc  Sc0  1  0.235399  0.000268  0.264601  1
  Sc  Sc1  1  0.235399  0.499730  0.264601  1
  Sc  Sc2  1  0.764658  0.500269  0.264658  1
  Sc  Sc3  1  0.764658  0.999730  0.264658  1
  Sc  Sc4  1  0.235342  0.000269  0.735341  1
  Sc  Sc5  1  0.235342  0.499729  0.735341  1
  Sc  Sc6  1  0.764601  0.500268  0.735400  1
  Sc  Sc7  1  0.764601  0.999731  0.735400  1
  Zn  Zn8  1  0.999426  0.249999  0.999999  1
  Zn  Zn9  1  0.000574  0.750000  0.000001  1
  Zn  Zn10  1  0.499361  0.750000  0.499998  1
  Zn  Zn11  1  0.500639  0.249999  0.500001  1
  Hg  Hg12  1  0.500398  0.249999  0.999999  1
  Hg  Hg13  1  0.499602  0.750000  0.000001  1
  Ir  Ir14  1  0.999587  0.249999  0.499997  1
  Ir  Ir15  1  0.000413  0.750000  0.500003  1
