# generated using pymatgen
data_Tb4AlRh
_symmetry_space_group_name_H-M   'P 1'
_cell_length_a   9.57487859
_cell_length_b   9.57493591
_cell_length_c   9.57484297
_cell_angle_alpha   60.08525283
_cell_angle_beta   60.08559081
_cell_angle_gamma   60.08755898
_symmetry_Int_Tables_number   1
_chemical_formula_structural   Tb4AlRh
_chemical_formula_sum   'Tb16 Al4 Rh4'
_cell_volume   621.91731735
_cell_formula_units_Z   4
loop_
 _symmetry_equiv_pos_site_id
 _symmetry_equiv_pos_as_xyz
  1  'x, y, z'
loop_
 _atom_site_type_symbol
 _atom_site_label
 _atom_site_symmetry_multiplicity
 _atom_site_fract_x
 _atom_site_fract_y
 _atom_site_fract_z
 _atom_site_occupancy
  Tb  Tb0  1  0.807129  0.807128  0.193122  1
  Tb  Tb1  1  0.807126  0.193122  0.807129  1
  Tb  Tb2  1  0.192234  0.192237  0.807988  1
  Tb  Tb3  1  0.645161  0.060264  0.645172  1
  Tb  Tb4  1  0.062229  0.062233  0.436689  1
  Tb  Tb5  1  0.435888  0.435892  0.062603  1
  Tb  Tb6  1  0.650279  0.650279  0.650273  1
  Tb  Tb7  1  0.807981  0.192241  0.192239  1
  Tb  Tb8  1  0.193119  0.807128  0.807130  1
  Tb  Tb9  1  0.060271  0.645160  0.645166  1
  Tb  Tb10  1  0.436676  0.062239  0.062246  1
  Tb  Tb11  1  0.435884  0.062601  0.435895  1
  Tb  Tb12  1  0.062234  0.436681  0.062243  1
  Tb  Tb13  1  0.645170  0.645172  0.060251  1
  Tb  Tb14  1  0.192239  0.807982  0.192240  1
  Tb  Tb15  1  0.062598  0.435888  0.435896  1
  Al  Al16  1  0.422596  0.422592  0.422591  1
  Al  Al17  1  0.424377  0.424373  0.730489  1
  Al  Al18  1  0.424382  0.730486  0.424371  1
  Al  Al19  1  0.730486  0.424379  0.424373  1
  Rh  Rh20  1  0.859090  0.427506  0.859074  1
  Rh  Rh21  1  0.856252  0.856247  0.856234  1
  Rh  Rh22  1  0.859092  0.859089  0.427514  1
  Rh  Rh23  1  0.427506  0.859083  0.859073  1
