# generated using pymatgen
data_Tb2Fe3P7Ir2Ru7
_symmetry_space_group_name_H-M   'P 1'
_cell_length_a   3.86562200
_cell_length_b   9.29990364
_cell_length_c   9.31971404
_cell_angle_alpha   119.78554765
_cell_angle_beta   90.00000000
_cell_angle_gamma   90.00000000
_symmetry_Int_Tables_number   1
_chemical_formula_structural   Tb2Fe3P7Ir2Ru7
_chemical_formula_sum   'Tb2 Fe3 P7 Ir2 Ru7'
_cell_volume   290.78064507
_cell_formula_units_Z   1
loop_
 _symmetry_equiv_pos_site_id
 _symmetry_equiv_pos_as_xyz
  1  'x, y, z'
loop_
 _atom_site_type_symbol
 _atom_site_label
 _atom_site_symmetry_multiplicity
 _atom_site_fract_x
 _atom_site_fract_y
 _atom_site_fract_z
 _atom_site_occupancy
  Tb  Tb0  1  0.000000  0.666588  0.333624  1
  Tb  Tb1  1  0.500000  0.334124  0.667119  1
  Fe  Fe2  1  0.000000  0.890739  0.732730  1
  Fe  Fe3  1  0.000000  0.267441  0.157582  1
  Fe  Fe4  1  0.000000  0.841228  0.111065  1
  P  P5  1  0.000000  0.104805  0.695529  1
  P  P6  1  0.000000  0.308224  0.412560  1
  P  P7  1  0.000000  0.591509  0.891281  1
  P  P8  1  0.500000  0.719051  0.602671  1
  P  P9  1  0.500000  0.398072  0.121284  1
  P  P10  1  0.500000  0.877520  0.276727  1
  P  P11  1  0.000000  0.999456  0.000108  1
  Ir  Ir12  1  0.000000  0.359842  0.933912  1
  Ir  Ir13  1  0.000000  0.065388  0.425010  1
  Ru  Ru14  1  0.000000  0.577962  0.639223  1
  Ru  Ru15  1  0.500000  0.947802  0.560135  1
  Ru  Ru16  1  0.500000  0.437460  0.386735  1
  Ru  Ru17  1  0.500000  0.610363  0.050735  1
  Ru  Ru18  1  0.500000  0.121621  0.912863  1
  Ru  Ru19  1  0.500000  0.085677  0.206960  1
  Ru  Ru20  1  0.500000  0.795126  0.882146  1
