# generated using pymatgen
data_Co8PbO16
_symmetry_space_group_name_H-M   'P 1'
_cell_length_a   5.70673825
_cell_length_b   6.84028727
_cell_length_c   6.88838152
_cell_angle_alpha   88.44104678
_cell_angle_beta   78.07630270
_cell_angle_gamma   77.62989518
_symmetry_Int_Tables_number   1
_chemical_formula_structural   Co8PbO16
_chemical_formula_sum   'Co8 Pb1 O16'
_cell_volume   256.94245405
_cell_formula_units_Z   1
loop_
 _symmetry_equiv_pos_site_id
 _symmetry_equiv_pos_as_xyz
  1  'x, y, z'
loop_
 _atom_site_type_symbol
 _atom_site_label
 _atom_site_symmetry_multiplicity
 _atom_site_fract_x
 _atom_site_fract_y
 _atom_site_fract_z
 _atom_site_occupancy
  Co  Co0  1  0.580380  0.516807  0.182077  1
  Co  Co1  1  0.082605  0.511776  0.182481  1
  Co  Co2  1  0.167343  0.815063  0.517660  1
  Co  Co3  1  0.667802  0.815511  0.522004  1
  Co  Co4  1  0.334751  0.182549  0.480608  1
  Co  Co5  1  0.828123  0.183526  0.487415  1
  Co  Co6  1  0.428984  0.485778  0.816906  1
  Co  Co7  1  0.927845  0.487843  0.815098  1
  Pb  Pb8  1  0.044892  0.007094  0.011939  1
  O  O9  1  0.833500  0.647069  0.050403  1
  O  O10  1  0.325341  0.651715  0.049749  1
  O  O11  1  0.980111  0.702582  0.380888  1
  O  O12  1  0.482794  0.699254  0.383354  1
  O  O13  1  0.852666  0.955791  0.649950  1
  O  O14  1  0.345590  0.956460  0.649444  1
  O  O15  1  0.337991  0.375834  0.284979  1
  O  O16  1  0.841814  0.362918  0.278928  1
  O  O17  1  0.169119  0.627186  0.707992  1
  O  O18  1  0.668748  0.626156  0.708731  1
  O  O19  1  0.147366  0.041976  0.353100  1
  O  O20  1  0.654209  0.038738  0.355440  1
  O  O21  1  0.021011  0.302067  0.618490  1
  O  O22  1  0.525647  0.298498  0.613428  1
  O  O23  1  0.177726  0.351667  0.948874  1
  O  O24  1  0.680739  0.356142  0.950057  1
