# generated using pymatgen
data_Ta7Nb5Al4(IrN)4
_symmetry_space_group_name_H-M   'P 1'
_cell_length_a   7.02929707
_cell_length_b   7.03099839
_cell_length_c   7.01842140
_cell_angle_alpha   90.07133472
_cell_angle_beta   90.01202074
_cell_angle_gamma   90.01001262
_symmetry_Int_Tables_number   1
_chemical_formula_structural   Ta7Nb5Al4(IrN)4
_chemical_formula_sum   'Ta7 Nb5 Al4 Ir4 N4'
_cell_volume   346.87099297
_cell_formula_units_Z   1
loop_
 _symmetry_equiv_pos_site_id
 _symmetry_equiv_pos_as_xyz
  1  'x, y, z'
loop_
 _atom_site_type_symbol
 _atom_site_label
 _atom_site_symmetry_multiplicity
 _atom_site_fract_x
 _atom_site_fract_y
 _atom_site_fract_z
 _atom_site_occupancy
  Ta  Ta0  1  0.794869  0.955738  0.376777  1
  Ta  Ta1  1  0.703777  0.044133  0.875466  1
  Ta  Ta2  1  0.204357  0.456609  0.124039  1
  Ta  Ta3  1  0.296790  0.543580  0.622409  1
  Ta  Ta4  1  0.955095  0.376208  0.793373  1
  Ta  Ta5  1  0.045379  0.875444  0.707200  1
  Ta  Ta6  1  0.454840  0.124657  0.206491  1
  Nb  Nb7  1  0.546001  0.624192  0.292066  1
  Nb  Nb8  1  0.376821  0.793148  0.955607  1
  Nb  Nb9  1  0.875515  0.706994  0.045040  1
  Nb  Nb10  1  0.122352  0.206441  0.455300  1
  Nb  Nb11  1  0.623574  0.293443  0.544209  1
  Al  Al12  1  0.570717  0.430465  0.928867  1
  Al  Al13  1  0.429426  0.929953  0.571069  1
  Al  Al14  1  0.928948  0.569248  0.428996  1
  Al  Al15  1  0.070759  0.069133  0.071047  1
  Ir  Ir16  1  0.176760  0.821349  0.325198  1
  Ir  Ir17  1  0.321586  0.179193  0.825015  1
  Ir  Ir18  1  0.822869  0.319798  0.174306  1
  Ir  Ir19  1  0.679323  0.679633  0.677256  1
  N  N20  1  0.874753  0.122807  0.628521  1
  N  N21  1  0.626487  0.880162  0.126929  1
  N  N22  1  0.125555  0.622804  0.871856  1
  N  N23  1  0.373445  0.374867  0.372965  1
