# generated using pymatgen
data_Eu4In4Pt3Au
_symmetry_space_group_name_H-M   'P 1'
_cell_length_a   4.49995500
_cell_length_b   7.53059846
_cell_length_c   8.62032985
_cell_angle_alpha   89.90709221
_cell_angle_beta   90.00000000
_cell_angle_gamma   90.00000000
_symmetry_Int_Tables_number   1
_chemical_formula_structural   Eu4In4Pt3Au
_chemical_formula_sum   'Eu4 In4 Pt3 Au1'
_cell_volume   292.11978686
_cell_formula_units_Z   1
loop_
 _symmetry_equiv_pos_site_id
 _symmetry_equiv_pos_as_xyz
  1  'x, y, z'
loop_
 _atom_site_type_symbol
 _atom_site_label
 _atom_site_symmetry_multiplicity
 _atom_site_fract_x
 _atom_site_fract_y
 _atom_site_fract_z
 _atom_site_occupancy
  Eu  Eu0  1  0.750000  0.460304  0.818958  1
  Eu  Eu1  1  0.250000  0.033726  0.321684  1
  Eu  Eu2  1  0.750000  0.972062  0.674089  1
  Eu  Eu3  1  0.250000  0.528462  0.183626  1
  In  In4  1  0.250000  0.643927  0.559260  1
  In  In5  1  0.250000  0.152129  0.936611  1
  In  In6  1  0.750000  0.353782  0.435722  1
  In  In7  1  0.750000  0.856813  0.069133  1
  Pt  Pt8  1  0.250000  0.266611  0.624193  1
  Pt  Pt9  1  0.750000  0.733394  0.377056  1
  Pt  Pt10  1  0.750000  0.233346  0.124271  1
  Au  Au11  1  0.250000  0.765443  0.875397  1
