# generated using pymatgen
data_PrNd2HoAu2
_symmetry_space_group_name_H-M   'P 1'
_cell_length_a   5.04279700
_cell_length_b   7.35052898
_cell_length_c   9.24217403
_cell_angle_alpha   89.97521429
_cell_angle_beta   90.00000000
_cell_angle_gamma   90.00000000
_symmetry_Int_Tables_number   1
_chemical_formula_structural   PrNd2HoAu2
_chemical_formula_sum   'Pr2 Nd4 Ho2 Au4'
_cell_volume   342.58171663
_cell_formula_units_Z   2
loop_
 _symmetry_equiv_pos_site_id
 _symmetry_equiv_pos_as_xyz
  1  'x, y, z'
loop_
 _atom_site_type_symbol
 _atom_site_label
 _atom_site_symmetry_multiplicity
 _atom_site_fract_x
 _atom_site_fract_y
 _atom_site_fract_z
 _atom_site_occupancy
  Pr  Pr0  1  0.250000  0.489353  0.175963  1
  Pr  Pr1  1  0.750000  0.510647  0.824037  1
  Nd  Nd2  1  0.250000  0.990845  0.323362  1
  Nd  Nd3  1  0.750000  0.009155  0.676638  1
  Nd  Nd4  1  0.750000  0.651056  0.412643  1
  Nd  Nd5  1  0.250000  0.348944  0.587357  1
  Ho  Ho6  1  0.750000  0.148753  0.078419  1
  Ho  Ho7  1  0.250000  0.851247  0.921581  1
  Au  Au8  1  0.250000  0.243430  0.909442  1
  Au  Au9  1  0.750000  0.756570  0.090558  1
  Au  Au10  1  0.250000  0.758456  0.607781  1
  Au  Au11  1  0.750000  0.241544  0.392219  1
