# generated using pymatgen
data_Y3Hg(Ir2O7)2
_symmetry_space_group_name_H-M   'P 1'
_cell_length_a   7.20626638
_cell_length_b   7.34663368
_cell_length_c   7.34663400
_cell_angle_alpha   59.99999858
_cell_angle_beta   59.35353545
_cell_angle_gamma   59.35352803
_symmetry_Int_Tables_number   1
_chemical_formula_structural   Y3Hg(Ir2O7)2
_chemical_formula_sum   'Y3 Hg1 Ir4 O14'
_cell_volume   272.30687536
_cell_formula_units_Z   1
loop_
 _symmetry_equiv_pos_site_id
 _symmetry_equiv_pos_as_xyz
  1  'x, y, z'
loop_
 _atom_site_type_symbol
 _atom_site_label
 _atom_site_symmetry_multiplicity
 _atom_site_fract_x
 _atom_site_fract_y
 _atom_site_fract_z
 _atom_site_occupancy
  Y  Y0  1  0.125000  0.625000  0.125000  1
  Y  Y1  1  0.125000  0.125000  0.625000  1
  Y  Y2  1  0.125000  0.125000  0.125000  1
  Hg  Hg3  1  0.625000  0.125000  0.125000  1
  Ir  Ir4  1  0.125000  0.625000  0.625000  1
  Ir  Ir5  1  0.625000  0.125000  0.625000  1
  Ir  Ir6  1  0.625000  0.625000  0.125000  1
  Ir  Ir7  1  0.625000  0.625000  0.625000  1
  O  O8  1  0.712286  0.692491  0.297612  1
  O  O9  1  0.285921  0.290951  0.711564  1
  O  O10  1  0.712286  0.297612  0.692491  1
  O  O11  1  0.285921  0.711564  0.290951  1
  O  O12  1  0.285921  0.711564  0.711564  1
  O  O13  1  0.712286  0.297612  0.297612  1
  O  O14  1  0.537714  0.557509  0.952388  1
  O  O15  1  0.964079  0.959049  0.538436  1
  O  O16  1  0.537714  0.952388  0.557509  1
  O  O17  1  0.964079  0.538436  0.959049  1
  O  O18  1  0.964079  0.538436  0.538436  1
  O  O19  1  0.537714  0.952388  0.952388  1
  O  O20  1  0.243201  0.252266  0.252266  1
  O  O21  1  0.006799  0.997734  0.997734  1
