# generated using pymatgen
data_Zr8Ta12CuSi15
_symmetry_space_group_name_H-M   'P 1'
_cell_length_a   6.89340855
_cell_length_b   6.87900825
_cell_length_c   12.72278865
_cell_angle_alpha   90.06642970
_cell_angle_beta   89.90342194
_cell_angle_gamma   89.89139738
_symmetry_Int_Tables_number   1
_chemical_formula_structural   Zr8Ta12CuSi15
_chemical_formula_sum   'Zr8 Ta12 Cu1 Si15'
_cell_volume   603.30992658
_cell_formula_units_Z   1
loop_
 _symmetry_equiv_pos_site_id
 _symmetry_equiv_pos_as_xyz
  1  'x, y, z'
loop_
 _atom_site_type_symbol
 _atom_site_label
 _atom_site_symmetry_multiplicity
 _atom_site_fract_x
 _atom_site_fract_y
 _atom_site_fract_z
 _atom_site_occupancy
  Zr  Zr0  1  0.998557  0.660237  0.030304  1
  Zr  Zr1  1  0.996866  0.338927  0.530631  1
  Zr  Zr2  1  0.659691  0.999918  0.970170  1
  Zr  Zr3  1  0.159038  0.497885  0.781713  1
  Zr  Zr4  1  0.840675  0.502005  0.280938  1
  Zr  Zr5  1  0.499906  0.158479  0.218753  1
  Zr  Zr6  1  0.498484  0.839827  0.718510  1
  Zr  Zr7  1  0.345896  0.000544  0.469224  1
  Ta  Ta8  1  0.352208  0.503951  0.374779  1
  Ta  Ta9  1  0.846396  0.996456  0.372439  1
  Ta  Ta10  1  0.004314  0.152877  0.126894  1
  Ta  Ta11  1  0.992791  0.846605  0.628790  1
  Ta  Ta12  1  0.652549  0.494563  0.877133  1
  Ta  Ta13  1  0.502731  0.349819  0.623599  1
  Ta  Ta14  1  0.495113  0.653033  0.123794  1
  Ta  Ta15  1  0.153188  0.003594  0.872832  1
  Ta  Ta16  1  0.668069  0.670597  0.501375  1
  Ta  Ta17  1  0.830685  0.169046  0.749750  1
  Ta  Ta18  1  0.171201  0.831664  0.249803  1
  Ta  Ta19  1  0.330668  0.329701  0.000312  1
  Cu  Cu20  1  0.045726  0.700312  0.437754  1
  Si  Si21  1  0.956042  0.297318  0.936793  1
  Si  Si22  1  0.703664  0.044942  0.562844  1
  Si  Si23  1  0.199962  0.456606  0.187288  1
  Si  Si24  1  0.798637  0.543450  0.686074  1
  Si  Si25  1  0.456143  0.200581  0.813005  1
  Si  Si26  1  0.544895  0.798503  0.314298  1
  Si  Si27  1  0.298159  0.956154  0.063522  1
  Si  Si28  1  0.863717  0.791633  0.822873  1
  Si  Si29  1  0.136014  0.208059  0.324861  1
  Si  Si30  1  0.792862  0.863730  0.177804  1
  Si  Si31  1  0.287686  0.637441  0.568059  1
  Si  Si32  1  0.707635  0.364807  0.072954  1
  Si  Si33  1  0.638130  0.294042  0.427350  1
  Si  Si34  1  0.364414  0.707318  0.926873  1
  Si  Si35  1  0.207291  0.135377  0.675908  1
