# generated using pymatgen
data_Y3Ho2P12Ru17Pt2
_symmetry_space_group_name_H-M   'P 1'
_cell_length_a   12.62698200
_cell_length_b   12.54032605
_cell_length_c   3.98605700
_cell_angle_alpha   90.00000000
_cell_angle_beta   90.00000000
_cell_angle_gamma   120.22885151
_symmetry_Int_Tables_number   1
_chemical_formula_structural   Y3Ho2P12Ru17Pt2
_chemical_formula_sum   'Y3 Ho2 P12 Ru17 Pt2'
_cell_volume   545.35134785
_cell_formula_units_Z   1
loop_
 _symmetry_equiv_pos_site_id
 _symmetry_equiv_pos_as_xyz
  1  'x, y, z'
loop_
 _atom_site_type_symbol
 _atom_site_label
 _atom_site_symmetry_multiplicity
 _atom_site_fract_x
 _atom_site_fract_y
 _atom_site_fract_z
 _atom_site_occupancy
  Y  Y0  1  0.001631  0.182896  0.500000  1
  Y  Y1  1  0.818736  0.817104  0.500000  1
  Y  Y2  1  0.183565  0.000000  0.500000  1
  Ho  Ho3  1  0.664102  0.326972  0.000000  1
  Ho  Ho4  1  0.337129  0.673028  0.000000  1
  P  P5  1  0.997522  0.812009  0.000000  1
  P  P6  1  0.185513  0.187991  0.000000  1
  P  P7  1  0.818436  0.000000  0.000000  1
  P  P8  1  0.692791  0.169541  0.500000  1
  P  P9  1  0.816397  0.515831  0.500000  1
  P  P10  1  0.477583  0.299105  0.500000  1
  P  P11  1  0.178478  0.700895  0.500000  1
  P  P12  1  0.523250  0.830459  0.500000  1
  P  P13  1  0.300565  0.484169  0.500000  1
  P  P14  1  0.000239  0.365049  0.000000  1
  P  P15  1  0.635189  0.634951  0.000000  1
  P  P16  1  0.373274  0.000000  0.000000  1
  Ru  Ru17  1  0.555051  0.000000  0.000000  1
  Ru  Ru18  1  0.997249  0.708935  0.500000  1
  Ru  Ru19  1  0.288313  0.291065  0.500000  1
  Ru  Ru20  1  0.718745  0.000000  0.500000  1
  Ru  Ru21  1  0.808700  0.184535  0.000000  1
  Ru  Ru22  1  0.812598  0.617430  0.000000  1
  Ru  Ru23  1  0.376403  0.193224  0.000000  1
  Ru  Ru24  1  0.183178  0.806776  0.000000  1
  Ru  Ru25  1  0.624164  0.815465  0.000000  1
  Ru  Ru26  1  0.195168  0.382570  0.000000  1
  Ru  Ru27  1  0.869910  0.364731  0.500000  1
  Ru  Ru28  1  0.628841  0.505508  0.500000  1
  Ru  Ru29  1  0.491774  0.124012  0.500000  1
  Ru  Ru30  1  0.367761  0.875988  0.500000  1
  Ru  Ru31  1  0.505179  0.635269  0.500000  1
  Ru  Ru32  1  0.123334  0.494492  0.500000  1
  Ru  Ru33  1  0.003035  0.000000  0.000000  1
  Pt  Pt34  1  0.997657  0.549116  0.000000  1
  Pt  Pt35  1  0.448541  0.450884  0.000000  1
