# generated using pymatgen
data_La17Yb(DyIr6)2
_symmetry_space_group_name_H-M   'P 1'
_cell_length_a   11.39790600
_cell_length_b   11.39790600
_cell_length_c   6.53961800
_cell_angle_alpha   90.00000000
_cell_angle_beta   90.00000000
_cell_angle_gamma   90.00000000
_symmetry_Int_Tables_number   1
_chemical_formula_structural   La17Yb(DyIr6)2
_chemical_formula_sum   'La17 Yb1 Dy2 Ir12'
_cell_volume   849.57656167
_cell_formula_units_Z   1
loop_
 _symmetry_equiv_pos_site_id
 _symmetry_equiv_pos_as_xyz
  1  'x, y, z'
loop_
 _atom_site_type_symbol
 _atom_site_label
 _atom_site_symmetry_multiplicity
 _atom_site_fract_x
 _atom_site_fract_y
 _atom_site_fract_z
 _atom_site_occupancy
  La  La0  1  0.290222  0.089264  0.388179  1
  La  La1  1  0.287369  0.910987  0.889226  1
  La  La2  1  0.712631  0.089013  0.889226  1
  La  La3  1  0.709778  0.910736  0.388179  1
  La  La4  1  0.589533  0.787821  0.887088  1
  La  La5  1  0.589668  0.212673  0.388257  1
  La  La6  1  0.410332  0.787327  0.388257  1
  La  La7  1  0.410467  0.212179  0.887088  1
  La  La8  1  0.212673  0.410332  0.611743  1
  La  La9  1  0.212179  0.589533  0.112912  1
  La  La10  1  0.787821  0.410467  0.112912  1
  La  La11  1  0.787327  0.589668  0.611743  1
  La  La12  1  0.910987  0.712631  0.110774  1
  La  La13  1  0.910736  0.290222  0.611821  1
  La  La14  1  0.089264  0.709778  0.611821  1
  La  La15  1  0.089013  0.287369  0.110774  1
  La  La16  1  0.000000  0.000000  0.500000  1
  Yb  Yb17  1  0.000000  0.000000  0.000000  1
  Dy  Dy18  1  0.500000  0.500000  0.000000  1
  Dy  Dy19  1  0.500000  0.500000  0.500000  1
  Ir  Ir20  1  0.844624  0.155931  0.253164  1
  Ir  Ir21  1  0.844069  0.844624  0.746836  1
  Ir  Ir22  1  0.155931  0.155376  0.746836  1
  Ir  Ir23  1  0.155376  0.844069  0.253164  1
  Ir  Ir24  1  0.648349  0.351750  0.750223  1
  Ir  Ir25  1  0.648250  0.648349  0.249777  1
  Ir  Ir26  1  0.351750  0.351651  0.249777  1
  Ir  Ir27  1  0.351651  0.648250  0.750223  1
  Ir  Ir28  1  0.500000  0.000000  0.118411  1
  Ir  Ir29  1  0.500000  0.000000  0.618954  1
  Ir  Ir30  1  0.000000  0.500000  0.881589  1
  Ir  Ir31  1  0.000000  0.500000  0.381046  1
