# generated using pymatgen
data_KSc(TaSe2)8
_symmetry_space_group_name_H-M   'P 1'
_cell_length_a   7.00155600
_cell_length_b   7.00155705
_cell_length_c   14.98150100
_cell_angle_alpha   90.00000000
_cell_angle_beta   90.00000000
_cell_angle_gamma   120.00000448
_symmetry_Int_Tables_number   1
_chemical_formula_structural   KSc(TaSe2)8
_chemical_formula_sum   'K1 Sc1 Ta8 Se16'
_cell_volume   636.02639399
_cell_formula_units_Z   1
loop_
 _symmetry_equiv_pos_site_id
 _symmetry_equiv_pos_as_xyz
  1  'x, y, z'
loop_
 _atom_site_type_symbol
 _atom_site_label
 _atom_site_symmetry_multiplicity
 _atom_site_fract_x
 _atom_site_fract_y
 _atom_site_fract_z
 _atom_site_occupancy
  K  K0  1  0.000000  0.000000  0.000000  1
  Sc  Sc1  1  0.000000  0.000000  0.500000  1
  Ta  Ta2  1  0.000000  0.000000  0.277452  1
  Ta  Ta3  1  0.000000  0.000000  0.722548  1
  Ta  Ta4  1  0.508438  0.016875  0.277894  1
  Ta  Ta5  1  0.491562  0.983125  0.722106  1
  Ta  Ta6  1  0.983125  0.491562  0.277894  1
  Ta  Ta7  1  0.016875  0.508438  0.722106  1
  Ta  Ta8  1  0.508438  0.491562  0.277894  1
  Ta  Ta9  1  0.491562  0.508438  0.722106  1
  Se  Se10  1  0.333333  0.666667  0.606706  1
  Se  Se11  1  0.666667  0.333333  0.393294  1
  Se  Se12  1  0.666667  0.333333  0.162399  1
  Se  Se13  1  0.333333  0.666667  0.837601  1
  Se  Se14  1  0.169173  0.338346  0.168989  1
  Se  Se15  1  0.830827  0.661654  0.831011  1
  Se  Se16  1  0.661654  0.830827  0.168989  1
  Se  Se17  1  0.830222  0.660442  0.612706  1
  Se  Se18  1  0.338346  0.169173  0.831011  1
  Se  Se19  1  0.169778  0.339558  0.387294  1
  Se  Se20  1  0.169173  0.830827  0.168989  1
  Se  Se21  1  0.339558  0.169778  0.612706  1
  Se  Se22  1  0.830827  0.169173  0.831011  1
  Se  Se23  1  0.660442  0.830222  0.387294  1
  Se  Se24  1  0.830222  0.169778  0.612706  1
  Se  Se25  1  0.169778  0.830222  0.387294  1
