# generated using pymatgen
data_Dy2Er10InCo4Pt
_symmetry_space_group_name_H-M   'P 1'
_cell_length_a   8.24441559
_cell_length_b   8.24441452
_cell_length_c   8.24373852
_cell_angle_alpha   110.99346623
_cell_angle_beta   110.74892793
_cell_angle_gamma   106.70974783
_symmetry_Int_Tables_number   1
_chemical_formula_structural   Dy2Er10InCo4Pt
_chemical_formula_sum   'Dy2 Er10 In1 Co4 Pt1'
_cell_volume   430.57372510
_cell_formula_units_Z   1
loop_
 _symmetry_equiv_pos_site_id
 _symmetry_equiv_pos_as_xyz
  1  'x, y, z'
loop_
 _atom_site_type_symbol
 _atom_site_label
 _atom_site_symmetry_multiplicity
 _atom_site_fract_x
 _atom_site_fract_y
 _atom_site_fract_z
 _atom_site_occupancy
  Dy  Dy0  1  0.185429  0.289391  0.474819  1
  Dy  Dy1  1  0.814571  0.710609  0.525181  1
  Er  Er2  1  0.185689  0.710914  0.896604  1
  Er  Er3  1  0.814311  0.289086  0.103396  1
  Er  Er4  1  0.315414  0.620591  0.304737  1
  Er  Er5  1  0.684586  0.379409  0.695263  1
  Er  Er6  1  0.315855  0.010678  0.695263  1
  Er  Er7  1  0.684145  0.989322  0.304737  1
  Er  Er8  1  0.415430  0.217209  0.197790  1
  Er  Er9  1  0.584570  0.782791  0.802210  1
  Er  Er10  1  0.019419  0.217639  0.802210  1
  Er  Er11  1  0.980581  0.782361  0.197790  1
  In  In12  1  0.500000  0.500000  0.000000  1
  Co  Co13  1  0.112288  0.612288  0.500000  1
  Co  Co14  1  0.887712  0.387712  0.500000  1
  Co  Co15  1  0.377849  0.999951  0.377800  1
  Co  Co16  1  0.622151  0.000049  0.622200  1
  Pt  Pt17  1  0.000000  0.000000  0.000000  1
