# generated using pymatgen
data_NpPb2O5
_symmetry_space_group_name_H-M   'P 1'
_cell_length_a   7.51010022
_cell_length_b   7.51009972
_cell_length_c   8.08350380
_cell_angle_alpha   57.34293473
_cell_angle_beta   57.34293645
_cell_angle_gamma   46.34951164
_symmetry_Int_Tables_number   1
_chemical_formula_structural   NpPb2O5
_chemical_formula_sum   'Np2 Pb4 O10'
_cell_volume   267.08033625
_cell_formula_units_Z   2
loop_
 _symmetry_equiv_pos_site_id
 _symmetry_equiv_pos_as_xyz
  1  'x, y, z'
loop_
 _atom_site_type_symbol
 _atom_site_label
 _atom_site_symmetry_multiplicity
 _atom_site_fract_x
 _atom_site_fract_y
 _atom_site_fract_z
 _atom_site_occupancy
  Np  Np0  1  0.000000  0.000000  0.500000  1
  Np  Np1  1  0.000000  0.000000  0.000000  1
  Pb  Pb2  1  0.639572  0.661208  0.496216  1
  Pb  Pb3  1  0.338792  0.360428  0.003784  1
  Pb  Pb4  1  0.360428  0.338792  0.503784  1
  Pb  Pb5  1  0.661208  0.639572  0.996216  1
  O  O6  1  0.719546  0.940996  0.635375  1
  O  O7  1  0.059004  0.280454  0.864625  1
  O  O8  1  0.280454  0.059004  0.364625  1
  O  O9  1  0.940996  0.719546  0.135375  1
  O  O10  1  0.254446  0.633277  0.639699  1
  O  O11  1  0.366723  0.745554  0.860301  1
  O  O12  1  0.745554  0.366723  0.360301  1
  O  O13  1  0.633277  0.254446  0.139699  1
  O  O14  1  0.144329  0.855671  0.250000  1
  O  O15  1  0.855671  0.144329  0.750000  1
