# generated using pymatgen
data_TbDy11Os3Ru
_symmetry_space_group_name_H-M   'P 1'
_cell_length_a   6.33051203
_cell_length_b   7.37177609
_cell_length_c   9.12647200
_cell_angle_alpha   90.00000000
_cell_angle_beta   90.00000000
_cell_angle_gamma   90.03766706
_symmetry_Int_Tables_number   1
_chemical_formula_structural   TbDy11Os3Ru
_chemical_formula_sum   'Tb1 Dy11 Os3 Ru1'
_cell_volume   425.90604623
_cell_formula_units_Z   1
loop_
 _symmetry_equiv_pos_site_id
 _symmetry_equiv_pos_as_xyz
  1  'x, y, z'
loop_
 _atom_site_type_symbol
 _atom_site_label
 _atom_site_symmetry_multiplicity
 _atom_site_fract_x
 _atom_site_fract_y
 _atom_site_fract_z
 _atom_site_occupancy
  Tb  Tb0  1  0.868730  0.539569  0.250000  1
  Dy  Dy1  1  0.331509  0.675213  0.062644  1
  Dy  Dy2  1  0.169367  0.175822  0.436677  1
  Dy  Dy3  1  0.669700  0.324295  0.563189  1
  Dy  Dy4  1  0.829501  0.824143  0.935685  1
  Dy  Dy5  1  0.669700  0.324295  0.936811  1
  Dy  Dy6  1  0.829501  0.824143  0.564315  1
  Dy  Dy7  1  0.331509  0.675213  0.437356  1
  Dy  Dy8  1  0.169367  0.175822  0.063323  1
  Dy  Dy9  1  0.632620  0.038650  0.250000  1
  Dy  Dy10  1  0.131572  0.461547  0.750000  1
  Dy  Dy11  1  0.368444  0.961701  0.750000  1
  Os  Os12  1  0.459811  0.383591  0.250000  1
  Os  Os13  1  0.960218  0.115808  0.750000  1
  Os  Os14  1  0.540018  0.616226  0.750000  1
  Ru  Ru15  1  0.038432  0.883963  0.250000  1
