# generated using pymatgen
data_Nb6Al6Cu5Ni
_symmetry_space_group_name_H-M   'P 1'
_cell_length_a   8.74529600
_cell_length_b   8.73894673
_cell_length_c   8.10427600
_cell_angle_alpha   90.00000000
_cell_angle_beta   90.00000000
_cell_angle_gamma   120.45307946
_symmetry_Int_Tables_number   1
_chemical_formula_structural   Nb6Al6Cu5Ni
_chemical_formula_sum   'Nb12 Al12 Cu10 Ni2'
_cell_volume   533.92163091
_cell_formula_units_Z   2
loop_
 _symmetry_equiv_pos_site_id
 _symmetry_equiv_pos_as_xyz
  1  'x, y, z'
loop_
 _atom_site_type_symbol
 _atom_site_label
 _atom_site_symmetry_multiplicity
 _atom_site_fract_x
 _atom_site_fract_y
 _atom_site_fract_z
 _atom_site_occupancy
  Nb  Nb0  1  0.328871  0.996205  0.068254  1
  Nb  Nb1  1  0.671129  0.003795  0.931746  1
  Nb  Nb2  1  0.996728  0.331269  0.066535  1
  Nb  Nb3  1  0.671129  0.003795  0.568254  1
  Nb  Nb4  1  0.996728  0.331269  0.433465  1
  Nb  Nb5  1  0.003272  0.668731  0.933465  1
  Nb  Nb6  1  0.328871  0.996205  0.431746  1
  Nb  Nb7  1  0.003272  0.668731  0.566535  1
  Nb  Nb8  1  0.666121  0.666684  0.067509  1
  Nb  Nb9  1  0.333879  0.333316  0.932491  1
  Nb  Nb10  1  0.333879  0.333316  0.567509  1
  Nb  Nb11  1  0.666121  0.666684  0.432491  1
  Al  Al12  1  0.843276  0.342518  0.750000  1
  Al  Al13  1  0.156724  0.657482  0.250000  1
  Al  Al14  1  0.340047  0.667233  0.507224  1
  Al  Al15  1  0.659953  0.332767  0.492776  1
  Al  Al16  1  0.659953  0.332767  0.007224  1
  Al  Al17  1  0.340047  0.667233  0.992776  1
  Al  Al18  1  0.180078  0.999873  0.750000  1
  Al  Al19  1  0.819922  0.000127  0.250000  1
  Al  Al20  1  0.007417  0.173318  0.750000  1
  Al  Al21  1  0.992583  0.826682  0.250000  1
  Al  Al22  1  0.825330  0.821825  0.750000  1
  Al  Al23  1  0.174670  0.178175  0.250000  1
  Cu  Cu24  1  0.164506  0.495519  0.750000  1
  Cu  Cu25  1  0.835494  0.504481  0.250000  1
  Cu  Cu26  1  0.507506  0.666816  0.750000  1
  Cu  Cu27  1  0.501389  0.164669  0.750000  1
  Cu  Cu28  1  0.492494  0.333184  0.250000  1
  Cu  Cu29  1  0.498611  0.835331  0.250000  1
  Cu  Cu30  1  0.337057  0.839301  0.750000  1
  Cu  Cu31  1  0.665635  0.501072  0.750000  1
  Cu  Cu32  1  0.662943  0.160699  0.250000  1
  Cu  Cu33  1  0.334365  0.498928  0.250000  1
  Ni  Ni34  1  0.000000  0.000000  0.500000  1
  Ni  Ni35  1  0.000000  0.000000  0.000000  1
