# generated using pymatgen
data_Tb16MgIn3OsRh3
_symmetry_space_group_name_H-M   'P 1'
_cell_length_a   9.68307062
_cell_length_b   9.72675244
_cell_length_c   9.68306872
_cell_angle_alpha   60.11953073
_cell_angle_beta   59.88719535
_cell_angle_gamma   60.11953065
_symmetry_Int_Tables_number   1
_chemical_formula_structural   Tb16MgIn3OsRh3
_chemical_formula_sum   'Tb16 Mg1 In3 Os1 Rh3'
_cell_volume   645.48821921
_cell_formula_units_Z   1
loop_
 _symmetry_equiv_pos_site_id
 _symmetry_equiv_pos_as_xyz
  1  'x, y, z'
loop_
 _atom_site_type_symbol
 _atom_site_label
 _atom_site_symmetry_multiplicity
 _atom_site_fract_x
 _atom_site_fract_y
 _atom_site_fract_z
 _atom_site_occupancy
  Tb  Tb0  1  0.809385  0.807207  0.192309  1
  Tb  Tb1  1  0.808874  0.193453  0.808874  1
  Tb  Tb2  1  0.187073  0.190476  0.813046  1
  Tb  Tb3  1  0.649942  0.047829  0.649942  1
  Tb  Tb4  1  0.061712  0.060934  0.438704  1
  Tb  Tb5  1  0.443048  0.434707  0.060730  1
  Tb  Tb6  1  0.651260  0.650861  0.651260  1
  Tb  Tb7  1  0.813046  0.190476  0.187073  1
  Tb  Tb8  1  0.192309  0.807207  0.809385  1
  Tb  Tb9  1  0.044901  0.651179  0.651113  1
  Tb  Tb10  1  0.438704  0.060934  0.061712  1
  Tb  Tb11  1  0.436282  0.061991  0.436282  1
  Tb  Tb12  1  0.059234  0.437056  0.059234  1
  Tb  Tb13  1  0.651113  0.651179  0.044901  1
  Tb  Tb14  1  0.189233  0.811592  0.189233  1
  Tb  Tb15  1  0.060730  0.434707  0.443048  1
  Mg  Mg16  1  0.423393  0.422257  0.423393  1
  In  In17  1  0.417908  0.417694  0.747530  1
  In  In18  1  0.418453  0.745933  0.418453  1
  In  In19  1  0.747530  0.417694  0.417908  1
  Os  Os20  1  0.857359  0.424813  0.857359  1
  Rh  Rh21  1  0.857210  0.860308  0.857210  1
  Rh  Rh22  1  0.857552  0.859754  0.423747  1
  Rh  Rh23  1  0.423747  0.859754  0.857552  1
