# generated using pymatgen
data_Nd2SmHoSe3O4
_symmetry_space_group_name_H-M   'P 1'
_cell_length_a   6.71351603
_cell_length_b   6.71351536
_cell_length_c   8.46325600
_cell_angle_alpha   90.00000000
_cell_angle_beta   90.00000000
_cell_angle_gamma   145.57406489
_symmetry_Int_Tables_number   1
_chemical_formula_structural   Nd2SmHoSe3O4
_chemical_formula_sum   'Nd2 Sm1 Ho1 Se3 O4'
_cell_volume   215.64904736
_cell_formula_units_Z   1
loop_
 _symmetry_equiv_pos_site_id
 _symmetry_equiv_pos_as_xyz
  1  'x, y, z'
loop_
 _atom_site_type_symbol
 _atom_site_label
 _atom_site_symmetry_multiplicity
 _atom_site_fract_x
 _atom_site_fract_y
 _atom_site_fract_z
 _atom_site_occupancy
  Nd  Nd0  1  0.317696  0.682304  0.238453  1
  Nd  Nd1  1  0.317696  0.682304  0.761547  1
  Sm  Sm2  1  0.986360  0.013640  0.500000  1
  Ho  Ho3  1  0.991984  0.008016  0.000000  1
  Se  Se4  1  0.675871  0.324129  0.000000  1
  Se  Se5  1  0.646129  0.353871  0.651080  1
  Se  Se6  1  0.646129  0.353871  0.348920  1
  O  O7  1  0.389012  0.610988  0.500000  1
  O  O8  1  0.917067  0.082933  0.758657  1
  O  O9  1  0.412417  0.587583  0.000000  1
  O  O10  1  0.917067  0.082933  0.241343  1
