# generated using pymatgen
data_NaEu2Se3
_symmetry_space_group_name_H-M   'P 1'
_cell_length_a   7.42960292
_cell_length_b   7.42960322
_cell_length_c   7.42960313
_cell_angle_alpha   146.34238403
_cell_angle_beta   132.25097501
_cell_angle_gamma   59.68565361
_symmetry_Int_Tables_number   1
_chemical_formula_structural   NaEu2Se3
_chemical_formula_sum   'Na1 Eu2 Se3'
_cell_volume   166.72929977
_cell_formula_units_Z   1
loop_
 _symmetry_equiv_pos_site_id
 _symmetry_equiv_pos_as_xyz
  1  'x, y, z'
loop_
 _atom_site_type_symbol
 _atom_site_label
 _atom_site_symmetry_multiplicity
 _atom_site_fract_x
 _atom_site_fract_y
 _atom_site_fract_z
 _atom_site_occupancy
  Na  Na0  1  0.000000  0.000000  0.000000  1
  Eu  Eu1  1  0.664753  0.664753  0.000000  1
  Eu  Eu2  1  0.335247  0.335247  0.000000  1
  Se  Se3  1  0.500000  0.000000  0.500000  1
  Se  Se4  1  0.175429  0.675429  0.500000  1
  Se  Se5  1  0.824571  0.324571  0.500000  1
