# generated using pymatgen
data_TbNdSn5Pd3
_symmetry_space_group_name_H-M   'P 1'
_cell_length_a   13.61241824
_cell_length_b   13.61241773
_cell_length_c   7.41671400
_cell_angle_alpha   90.00000000
_cell_angle_beta   90.00000000
_cell_angle_gamma   160.50453016
_symmetry_Int_Tables_number   1
_chemical_formula_structural   TbNdSn5Pd3
_chemical_formula_sum   'Tb2 Nd2 Sn10 Pd6'
_cell_volume   458.64890523
_cell_formula_units_Z   2
loop_
 _symmetry_equiv_pos_site_id
 _symmetry_equiv_pos_as_xyz
  1  'x, y, z'
loop_
 _atom_site_type_symbol
 _atom_site_label
 _atom_site_symmetry_multiplicity
 _atom_site_fract_x
 _atom_site_fract_y
 _atom_site_fract_z
 _atom_site_occupancy
  Tb  Tb0  1  0.478227  0.521773  0.740074  1
  Tb  Tb1  1  0.521773  0.478227  0.240074  1
  Nd  Nd2  1  0.173014  0.826986  0.749333  1
  Nd  Nd3  1  0.826986  0.173014  0.249333  1
  Sn  Sn4  1  0.880898  0.119102  0.734994  1
  Sn  Sn5  1  0.119102  0.880898  0.234994  1
  Sn  Sn6  1  0.702086  0.297914  0.050704  1
  Sn  Sn7  1  0.297914  0.702086  0.550704  1
  Sn  Sn8  1  0.597717  0.402283  0.603103  1
  Sn  Sn9  1  0.402283  0.597717  0.103103  1
  Sn  Sn10  1  0.953349  0.046651  0.400809  1
  Sn  Sn11  1  0.046651  0.953349  0.900809  1
  Sn  Sn12  1  0.287996  0.712004  0.976737  1
  Sn  Sn13  1  0.712004  0.287996  0.476737  1
  Pd  Pd14  1  0.050373  0.949627  0.518355  1
  Pd  Pd15  1  0.949627  0.050373  0.018355  1
  Pd  Pd16  1  0.777217  0.222783  0.774226  1
  Pd  Pd17  1  0.222783  0.777217  0.274226  1
  Pd  Pd18  1  0.398238  0.601762  0.479662  1
  Pd  Pd19  1  0.601762  0.398238  0.979662  1
