# generated using pymatgen
data_Hf5Zr(ReSi)6
_symmetry_space_group_name_H-M   'P 1'
_cell_length_a   7.75625024
_cell_length_b   7.75604303
_cell_length_c   7.75625090
_cell_angle_alpha   126.56643856
_cell_angle_beta   127.80283195
_cell_angle_gamma   77.95438769
_symmetry_Int_Tables_number   1
_chemical_formula_structural   Hf5Zr(ReSi)6
_chemical_formula_sum   'Hf5 Zr1 Re6 Si6'
_cell_volume   286.96220282
_cell_formula_units_Z   1
loop_
 _symmetry_equiv_pos_site_id
 _symmetry_equiv_pos_as_xyz
  1  'x, y, z'
loop_
 _atom_site_type_symbol
 _atom_site_label
 _atom_site_symmetry_multiplicity
 _atom_site_fract_x
 _atom_site_fract_y
 _atom_site_fract_z
 _atom_site_occupancy
  Hf  Hf0  1  0.548011  0.092922  0.044911  1
  Hf  Hf1  1  0.451399  0.495018  0.543620  1
  Hf  Hf2  1  0.952156  0.497009  0.044853  1
  Hf  Hf3  1  0.048722  0.092393  0.543673  1
  Hf  Hf4  1  0.750057  0.900804  0.650747  1
  Zr  Zr5  1  0.250008  0.902135  0.152126  1
  Re  Re6  1  0.501389  0.242137  0.743060  1
  Re  Re7  1  0.999077  0.242137  0.240748  1
  Re  Re8  1  0.127510  0.751781  0.623481  1
  Re  Re9  1  0.870871  0.496288  0.623969  1
  Re  Re10  1  0.628301  0.751781  0.124271  1
  Re  Re11  1  0.372319  0.496288  0.125417  1
  Si  Si12  1  0.750053  0.497624  0.247570  1
  Si  Si13  1  0.249982  0.496965  0.746984  1
  Si  Si14  1  0.334218  0.829583  0.497969  1
  Si  Si15  1  0.668447  0.163874  0.498008  1
  Si  Si16  1  0.831613  0.829583  0.995365  1
  Si  Si17  1  0.165867  0.163874  0.995428  1
