# generated using pymatgen
data_Sm8Sb(Pd2Pt)8
_symmetry_space_group_name_H-M   'P 1'
_cell_length_a   8.44668093
_cell_length_b   8.48665144
_cell_length_c   8.53722666
_cell_angle_alpha   89.95695535
_cell_angle_beta   89.98613306
_cell_angle_gamma   89.92424433
_symmetry_Int_Tables_number   1
_chemical_formula_structural   Sm8Sb(Pd2Pt)8
_chemical_formula_sum   'Sm8 Sb1 Pd16 Pt8'
_cell_volume   611.98214496
_cell_formula_units_Z   1
loop_
 _symmetry_equiv_pos_site_id
 _symmetry_equiv_pos_as_xyz
  1  'x, y, z'
loop_
 _atom_site_type_symbol
 _atom_site_label
 _atom_site_symmetry_multiplicity
 _atom_site_fract_x
 _atom_site_fract_y
 _atom_site_fract_z
 _atom_site_occupancy
  Sm  Sm0  1  0.748173  0.746929  0.253576  1
  Sm  Sm1  1  0.746987  0.252276  0.747091  1
  Sm  Sm2  1  0.252597  0.747299  0.745923  1
  Sm  Sm3  1  0.747533  0.747604  0.746576  1
  Sm  Sm4  1  0.747324  0.252937  0.253097  1
  Sm  Sm5  1  0.253156  0.252735  0.746181  1
  Sm  Sm6  1  0.251825  0.746287  0.254076  1
  Sm  Sm7  1  0.252747  0.253773  0.253981  1
  Sb  Sb8  1  0.999825  0.000442  0.999665  1
  Pd  Pd9  1  0.000403  0.001039  0.304997  1
  Pd  Pd10  1  0.499687  0.000643  0.266095  1
  Pd  Pd11  1  0.000070  0.263344  0.499810  1
  Pd  Pd12  1  0.499473  0.733156  0.999843  1
  Pd  Pd13  1  0.500176  0.746086  0.499950  1
  Pd  Pd14  1  0.746307  0.500156  0.499945  1
  Pd  Pd15  1  0.310533  0.999572  0.000854  1
  Pd  Pd16  1  0.000466  0.000415  0.694588  1
  Pd  Pd17  1  0.000021  0.499887  0.265094  1
  Pd  Pd18  1  0.000613  0.308477  0.999708  1
  Pd  Pd19  1  0.999910  0.692186  0.999473  1
  Pd  Pd20  1  0.689142  0.998878  0.000745  1
  Pd  Pd21  1  0.263902  0.500008  0.000213  1
  Pd  Pd22  1  0.262609  0.999839  0.499748  1
  Pd  Pd23  1  0.000083  0.499853  0.734470  1
  Pd  Pd24  1  0.499647  0.265701  0.000170  1
  Pt  Pt25  1  0.736897  0.999970  0.499886  1
  Pt  Pt26  1  0.735511  0.499754  0.000034  1
  Pt  Pt27  1  0.499782  0.000347  0.734057  1
  Pt  Pt28  1  0.000042  0.736491  0.499700  1
  Pt  Pt29  1  0.254160  0.500093  0.500115  1
  Pt  Pt30  1  0.500082  0.499862  0.746880  1
  Pt  Pt31  1  0.500178  0.499884  0.253566  1
  Pt  Pt32  1  0.500138  0.254075  0.499893  1
