# generated using pymatgen
data_Pr6Nd2Sc11Si16Hg
_symmetry_space_group_name_H-M   'P 1'
_cell_length_a   7.21083534
_cell_length_b   7.55371543
_cell_length_c   14.26544220
_cell_angle_alpha   89.99337741
_cell_angle_beta   90.01799847
_cell_angle_gamma   90.23060375
_symmetry_Int_Tables_number   1
_chemical_formula_structural   Pr6Nd2Sc11Si16Hg
_chemical_formula_sum   'Pr6 Nd2 Sc11 Si16 Hg1'
_cell_volume   777.01230226
_cell_formula_units_Z   1
loop_
 _symmetry_equiv_pos_site_id
 _symmetry_equiv_pos_as_xyz
  1  'x, y, z'
loop_
 _atom_site_type_symbol
 _atom_site_label
 _atom_site_symmetry_multiplicity
 _atom_site_fract_x
 _atom_site_fract_y
 _atom_site_fract_z
 _atom_site_occupancy
  Pr  Pr0  1  0.491454  0.679706  0.899469  1
  Pr  Pr1  1  0.491381  0.679719  0.600317  1
  Pr  Pr2  1  0.980659  0.828803  0.600846  1
  Pr  Pr3  1  0.980728  0.828780  0.898948  1
  Pr  Pr4  1  0.510443  0.330636  0.098406  1
  Pr  Pr5  1  0.012448  0.173050  0.098198  1
  Nd  Nd6  1  0.012470  0.173548  0.401548  1
  Nd  Nd7  1  0.510671  0.330091  0.401361  1
  Sc  Sc8  1  0.336944  0.175017  0.624585  1
  Sc  Sc9  1  0.670809  0.820732  0.373846  1
  Sc  Sc10  1  0.171104  0.676507  0.375800  1
  Sc  Sc11  1  0.827094  0.315346  0.875325  1
  Sc  Sc12  1  0.827091  0.315295  0.624576  1
  Sc  Sc13  1  0.840042  0.501706  0.250122  1
  Sc  Sc14  1  0.339497  0.997870  0.250186  1
  Sc  Sc15  1  0.337048  0.174822  0.875330  1
  Sc  Sc16  1  0.171112  0.676425  0.124457  1
  Sc  Sc17  1  0.670819  0.820783  0.126419  1
  Sc  Sc18  1  0.158241  0.496034  0.749989  1
  Si  Si19  1  0.272200  0.881331  0.749957  1
  Si  Si20  1  0.465687  0.623780  0.250263  1
  Si  Si21  1  0.049959  0.129232  0.749960  1
  Si  Si22  1  0.531119  0.390425  0.749937  1
  Si  Si23  1  0.152760  0.465274  0.541129  1
  Si  Si24  1  0.966495  0.874202  0.250251  1
  Si  Si25  1  0.710602  0.117301  0.250510  1
  Si  Si26  1  0.849436  0.536022  0.038558  1
  Si  Si27  1  0.348110  0.962955  0.039227  1
  Si  Si28  1  0.152734  0.465922  0.958591  1
  Si  Si29  1  0.653766  0.042327  0.528733  1
  Si  Si30  1  0.347583  0.963939  0.460463  1
  Si  Si31  1  0.848906  0.535034  0.461153  1
  Si  Si32  1  0.793851  0.592394  0.749973  1
  Si  Si33  1  0.210002  0.384067  0.250592  1
  Si  Si34  1  0.653554  0.041539  0.970951  1
  Hg  Hg35  1  0.653180  0.999385  0.750023  1
