# generated using pymatgen
data_Li2Dy11Ho5(InRh2)2
_symmetry_space_group_name_H-M   'P 1'
_cell_length_a   9.63708551
_cell_length_b   9.64206258
_cell_length_c   9.65749394
_cell_angle_alpha   59.87102409
_cell_angle_beta   59.83822366
_cell_angle_gamma   59.87882079
_symmetry_Int_Tables_number   1
_chemical_formula_structural   Li2Dy11Ho5(InRh2)2
_chemical_formula_sum   'Li2 Dy11 Ho5 In2 Rh4'
_cell_volume   632.57157456
_cell_formula_units_Z   1
loop_
 _symmetry_equiv_pos_site_id
 _symmetry_equiv_pos_as_xyz
  1  'x, y, z'
loop_
 _atom_site_type_symbol
 _atom_site_label
 _atom_site_symmetry_multiplicity
 _atom_site_fract_x
 _atom_site_fract_y
 _atom_site_fract_z
 _atom_site_occupancy
  Li  Li0  1  0.822688  0.822883  0.824965  1
  Li  Li1  1  0.823028  0.823296  0.527761  1
  Dy  Dy2  1  0.185497  0.185821  0.813760  1
  Dy  Dy3  1  0.599574  0.599296  0.200010  1
  Dy  Dy4  1  0.438784  0.061052  0.439052  1
  Dy  Dy5  1  0.441650  0.441945  0.057369  1
  Dy  Dy6  1  0.814302  0.186405  0.813790  1
  Dy  Dy7  1  0.185214  0.813744  0.187742  1
  Dy  Dy8  1  0.437930  0.062729  0.060403  1
  Dy  Dy9  1  0.186275  0.814275  0.813766  1
  Dy  Dy10  1  0.062737  0.437635  0.061059  1
  Dy  Dy11  1  0.811618  0.811844  0.188709  1
  Dy  Dy12  1  0.206833  0.598021  0.598803  1
  Ho  Ho13  1  0.060871  0.438377  0.439203  1
  Ho  Ho14  1  0.066155  0.066493  0.431966  1
  Ho  Ho15  1  0.813478  0.185801  0.187528  1
  Ho  Ho16  1  0.598013  0.207508  0.598437  1
  Ho  Ho17  1  0.598952  0.598382  0.600896  1
  In  In18  1  0.506330  0.834153  0.828749  1
  In  In19  1  0.834003  0.506154  0.828953  1
  Rh  Rh20  1  0.395066  0.822836  0.392024  1
  Rh  Rh21  1  0.393899  0.393245  0.390164  1
  Rh  Rh22  1  0.822728  0.394533  0.392431  1
  Rh  Rh23  1  0.394377  0.393573  0.822465  1
