# generated using pymatgen
data_Dy3Ho5Tc3B24Ru
_symmetry_space_group_name_H-M   'P 1'
_cell_length_a   3.67257800
_cell_length_b   9.14379004
_cell_length_c   11.53193701
_cell_angle_alpha   89.92174960
_cell_angle_beta   90.00000000
_cell_angle_gamma   90.00000000
_symmetry_Int_Tables_number   1
_chemical_formula_structural   Dy3Ho5Tc3B24Ru
_chemical_formula_sum   'Dy3 Ho5 Tc3 B24 Ru1'
_cell_volume   387.25686923
_cell_formula_units_Z   1
loop_
 _symmetry_equiv_pos_site_id
 _symmetry_equiv_pos_as_xyz
  1  'x, y, z'
loop_
 _atom_site_type_symbol
 _atom_site_label
 _atom_site_symmetry_multiplicity
 _atom_site_fract_x
 _atom_site_fract_y
 _atom_site_fract_z
 _atom_site_occupancy
  Dy  Dy0  1  0.000000  0.323643  0.413908  1
  Dy  Dy1  1  0.000000  0.675069  0.584044  1
  Dy  Dy2  1  0.000000  0.823077  0.087263  1
  Ho  Ho3  1  0.000000  0.177866  0.914586  1
  Ho  Ho4  1  0.000000  0.942559  0.370176  1
  Ho  Ho5  1  0.000000  0.057840  0.630768  1
  Ho  Ho6  1  0.000000  0.442971  0.129998  1
  Ho  Ho7  1  0.000000  0.557752  0.869122  1
  Tc  Tc8  1  0.000000  0.638450  0.320523  1
  Tc  Tc9  1  0.000000  0.361479  0.680106  1
  Tc  Tc10  1  0.000000  0.138101  0.178306  1
  B  B11  1  0.500000  0.553156  0.432683  1
  B  B12  1  0.500000  0.446546  0.566944  1
  B  B13  1  0.500000  0.053291  0.066865  1
  B  B14  1  0.500000  0.946179  0.932694  1
  B  B15  1  0.500000  0.748584  0.418554  1
  B  B16  1  0.500000  0.250782  0.581613  1
  B  B17  1  0.500000  0.249169  0.081140  1
  B  B18  1  0.500000  0.751561  0.918288  1
  B  B19  1  0.500000  0.791639  0.265672  1
  B  B20  1  0.500000  0.208487  0.735264  1
  B  B21  1  0.500000  0.291598  0.234396  1
  B  B22  1  0.500000  0.709407  0.765384  1
  B  B23  1  0.500000  0.631115  0.185611  1
  B  B24  1  0.500000  0.368910  0.814966  1
  B  B25  1  0.500000  0.130519  0.314023  1
  B  B26  1  0.500000  0.868872  0.685885  1
  B  B27  1  0.500000  0.982035  0.211886  1
  B  B28  1  0.500000  0.016790  0.788412  1
  B  B29  1  0.500000  0.482340  0.287782  1
  B  B30  1  0.500000  0.517486  0.711783  1
  B  B31  1  0.500000  0.602118  0.028040  1
  B  B32  1  0.500000  0.399225  0.971526  1
  B  B33  1  0.500000  0.101355  0.472137  1
  B  B34  1  0.500000  0.898298  0.528727  1
  Ru  Ru35  1  0.000000  0.861731  0.820928  1
