# generated using pymatgen
data_TbHoLu3CoSb2
_symmetry_space_group_name_H-M   'P 1'
_cell_length_a   7.74547800
_cell_length_b   8.75161600
_cell_length_c   12.00057300
_cell_angle_alpha   90.00000000
_cell_angle_beta   90.00000000
_cell_angle_gamma   90.00000000
_symmetry_Int_Tables_number   1
_chemical_formula_structural   TbHoLu3CoSb2
_chemical_formula_sum   'Tb4 Ho4 Lu12 Co4 Sb8'
_cell_volume   813.46423137
_cell_formula_units_Z   4
loop_
 _symmetry_equiv_pos_site_id
 _symmetry_equiv_pos_as_xyz
  1  'x, y, z'
loop_
 _atom_site_type_symbol
 _atom_site_label
 _atom_site_symmetry_multiplicity
 _atom_site_fract_x
 _atom_site_fract_y
 _atom_site_fract_z
 _atom_site_occupancy
  Tb  Tb0  1  0.622782  0.750000  0.307209  1
  Tb  Tb1  1  0.122782  0.250000  0.192791  1
  Tb  Tb2  1  0.377218  0.250000  0.692791  1
  Tb  Tb3  1  0.877218  0.750000  0.807209  1
  Ho  Ho4  1  0.154987  0.750000  0.204029  1
  Ho  Ho5  1  0.654987  0.250000  0.295971  1
  Ho  Ho6  1  0.845013  0.250000  0.795971  1
  Ho  Ho7  1  0.345013  0.750000  0.704029  1
  Lu  Lu8  1  0.447126  0.750000  0.997390  1
  Lu  Lu9  1  0.947126  0.250000  0.502610  1
  Lu  Lu10  1  0.552874  0.250000  0.002610  1
  Lu  Lu11  1  0.052874  0.750000  0.497390  1
  Lu  Lu12  1  0.823604  0.962443  0.065053  1
  Lu  Lu13  1  0.323604  0.037557  0.434947  1
  Lu  Lu14  1  0.176396  0.462443  0.934947  1
  Lu  Lu15  1  0.676396  0.537557  0.565053  1
  Lu  Lu16  1  0.176396  0.037557  0.934947  1
  Lu  Lu17  1  0.676396  0.962443  0.565053  1
  Lu  Lu18  1  0.823604  0.537557  0.065053  1
  Lu  Lu19  1  0.323604  0.462443  0.434947  1
  Co  Co20  1  0.431440  0.750000  0.490993  1
  Co  Co21  1  0.931440  0.250000  0.009007  1
  Co  Co22  1  0.568560  0.250000  0.509007  1
  Co  Co23  1  0.068560  0.750000  0.990993  1
  Sb  Sb24  1  0.931112  0.991667  0.329787  1
  Sb  Sb25  1  0.431112  0.008333  0.170213  1
  Sb  Sb26  1  0.068888  0.491667  0.670213  1
  Sb  Sb27  1  0.568888  0.508333  0.829787  1
  Sb  Sb28  1  0.068888  0.008333  0.670213  1
  Sb  Sb29  1  0.568888  0.991667  0.829787  1
  Sb  Sb30  1  0.931112  0.508333  0.329787  1
  Sb  Sb31  1  0.431112  0.491667  0.170213  1
