# generated using pymatgen
data_Pr3Ho3Al24ZnOs7
_symmetry_space_group_name_H-M   'P 1'
_cell_length_a   8.90305965
_cell_length_b   8.89067103
_cell_length_c   9.64588212
_cell_angle_alpha   90.17915457
_cell_angle_beta   89.75308500
_cell_angle_gamma   119.71087902
_symmetry_Int_Tables_number   1
_chemical_formula_structural   Pr3Ho3Al24ZnOs7
_chemical_formula_sum   'Pr3 Ho3 Al24 Zn1 Os7'
_cell_volume   663.13201461
_cell_formula_units_Z   1
loop_
 _symmetry_equiv_pos_site_id
 _symmetry_equiv_pos_as_xyz
  1  'x, y, z'
loop_
 _atom_site_type_symbol
 _atom_site_label
 _atom_site_symmetry_multiplicity
 _atom_site_fract_x
 _atom_site_fract_y
 _atom_site_fract_z
 _atom_site_occupancy
  Pr  Pr0  1  0.190709  0.380396  0.246663  1
  Pr  Pr1  1  0.809714  0.620794  0.753773  1
  Pr  Pr2  1  0.618253  0.809007  0.246389  1
  Ho  Ho3  1  0.387666  0.192210  0.751775  1
  Ho  Ho4  1  0.195057  0.803795  0.254809  1
  Ho  Ho5  1  0.804067  0.194727  0.745219  1
  Al  Al6  1  0.327089  0.672212  0.017743  1
  Al  Al7  1  0.671076  0.328158  0.977667  1
  Al  Al8  1  0.666108  0.332684  0.522710  1
  Al  Al9  1  0.332361  0.666108  0.480911  1
  Al  Al10  1  0.163113  0.326651  0.573700  1
  Al  Al11  1  0.836783  0.671509  0.428753  1
  Al  Al12  1  0.671252  0.836597  0.572568  1
  Al  Al13  1  0.853105  0.677349  0.080876  1
  Al  Al14  1  0.327633  0.162282  0.430919  1
  Al  Al15  1  0.148800  0.322009  0.917481  1
  Al  Al16  1  0.164716  0.837920  0.576262  1
  Al  Al17  1  0.322299  0.147852  0.078062  1
  Al  Al18  1  0.835916  0.164110  0.426340  1
  Al  Al19  1  0.676996  0.853056  0.918046  1
  Al  Al20  1  0.835240  0.165083  0.072622  1
  Al  Al21  1  0.165163  0.837746  0.924229  1
  Al  Al22  1  0.559966  0.122105  0.249063  1
  Al  Al23  1  0.438115  0.879411  0.750133  1
  Al  Al24  1  0.877135  0.438277  0.249626  1
  Al  Al25  1  0.121856  0.560826  0.750560  1
  Al  Al26  1  0.565942  0.432365  0.257222  1
  Al  Al27  1  0.432615  0.563571  0.744937  1
  Al  Al28  1  0.001550  0.997369  0.250648  1
  Al  Al29  1  0.005910  0.006065  0.749398  1
  Zn  Zn30  1  0.499132  0.498926  0.999545  1
  Os  Os31  1  0.499029  0.001436  0.998002  1
  Os  Os32  1  0.999211  0.499612  0.999597  1
  Os  Os33  1  0.499112  0.000672  0.501195  1
  Os  Os34  1  0.999186  0.499535  0.500682  1
  Os  Os35  1  0.498820  0.497761  0.501901  1
  Os  Os36  1  0.999603  0.999999  0.999575  1
  Os  Os37  1  0.999700  0.999815  0.500399  1
