# generated using pymatgen
data_KGdCr2O8
_symmetry_space_group_name_H-M   'P 1'
_cell_length_a   5.83855200
_cell_length_b   5.83852195
_cell_length_c   7.77385500
_cell_angle_alpha   90.00109448
_cell_angle_beta   89.99907444
_cell_angle_gamma   119.99991806
_symmetry_Int_Tables_number   1
_chemical_formula_structural   KGdCr2O8
_chemical_formula_sum   'K1 Gd1 Cr2 O8'
_cell_volume   229.49619820
_cell_formula_units_Z   1
loop_
 _symmetry_equiv_pos_site_id
 _symmetry_equiv_pos_as_xyz
  1  'x, y, z'
loop_
 _atom_site_type_symbol
 _atom_site_label
 _atom_site_symmetry_multiplicity
 _atom_site_fract_x
 _atom_site_fract_y
 _atom_site_fract_z
 _atom_site_occupancy
  K  K0  1  0.000000  0.000000  0.500000  1
  Gd  Gd1  1  0.000000  0.000000  0.000000  1
  Cr  Cr2  1  0.666666  0.333337  0.254765  1
  Cr  Cr3  1  0.333334  0.666664  0.745235  1
  O  O4  1  0.352306  0.176153  0.184559  1
  O  O5  1  0.823849  0.176156  0.184561  1
  O  O6  1  0.823852  0.647700  0.184560  1
  O  O7  1  0.666669  0.333336  0.463140  1
  O  O8  1  0.333331  0.666665  0.536860  1
  O  O9  1  0.176148  0.352301  0.815441  1
  O  O10  1  0.176153  0.823844  0.815440  1
  O  O11  1  0.647694  0.823847  0.815442  1
