# generated using pymatgen
data_CePr9(Mg2Ir3)2
_symmetry_space_group_name_H-M   'P 1'
_cell_length_a   8.87069811
_cell_length_b   8.68041704
_cell_length_c   8.68041700
_cell_angle_alpha   107.76047053
_cell_angle_beta   110.33249207
_cell_angle_gamma   109.42586464
_symmetry_Int_Tables_number   1
_chemical_formula_structural   CePr9(Mg2Ir3)2
_chemical_formula_sum   'Ce1 Pr9 Mg4 Ir6'
_cell_volume   519.93986474
_cell_formula_units_Z   1
loop_
 _symmetry_equiv_pos_site_id
 _symmetry_equiv_pos_as_xyz
  1  'x, y, z'
loop_
 _atom_site_type_symbol
 _atom_site_label
 _atom_site_symmetry_multiplicity
 _atom_site_fract_x
 _atom_site_fract_y
 _atom_site_fract_z
 _atom_site_occupancy
  Ce  Ce0  1  0.250000  0.677492  0.427492  1
  Pr  Pr1  1  0.750000  0.826567  0.076567  1
  Pr  Pr2  1  0.422652  0.250597  0.673693  1
  Pr  Pr3  1  0.672427  0.424614  0.249053  1
  Pr  Pr4  1  0.077348  0.751041  0.827944  1
  Pr  Pr5  1  0.827573  0.076626  0.752187  1
  Pr  Pr6  1  0.211728  0.211102  0.215509  1
  Pr  Pr7  1  0.502805  0.002509  0.290671  1
  Pr  Pr8  1  0.288272  0.503780  0.999373  1
  Pr  Pr9  1  0.997195  0.287866  0.499703  1
  Mg  Mg10  1  0.603445  0.602966  0.599376  1
  Mg  Mg11  1  0.498417  0.002224  0.896840  1
  Mg  Mg12  1  0.896555  0.495931  0.999522  1
  Mg  Mg13  1  0.001583  0.898423  0.503806  1
  Ir  Ir14  1  0.250000  0.135016  0.885016  1
  Ir  Ir15  1  0.750000  0.368365  0.618365  1
  Ir  Ir16  1  0.877758  0.243473  0.130403  1
  Ir  Ir17  1  0.136193  0.866959  0.257999  1
  Ir  Ir18  1  0.622241  0.752644  0.365714  1
  Ir  Ir19  1  0.363807  0.621806  0.730767  1
