# generated using pymatgen
data_TbNdBi2Pt4F28
_symmetry_space_group_name_H-M   'P 1'
_cell_length_a   5.62363911
_cell_length_b   9.14115449
_cell_length_c   12.22267323
_cell_angle_alpha   61.77458261
_cell_angle_beta   90.13025275
_cell_angle_gamma   89.85309272
_symmetry_Int_Tables_number   1
_chemical_formula_structural   TbNdBi2Pt4F28
_chemical_formula_sum   'Tb1 Nd1 Bi2 Pt4 F28'
_cell_volume   553.60751670
_cell_formula_units_Z   1
loop_
 _symmetry_equiv_pos_site_id
 _symmetry_equiv_pos_as_xyz
  1  'x, y, z'
loop_
 _atom_site_type_symbol
 _atom_site_label
 _atom_site_symmetry_multiplicity
 _atom_site_fract_x
 _atom_site_fract_y
 _atom_site_fract_z
 _atom_site_occupancy
  Tb  Tb0  1  0.239891  0.809788  0.763366  1
  Nd  Nd1  1  0.760208  0.190108  0.236013  1
  Bi  Bi2  1  0.265294  0.815444  0.262861  1
  Bi  Bi3  1  0.735900  0.179263  0.737578  1
  Pt  Pt4  1  0.757982  0.728463  0.038492  1
  Pt  Pt5  1  0.242036  0.275689  0.956554  1
  Pt  Pt6  1  0.257682  0.269851  0.459829  1
  Pt  Pt7  1  0.740110  0.728484  0.545005  1
  F  F8  1  0.930009  0.707445  0.418311  1
  F  F9  1  0.069479  0.291916  0.586656  1
  F  F10  1  0.431090  0.295073  0.085335  1
  F  F11  1  0.563101  0.708454  0.911292  1
  F  F12  1  0.467745  0.727115  0.128079  1
  F  F13  1  0.534561  0.273728  0.869520  1
  F  F14  1  0.966752  0.271882  0.369549  1
  F  F15  1  0.030016  0.729592  0.636232  1
  F  F16  1  0.943145  0.741346  0.170551  1
  F  F17  1  0.058072  0.260447  0.825217  1
  F  F18  1  0.440802  0.256136  0.327451  1
  F  F19  1  0.550051  0.745096  0.675029  1
  F  F20  1  0.770093  0.485326  0.135979  1
  F  F21  1  0.231346  0.520464  0.860246  1
  F  F22  1  0.268358  0.512438  0.361201  1
  F  F23  1  0.730966  0.485435  0.641426  1
  F  F24  1  0.945108  0.282404  0.040006  1
  F  F25  1  0.054795  0.722543  0.953036  1
  F  F26  1  0.443070  0.720504  0.461126  1
  F  F27  1  0.558554  0.277858  0.540759  1
  F  F28  1  0.741311  0.973463  0.450138  1
  F  F29  1  0.258093  0.024174  0.555086  1
  F  F30  1  0.242182  0.030659  0.048600  1
  F  F31  1  0.756944  0.973484  0.948758  1
  F  F32  1  0.592491  0.964807  0.229511  1
  F  F33  1  0.408687  0.025171  0.769382  1
  F  F34  1  0.103567  0.030341  0.270534  1
  F  F35  1  0.910509  0.965607  0.731291  1
