# generated using pymatgen
data_Ti5Nb7Sn9Au
_symmetry_space_group_name_H-M   'P 1'
_cell_length_a   9.40549700
_cell_length_b   9.39763542
_cell_length_c   5.70358875
_cell_angle_alpha   90.15185232
_cell_angle_beta   90.00000000
_cell_angle_gamma   120.02768724
_symmetry_Int_Tables_number   1
_chemical_formula_structural   Ti5Nb7Sn9Au
_chemical_formula_sum   'Ti5 Nb7 Sn9 Au1'
_cell_volume   436.47151776
_cell_formula_units_Z   1
loop_
 _symmetry_equiv_pos_site_id
 _symmetry_equiv_pos_as_xyz
  1  'x, y, z'
loop_
 _atom_site_type_symbol
 _atom_site_label
 _atom_site_symmetry_multiplicity
 _atom_site_fract_x
 _atom_site_fract_y
 _atom_site_fract_z
 _atom_site_occupancy
  Ti  Ti0  1  0.156187  0.843668  0.247920  1
  Ti  Ti1  1  0.687481  0.843668  0.247920  1
  Ti  Ti2  1  0.312238  0.156345  0.751586  1
  Ti  Ti3  1  0.844107  0.156345  0.751586  1
  Ti  Ti4  1  0.156120  0.312240  0.248440  1
  Nb  Nb5  1  0.844507  0.689014  0.753734  1
  Nb  Nb6  1  0.499888  0.999776  0.499112  1
  Nb  Nb7  1  0.500317  0.499862  0.999767  1
  Nb  Nb8  1  0.999545  0.499862  0.999767  1
  Nb  Nb9  1  0.000073  0.500012  0.499664  1
  Nb  Nb10  1  0.499563  0.999126  0.001654  1
  Nb  Nb11  1  0.499939  0.500012  0.499664  1
  Sn  Sn12  1  0.199629  0.399258  0.748143  1
  Sn  Sn13  1  0.800313  0.199252  0.251882  1
  Sn  Sn14  1  0.398939  0.199252  0.251882  1
  Sn  Sn15  1  0.599192  0.800262  0.747963  1
  Sn  Sn16  1  0.201071  0.800262  0.747963  1
  Sn  Sn17  1  0.799765  0.599530  0.253012  1
  Sn  Sn18  1  0.665099  0.330197  0.751881  1
  Sn  Sn19  1  0.332915  0.665831  0.247861  1
  Sn  Sn20  1  0.001046  0.002091  0.000692  1
  Au  Au21  1  0.002067  0.004133  0.497908  1
