# generated using pymatgen
data_Sm2Ga7Ni2Ag
_symmetry_space_group_name_H-M   'P 1'
_cell_length_a   4.18142654
_cell_length_b   6.46119219
_cell_length_c   8.08526869
_cell_angle_alpha   91.03431779
_cell_angle_beta   104.98600079
_cell_angle_gamma   89.99999659
_symmetry_Int_Tables_number   1
_chemical_formula_structural   Sm2Ga7Ni2Ag
_chemical_formula_sum   'Sm2 Ga7 Ni2 Ag1'
_cell_volume   210.97351798
_cell_formula_units_Z   1
loop_
 _symmetry_equiv_pos_site_id
 _symmetry_equiv_pos_as_xyz
  1  'x, y, z'
loop_
 _atom_site_type_symbol
 _atom_site_label
 _atom_site_symmetry_multiplicity
 _atom_site_fract_x
 _atom_site_fract_y
 _atom_site_fract_z
 _atom_site_occupancy
  Sm  Sm0  1  0.878762  0.764213  0.757521  1
  Sm  Sm1  1  0.121238  0.235787  0.242479  1
  Ga  Ga2  1  0.500000  0.000000  0.000000  1
  Ga  Ga3  1  0.070177  0.735979  0.140355  1
  Ga  Ga4  1  0.929823  0.264021  0.859645  1
  Ga  Ga5  1  0.685660  0.544541  0.371321  1
  Ga  Ga6  1  0.314340  0.455459  0.628679  1
  Ga  Ga7  1  0.687363  0.944318  0.374726  1
  Ga  Ga8  1  0.312637  0.055682  0.625274  1
  Ni  Ni9  1  0.220847  0.749325  0.441692  1
  Ni  Ni10  1  0.779153  0.250675  0.558308  1
  Ag  Ag11  1  0.500000  0.500000  0.000000  1
