# generated using pymatgen
data_NaLu(IO3)4
_symmetry_space_group_name_H-M   'P 1'
_cell_length_a   5.15776900
_cell_length_b   7.27978394
_cell_length_c   15.97454659
_cell_angle_alpha   78.56590297
_cell_angle_beta   90.00000000
_cell_angle_gamma   90.00000000
_symmetry_Int_Tables_number   1
_chemical_formula_structural   NaLu(IO3)4
_chemical_formula_sum   'Na2 Lu2 I8 O24'
_cell_volume   587.89931878
_cell_formula_units_Z   2
loop_
 _symmetry_equiv_pos_site_id
 _symmetry_equiv_pos_as_xyz
  1  'x, y, z'
loop_
 _atom_site_type_symbol
 _atom_site_label
 _atom_site_symmetry_multiplicity
 _atom_site_fract_x
 _atom_site_fract_y
 _atom_site_fract_z
 _atom_site_occupancy
  Na  Na0  1  0.500000  0.500000  0.000000  1
  Na  Na1  1  0.000000  0.500000  0.500000  1
  Lu  Lu2  1  0.500000  0.000000  0.000000  1
  Lu  Lu3  1  0.000000  0.000000  0.500000  1
  I  I4  1  0.905808  0.664838  0.164950  1
  I  I5  1  0.405808  0.335162  0.335050  1
  I  I6  1  0.094192  0.335162  0.835050  1
  I  I7  1  0.594192  0.664838  0.664950  1
  I  I8  1  0.992846  0.183496  0.138965  1
  I  I9  1  0.492846  0.816504  0.361035  1
  I  I10  1  0.007154  0.816504  0.861035  1
  I  I11  1  0.507154  0.183496  0.638965  1
  O  O12  1  0.677961  0.744668  0.074506  1
  O  O13  1  0.177961  0.255332  0.425494  1
  O  O14  1  0.322039  0.255332  0.925494  1
  O  O15  1  0.822039  0.744668  0.574506  1
  O  O16  1  0.799541  0.829846  0.231188  1
  O  O17  1  0.299541  0.170154  0.268812  1
  O  O18  1  0.200459  0.170154  0.768812  1
  O  O19  1  0.700459  0.829846  0.731188  1
  O  O20  1  0.731089  0.447115  0.208948  1
  O  O21  1  0.231089  0.552885  0.291052  1
  O  O22  1  0.268911  0.552885  0.791052  1
  O  O23  1  0.768911  0.447115  0.708948  1
  O  O24  1  0.738471  0.194506  0.055431  1
  O  O25  1  0.238471  0.805494  0.444569  1
  O  O26  1  0.261529  0.805494  0.944569  1
  O  O27  1  0.761529  0.194506  0.555431  1
  O  O28  1  0.205160  0.009242  0.101911  1
  O  O29  1  0.705160  0.990758  0.398089  1
  O  O30  1  0.794840  0.990758  0.898089  1
  O  O31  1  0.294840  0.009242  0.601911  1
  O  O32  1  0.152110  0.401735  0.092863  1
  O  O33  1  0.652110  0.598265  0.407137  1
  O  O34  1  0.847890  0.598265  0.907137  1
  O  O35  1  0.347890  0.401735  0.592863  1
