# generated using pymatgen
data_InFe(TcO4)6
_symmetry_space_group_name_H-M   'P 1'
_cell_length_a   10.71317461
_cell_length_b   10.71317340
_cell_length_c   10.71317425
_cell_angle_alpha   49.15973312
_cell_angle_beta   49.15974700
_cell_angle_gamma   49.15974291
_symmetry_Int_Tables_number   1
_chemical_formula_structural   InFe(TcO4)6
_chemical_formula_sum   'In1 Fe1 Tc6 O24'
_cell_volume   646.39699741
_cell_formula_units_Z   1
loop_
 _symmetry_equiv_pos_site_id
 _symmetry_equiv_pos_as_xyz
  1  'x, y, z'
loop_
 _atom_site_type_symbol
 _atom_site_label
 _atom_site_symmetry_multiplicity
 _atom_site_fract_x
 _atom_site_fract_y
 _atom_site_fract_z
 _atom_site_occupancy
  In  In0  1  0.500000  0.500000  0.500000  1
  Fe  Fe1  1  0.000000  0.000000  0.000000  1
  Tc  Tc2  1  0.601852  0.906348  0.245401  1
  Tc  Tc3  1  0.245401  0.601852  0.906348  1
  Tc  Tc4  1  0.906348  0.245401  0.601852  1
  Tc  Tc5  1  0.754599  0.398148  0.093652  1
  Tc  Tc6  1  0.093652  0.754599  0.398148  1
  Tc  Tc7  1  0.398148  0.093652  0.754599  1
  O  O8  1  0.813693  0.896451  0.165930  1
  O  O9  1  0.165930  0.813693  0.896451  1
  O  O10  1  0.896451  0.165930  0.813693  1
  O  O11  1  0.679908  0.377172  0.309204  1
  O  O12  1  0.309204  0.679908  0.377172  1
  O  O13  1  0.377172  0.309204  0.679908  1
  O  O14  1  0.186307  0.103549  0.834070  1
  O  O15  1  0.834070  0.186307  0.103549  1
  O  O16  1  0.103549  0.834070  0.186307  1
  O  O17  1  0.320092  0.622828  0.690796  1
  O  O18  1  0.690796  0.320092  0.622828  1
  O  O19  1  0.622828  0.690796  0.320092  1
  O  O20  1  0.449953  0.976159  0.418213  1
  O  O21  1  0.418213  0.449953  0.976159  1
  O  O22  1  0.976159  0.418213  0.449953  1
  O  O23  1  0.923474  0.473374  0.942730  1
  O  O24  1  0.942730  0.923474  0.473374  1
  O  O25  1  0.473374  0.942730  0.923474  1
  O  O26  1  0.550047  0.023841  0.581787  1
  O  O27  1  0.581787  0.550047  0.023841  1
  O  O28  1  0.023841  0.581787  0.550047  1
  O  O29  1  0.076526  0.526626  0.057270  1
  O  O30  1  0.057270  0.076526  0.526626  1
  O  O31  1  0.526626  0.057270  0.076526  1
