# generated using pymatgen
data_CaAg10(PbO4)3
_symmetry_space_group_name_H-M   'P 1'
_cell_length_a   8.85349916
_cell_length_b   8.85349989
_cell_length_c   6.04985193
_cell_angle_alpha   69.92165520
_cell_angle_beta   69.92165219
_cell_angle_gamma   72.60328291
_symmetry_Int_Tables_number   1
_chemical_formula_structural   CaAg10(PbO4)3
_chemical_formula_sum   'Ca1 Ag10 Pb3 O12'
_cell_volume   409.41121178
_cell_formula_units_Z   1
loop_
 _symmetry_equiv_pos_site_id
 _symmetry_equiv_pos_as_xyz
  1  'x, y, z'
loop_
 _atom_site_type_symbol
 _atom_site_label
 _atom_site_symmetry_multiplicity
 _atom_site_fract_x
 _atom_site_fract_y
 _atom_site_fract_z
 _atom_site_occupancy
  Ca  Ca0  1  0.416711  0.583289  0.000000  1
  Ag  Ag1  1  0.249607  0.249871  0.001936  1
  Ag  Ag2  1  0.750506  0.749169  0.496940  1
  Ag  Ag3  1  0.250831  0.249494  0.503060  1
  Ag  Ag4  1  0.750129  0.750393  0.998064  1
  Ag  Ag5  1  0.499637  0.001388  0.749454  1
  Ag  Ag6  1  0.998612  0.500363  0.250546  1
  Ag  Ag7  1  0.122009  0.611114  0.629070  1
  Ag  Ag8  1  0.612152  0.120836  0.134756  1
  Ag  Ag9  1  0.388886  0.877991  0.370930  1
  Ag  Ag10  1  0.879164  0.387848  0.865244  1
  Pb  Pb11  1  0.916679  0.083321  0.500000  1
  Pb  Pb12  1  0.580611  0.419389  0.500000  1
  Pb  Pb13  1  0.084817  0.915183  0.000000  1
  O  O14  1  0.665829  0.527265  0.702696  1
  O  O15  1  0.157216  0.033180  0.221234  1
  O  O16  1  0.538446  0.659291  0.224564  1
  O  O17  1  0.030036  0.157435  0.718848  1
  O  O18  1  0.337836  0.858657  0.775529  1
  O  O19  1  0.847719  0.341604  0.277729  1
  O  O20  1  0.340709  0.461554  0.775436  1
  O  O21  1  0.842565  0.969964  0.281152  1
  O  O22  1  0.472735  0.334171  0.297304  1
  O  O23  1  0.966820  0.842784  0.778766  1
  O  O24  1  0.658396  0.152281  0.722271  1
  O  O25  1  0.141343  0.662164  0.224471  1
