# generated using pymatgen
data_Nd4Zn3GaIr4
_symmetry_space_group_name_H-M   'P 1'
_cell_length_a   4.23372200
_cell_length_b   7.13532750
_cell_length_c   8.17803509
_cell_angle_alpha   89.68754202
_cell_angle_beta   90.00000000
_cell_angle_gamma   90.00000000
_symmetry_Int_Tables_number   1
_chemical_formula_structural   Nd4Zn3GaIr4
_chemical_formula_sum   'Nd4 Zn3 Ga1 Ir4'
_cell_volume   247.04653108
_cell_formula_units_Z   1
loop_
 _symmetry_equiv_pos_site_id
 _symmetry_equiv_pos_as_xyz
  1  'x, y, z'
loop_
 _atom_site_type_symbol
 _atom_site_label
 _atom_site_symmetry_multiplicity
 _atom_site_fract_x
 _atom_site_fract_y
 _atom_site_fract_z
 _atom_site_occupancy
  Nd  Nd0  1  0.250000  0.973467  0.312059  1
  Nd  Nd1  1  0.250000  0.476206  0.190278  1
  Nd  Nd2  1  0.750000  0.025022  0.687166  1
  Nd  Nd3  1  0.750000  0.526153  0.810759  1
  Zn  Zn4  1  0.250000  0.348473  0.569595  1
  Zn  Zn5  1  0.250000  0.846536  0.928692  1
  Zn  Zn6  1  0.750000  0.649626  0.430601  1
  Ga  Ga7  1  0.750000  0.150966  0.068130  1
  Ir  Ir8  1  0.250000  0.229794  0.895876  1
  Ir  Ir9  1  0.250000  0.732386  0.612146  1
  Ir  Ir10  1  0.750000  0.773724  0.110777  1
  Ir  Ir11  1  0.750000  0.267647  0.383921  1
