# generated using pymatgen
data_YbSc2Pa(ReB6)2
_symmetry_space_group_name_H-M   'P 1'
_cell_length_a   3.61445600
_cell_length_b   9.00599372
_cell_length_c   11.37221742
_cell_angle_alpha   90.09123225
_cell_angle_beta   90.00000000
_cell_angle_gamma   90.00000000
_symmetry_Int_Tables_number   1
_chemical_formula_structural   YbSc2Pa(ReB6)2
_chemical_formula_sum   'Yb2 Sc4 Pa2 Re4 B24'
_cell_volume   370.18531441
_cell_formula_units_Z   2
loop_
 _symmetry_equiv_pos_site_id
 _symmetry_equiv_pos_as_xyz
  1  'x, y, z'
loop_
 _atom_site_type_symbol
 _atom_site_label
 _atom_site_symmetry_multiplicity
 _atom_site_fract_x
 _atom_site_fract_y
 _atom_site_fract_z
 _atom_site_occupancy
  Yb  Yb0  1  0.000000  0.823912  0.085196  1
  Yb  Yb1  1  0.000000  0.176088  0.914804  1
  Sc  Sc2  1  0.000000  0.945687  0.370880  1
  Sc  Sc3  1  0.000000  0.054313  0.629120  1
  Sc  Sc4  1  0.000000  0.442479  0.128884  1
  Sc  Sc5  1  0.000000  0.557521  0.871116  1
  Pa  Pa6  1  0.000000  0.318907  0.413423  1
  Pa  Pa7  1  0.000000  0.681093  0.586577  1
  Re  Re8  1  0.000000  0.637107  0.321355  1
  Re  Re9  1  0.000000  0.362893  0.678645  1
  Re  Re10  1  0.000000  0.144481  0.184697  1
  Re  Re11  1  0.000000  0.855519  0.815303  1
  B  B12  1  0.500000  0.554384  0.432095  1
  B  B13  1  0.500000  0.445616  0.567905  1
  B  B14  1  0.500000  0.054435  0.067023  1
  B  B15  1  0.500000  0.945565  0.932977  1
  B  B16  1  0.500000  0.753841  0.417341  1
  B  B17  1  0.500000  0.246159  0.582659  1
  B  B18  1  0.500000  0.253439  0.080410  1
  B  B19  1  0.500000  0.746561  0.919590  1
  B  B20  1  0.500000  0.794560  0.264148  1
  B  B21  1  0.500000  0.205440  0.735852  1
  B  B22  1  0.500000  0.294543  0.234610  1
  B  B23  1  0.500000  0.705457  0.765390  1
  B  B24  1  0.500000  0.629613  0.182325  1
  B  B25  1  0.500000  0.370387  0.817675  1
  B  B26  1  0.500000  0.129776  0.316242  1
  B  B27  1  0.500000  0.870224  0.683758  1
  B  B28  1  0.500000  0.981995  0.212669  1
  B  B29  1  0.500000  0.018005  0.787331  1
  B  B30  1  0.500000  0.481795  0.285786  1
  B  B31  1  0.500000  0.518205  0.714214  1
  B  B32  1  0.500000  0.594180  0.025810  1
  B  B33  1  0.500000  0.405820  0.974190  1
  B  B34  1  0.500000  0.099969  0.473115  1
  B  B35  1  0.500000  0.900031  0.526885  1
