# generated using pymatgen
data_Np2UO6
_symmetry_space_group_name_H-M   'P 1'
_cell_length_a   6.62243149
_cell_length_b   6.62243178
_cell_length_c   6.62243227
_cell_angle_alpha   146.39354358
_cell_angle_beta   131.77242361
_cell_angle_gamma   60.06399092
_symmetry_Int_Tables_number   1
_chemical_formula_structural   Np2UO6
_chemical_formula_sum   'Np2 U1 O6'
_cell_volume   118.78866756
_cell_formula_units_Z   1
loop_
 _symmetry_equiv_pos_site_id
 _symmetry_equiv_pos_as_xyz
  1  'x, y, z'
loop_
 _atom_site_type_symbol
 _atom_site_label
 _atom_site_symmetry_multiplicity
 _atom_site_fract_x
 _atom_site_fract_y
 _atom_site_fract_z
 _atom_site_occupancy
  Np  Np0  1  0.166801  0.666801  0.500000  1
  Np  Np1  1  0.833199  0.333199  0.500000  1
  U  U2  1  0.500000  0.000000  0.500000  1
  O  O3  1  0.416947  0.164027  0.252921  1
  O  O4  1  0.255385  0.500000  0.755385  1
  O  O5  1  0.911105  0.164027  0.747079  1
  O  O6  1  0.088895  0.835973  0.252921  1
  O  O7  1  0.744615  0.500000  0.244615  1
  O  O8  1  0.583053  0.835973  0.747079  1
