# generated using pymatgen
data_Y3P2S
_symmetry_space_group_name_H-M   'P 1'
_cell_length_a   6.91502982
_cell_length_b   6.91502993
_cell_length_c   6.91502903
_cell_angle_alpha   146.52598965
_cell_angle_beta   132.07757828
_cell_angle_gamma   59.71693620
_symmetry_Int_Tables_number   1
_chemical_formula_structural   Y3P2S
_chemical_formula_sum   'Y3 P2 S1'
_cell_volume   134.15400175
_cell_formula_units_Z   1
loop_
 _symmetry_equiv_pos_site_id
 _symmetry_equiv_pos_as_xyz
  1  'x, y, z'
loop_
 _atom_site_type_symbol
 _atom_site_label
 _atom_site_symmetry_multiplicity
 _atom_site_fract_x
 _atom_site_fract_y
 _atom_site_fract_z
 _atom_site_occupancy
  Y  Y0  1  0.500000  0.000000  0.500000  1
  Y  Y1  1  0.171216  0.671216  0.500000  1
  Y  Y2  1  0.828784  0.328784  0.500000  1
  P  P3  1  0.665508  0.665508  0.000000  1
  P  P4  1  0.334492  0.334492  0.000000  1
  S  S5  1  0.000000  0.000000  0.000000  1
