# generated using pymatgen
data_Er4Ga3SiRu4
_symmetry_space_group_name_H-M   'P 1'
_cell_length_a   4.43081900
_cell_length_b   7.08304674
_cell_length_c   7.12742438
_cell_angle_alpha   90.20216141
_cell_angle_beta   90.00000000
_cell_angle_gamma   90.00000000
_symmetry_Int_Tables_number   1
_chemical_formula_structural   Er4Ga3SiRu4
_chemical_formula_sum   'Er4 Ga3 Si1 Ru4'
_cell_volume   223.68354239
_cell_formula_units_Z   1
loop_
 _symmetry_equiv_pos_site_id
 _symmetry_equiv_pos_as_xyz
  1  'x, y, z'
loop_
 _atom_site_type_symbol
 _atom_site_label
 _atom_site_symmetry_multiplicity
 _atom_site_fract_x
 _atom_site_fract_y
 _atom_site_fract_z
 _atom_site_occupancy
  Er  Er0  1  0.250000  0.985921  0.807098  1
  Er  Er1  1  0.750000  0.015600  0.196006  1
  Er  Er2  1  0.250000  0.478078  0.694656  1
  Er  Er3  1  0.750000  0.513917  0.305979  1
  Ga  Ga4  1  0.250000  0.301064  0.107149  1
  Ga  Ga5  1  0.750000  0.696425  0.892643  1
  Ga  Ga6  1  0.250000  0.799893  0.396085  1
  Si  Si7  1  0.750000  0.197036  0.602195  1
  Ru  Ru8  1  0.750000  0.855923  0.564787  1
  Ru  Ru9  1  0.250000  0.163691  0.446905  1
  Ru  Ru10  1  0.750000  0.331638  0.922131  1
  Ru  Ru11  1  0.250000  0.660814  0.064366  1
