# generated using pymatgen
data_Hf18CrRe7SiIr
_symmetry_space_group_name_H-M   'P 1'
_cell_length_a   8.60004100
_cell_length_b   8.60003954
_cell_length_c   8.55725200
_cell_angle_alpha   90.00000000
_cell_angle_beta   90.00000000
_cell_angle_gamma   120.00000948
_symmetry_Int_Tables_number   1
_chemical_formula_structural   Hf18CrRe7SiIr
_chemical_formula_sum   'Hf18 Cr1 Re7 Si1 Ir1'
_cell_volume   548.10767229
_cell_formula_units_Z   1
loop_
 _symmetry_equiv_pos_site_id
 _symmetry_equiv_pos_as_xyz
  1  'x, y, z'
loop_
 _atom_site_type_symbol
 _atom_site_label
 _atom_site_symmetry_multiplicity
 _atom_site_fract_x
 _atom_site_fract_y
 _atom_site_fract_z
 _atom_site_occupancy
  Hf  Hf0  1  0.194729  0.805271  0.447652  1
  Hf  Hf1  1  0.194729  0.389458  0.447652  1
  Hf  Hf2  1  0.610542  0.805271  0.447652  1
  Hf  Hf3  1  0.807456  0.192544  0.548150  1
  Hf  Hf4  1  0.807456  0.614911  0.548150  1
  Hf  Hf5  1  0.385089  0.192544  0.548150  1
  Hf  Hf6  1  0.806409  0.193591  0.952303  1
  Hf  Hf7  1  0.806409  0.612818  0.952303  1
  Hf  Hf8  1  0.387182  0.193591  0.952303  1
  Hf  Hf9  1  0.196557  0.803443  0.052272  1
  Hf  Hf10  1  0.196557  0.393115  0.052272  1
  Hf  Hf11  1  0.606885  0.803443  0.052272  1
  Hf  Hf12  1  0.541293  0.458707  0.250616  1
  Hf  Hf13  1  0.541293  0.082586  0.250616  1
  Hf  Hf14  1  0.917414  0.458707  0.250616  1
  Hf  Hf15  1  0.460934  0.539066  0.749340  1
  Hf  Hf16  1  0.460934  0.921868  0.749340  1
  Hf  Hf17  1  0.078132  0.539066  0.749340  1
  Cr  Cr18  1  0.000000  0.000000  0.497320  1
  Re  Re19  1  0.890568  0.109432  0.253424  1
  Re  Re20  1  0.890568  0.781135  0.253424  1
  Re  Re21  1  0.218865  0.109432  0.253424  1
  Re  Re22  1  0.108411  0.891589  0.746731  1
  Re  Re23  1  0.108411  0.216822  0.746731  1
  Re  Re24  1  0.783178  0.891589  0.746731  1
  Re  Re25  1  0.000000  0.000000  0.001311  1
  Si  Si26  1  0.666667  0.333333  0.749553  1
  Ir  Ir27  1  0.333333  0.666667  0.250350  1
