# generated using pymatgen
data_La7Nd13Si15Pt
_symmetry_space_group_name_H-M   'P 1'
_cell_length_a   7.95920157
_cell_length_b   7.96613198
_cell_length_c   15.21191578
_cell_angle_alpha   89.89903398
_cell_angle_beta   89.53501326
_cell_angle_gamma   90.06559564
_symmetry_Int_Tables_number   1
_chemical_formula_structural   La7Nd13Si15Pt
_chemical_formula_sum   'La7 Nd13 Si15 Pt1'
_cell_volume   964.46316358
_cell_formula_units_Z   1
loop_
 _symmetry_equiv_pos_site_id
 _symmetry_equiv_pos_as_xyz
  1  'x, y, z'
loop_
 _atom_site_type_symbol
 _atom_site_label
 _atom_site_symmetry_multiplicity
 _atom_site_fract_x
 _atom_site_fract_y
 _atom_site_fract_z
 _atom_site_occupancy
  La  La0  1  0.014649  0.373067  0.547900  1
  La  La1  1  0.628565  0.985445  0.951975  1
  La  La2  1  0.127130  0.512082  0.800848  1
  La  La3  1  0.868939  0.483819  0.298829  1
  La  La4  1  0.507681  0.125015  0.198496  1
  La  La5  1  0.491480  0.874599  0.699352  1
  La  La6  1  0.377359  0.016844  0.453024  1
  Nd  Nd7  1  0.373170  0.481613  0.374812  1
  Nd  Nd8  1  0.867255  0.018619  0.372635  1
  Nd  Nd9  1  0.982021  0.128929  0.124344  1
  Nd  Nd10  1  0.023910  0.872262  0.622311  1
  Nd  Nd11  1  0.629594  0.519792  0.874317  1
  Nd  Nd12  1  0.485877  0.372822  0.626010  1
  Nd  Nd13  1  0.513802  0.627140  0.125700  1
  Nd  Nd14  1  0.125887  0.982144  0.877540  1
  Nd  Nd15  1  0.991661  0.620943  0.053850  1
  Nd  Nd16  1  0.698954  0.694308  0.496412  1
  Nd  Nd17  1  0.811214  0.189894  0.749955  1
  Nd  Nd18  1  0.184092  0.803463  0.258331  1
  Nd  Nd19  1  0.305520  0.308960  0.999711  1
  Si  Si20  1  0.922047  0.289357  0.939816  1
  Si  Si21  1  0.714189  0.079092  0.560958  1
  Si  Si22  1  0.213369  0.422058  0.190045  1
  Si  Si23  1  0.789685  0.578012  0.688561  1
  Si  Si24  1  0.424481  0.212338  0.810836  1
  Si  Si25  1  0.574389  0.788072  0.308270  1
  Si  Si26  1  0.284737  0.921826  0.061718  1
  Si  Si27  1  0.833616  0.805436  0.797114  1
  Si  Si28  1  0.164893  0.198581  0.300299  1
  Si  Si29  1  0.798426  0.834235  0.196691  1
  Si  Si30  1  0.308982  0.668318  0.548004  1
  Si  Si31  1  0.696436  0.334817  0.048474  1
  Si  Si32  1  0.667192  0.303502  0.452164  1
  Si  Si33  1  0.329420  0.694411  0.952913  1
  Si  Si34  1  0.199841  0.167784  0.700658  1
  Pt  Pt35  1  0.069536  0.710400  0.437126  1
