# generated using pymatgen
data_Y3In3CuIrAu
_symmetry_space_group_name_H-M   'P 1'
_cell_length_a   7.67055300
_cell_length_b   7.67055382
_cell_length_c   3.90216100
_cell_angle_alpha   90.00000000
_cell_angle_beta   90.00000000
_cell_angle_gamma   119.99999213
_symmetry_Int_Tables_number   1
_chemical_formula_structural   Y3In3CuIrAu
_chemical_formula_sum   'Y3 In3 Cu1 Ir1 Au1'
_cell_volume   198.83335793
_cell_formula_units_Z   1
loop_
 _symmetry_equiv_pos_site_id
 _symmetry_equiv_pos_as_xyz
  1  'x, y, z'
loop_
 _atom_site_type_symbol
 _atom_site_label
 _atom_site_symmetry_multiplicity
 _atom_site_fract_x
 _atom_site_fract_y
 _atom_site_fract_z
 _atom_site_occupancy
  Y  Y0  1  0.398547  0.977948  0.500000  1
  Y  Y1  1  0.022052  0.420599  0.500000  1
  Y  Y2  1  0.579401  0.601453  0.500000  1
  In  In3  1  0.751368  0.000883  0.000000  1
  In  In4  1  0.999117  0.750484  0.000000  1
  In  In5  1  0.249516  0.248632  0.000000  1
  Cu  Cu6  1  0.000000  0.000000  0.500000  1
  Ir  Ir7  1  0.333333  0.666667  0.000000  1
  Au  Au8  1  0.666667  0.333333  0.000000  1
