# generated using pymatgen
data_Pr16MgHg3Ir3Rh
_symmetry_space_group_name_H-M   'P 1'
_cell_length_a   9.98201464
_cell_length_b   10.05527207
_cell_length_c   10.05529539
_cell_angle_alpha   60.04807094
_cell_angle_beta   59.96025402
_cell_angle_gamma   59.95983382
_symmetry_Int_Tables_number   1
_chemical_formula_structural   Pr16MgHg3Ir3Rh
_chemical_formula_sum   'Pr16 Mg1 Hg3 Ir3 Rh1'
_cell_volume   713.48796469
_cell_formula_units_Z   1
loop_
 _symmetry_equiv_pos_site_id
 _symmetry_equiv_pos_as_xyz
  1  'x, y, z'
loop_
 _atom_site_type_symbol
 _atom_site_label
 _atom_site_symmetry_multiplicity
 _atom_site_fract_x
 _atom_site_fract_y
 _atom_site_fract_z
 _atom_site_occupancy
  Pr  Pr0  1  0.348312  0.347349  0.347351  1
  Pr  Pr1  1  0.349433  0.348637  0.953788  1
  Pr  Pr2  1  0.349428  0.953789  0.348642  1
  Pr  Pr3  1  0.947386  0.350946  0.350945  1
  Pr  Pr4  1  0.807154  0.192264  0.192279  1
  Pr  Pr5  1  0.185821  0.810349  0.810354  1
  Pr  Pr6  1  0.187505  0.811135  0.189538  1
  Pr  Pr7  1  0.806110  0.191905  0.807484  1
  Pr  Pr8  1  0.187509  0.189552  0.811123  1
  Pr  Pr9  1  0.806112  0.807480  0.191910  1
  Pr  Pr10  1  0.939815  0.561425  0.561419  1
  Pr  Pr11  1  0.558322  0.939503  0.939522  1
  Pr  Pr12  1  0.558825  0.939850  0.563343  1
  Pr  Pr13  1  0.939548  0.559599  0.938872  1
  Pr  Pr14  1  0.558828  0.563338  0.939845  1
  Pr  Pr15  1  0.939540  0.938875  0.559613  1
  Mg  Mg16  1  0.287194  0.570482  0.570451  1
  Hg  Hg17  1  0.580592  0.586518  0.586513  1
  Hg  Hg18  1  0.580939  0.586884  0.246084  1
  Hg  Hg19  1  0.580932  0.246081  0.586888  1
  Ir  Ir20  1  0.140755  0.142412  0.142400  1
  Ir  Ir21  1  0.142345  0.143361  0.575378  1
  Ir  Ir22  1  0.142341  0.575376  0.143359  1
  Rh  Rh23  1  0.575255  0.142891  0.142899  1
