# generated using pymatgen
data_Pr(CuPd2)4
_symmetry_space_group_name_H-M   'P 1'
_cell_length_a   6.82252198
_cell_length_b   6.82252225
_cell_length_c   6.82252256
_cell_angle_alpha   97.89984667
_cell_angle_beta   97.89985545
_cell_angle_gamma   136.47849714
_symmetry_Int_Tables_number   1
_chemical_formula_structural   Pr(CuPd2)4
_chemical_formula_sum   'Pr1 Cu4 Pd8'
_cell_volume   203.10141457
_cell_formula_units_Z   1
loop_
 _symmetry_equiv_pos_site_id
 _symmetry_equiv_pos_as_xyz
  1  'x, y, z'
loop_
 _atom_site_type_symbol
 _atom_site_label
 _atom_site_symmetry_multiplicity
 _atom_site_fract_x
 _atom_site_fract_y
 _atom_site_fract_z
 _atom_site_occupancy
  Pr  Pr0  1  0.000000  0.000000  0.000000  1
  Cu  Cu1  1  0.500000  0.500000  0.500000  1
  Cu  Cu2  1  0.000000  0.000000  0.500000  1
  Cu  Cu3  1  0.000000  0.500000  0.000000  1
  Cu  Cu4  1  0.500000  0.000000  0.000000  1
  Pd  Pd5  1  0.719701  0.500000  0.219701  1
  Pd  Pd6  1  0.500000  0.280299  0.780299  1
  Pd  Pd7  1  0.348133  0.000000  0.348133  1
  Pd  Pd8  1  0.000000  0.651867  0.651867  1
  Pd  Pd9  1  0.651867  0.000000  0.651867  1
  Pd  Pd10  1  0.000000  0.348133  0.348133  1
  Pd  Pd11  1  0.280299  0.500000  0.780299  1
  Pd  Pd12  1  0.500000  0.719701  0.219701  1
