# generated using pymatgen
data_Ho16Er4(Ir3Ru)3
_symmetry_space_group_name_H-M   'P 1'
_cell_length_a   10.77795600
_cell_length_b   10.77795600
_cell_length_c   6.38327900
_cell_angle_alpha   90.00000000
_cell_angle_beta   90.00000000
_cell_angle_gamma   90.00000000
_symmetry_Int_Tables_number   1
_chemical_formula_structural   Ho16Er4(Ir3Ru)3
_chemical_formula_sum   'Ho16 Er4 Ir9 Ru3'
_cell_volume   741.50936359
_cell_formula_units_Z   1
loop_
 _symmetry_equiv_pos_site_id
 _symmetry_equiv_pos_as_xyz
  1  'x, y, z'
loop_
 _atom_site_type_symbol
 _atom_site_label
 _atom_site_symmetry_multiplicity
 _atom_site_fract_x
 _atom_site_fract_y
 _atom_site_fract_z
 _atom_site_occupancy
  Ho  Ho0  1  0.293393  0.086367  0.377212  1
  Ho  Ho1  1  0.293411  0.913895  0.877486  1
  Ho  Ho2  1  0.706589  0.086105  0.877486  1
  Ho  Ho3  1  0.706607  0.913633  0.377212  1
  Ho  Ho4  1  0.586105  0.793411  0.877486  1
  Ho  Ho5  1  0.586367  0.206607  0.377212  1
  Ho  Ho6  1  0.413633  0.793393  0.377212  1
  Ho  Ho7  1  0.413895  0.206589  0.877486  1
  Ho  Ho8  1  0.208228  0.412860  0.624078  1
  Ho  Ho9  1  0.208014  0.587109  0.121244  1
  Ho  Ho10  1  0.791986  0.412891  0.121244  1
  Ho  Ho11  1  0.791772  0.587140  0.624078  1
  Ho  Ho12  1  0.912891  0.708014  0.121244  1
  Ho  Ho13  1  0.912860  0.291772  0.624078  1
  Ho  Ho14  1  0.087140  0.708228  0.624078  1
  Ho  Ho15  1  0.087109  0.291986  0.121244  1
  Er  Er16  1  0.000000  0.000000  0.499666  1
  Er  Er17  1  0.000000  0.000000  0.999653  1
  Er  Er18  1  0.500000  0.500000  0.999653  1
  Er  Er19  1  0.500000  0.500000  0.499666  1
  Ir  Ir20  1  0.847805  0.152668  0.249921  1
  Ir  Ir21  1  0.847519  0.847357  0.749654  1
  Ir  Ir22  1  0.152481  0.152643  0.749654  1
  Ir  Ir23  1  0.152195  0.847332  0.249921  1
  Ir  Ir24  1  0.652643  0.347519  0.749654  1
  Ir  Ir25  1  0.652668  0.652195  0.249921  1
  Ir  Ir26  1  0.347332  0.347805  0.249921  1
  Ir  Ir27  1  0.347357  0.652481  0.749654  1
  Ir  Ir28  1  0.000000  0.500000  0.378935  1
  Ru  Ru29  1  0.500000  0.000000  0.122589  1
  Ru  Ru30  1  0.500000  0.000000  0.622622  1
  Ru  Ru31  1  0.000000  0.500000  0.878831  1
