# generated using pymatgen
data_Ba4InReWO12
_symmetry_space_group_name_H-M   'P 1'
_cell_length_a   10.09196078
_cell_length_b   10.09196106
_cell_length_c   10.09196109
_cell_angle_alpha   33.84453071
_cell_angle_beta   33.84452992
_cell_angle_gamma   33.84452455
_symmetry_Int_Tables_number   1
_chemical_formula_structural   Ba4InReWO12
_chemical_formula_sum   'Ba4 In1 Re1 W1 O12'
_cell_volume   284.11511445
_cell_formula_units_Z   1
loop_
 _symmetry_equiv_pos_site_id
 _symmetry_equiv_pos_as_xyz
  1  'x, y, z'
loop_
 _atom_site_type_symbol
 _atom_site_label
 _atom_site_symmetry_multiplicity
 _atom_site_fract_x
 _atom_site_fract_y
 _atom_site_fract_z
 _atom_site_occupancy
  Ba  Ba0  1  0.707897  0.707897  0.707897  1
  Ba  Ba1  1  0.288567  0.288567  0.288567  1
  Ba  Ba2  1  0.869644  0.869644  0.869644  1
  Ba  Ba3  1  0.136002  0.136002  0.136002  1
  In  In4  1  0.999461  0.999461  0.999461  1
  Re  Re5  1  0.420105  0.420105  0.420105  1
  W  W6  1  0.579104  0.579104  0.579104  1
  O  O7  1  0.385832  0.385832  0.863778  1
  O  O8  1  0.863778  0.385832  0.385832  1
  O  O9  1  0.385832  0.863778  0.385832  1
  O  O10  1  0.607972  0.607972  0.144246  1
  O  O11  1  0.144246  0.607972  0.607972  1
  O  O12  1  0.607972  0.144246  0.607972  1
  O  O13  1  0.222203  0.222203  0.688125  1
  O  O14  1  0.688125  0.222203  0.222203  1
  O  O15  1  0.222203  0.688125  0.222203  1
  O  O16  1  0.781198  0.781198  0.308661  1
  O  O17  1  0.308661  0.781198  0.781198  1
  O  O18  1  0.781198  0.308661  0.781198  1
