# generated using pymatgen
data_Lu8Ga(Si5Tc4)3
_symmetry_space_group_name_H-M   'P 1'
_cell_length_a   6.77696289
_cell_length_b   6.74527163
_cell_length_c   12.58371800
_cell_angle_alpha   90.00000000
_cell_angle_beta   90.00000000
_cell_angle_gamma   89.61198666
_symmetry_Int_Tables_number   1
_chemical_formula_structural   Lu8Ga(Si5Tc4)3
_chemical_formula_sum   'Lu8 Ga1 Si15 Tc12'
_cell_volume   575.21945879
_cell_formula_units_Z   1
loop_
 _symmetry_equiv_pos_site_id
 _symmetry_equiv_pos_as_xyz
  1  'x, y, z'
loop_
 _atom_site_type_symbol
 _atom_site_label
 _atom_site_symmetry_multiplicity
 _atom_site_fract_x
 _atom_site_fract_y
 _atom_site_fract_z
 _atom_site_occupancy
  Lu  Lu0  1  0.496174  0.336768  0.093381  1
  Lu  Lu1  1  0.987722  0.163082  0.406275  1
  Lu  Lu2  1  0.513820  0.667481  0.593525  1
  Lu  Lu3  1  0.999502  0.834345  0.904974  1
  Lu  Lu4  1  0.513820  0.667481  0.906475  1
  Lu  Lu5  1  0.999502  0.834345  0.595026  1
  Lu  Lu6  1  0.496174  0.336768  0.406619  1
  Lu  Lu7  1  0.987722  0.163082  0.093725  1
  Ga  Ga8  1  0.535176  0.344203  0.750000  1
  Si  Si9  1  0.649699  0.060018  0.553035  1
  Si  Si10  1  0.171039  0.457284  0.954739  1
  Si  Si11  1  0.335331  0.954593  0.046910  1
  Si  Si12  1  0.850611  0.557435  0.446030  1
  Si  Si13  1  0.335331  0.954593  0.453090  1
  Si  Si14  1  0.850611  0.557435  0.053970  1
  Si  Si15  1  0.649699  0.060018  0.946965  1
  Si  Si16  1  0.171039  0.457284  0.545261  1
  Si  Si17  1  0.013692  0.147553  0.750000  1
  Si  Si18  1  0.477958  0.644570  0.250000  1
  Si  Si19  1  0.966332  0.849997  0.250000  1
  Si  Si20  1  0.812163  0.611663  0.750000  1
  Si  Si21  1  0.304955  0.857828  0.750000  1
  Si  Si22  1  0.191284  0.362023  0.250000  1
  Si  Si23  1  0.691390  0.131348  0.250000  1
  Tc  Tc24  1  0.852182  0.348805  0.606759  1
  Tc  Tc25  1  0.299064  0.145197  0.878096  1
  Tc  Tc26  1  0.192965  0.653242  0.126335  1
  Tc  Tc27  1  0.661555  0.851855  0.377300  1
  Tc  Tc28  1  0.192965  0.653242  0.373665  1
  Tc  Tc29  1  0.661555  0.851855  0.122700  1
  Tc  Tc30  1  0.852182  0.348805  0.893241  1
  Tc  Tc31  1  0.299064  0.145197  0.621904  1
  Tc  Tc32  1  0.669441  0.975626  0.750000  1
  Tc  Tc33  1  0.171884  0.508893  0.750000  1
  Tc  Tc34  1  0.319730  0.015404  0.250000  1
  Tc  Tc35  1  0.826670  0.490682  0.250000  1
