# generated using pymatgen
data_Pr19NdSi15Sn
_symmetry_space_group_name_H-M   'P 1'
_cell_length_a   7.94354746
_cell_length_b   7.96365196
_cell_length_c   15.46370783
_cell_angle_alpha   90.01378499
_cell_angle_beta   90.11588057
_cell_angle_gamma   90.02140514
_symmetry_Int_Tables_number   1
_chemical_formula_structural   Pr19NdSi15Sn
_chemical_formula_sum   'Pr19 Nd1 Si15 Sn1'
_cell_volume   978.22660583
_cell_formula_units_Z   1
loop_
 _symmetry_equiv_pos_site_id
 _symmetry_equiv_pos_as_xyz
  1  'x, y, z'
loop_
 _atom_site_type_symbol
 _atom_site_label
 _atom_site_symmetry_multiplicity
 _atom_site_fract_x
 _atom_site_fract_y
 _atom_site_fract_z
 _atom_site_occupancy
  Pr  Pr0  1  0.481034  0.372508  0.125771  1
  Pr  Pr1  1  0.969510  0.135930  0.628706  1
  Pr  Pr2  1  0.872754  0.020186  0.876927  1
  Pr  Pr3  1  0.125547  0.981759  0.372586  1
  Pr  Pr4  1  0.523021  0.619435  0.628144  1
  Pr  Pr5  1  0.373769  0.480554  0.874940  1
  Pr  Pr6  1  0.630104  0.516540  0.370567  1
  Pr  Pr7  1  0.018694  0.873689  0.122787  1
  Pr  Pr8  1  0.627249  0.990089  0.442888  1
  Pr  Pr9  1  0.380633  0.011676  0.948705  1
  Pr  Pr10  1  0.986443  0.616511  0.553654  1
  Pr  Pr11  1  0.488884  0.879597  0.196363  1
  Pr  Pr12  1  0.517589  0.128504  0.704776  1
  Pr  Pr13  1  0.880061  0.488017  0.804464  1
  Pr  Pr14  1  0.118483  0.509040  0.300792  1
  Pr  Pr15  1  0.010898  0.378519  0.052660  1
  Pr  Pr16  1  0.307700  0.319282  0.498239  1
  Pr  Pr17  1  0.189697  0.806773  0.757457  1
  Pr  Pr18  1  0.809569  0.189180  0.248740  1
  Nd  Nd19  1  0.690843  0.690949  0.999977  1
  Si  Si20  1  0.711093  0.078164  0.059301  1
  Si  Si21  1  0.921387  0.286070  0.439821  1
  Si  Si22  1  0.420199  0.211020  0.308944  1
  Si  Si23  1  0.579724  0.786607  0.810511  1
  Si  Si24  1  0.212172  0.420530  0.690923  1
  Si  Si25  1  0.786556  0.580394  0.187783  1
  Si  Si26  1  0.077488  0.711175  0.942787  1
  Si  Si27  1  0.804945  0.829675  0.704494  1
  Si  Si28  1  0.196055  0.168389  0.201574  1
  Si  Si29  1  0.831003  0.804302  0.294665  1
  Si  Si30  1  0.333953  0.688829  0.444249  1
  Si  Si31  1  0.668014  0.303949  0.953276  1
  Si  Si32  1  0.693182  0.330713  0.543625  1
  Si  Si33  1  0.305425  0.668636  0.047254  1
  Si  Si34  1  0.169512  0.195509  0.797866  1
  Sn  Sn35  1  0.286808  0.927302  0.563784  1
