# generated using pymatgen
data_Zn2Bi3Pt3O14
_symmetry_space_group_name_H-M   'P 1'
_cell_length_a   7.23495847
_cell_length_b   7.23495859
_cell_length_c   7.23495874
_cell_angle_alpha   61.24004149
_cell_angle_beta   61.24004091
_cell_angle_gamma   61.24004121
_symmetry_Int_Tables_number   1
_chemical_formula_structural   Zn2Bi3Pt3O14
_chemical_formula_sum   'Zn2 Bi3 Pt3 O14'
_cell_volume   275.25684245
_cell_formula_units_Z   1
loop_
 _symmetry_equiv_pos_site_id
 _symmetry_equiv_pos_as_xyz
  1  'x, y, z'
loop_
 _atom_site_type_symbol
 _atom_site_label
 _atom_site_symmetry_multiplicity
 _atom_site_fract_x
 _atom_site_fract_y
 _atom_site_fract_z
 _atom_site_occupancy
  Zn  Zn0  1  0.500000  0.500000  0.500000  1
  Zn  Zn1  1  0.000000  0.000000  0.000000  1
  Bi  Bi2  1  0.000000  0.500000  0.000000  1
  Bi  Bi3  1  0.500000  0.000000  0.000000  1
  Bi  Bi4  1  0.000000  0.000000  0.500000  1
  Pt  Pt5  1  0.500000  0.000000  0.500000  1
  Pt  Pt6  1  0.000000  0.500000  0.500000  1
  Pt  Pt7  1  0.500000  0.500000  0.000000  1
  O  O8  1  0.405060  0.405060  0.852698  1
  O  O9  1  0.852698  0.405060  0.405060  1
  O  O10  1  0.405060  0.852698  0.405060  1
  O  O11  1  0.829406  0.829406  0.405829  1
  O  O12  1  0.405829  0.829406  0.829406  1
  O  O13  1  0.829406  0.405829  0.829406  1
  O  O14  1  0.594940  0.594940  0.147302  1
  O  O15  1  0.147302  0.594940  0.594940  1
  O  O16  1  0.594940  0.147302  0.594940  1
  O  O17  1  0.170594  0.170594  0.594171  1
  O  O18  1  0.594171  0.170594  0.170594  1
  O  O19  1  0.170594  0.594171  0.170594  1
  O  O20  1  0.112221  0.112221  0.112221  1
  O  O21  1  0.887779  0.887779  0.887779  1
