# generated using pymatgen
data_Ho5Mg2Co16P12Ru
_symmetry_space_group_name_H-M   'P 1'
_cell_length_a   12.11689547
_cell_length_b   12.13858081
_cell_length_c   3.71624000
_cell_angle_alpha   90.00000000
_cell_angle_beta   90.00000000
_cell_angle_gamma   120.05921934
_symmetry_Int_Tables_number   1
_chemical_formula_structural   Ho5Mg2Co16P12Ru
_chemical_formula_sum   'Ho5 Mg2 Co16 P12 Ru1'
_cell_volume   473.07956957
_cell_formula_units_Z   1
loop_
 _symmetry_equiv_pos_site_id
 _symmetry_equiv_pos_as_xyz
  1  'x, y, z'
loop_
 _atom_site_type_symbol
 _atom_site_label
 _atom_site_symmetry_multiplicity
 _atom_site_fract_x
 _atom_site_fract_y
 _atom_site_fract_z
 _atom_site_occupancy
  Ho  Ho0  1  0.669049  0.334664  0.000000  1
  Ho  Ho1  1  0.330951  0.665616  0.000000  1
  Ho  Ho2  1  0.815007  0.815002  0.500000  1
  Ho  Ho3  1  0.184993  0.999995  0.500000  1
  Ho  Ho4  1  0.000000  0.186834  0.500000  1
  Mg  Mg5  1  0.439709  0.439562  0.000000  1
  Mg  Mg6  1  0.560291  0.999852  0.000000  1
  Co  Co7  1  0.876516  0.360147  0.500000  1
  Co  Co8  1  0.646743  0.516943  0.500000  1
  Co  Co9  1  0.480445  0.123456  0.500000  1
  Co  Co10  1  0.353257  0.870200  0.500000  1
  Co  Co11  1  0.519555  0.643011  0.500000  1
  Co  Co12  1  0.123484  0.483631  0.500000  1
  Co  Co13  1  0.804342  0.181935  0.000000  1
  Co  Co14  1  0.825248  0.626520  0.000000  1
  Co  Co15  1  0.374475  0.196677  0.000000  1
  Co  Co16  1  0.174752  0.801274  0.000000  1
  Co  Co17  1  0.625525  0.822204  0.000000  1
  Co  Co18  1  0.195658  0.377594  0.000000  1
  Co  Co19  1  0.279628  0.281856  0.500000  1
  Co  Co20  1  0.720372  0.002229  0.500000  1
  Co  Co21  1  0.000000  0.717520  0.500000  1
  Co  Co22  1  0.000000  0.000027  0.000000  1
  P  P23  1  0.690839  0.172567  0.500000  1
  P  P24  1  0.835174  0.522344  0.500000  1
  P  P25  1  0.479614  0.306894  0.500000  1
  P  P26  1  0.164826  0.687170  0.500000  1
  P  P27  1  0.520386  0.827280  0.500000  1
  P  P28  1  0.309161  0.481728  0.500000  1
  P  P29  1  0.178556  0.180164  0.000000  1
  P  P30  1  0.821444  0.001608  0.000000  1
  P  P31  1  0.000000  0.821189  0.000000  1
  P  P32  1  0.641563  0.639271  0.000000  1
  P  P33  1  0.358437  0.997707  0.000000  1
  P  P34  1  0.000000  0.363043  0.000000  1
  Ru  Ru35  1  0.000000  0.552286  0.000000  1
