# generated using pymatgen
data_TbTm(AsPt)2
_symmetry_space_group_name_H-M   'P 1'
_cell_length_a   4.27182900
_cell_length_b   4.27182801
_cell_length_c   15.55389400
_cell_angle_alpha   90.00000000
_cell_angle_beta   90.00000000
_cell_angle_gamma   120.00001543
_symmetry_Int_Tables_number   1
_chemical_formula_structural   TbTm(AsPt)2
_chemical_formula_sum   'Tb2 Tm2 As4 Pt4'
_cell_volume   245.80873826
_cell_formula_units_Z   2
loop_
 _symmetry_equiv_pos_site_id
 _symmetry_equiv_pos_as_xyz
  1  'x, y, z'
loop_
 _atom_site_type_symbol
 _atom_site_label
 _atom_site_symmetry_multiplicity
 _atom_site_fract_x
 _atom_site_fract_y
 _atom_site_fract_z
 _atom_site_occupancy
  Tb  Tb0  1  0.000000  0.000000  0.500000  1
  Tb  Tb1  1  0.000000  0.000000  0.000000  1
  Tm  Tm2  1  0.000000  0.000000  0.250000  1
  Tm  Tm3  1  0.000000  0.000000  0.750000  1
  As  As4  1  0.333333  0.666667  0.884299  1
  As  As5  1  0.666667  0.333333  0.115701  1
  As  As6  1  0.666667  0.333333  0.384299  1
  As  As7  1  0.333333  0.666667  0.615701  1
  Pt  Pt8  1  0.333333  0.666667  0.362076  1
  Pt  Pt9  1  0.666667  0.333333  0.637924  1
  Pt  Pt10  1  0.666667  0.333333  0.862076  1
  Pt  Pt11  1  0.333333  0.666667  0.137924  1
