# generated using pymatgen
data_Ac2S2O
_symmetry_space_group_name_H-M   'P 1'
_cell_length_a   7.62641500
_cell_length_b   7.43031345
_cell_length_c   8.98621716
_cell_angle_alpha   82.56310963
_cell_angle_beta   90.00000000
_cell_angle_gamma   90.00000000
_symmetry_Int_Tables_number   1
_chemical_formula_structural   Ac2S2O
_chemical_formula_sum   'Ac8 S8 O4'
_cell_volume   504.93532495
_cell_formula_units_Z   4
loop_
 _symmetry_equiv_pos_site_id
 _symmetry_equiv_pos_as_xyz
  1  'x, y, z'
loop_
 _atom_site_type_symbol
 _atom_site_label
 _atom_site_symmetry_multiplicity
 _atom_site_fract_x
 _atom_site_fract_y
 _atom_site_fract_z
 _atom_site_occupancy
  Ac  Ac0  1  0.055591  0.252809  0.860128  1
  Ac  Ac1  1  0.555591  0.247191  0.139872  1
  Ac  Ac2  1  0.944409  0.747191  0.139872  1
  Ac  Ac3  1  0.444409  0.752809  0.860128  1
  Ac  Ac4  1  0.127623  0.306307  0.414699  1
  Ac  Ac5  1  0.627623  0.193693  0.585301  1
  Ac  Ac6  1  0.872377  0.693693  0.585301  1
  Ac  Ac7  1  0.372377  0.806307  0.414699  1
  S  S8  1  0.729048  0.024927  0.921468  1
  S  S9  1  0.657539  0.549394  0.331205  1
  S  S10  1  0.342461  0.450606  0.668795  1
  S  S11  1  0.842461  0.049394  0.331205  1
  S  S12  1  0.229048  0.475073  0.078532  1
  S  S13  1  0.270952  0.975073  0.078532  1
  S  S14  1  0.770952  0.524927  0.921468  1
  S  S15  1  0.157539  0.950606  0.668795  1
  O  O16  1  0.086910  0.649245  0.382514  1
  O  O17  1  0.413090  0.149245  0.382514  1
  O  O18  1  0.913090  0.350755  0.617486  1
  O  O19  1  0.586910  0.850755  0.617486  1
