# generated using pymatgen
data_Dy17Er3Sn7Pb9
_symmetry_space_group_name_H-M   'P 1'
_cell_length_a   8.15364069
_cell_length_b   8.21260456
_cell_length_c   15.59572500
_cell_angle_alpha   90.00000000
_cell_angle_beta   90.00000000
_cell_angle_gamma   90.04472147
_symmetry_Int_Tables_number   1
_chemical_formula_structural   Dy17Er3Sn7Pb9
_chemical_formula_sum   'Dy17 Er3 Sn7 Pb9'
_cell_volume   1044.33039327
_cell_formula_units_Z   1
loop_
 _symmetry_equiv_pos_site_id
 _symmetry_equiv_pos_as_xyz
  1  'x, y, z'
loop_
 _atom_site_type_symbol
 _atom_site_label
 _atom_site_symmetry_multiplicity
 _atom_site_fract_x
 _atom_site_fract_y
 _atom_site_fract_z
 _atom_site_occupancy
  Dy  Dy0  1  0.380130  0.838445  0.876833  1
  Dy  Dy1  1  0.880436  0.661109  0.623305  1
  Dy  Dy2  1  0.619631  0.161090  0.377353  1
  Dy  Dy3  1  0.119720  0.337308  0.122826  1
  Dy  Dy4  1  0.619631  0.161090  0.122647  1
  Dy  Dy5  1  0.119720  0.337308  0.377174  1
  Dy  Dy6  1  0.380130  0.838445  0.623167  1
  Dy  Dy7  1  0.880436  0.661109  0.876695  1
  Dy  Dy8  1  0.537624  0.324799  0.895841  1
  Dy  Dy9  1  0.038066  0.174700  0.604360  1
  Dy  Dy10  1  0.464821  0.675318  0.397144  1
  Dy  Dy11  1  0.960192  0.827057  0.101600  1
  Dy  Dy12  1  0.464821  0.675318  0.102856  1
  Dy  Dy13  1  0.960192  0.827057  0.398400  1
  Dy  Dy14  1  0.537624  0.324799  0.604159  1
  Dy  Dy15  1  0.038066  0.174700  0.895640  1
  Dy  Dy16  1  0.787302  0.495036  0.250000  1
  Er  Er17  1  0.211045  0.503405  0.750000  1
  Er  Er18  1  0.710994  0.996529  0.750000  1
  Er  Er19  1  0.291083  0.006553  0.250000  1
  Sn  Sn20  1  0.576324  0.622342  0.750000  1
  Sn  Sn21  1  0.076387  0.877321  0.750000  1
  Sn  Sn22  1  0.423694  0.376563  0.250000  1
  Sn  Sn23  1  0.923755  0.120918  0.250000  1
  Sn  Sn24  1  0.345197  0.148890  0.750000  1
  Sn  Sn25  1  0.845115  0.350841  0.750000  1
  Sn  Sn26  1  0.655533  0.851246  0.250000  1
  Pb  Pb27  1  0.280824  0.031596  0.041436  1
  Pb  Pb28  1  0.781577  0.467244  0.458920  1
  Pb  Pb29  1  0.718418  0.968385  0.542399  1
  Pb  Pb30  1  0.219141  0.531757  0.958451  1
  Pb  Pb31  1  0.718418  0.968385  0.957601  1
  Pb  Pb32  1  0.219141  0.531757  0.541549  1
  Pb  Pb33  1  0.280824  0.031596  0.458564  1
  Pb  Pb34  1  0.781577  0.467244  0.041080  1
  Pb  Pb35  1  0.152404  0.652739  0.250000  1
