# generated using pymatgen
data_TbHo3Mn2(FeOs2)2
_symmetry_space_group_name_H-M   'P 1'
_cell_length_a   5.26277148
_cell_length_b   5.23362570
_cell_length_c   9.18395770
_cell_angle_alpha   73.44516020
_cell_angle_beta   90.56648482
_cell_angle_gamma   119.81697133
_symmetry_Int_Tables_number   1
_chemical_formula_structural   TbHo3Mn2(FeOs2)2
_chemical_formula_sum   'Tb1 Ho3 Mn2 Fe2 Os4'
_cell_volume   207.71441890
_cell_formula_units_Z   1
loop_
 _symmetry_equiv_pos_site_id
 _symmetry_equiv_pos_as_xyz
  1  'x, y, z'
loop_
 _atom_site_type_symbol
 _atom_site_label
 _atom_site_symmetry_multiplicity
 _atom_site_fract_x
 _atom_site_fract_y
 _atom_site_fract_z
 _atom_site_occupancy
  Tb  Tb0  1  0.877292  0.752238  0.372815  1
  Ho  Ho1  1  0.377491  0.752333  0.872824  1
  Ho  Ho2  1  0.997563  0.997830  0.001903  1
  Ho  Ho3  1  0.497339  0.997355  0.502630  1
  Mn  Mn4  1  0.187588  0.374941  0.437708  1
  Mn  Mn5  1  0.687451  0.375049  0.937354  1
  Fe  Fe6  1  0.937581  0.375585  0.186411  1
  Fe  Fe7  1  0.437376  0.374434  0.688509  1
  Os  Os8  1  0.437466  0.375607  0.186537  1
  Os  Os9  1  0.937692  0.374469  0.688386  1
  Os  Os10  1  0.437466  0.875323  0.186537  1
  Os  Os11  1  0.937692  0.874836  0.688386  1
