# generated using pymatgen
data_YTm(SiTc2)4
_symmetry_space_group_name_H-M   'P 1'
_cell_length_a   7.34940190
_cell_length_b   7.34940082
_cell_length_c   4.13746400
_cell_angle_alpha   90.00000000
_cell_angle_beta   90.00000000
_cell_angle_gamma   90.89652975
_symmetry_Int_Tables_number   1
_chemical_formula_structural   YTm(SiTc2)4
_chemical_formula_sum   'Y1 Tm1 Si4 Tc8'
_cell_volume   223.45238261
_cell_formula_units_Z   1
loop_
 _symmetry_equiv_pos_site_id
 _symmetry_equiv_pos_as_xyz
  1  'x, y, z'
loop_
 _atom_site_type_symbol
 _atom_site_label
 _atom_site_symmetry_multiplicity
 _atom_site_fract_x
 _atom_site_fract_y
 _atom_site_fract_z
 _atom_site_occupancy
  Y  Y0  1  0.000000  0.000000  0.500000  1
  Tm  Tm1  1  0.500000  0.500000  0.000000  1
  Si  Si2  1  0.210445  0.789555  0.000000  1
  Si  Si3  1  0.789555  0.210445  0.000000  1
  Si  Si4  1  0.706803  0.706803  0.500000  1
  Si  Si5  1  0.293197  0.293197  0.500000  1
  Tc  Tc6  1  0.652365  0.902917  0.000000  1
  Tc  Tc7  1  0.159158  0.591123  0.500000  1
  Tc  Tc8  1  0.097083  0.347635  0.000000  1
  Tc  Tc9  1  0.902917  0.652365  0.000000  1
  Tc  Tc10  1  0.408877  0.840842  0.500000  1
  Tc  Tc11  1  0.591123  0.159158  0.500000  1
  Tc  Tc12  1  0.347635  0.097083  0.000000  1
  Tc  Tc13  1  0.840842  0.408877  0.500000  1
