# generated using pymatgen
data_AlCr21TcC6
_symmetry_space_group_name_H-M   'P 1'
_cell_length_a   7.50164203
_cell_length_b   7.50164150
_cell_length_c   7.50164100
_cell_angle_alpha   59.99998897
_cell_angle_beta   59.99999132
_cell_angle_gamma   59.99999441
_symmetry_Int_Tables_number   1
_chemical_formula_structural   AlCr21TcC6
_chemical_formula_sum   'Al1 Cr21 Tc1 C6'
_cell_volume   298.50653107
_cell_formula_units_Z   1
loop_
 _symmetry_equiv_pos_site_id
 _symmetry_equiv_pos_as_xyz
  1  'x, y, z'
loop_
 _atom_site_type_symbol
 _atom_site_label
 _atom_site_symmetry_multiplicity
 _atom_site_fract_x
 _atom_site_fract_y
 _atom_site_fract_z
 _atom_site_occupancy
  Al  Al0  1  0.000000  0.000000  0.000000  1
  Cr  Cr1  1  0.250000  0.250000  0.250000  1
  Cr  Cr2  1  0.616391  0.616391  0.150827  1
  Cr  Cr3  1  0.616391  0.150827  0.616391  1
  Cr  Cr4  1  0.150827  0.616391  0.616391  1
  Cr  Cr5  1  0.616391  0.616391  0.616391  1
  Cr  Cr6  1  0.379844  0.379844  0.860466  1
  Cr  Cr7  1  0.379844  0.860466  0.379844  1
  Cr  Cr8  1  0.860466  0.379844  0.379844  1
  Cr  Cr9  1  0.379844  0.379844  0.379844  1
  Cr  Cr10  1  0.000564  0.000564  0.342196  1
  Cr  Cr11  1  0.656676  0.000564  0.342196  1
  Cr  Cr12  1  0.000564  0.656676  0.342196  1
  Cr  Cr13  1  0.656676  0.342196  0.000564  1
  Cr  Cr14  1  0.000564  0.342196  0.000564  1
  Cr  Cr15  1  0.000564  0.342196  0.656676  1
  Cr  Cr16  1  0.342196  0.656676  0.000564  1
  Cr  Cr17  1  0.342196  0.000564  0.656676  1
  Cr  Cr18  1  0.342196  0.000564  0.000564  1
  Cr  Cr19  1  0.000564  0.000564  0.656676  1
  Cr  Cr20  1  0.000564  0.656676  0.000564  1
  Cr  Cr21  1  0.656676  0.000564  0.000564  1
  Tc  Tc22  1  0.750000  0.750000  0.750000  1
  C  C23  1  0.721687  0.721687  0.278313  1
  C  C24  1  0.278313  0.721687  0.278313  1
  C  C25  1  0.721687  0.278313  0.278313  1
  C  C26  1  0.278313  0.278313  0.721687  1
  C  C27  1  0.721687  0.278313  0.721687  1
  C  C28  1  0.278313  0.721687  0.721687  1
