# generated using pymatgen
data_Zr4CoIrN
_symmetry_space_group_name_H-M   'P 1'
_cell_length_a   8.71135771
_cell_length_b   8.71135785
_cell_length_c   8.71135800
_cell_angle_alpha   59.99999945
_cell_angle_beta   59.99999892
_cell_angle_gamma   60.00000200
_symmetry_Int_Tables_number   1
_chemical_formula_structural   Zr4CoIrN
_chemical_formula_sum   'Zr16 Co4 Ir4 N4'
_cell_volume   467.45796829
_cell_formula_units_Z   4
loop_
 _symmetry_equiv_pos_site_id
 _symmetry_equiv_pos_as_xyz
  1  'x, y, z'
loop_
 _atom_site_type_symbol
 _atom_site_label
 _atom_site_symmetry_multiplicity
 _atom_site_fract_x
 _atom_site_fract_y
 _atom_site_fract_z
 _atom_site_occupancy
  Zr  Zr0  1  0.082415  0.639195  0.639195  1
  Zr  Zr1  1  0.639195  0.082415  0.639195  1
  Zr  Zr2  1  0.639195  0.639195  0.082415  1
  Zr  Zr3  1  0.639195  0.639195  0.639195  1
  Zr  Zr4  1  0.813609  0.813609  0.186391  1
  Zr  Zr5  1  0.186391  0.186391  0.813609  1
  Zr  Zr6  1  0.813609  0.186391  0.813609  1
  Zr  Zr7  1  0.186391  0.813609  0.186391  1
  Zr  Zr8  1  0.186391  0.813609  0.813609  1
  Zr  Zr9  1  0.813609  0.186391  0.186391  1
  Zr  Zr10  1  0.433888  0.433888  0.066112  1
  Zr  Zr11  1  0.066112  0.066112  0.433888  1
  Zr  Zr12  1  0.433888  0.066112  0.433888  1
  Zr  Zr13  1  0.066112  0.433888  0.066112  1
  Zr  Zr14  1  0.066112  0.433888  0.433888  1
  Zr  Zr15  1  0.433888  0.066112  0.066112  1
  Co  Co16  1  0.447427  0.850858  0.850858  1
  Co  Co17  1  0.850858  0.447427  0.850858  1
  Co  Co18  1  0.850858  0.850858  0.447427  1
  Co  Co19  1  0.850858  0.850858  0.850858  1
  Ir  Ir20  1  0.748324  0.417225  0.417225  1
  Ir  Ir21  1  0.417225  0.748324  0.417225  1
  Ir  Ir22  1  0.417225  0.417225  0.748324  1
  Ir  Ir23  1  0.417225  0.417225  0.417225  1
  N  N24  1  0.623559  0.125480  0.125480  1
  N  N25  1  0.125480  0.623559  0.125480  1
  N  N26  1  0.125480  0.125480  0.623559  1
  N  N27  1  0.125480  0.125480  0.125480  1
