# generated using pymatgen
data_PrPa(Al5Os)4
_symmetry_space_group_name_H-M   'P 1'
_cell_length_a   6.86728338
_cell_length_b   6.86728274
_cell_length_c   9.18656600
_cell_angle_alpha   90.00000000
_cell_angle_beta   90.00000000
_cell_angle_gamma   97.16419363
_symmetry_Int_Tables_number   1
_chemical_formula_structural   PrPa(Al5Os)4
_chemical_formula_sum   'Pr1 Pa1 Al20 Os4'
_cell_volume   429.85222875
_cell_formula_units_Z   1
loop_
 _symmetry_equiv_pos_site_id
 _symmetry_equiv_pos_as_xyz
  1  'x, y, z'
loop_
 _atom_site_type_symbol
 _atom_site_label
 _atom_site_symmetry_multiplicity
 _atom_site_fract_x
 _atom_site_fract_y
 _atom_site_fract_z
 _atom_site_occupancy
  Pr  Pr0  1  0.127960  0.872040  0.250000  1
  Pa  Pa1  1  0.872756  0.127244  0.750000  1
  Al  Al2  1  0.622217  0.377783  0.550815  1
  Al  Al3  1  0.376356  0.623644  0.452329  1
  Al  Al4  1  0.376356  0.623644  0.047671  1
  Al  Al5  1  0.622217  0.377783  0.949185  1
  Al  Al6  1  0.224179  0.221895  0.501144  1
  Al  Al7  1  0.778105  0.775821  0.501144  1
  Al  Al8  1  0.778105  0.775821  0.998856  1
  Al  Al9  1  0.224179  0.221895  0.998856  1
  Al  Al10  1  0.840712  0.159288  0.102431  1
  Al  Al11  1  0.156032  0.843968  0.897183  1
  Al  Al12  1  0.156032  0.843968  0.602817  1
  Al  Al13  1  0.840712  0.159288  0.397569  1
  Al  Al14  1  0.856886  0.590418  0.750000  1
  Al  Al15  1  0.143441  0.411345  0.250000  1
  Al  Al16  1  0.409582  0.143114  0.750000  1
  Al  Al17  1  0.588655  0.856559  0.250000  1
  Al  Al18  1  0.219988  0.482556  0.750000  1
  Al  Al19  1  0.778984  0.517057  0.250000  1
  Al  Al20  1  0.517444  0.780012  0.750000  1
  Al  Al21  1  0.482943  0.221016  0.250000  1
  Os  Os22  1  0.999017  0.495937  0.502904  1
  Os  Os23  1  0.999017  0.495937  0.997096  1
  Os  Os24  1  0.504063  0.000983  0.997096  1
  Os  Os25  1  0.504063  0.000983  0.502904  1
