# generated using pymatgen
data_TbCe(ZnIr)2
_symmetry_space_group_name_H-M   'P 1'
_cell_length_a   6.99121600
_cell_length_b   4.08795100
_cell_length_c   8.21358500
_cell_angle_alpha   90.00000000
_cell_angle_beta   90.00000000
_cell_angle_gamma   90.00000000
_symmetry_Int_Tables_number   1
_chemical_formula_structural   TbCe(ZnIr)2
_chemical_formula_sum   'Tb2 Ce2 Zn4 Ir4'
_cell_volume   234.74219308
_cell_formula_units_Z   2
loop_
 _symmetry_equiv_pos_site_id
 _symmetry_equiv_pos_as_xyz
  1  'x, y, z'
loop_
 _atom_site_type_symbol
 _atom_site_label
 _atom_site_symmetry_multiplicity
 _atom_site_fract_x
 _atom_site_fract_y
 _atom_site_fract_z
 _atom_site_occupancy
  Tb  Tb0  1  0.957768  0.250000  0.189999  1
  Tb  Tb1  1  0.457768  0.250000  0.310001  1
  Ce  Ce2  1  0.035834  0.750000  0.818750  1
  Ce  Ce3  1  0.535834  0.750000  0.681250  1
  Zn  Zn4  1  0.865473  0.250000  0.559525  1
  Zn  Zn5  1  0.365473  0.250000  0.940475  1
  Zn  Zn6  1  0.138736  0.750000  0.432782  1
  Zn  Zn7  1  0.638736  0.750000  0.067218  1
  Ir  Ir8  1  0.749790  0.250000  0.871757  1
  Ir  Ir9  1  0.249790  0.250000  0.628243  1
  Ir  Ir10  1  0.252399  0.750000  0.116652  1
  Ir  Ir11  1  0.752399  0.750000  0.383348  1
