# generated using pymatgen
data_Dy2HoBi(Ir2O7)2
_symmetry_space_group_name_H-M   'P 1'
_cell_length_a   7.25397820
_cell_length_b   7.27362749
_cell_length_c   7.25397937
_cell_angle_alpha   60.11505455
_cell_angle_beta   60.03336948
_cell_angle_gamma   60.11505251
_symmetry_Int_Tables_number   1
_chemical_formula_structural   Dy2HoBi(Ir2O7)2
_chemical_formula_sum   'Dy2 Ho1 Bi1 Ir4 O14'
_cell_volume   271.17613866
_cell_formula_units_Z   1
loop_
 _symmetry_equiv_pos_site_id
 _symmetry_equiv_pos_as_xyz
  1  'x, y, z'
loop_
 _atom_site_type_symbol
 _atom_site_label
 _atom_site_symmetry_multiplicity
 _atom_site_fract_x
 _atom_site_fract_y
 _atom_site_fract_z
 _atom_site_occupancy
  Dy  Dy0  1  0.625000  0.125000  0.125000  1
  Dy  Dy1  1  0.125000  0.125000  0.625000  1
  Ho  Ho2  1  0.125000  0.125000  0.125000  1
  Bi  Bi3  1  0.125000  0.625000  0.125000  1
  Ir  Ir4  1  0.125000  0.625000  0.625000  1
  Ir  Ir5  1  0.625000  0.125000  0.625000  1
  Ir  Ir6  1  0.625000  0.625000  0.125000  1
  Ir  Ir7  1  0.625000  0.625000  0.625000  1
  O  O8  1  0.705068  0.717030  0.288971  1
  O  O9  1  0.288633  0.287556  0.712356  1
  O  O10  1  0.711789  0.287691  0.711789  1
  O  O11  1  0.288736  0.717698  0.288736  1
  O  O12  1  0.288971  0.717030  0.705068  1
  O  O13  1  0.712356  0.287556  0.288633  1
  O  O14  1  0.544932  0.532970  0.961029  1
  O  O15  1  0.961367  0.962444  0.537644  1
  O  O16  1  0.538211  0.962309  0.538211  1
  O  O17  1  0.961264  0.532302  0.961264  1
  O  O18  1  0.961029  0.532970  0.544932  1
  O  O19  1  0.537644  0.962444  0.961367  1
  O  O20  1  0.252884  0.239481  0.252884  1
  O  O21  1  0.997116  0.010519  0.997116  1
