# generated using pymatgen
data_Sr12Tc3SbO22
_symmetry_space_group_name_H-M   'P 1'
_cell_length_a   5.99921840
_cell_length_b   5.99882186
_cell_length_c   23.90379813
_cell_angle_alpha   58.44508311
_cell_angle_beta   58.88762706
_cell_angle_gamma   60.19088832
_symmetry_Int_Tables_number   1
_chemical_formula_structural   Sr12Tc3SbO22
_chemical_formula_sum   'Sr12 Tc3 Sb1 O22'
_cell_volume   596.54101183
_cell_formula_units_Z   1
loop_
 _symmetry_equiv_pos_site_id
 _symmetry_equiv_pos_as_xyz
  1  'x, y, z'
loop_
 _atom_site_type_symbol
 _atom_site_label
 _atom_site_symmetry_multiplicity
 _atom_site_fract_x
 _atom_site_fract_y
 _atom_site_fract_z
 _atom_site_occupancy
  Sr  Sr0  1  0.104261  0.332322  0.079799  1
  Sr  Sr1  1  0.430098  0.616471  0.108949  1
  Sr  Sr2  1  0.167800  0.365788  0.290166  1
  Sr  Sr3  1  0.365079  0.551840  0.387572  1
  Sr  Sr4  1  0.615019  0.813352  0.205960  1
  Sr  Sr5  1  0.235973  0.247979  0.575506  1
  Sr  Sr6  1  0.509607  0.519450  0.608661  1
  Sr  Sr7  1  0.237736  0.279844  0.793221  1
  Sr  Sr8  1  0.646818  0.872715  0.417195  1
  Sr  Sr9  1  0.455666  0.473085  0.888643  1
  Sr  Sr10  1  0.698926  0.738685  0.704752  1
  Sr  Sr11  1  0.723606  0.749427  0.921024  1
  Tc  Tc12  1  0.002835  0.042458  0.999595  1
  Tc  Tc13  1  0.895677  0.088557  0.248391  1
  Tc  Tc14  1  0.940177  0.964356  0.497257  1
  Sb  Sb15  1  0.974796  0.006907  0.748404  1
  O  O16  1  0.079305  0.384037  0.185170  1
  O  O17  1  0.192138  0.859248  0.189794  1
  O  O18  1  0.796039  0.373068  0.029885  1
  O  O19  1  0.787078  0.833957  0.078670  1
  O  O20  1  0.667767  0.248052  0.189943  1
  O  O21  1  0.605551  0.330643  0.302871  1
  O  O22  1  0.144626  0.183404  0.417884  1
  O  O23  1  0.114422  0.925330  0.310103  1
  O  O24  1  0.721080  0.784262  0.312425  1
  O  O25  1  0.608874  0.175062  0.466309  1
  O  O26  1  0.734555  0.057760  0.576495  1
  O  O27  1  0.152993  0.788923  0.684704  1
  O  O28  1  0.271809  0.715283  0.528264  1
  O  O29  1  0.323010  0.044206  0.999095  1
  O  O30  1  0.938155  0.644507  0.497800  1
  O  O31  1  0.767012  0.325265  0.683818  1
  O  O32  1  0.278112  0.178476  0.693240  1
  O  O33  1  0.795404  0.218340  0.812517  1
  O  O34  1  0.251703  0.712514  0.968665  1
  O  O35  1  0.194297  0.692587  0.811260  1
  O  O36  1  0.663649  0.841701  0.805522  1
  O  O37  1  0.903846  0.251636  0.920690  1
