# generated using pymatgen
data_YbFe2(CoSb6)2
_symmetry_space_group_name_H-M   'P 1'
_cell_length_a   7.93431313
_cell_length_b   7.93431220
_cell_length_c   7.91191130
_cell_angle_alpha   109.48846423
_cell_angle_beta   109.47148342
_cell_angle_gamma   109.56817668
_symmetry_Int_Tables_number   1
_chemical_formula_structural   YbFe2(CoSb6)2
_chemical_formula_sum   'Yb1 Fe2 Co2 Sb12'
_cell_volume   382.88015988
_cell_formula_units_Z   1
loop_
 _symmetry_equiv_pos_site_id
 _symmetry_equiv_pos_as_xyz
  1  'x, y, z'
loop_
 _atom_site_type_symbol
 _atom_site_label
 _atom_site_symmetry_multiplicity
 _atom_site_fract_x
 _atom_site_fract_y
 _atom_site_fract_z
 _atom_site_occupancy
  Yb  Yb0  1  0.000000  0.000000  0.000000  1
  Fe  Fe1  1  0.500000  0.500000  0.500000  1
  Fe  Fe2  1  0.000000  0.000000  0.500000  1
  Co  Co3  1  0.500000  0.000000  0.000000  1
  Co  Co4  1  0.000000  0.500000  0.000000  1
  Sb  Sb5  1  0.837543  0.666667  0.504210  1
  Sb  Sb6  1  0.162457  0.333333  0.495790  1
  Sb  Sb7  1  0.160545  0.664578  0.825122  1
  Sb  Sb8  1  0.839455  0.335422  0.174878  1
  Sb  Sb9  1  0.664244  0.504039  0.837459  1
  Sb  Sb10  1  0.335756  0.495961  0.162541  1
  Sb  Sb11  1  0.666580  0.826784  0.162541  1
  Sb  Sb12  1  0.333420  0.173216  0.837459  1
  Sb  Sb13  1  0.504046  0.837162  0.664017  1
  Sb  Sb14  1  0.495954  0.162838  0.335983  1
  Sb  Sb15  1  0.173146  0.840029  0.335983  1
  Sb  Sb16  1  0.826854  0.159971  0.664017  1
