# generated using pymatgen
data_Tb6Zn22SiPd
_symmetry_space_group_name_H-M   'P 1'
_cell_length_a   9.08054145
_cell_length_b   9.08054147
_cell_length_c   9.08054200
_cell_angle_alpha   60.00000537
_cell_angle_beta   60.00000530
_cell_angle_gamma   59.99999519
_symmetry_Int_Tables_number   1
_chemical_formula_structural   Tb6Zn22SiPd
_chemical_formula_sum   'Tb6 Zn22 Si1 Pd1'
_cell_volume   529.44430935
_cell_formula_units_Z   1
loop_
 _symmetry_equiv_pos_site_id
 _symmetry_equiv_pos_as_xyz
  1  'x, y, z'
loop_
 _atom_site_type_symbol
 _atom_site_label
 _atom_site_symmetry_multiplicity
 _atom_site_fract_x
 _atom_site_fract_y
 _atom_site_fract_z
 _atom_site_occupancy
  Tb  Tb0  1  0.717023  0.282977  0.282977  1
  Tb  Tb1  1  0.282977  0.717023  0.717023  1
  Tb  Tb2  1  0.282977  0.717023  0.282977  1
  Tb  Tb3  1  0.717023  0.282977  0.717023  1
  Tb  Tb4  1  0.282977  0.282977  0.717023  1
  Tb  Tb5  1  0.717023  0.717023  0.282977  1
  Zn  Zn6  1  0.122910  0.122910  0.122910  1
  Zn  Zn7  1  0.877090  0.877090  0.877090  1
  Zn  Zn8  1  0.122910  0.122910  0.631269  1
  Zn  Zn9  1  0.122910  0.631269  0.122910  1
  Zn  Zn10  1  0.877090  0.877090  0.368731  1
  Zn  Zn11  1  0.877090  0.368731  0.877090  1
  Zn  Zn12  1  0.631269  0.122910  0.122910  1
  Zn  Zn13  1  0.368731  0.877090  0.877090  1
  Zn  Zn14  1  0.500000  0.000000  0.000000  1
  Zn  Zn15  1  0.000000  0.500000  0.500000  1
  Zn  Zn16  1  0.000000  0.500000  0.000000  1
  Zn  Zn17  1  0.500000  0.000000  0.500000  1
  Zn  Zn18  1  0.000000  0.000000  0.500000  1
  Zn  Zn19  1  0.500000  0.500000  0.000000  1
  Zn  Zn20  1  0.332855  0.332855  0.332855  1
  Zn  Zn21  1  0.667145  0.667145  0.667145  1
  Zn  Zn22  1  0.332855  0.332855  0.001434  1
  Zn  Zn23  1  0.332855  0.001434  0.332855  1
  Zn  Zn24  1  0.667145  0.667145  0.998566  1
  Zn  Zn25  1  0.667145  0.998566  0.667145  1
  Zn  Zn26  1  0.001434  0.332855  0.332855  1
  Zn  Zn27  1  0.998566  0.667145  0.667145  1
  Si  Si28  1  0.500000  0.500000  0.500000  1
  Pd  Pd29  1  0.000000  0.000000  0.000000  1
