# generated using pymatgen
data_YbYZn2(SiIr2)2
_symmetry_space_group_name_H-M   'P 1'
_cell_length_a   4.08725900
_cell_length_b   4.08725900
_cell_length_c   10.40448700
_cell_angle_alpha   90.00000000
_cell_angle_beta   90.00000000
_cell_angle_gamma   90.00000000
_symmetry_Int_Tables_number   1
_chemical_formula_structural   YbYZn2(SiIr2)2
_chemical_formula_sum   'Yb1 Y1 Zn2 Si2 Ir4'
_cell_volume   173.81409420
_cell_formula_units_Z   1
loop_
 _symmetry_equiv_pos_site_id
 _symmetry_equiv_pos_as_xyz
  1  'x, y, z'
loop_
 _atom_site_type_symbol
 _atom_site_label
 _atom_site_symmetry_multiplicity
 _atom_site_fract_x
 _atom_site_fract_y
 _atom_site_fract_z
 _atom_site_occupancy
  Yb  Yb0  1  0.500000  0.000000  0.251325  1
  Y  Y1  1  0.000000  0.500000  0.751468  1
  Zn  Zn2  1  0.500000  0.500000  0.497482  1
  Zn  Zn3  1  0.000000  0.000000  0.497482  1
  Si  Si4  1  0.000000  0.500000  0.122542  1
  Si  Si5  1  0.500000  0.000000  0.878969  1
  Ir  Ir6  1  0.000000  0.500000  0.346073  1
  Ir  Ir7  1  0.500000  0.000000  0.655154  1
  Ir  Ir8  1  0.500000  0.500000  0.999753  1
  Ir  Ir9  1  0.000000  0.000000  0.999753  1
