# generated using pymatgen
data_InAsPd4Pt
_symmetry_space_group_name_H-M   'P 1'
_cell_length_a   4.04501800
_cell_length_b   4.07948700
_cell_length_c   7.10061100
_cell_angle_alpha   90.00000000
_cell_angle_beta   90.00000000
_cell_angle_gamma   90.00000000
_symmetry_Int_Tables_number   1
_chemical_formula_structural   InAsPd4Pt
_chemical_formula_sum   'In1 As1 Pd4 Pt1'
_cell_volume   117.17143073
_cell_formula_units_Z   1
loop_
 _symmetry_equiv_pos_site_id
 _symmetry_equiv_pos_as_xyz
  1  'x, y, z'
loop_
 _atom_site_type_symbol
 _atom_site_label
 _atom_site_symmetry_multiplicity
 _atom_site_fract_x
 _atom_site_fract_y
 _atom_site_fract_z
 _atom_site_occupancy
  In  In0  1  0.500000  0.500000  0.000286  1
  As  As1  1  0.000000  0.000000  0.500533  1
  Pd  Pd2  1  0.000000  0.000000  0.999943  1
  Pd  Pd3  1  0.000000  0.500000  0.711154  1
  Pd  Pd4  1  0.500000  0.000000  0.287324  1
  Pd  Pd5  1  0.000000  0.500000  0.288857  1
  Pt  Pt6  1  0.500000  0.000000  0.711903  1
