# generated using pymatgen
data_LiDy12Y4Cd3Pt4
_symmetry_space_group_name_H-M   'P 1'
_cell_length_a   9.69318912
_cell_length_b   9.69475331
_cell_length_c   9.69475424
_cell_angle_alpha   59.94408679
_cell_angle_beta   59.94414226
_cell_angle_gamma   59.94414002
_symmetry_Int_Tables_number   1
_chemical_formula_structural   LiDy12Y4Cd3Pt4
_chemical_formula_sum   'Li1 Dy12 Y4 Cd3 Pt4'
_cell_volume   643.39031286
_cell_formula_units_Z   1
loop_
 _symmetry_equiv_pos_site_id
 _symmetry_equiv_pos_as_xyz
  1  'x, y, z'
loop_
 _atom_site_type_symbol
 _atom_site_label
 _atom_site_symmetry_multiplicity
 _atom_site_fract_x
 _atom_site_fract_y
 _atom_site_fract_z
 _atom_site_occupancy
  Li  Li0  1  0.571711  0.571787  0.571787  1
  Dy  Dy1  1  0.350694  0.350936  0.350936  1
  Dy  Dy2  1  0.352356  0.352199  0.944390  1
  Dy  Dy3  1  0.352356  0.944390  0.352199  1
  Dy  Dy4  1  0.944343  0.352406  0.352406  1
  Dy  Dy5  1  0.809920  0.191990  0.191990  1
  Dy  Dy6  1  0.187862  0.812584  0.812584  1
  Dy  Dy7  1  0.191966  0.809998  0.191889  1
  Dy  Dy8  1  0.812622  0.187841  0.812597  1
  Dy  Dy9  1  0.191966  0.191889  0.809998  1
  Dy  Dy10  1  0.812622  0.812597  0.187841  1
  Dy  Dy11  1  0.936970  0.564650  0.564650  1
  Dy  Dy12  1  0.563007  0.936617  0.936617  1
  Y  Y13  1  0.565159  0.936025  0.565116  1
  Y  Y14  1  0.936125  0.563576  0.936159  1
  Y  Y15  1  0.565159  0.565116  0.936025  1
  Y  Y16  1  0.936125  0.936159  0.563576  1
  Cd  Cd17  1  0.582188  0.582287  0.253725  1
  Cd  Cd18  1  0.582188  0.253725  0.582287  1
  Cd  Cd19  1  0.253808  0.582198  0.582198  1
  Pt  Pt20  1  0.144137  0.144211  0.144211  1
  Pt  Pt21  1  0.142816  0.142914  0.571057  1
  Pt  Pt22  1  0.142816  0.571057  0.142914  1
  Pt  Pt23  1  0.571084  0.142850  0.142850  1
