# generated using pymatgen
data_Tm5PaCo5
_symmetry_space_group_name_H-M   'P 1'
_cell_length_a   5.72400191
_cell_length_b   5.72400132
_cell_length_c   21.34426700
_cell_angle_alpha   90.00000000
_cell_angle_beta   90.00000000
_cell_angle_gamma   141.67905476
_symmetry_Int_Tables_number   1
_chemical_formula_structural   Tm5PaCo5
_chemical_formula_sum   'Tm10 Pa2 Co10'
_cell_volume   433.62925251
_cell_formula_units_Z   2
loop_
 _symmetry_equiv_pos_site_id
 _symmetry_equiv_pos_as_xyz
  1  'x, y, z'
loop_
 _atom_site_type_symbol
 _atom_site_label
 _atom_site_symmetry_multiplicity
 _atom_site_fract_x
 _atom_site_fract_y
 _atom_site_fract_z
 _atom_site_occupancy
  Tm  Tm0  1  0.281482  0.718518  0.250000  1
  Tm  Tm1  1  0.282316  0.717684  0.075237  1
  Tm  Tm2  1  0.997824  0.002176  0.835930  1
  Tm  Tm3  1  0.718518  0.281482  0.750000  1
  Tm  Tm4  1  0.717684  0.282316  0.575237  1
  Tm  Tm5  1  0.002176  0.997824  0.335930  1
  Tm  Tm6  1  0.997824  0.002176  0.664070  1
  Tm  Tm7  1  0.717684  0.282316  0.924763  1
  Tm  Tm8  1  0.002176  0.997824  0.164070  1
  Tm  Tm9  1  0.282316  0.717684  0.424763  1
  Pa  Pa10  1  0.000000  0.000000  0.500000  1
  Pa  Pa11  1  0.000000  0.000000  0.000000  1
  Co  Co12  1  0.296634  0.703366  0.658202  1
  Co  Co13  1  0.577162  0.422838  0.434995  1
  Co  Co14  1  0.417962  0.582038  0.750000  1
  Co  Co15  1  0.422838  0.577162  0.934995  1
  Co  Co16  1  0.582038  0.417962  0.250000  1
  Co  Co17  1  0.422838  0.577162  0.565005  1
  Co  Co18  1  0.703366  0.296634  0.341798  1
  Co  Co19  1  0.703366  0.296634  0.158202  1
  Co  Co20  1  0.577162  0.422838  0.065005  1
  Co  Co21  1  0.296634  0.703366  0.841798  1
