# generated using pymatgen
data_Pa8Ti9Ge16Mo3
_symmetry_space_group_name_H-M   'P 1'
_cell_length_a   6.94533600
_cell_length_b   7.08920171
_cell_length_c   13.42218200
_cell_angle_alpha   90.00000000
_cell_angle_beta   90.00000000
_cell_angle_gamma   90.15728634
_symmetry_Int_Tables_number   1
_chemical_formula_structural   Pa8Ti9Ge16Mo3
_chemical_formula_sum   'Pa8 Ti9 Ge16 Mo3'
_cell_volume   660.86397986
_cell_formula_units_Z   1
loop_
 _symmetry_equiv_pos_site_id
 _symmetry_equiv_pos_as_xyz
  1  'x, y, z'
loop_
 _atom_site_type_symbol
 _atom_site_label
 _atom_site_symmetry_multiplicity
 _atom_site_fract_x
 _atom_site_fract_y
 _atom_site_fract_z
 _atom_site_occupancy
  Pa  Pa0  1  0.492747  0.670352  0.593568  1
  Pa  Pa1  1  0.993426  0.832255  0.906293  1
  Pa  Pa2  1  0.506571  0.331109  0.094049  1
  Pa  Pa3  1  0.006397  0.169101  0.405783  1
  Pa  Pa4  1  0.506571  0.331109  0.405951  1
  Pa  Pa5  1  0.006397  0.169101  0.094217  1
  Pa  Pa6  1  0.492747  0.670352  0.906432  1
  Pa  Pa7  1  0.993426  0.832255  0.593707  1
  Ti  Ti8  1  0.659165  0.163765  0.623820  1
  Ti  Ti9  1  0.162946  0.333636  0.876256  1
  Ti  Ti10  1  0.339673  0.834115  0.124800  1
  Ti  Ti11  1  0.838843  0.665573  0.375127  1
  Ti  Ti12  1  0.339673  0.834115  0.375200  1
  Ti  Ti13  1  0.838843  0.665573  0.124873  1
  Ti  Ti14  1  0.659165  0.163765  0.876180  1
  Ti  Ti15  1  0.162946  0.333636  0.623744  1
  Ti  Ti16  1  0.828181  0.503131  0.750000  1
  Ge  Ge17  1  0.673166  0.952168  0.455349  1
  Ge  Ge18  1  0.172762  0.547453  0.044386  1
  Ge  Ge19  1  0.326380  0.048361  0.956712  1
  Ge  Ge20  1  0.826792  0.452717  0.544720  1
  Ge  Ge21  1  0.326380  0.048361  0.543288  1
  Ge  Ge22  1  0.826792  0.452717  0.955280  1
  Ge  Ge23  1  0.673166  0.952168  0.044651  1
  Ge  Ge24  1  0.172762  0.547453  0.455614  1
  Ge  Ge25  1  0.462917  0.365126  0.750000  1
  Ge  Ge26  1  0.961690  0.136601  0.750000  1
  Ge  Ge27  1  0.538695  0.635730  0.250000  1
  Ge  Ge28  1  0.038292  0.863833  0.250000  1
  Ge  Ge29  1  0.692645  0.866828  0.750000  1
  Ge  Ge30  1  0.188233  0.630947  0.750000  1
  Ge  Ge31  1  0.309581  0.131409  0.250000  1
  Ge  Ge32  1  0.809532  0.368297  0.250000  1
  Mo  Mo33  1  0.329540  0.997613  0.750000  1
  Mo  Mo34  1  0.171588  0.496448  0.250000  1
  Mo  Mo35  1  0.671365  0.002834  0.250000  1
