# generated using pymatgen
data_CaGaCo2NiB
_symmetry_space_group_name_H-M   'P 1'
_cell_length_a   5.20805820
_cell_length_b   5.20805897
_cell_length_c   6.62498800
_cell_angle_alpha   90.00000000
_cell_angle_beta   90.00000000
_cell_angle_gamma   119.54975798
_symmetry_Int_Tables_number   1
_chemical_formula_structural   CaGaCo2NiB
_chemical_formula_sum   'Ca2 Ga2 Co4 Ni2 B2'
_cell_volume   156.32195972
_cell_formula_units_Z   2
loop_
 _symmetry_equiv_pos_site_id
 _symmetry_equiv_pos_as_xyz
  1  'x, y, z'
loop_
 _atom_site_type_symbol
 _atom_site_label
 _atom_site_symmetry_multiplicity
 _atom_site_fract_x
 _atom_site_fract_y
 _atom_site_fract_z
 _atom_site_occupancy
  Ca  Ca0  1  0.000000  0.000000  0.500000  1
  Ca  Ca1  1  0.000000  0.000000  0.000000  1
  Ga  Ga2  1  0.327726  0.672274  0.500000  1
  Ga  Ga3  1  0.672274  0.327726  0.500000  1
  Co  Co4  1  0.000000  0.500000  0.798544  1
  Co  Co5  1  0.500000  0.000000  0.798544  1
  Co  Co6  1  0.000000  0.500000  0.201456  1
  Co  Co7  1  0.500000  0.000000  0.201456  1
  Ni  Ni8  1  0.500000  0.500000  0.797119  1
  Ni  Ni9  1  0.500000  0.500000  0.202881  1
  B  B10  1  0.673188  0.326812  0.000000  1
  B  B11  1  0.326812  0.673188  0.000000  1
