# generated using pymatgen
data_SmEuPPt8
_symmetry_space_group_name_H-M   'P 1'
_cell_length_a   9.18487200
_cell_length_b   9.13758793
_cell_length_c   4.32001200
_cell_angle_alpha   90.00000000
_cell_angle_beta   90.00000000
_cell_angle_gamma   145.59235220
_symmetry_Int_Tables_number   1
_chemical_formula_structural   SmEuPPt8
_chemical_formula_sum   'Sm1 Eu1 P1 Pt8'
_cell_volume   204.87896174
_cell_formula_units_Z   1
loop_
 _symmetry_equiv_pos_site_id
 _symmetry_equiv_pos_as_xyz
  1  'x, y, z'
loop_
 _atom_site_type_symbol
 _atom_site_label
 _atom_site_symmetry_multiplicity
 _atom_site_fract_x
 _atom_site_fract_y
 _atom_site_fract_z
 _atom_site_occupancy
  Sm  Sm0  1  0.622542  0.372340  0.500000  1
  Eu  Eu1  1  0.373988  0.615259  0.500000  1
  P  P2  1  0.220677  0.224857  0.000000  1
  Pt  Pt3  1  0.113561  0.895029  0.000000  1
  Pt  Pt4  1  0.884938  0.106797  0.000000  1
  Pt  Pt5  1  0.488949  0.988286  0.000000  1
  Pt  Pt6  1  0.981206  0.490409  0.000000  1
  Pt  Pt7  1  0.194837  0.793429  0.500000  1
  Pt  Pt8  1  0.789517  0.194631  0.500000  1
  Pt  Pt9  1  0.007113  0.006577  0.500000  1
  Pt  Pt10  1  0.636269  0.625984  0.000000  1
