# generated using pymatgen
data_Er8Ga12TcAg3
_symmetry_space_group_name_H-M   'P 1'
_cell_length_a   6.97724100
_cell_length_b   8.97085051
_cell_length_c   8.97085100
_cell_angle_alpha   120.00000551
_cell_angle_beta   90.00000000
_cell_angle_gamma   90.00000000
_symmetry_Int_Tables_number   1
_chemical_formula_structural   Er8Ga12TcAg3
_chemical_formula_sum   'Er8 Ga12 Tc1 Ag3'
_cell_volume   486.27461040
_cell_formula_units_Z   1
loop_
 _symmetry_equiv_pos_site_id
 _symmetry_equiv_pos_as_xyz
  1  'x, y, z'
loop_
 _atom_site_type_symbol
 _atom_site_label
 _atom_site_symmetry_multiplicity
 _atom_site_fract_x
 _atom_site_fract_y
 _atom_site_fract_z
 _atom_site_occupancy
  Er  Er0  1  0.745665  0.000000  0.000000  1
  Er  Er1  1  0.251882  0.000000  0.000000  1
  Er  Er2  1  0.746377  0.491912  0.508088  1
  Er  Er3  1  0.259890  0.521675  0.478325  1
  Er  Er4  1  0.746377  0.016175  0.508088  1
  Er  Er5  1  0.259890  0.956651  0.478325  1
  Er  Er6  1  0.746377  0.491912  0.983825  1
  Er  Er7  1  0.259890  0.521675  0.043349  1
  Ga  Ga8  1  0.958246  0.837146  0.162854  1
  Ga  Ga9  1  0.045840  0.165343  0.834657  1
  Ga  Ga10  1  0.958246  0.325710  0.162854  1
  Ga  Ga11  1  0.460333  0.164156  0.835844  1
  Ga  Ga12  1  0.045840  0.669313  0.834657  1
  Ga  Ga13  1  0.539077  0.830915  0.169085  1
  Ga  Ga14  1  0.958246  0.837146  0.674290  1
  Ga  Ga15  1  0.460333  0.671687  0.835844  1
  Ga  Ga16  1  0.045840  0.165343  0.330687  1
  Ga  Ga17  1  0.539077  0.338172  0.169085  1
  Ga  Ga18  1  0.460333  0.164156  0.328313  1
  Ga  Ga19  1  0.539077  0.830915  0.661828  1
  Tc  Tc20  1  0.510425  0.666667  0.333333  1
  Ag  Ag21  1  0.960141  0.666667  0.333333  1
  Ag  Ag22  1  0.030661  0.333333  0.666667  1
  Ag  Ag23  1  0.471944  0.333333  0.666667  1
