# generated using pymatgen
data_Sm3Ho4Pa(Si3Pd)4
_symmetry_space_group_name_H-M   'P 1'
_cell_length_a   8.19955100
_cell_length_b   8.20681120
_cell_length_c   8.26888600
_cell_angle_alpha   90.00000000
_cell_angle_beta   90.00000000
_cell_angle_gamma   120.02929509
_symmetry_Int_Tables_number   1
_chemical_formula_structural   Sm3Ho4Pa(Si3Pd)4
_chemical_formula_sum   'Sm3 Ho4 Pa1 Si12 Pd4'
_cell_volume   481.74129094
_cell_formula_units_Z   1
loop_
 _symmetry_equiv_pos_site_id
 _symmetry_equiv_pos_as_xyz
  1  'x, y, z'
loop_
 _atom_site_type_symbol
 _atom_site_label
 _atom_site_symmetry_multiplicity
 _atom_site_fract_x
 _atom_site_fract_y
 _atom_site_fract_z
 _atom_site_occupancy
  Sm  Sm0  1  0.500198  0.499822  0.250000  1
  Sm  Sm1  1  0.500198  0.000376  0.250000  1
  Sm  Sm2  1  0.999989  0.999994  0.750000  1
  Ho  Ho3  1  0.499746  0.500259  0.750000  1
  Ho  Ho4  1  0.000515  0.500258  0.750000  1
  Ho  Ho5  1  0.999597  0.499799  0.250000  1
  Ho  Ho6  1  0.499746  0.999487  0.750000  1
  Pa  Pa7  1  0.000003  0.000001  0.250000  1
  Si  Si8  1  0.834805  0.165689  0.002415  1
  Si  Si9  1  0.165184  0.834351  0.002519  1
  Si  Si10  1  0.331354  0.165677  0.000527  1
  Si  Si11  1  0.165184  0.834351  0.497481  1
  Si  Si12  1  0.668686  0.834344  0.000658  1
  Si  Si13  1  0.834805  0.165689  0.497585  1
  Si  Si14  1  0.834805  0.669118  0.002415  1
  Si  Si15  1  0.668686  0.834344  0.499342  1
  Si  Si16  1  0.165184  0.330833  0.002519  1
  Si  Si17  1  0.331354  0.165677  0.499473  1
  Si  Si18  1  0.165184  0.330833  0.497481  1
  Si  Si19  1  0.834805  0.669118  0.497585  1
  Pd  Pd20  1  0.668330  0.334164  0.992269  1
  Pd  Pd21  1  0.331657  0.665828  0.993256  1
  Pd  Pd22  1  0.331657  0.665828  0.506744  1
  Pd  Pd23  1  0.668330  0.334164  0.507731  1
