# generated using pymatgen
data_Sc4TcSn3O
_symmetry_space_group_name_H-M   'P 1'
_cell_length_a   8.30396300
_cell_length_b   8.30396369
_cell_length_c   5.63099700
_cell_angle_alpha   90.00000000
_cell_angle_beta   90.00000000
_cell_angle_gamma   119.99999325
_symmetry_Int_Tables_number   1
_chemical_formula_structural   Sc4TcSn3O
_chemical_formula_sum   'Sc8 Tc2 Sn6 O2'
_cell_volume   336.26897828
_cell_formula_units_Z   2
loop_
 _symmetry_equiv_pos_site_id
 _symmetry_equiv_pos_as_xyz
  1  'x, y, z'
loop_
 _atom_site_type_symbol
 _atom_site_label
 _atom_site_symmetry_multiplicity
 _atom_site_fract_x
 _atom_site_fract_y
 _atom_site_fract_z
 _atom_site_occupancy
  Sc  Sc0  1  0.333333  0.666667  0.500000  1
  Sc  Sc1  1  0.666667  0.333333  0.500000  1
  Sc  Sc2  1  0.779038  0.779038  0.751234  1
  Sc  Sc3  1  0.220962  0.000000  0.751234  1
  Sc  Sc4  1  0.000000  0.220962  0.751234  1
  Sc  Sc5  1  0.220962  0.220962  0.248766  1
  Sc  Sc6  1  0.779038  0.000000  0.248766  1
  Sc  Sc7  1  0.000000  0.779038  0.248766  1
  Tc  Tc8  1  0.666667  0.333333  0.000000  1
  Tc  Tc9  1  0.333333  0.666667  0.000000  1
  Sn  Sn10  1  0.406012  0.406012  0.764121  1
  Sn  Sn11  1  0.593988  0.000000  0.764121  1
  Sn  Sn12  1  0.000000  0.593988  0.764121  1
  Sn  Sn13  1  0.593988  0.593988  0.235879  1
  Sn  Sn14  1  0.406012  0.000000  0.235879  1
  Sn  Sn15  1  0.000000  0.406012  0.235879  1
  O  O16  1  0.000000  0.000000  0.000000  1
  O  O17  1  0.000000  0.000000  0.500000  1
