# generated using pymatgen
data_LaTh5H8Br15
_symmetry_space_group_name_H-M   'P 1'
_cell_length_a   10.11592588
_cell_length_b   10.11592627
_cell_length_c   10.11592534
_cell_angle_alpha   109.63326621
_cell_angle_beta   109.63327000
_cell_angle_gamma   109.14761123
_symmetry_Int_Tables_number   1
_chemical_formula_structural   LaTh5H8Br15
_chemical_formula_sum   'La1 Th5 H8 Br15'
_cell_volume   796.86476846
_cell_formula_units_Z   1
loop_
 _symmetry_equiv_pos_site_id
 _symmetry_equiv_pos_as_xyz
  1  'x, y, z'
loop_
 _atom_site_type_symbol
 _atom_site_label
 _atom_site_symmetry_multiplicity
 _atom_site_fract_x
 _atom_site_fract_y
 _atom_site_fract_z
 _atom_site_occupancy
  La  La0  1  0.243053  0.243053  0.000000  1
  Th  Th1  1  0.762447  0.762447  0.000000  1
  Th  Th2  1  0.239511  0.001855  0.237656  1
  Th  Th3  1  0.001855  0.239511  0.237656  1
  Th  Th4  1  0.764199  0.001855  0.762344  1
  Th  Th5  1  0.001855  0.764199  0.762344  1
  H  H6  1  0.176932  0.996584  0.000000  1
  H  H7  1  0.822184  0.000277  0.000000  1
  H  H8  1  0.996584  0.176932  0.000000  1
  H  H9  1  0.000277  0.822184  0.000000  1
  H  H10  1  0.000277  0.000277  0.178093  1
  H  H11  1  0.176932  0.176932  0.180348  1
  H  H12  1  0.996584  0.996584  0.819653  1
  H  H13  1  0.822184  0.822184  0.821908  1
  Br  Br14  1  0.745695  0.251639  0.000000  1
  Br  Br15  1  0.510781  0.510781  0.000000  1
  Br  Br16  1  0.251639  0.745695  0.000000  1
  Br  Br17  1  0.748692  0.000886  0.252196  1
  Br  Br18  1  0.000886  0.748692  0.252196  1
  Br  Br19  1  0.508557  0.248933  0.259624  1
  Br  Br20  1  0.248933  0.508557  0.259624  1
  Br  Br21  1  0.745695  0.745695  0.494055  1
  Br  Br22  1  0.499594  0.999594  0.500000  1
  Br  Br23  1  0.999594  0.499594  0.500000  1
  Br  Br24  1  0.251639  0.251639  0.505945  1
  Br  Br25  1  0.248933  0.989308  0.740377  1
  Br  Br26  1  0.989308  0.248933  0.740377  1
  Br  Br27  1  0.748692  0.496495  0.747805  1
  Br  Br28  1  0.496495  0.748692  0.747805  1
