# generated using pymatgen
data_Tm2Mn3Co9P7
_symmetry_space_group_name_H-M   'P 1'
_cell_length_a   8.97324003
_cell_length_b   8.97377674
_cell_length_c   3.58653900
_cell_angle_alpha   90.00000000
_cell_angle_beta   90.00000000
_cell_angle_gamma   120.00403073
_symmetry_Int_Tables_number   1
_chemical_formula_structural   Tm2Mn3Co9P7
_chemical_formula_sum   'Tm2 Mn3 Co9 P7'
_cell_volume   250.09965598
_cell_formula_units_Z   1
loop_
 _symmetry_equiv_pos_site_id
 _symmetry_equiv_pos_as_xyz
  1  'x, y, z'
loop_
 _atom_site_type_symbol
 _atom_site_label
 _atom_site_symmetry_multiplicity
 _atom_site_fract_x
 _atom_site_fract_y
 _atom_site_fract_z
 _atom_site_occupancy
  Tm  Tm0  1  0.333254  0.666520  0.000000  1
  Tm  Tm1  1  0.666567  0.333282  0.499999  1
  Mn  Mn2  1  0.222885  0.099632  0.499999  1
  Mn  Mn3  1  0.900691  0.123650  0.499999  1
  Mn  Mn4  1  0.876901  0.776783  0.499999  1
  Co  Co5  1  0.433766  0.061629  0.000000  1
  Co  Co6  1  0.938367  0.372044  0.000000  1
  Co  Co7  1  0.627762  0.566172  0.000000  1
  Co  Co8  1  0.159040  0.277782  0.000000  1
  Co  Co9  1  0.722291  0.881339  0.000000  1
  Co  Co10  1  0.118815  0.841064  0.000000  1
  Co  Co11  1  0.384641  0.437165  0.499999  1
  Co  Co12  1  0.562896  0.947634  0.499999  1
  Co  Co13  1  0.052424  0.615317  0.499999  1
  P  P14  1  0.114260  0.404204  0.499999  1
  P  P15  1  0.595399  0.709933  0.499999  1
  P  P16  1  0.290058  0.885705  0.499999  1
  P  P17  1  0.410789  0.296496  0.000000  1
  P  P18  1  0.703567  0.114316  0.000000  1
  P  P19  1  0.885577  0.589077  0.000000  1
  P  P20  1  0.000049  0.000256  0.000000  1
