# generated using pymatgen
data_Hf16Co4RhW3
_symmetry_space_group_name_H-M   'P 1'
_cell_length_a   8.65570225
_cell_length_b   8.65570263
_cell_length_c   8.65570304
_cell_angle_alpha   59.98066905
_cell_angle_beta   59.98065885
_cell_angle_gamma   59.98066699
_symmetry_Int_Tables_number   1
_chemical_formula_structural   Hf16Co4RhW3
_chemical_formula_sum   'Hf16 Co4 Rh1 W3'
_cell_volume   458.35454108
_cell_formula_units_Z   1
loop_
 _symmetry_equiv_pos_site_id
 _symmetry_equiv_pos_as_xyz
  1  'x, y, z'
loop_
 _atom_site_type_symbol
 _atom_site_label
 _atom_site_symmetry_multiplicity
 _atom_site_fract_x
 _atom_site_fract_y
 _atom_site_fract_z
 _atom_site_occupancy
  Hf  Hf0  1  0.699541  0.099817  0.099817  1
  Hf  Hf1  1  0.099817  0.699541  0.099817  1
  Hf  Hf2  1  0.099817  0.099817  0.699541  1
  Hf  Hf3  1  0.100353  0.100353  0.100353  1
  Hf  Hf4  1  0.314219  0.314219  0.687319  1
  Hf  Hf5  1  0.685427  0.685427  0.314965  1
  Hf  Hf6  1  0.314219  0.687319  0.314219  1
  Hf  Hf7  1  0.685427  0.314965  0.685427  1
  Hf  Hf8  1  0.687319  0.314219  0.314219  1
  Hf  Hf9  1  0.314965  0.685427  0.685427  1
  Hf  Hf10  1  0.953843  0.953843  0.545627  1
  Hf  Hf11  1  0.549762  0.549762  0.949016  1
  Hf  Hf12  1  0.953843  0.545627  0.953843  1
  Hf  Hf13  1  0.549762  0.949016  0.549762  1
  Hf  Hf14  1  0.545627  0.953843  0.953843  1
  Hf  Hf15  1  0.949016  0.549762  0.549762  1
  Co  Co16  1  0.328814  0.889179  0.889179  1
  Co  Co17  1  0.889179  0.328814  0.889179  1
  Co  Co18  1  0.889179  0.889179  0.328814  1
  Co  Co19  1  0.890714  0.890714  0.890714  1
  Rh  Rh20  1  0.334072  0.334072  0.334072  1
  W  W21  1  0.002336  0.331373  0.331373  1
  W  W22  1  0.331373  0.002336  0.331373  1
  W  W23  1  0.331373  0.331373  0.002336  1
