# generated using pymatgen
data_Tb3Dy4ErAu4
_symmetry_space_group_name_H-M   'P 1'
_cell_length_a   4.94830000
_cell_length_b   7.16768644
_cell_length_c   8.96911549
_cell_angle_alpha   89.85120262
_cell_angle_beta   90.00000000
_cell_angle_gamma   90.00000000
_symmetry_Int_Tables_number   1
_chemical_formula_structural   Tb3Dy4ErAu4
_chemical_formula_sum   'Tb3 Dy4 Er1 Au4'
_cell_volume   318.11428464
_cell_formula_units_Z   1
loop_
 _symmetry_equiv_pos_site_id
 _symmetry_equiv_pos_as_xyz
  1  'x, y, z'
loop_
 _atom_site_type_symbol
 _atom_site_label
 _atom_site_symmetry_multiplicity
 _atom_site_fract_x
 _atom_site_fract_y
 _atom_site_fract_z
 _atom_site_occupancy
  Tb  Tb0  1  0.250000  0.985469  0.322988  1
  Tb  Tb1  1  0.750000  0.514293  0.823292  1
  Tb  Tb2  1  0.750000  0.014136  0.676659  1
  Dy  Dy3  1  0.250000  0.851585  0.920120  1
  Dy  Dy4  1  0.250000  0.352072  0.579863  1
  Dy  Dy5  1  0.750000  0.148526  0.080569  1
  Dy  Dy6  1  0.250000  0.485559  0.176498  1
  Er  Er7  1  0.750000  0.647698  0.419044  1
  Au  Au8  1  0.250000  0.256003  0.901024  1
  Au  Au9  1  0.250000  0.755418  0.599287  1
  Au  Au10  1  0.750000  0.743763  0.100606  1
  Au  Au11  1  0.750000  0.245480  0.400049  1
