# generated using pymatgen
data_La10Ga4(IrRu)3
_symmetry_space_group_name_H-M   'P 1'
_cell_length_a   8.66148411
_cell_length_b   8.67609673
_cell_length_c   8.66145400
_cell_angle_alpha   109.61753823
_cell_angle_beta   109.29985871
_cell_angle_gamma   109.42887622
_symmetry_Int_Tables_number   1
_chemical_formula_structural   La10Ga4(IrRu)3
_chemical_formula_sum   'La10 Ga4 Ir3 Ru3'
_cell_volume   501.46859483
_cell_formula_units_Z   1
loop_
 _symmetry_equiv_pos_site_id
 _symmetry_equiv_pos_as_xyz
  1  'x, y, z'
loop_
 _atom_site_type_symbol
 _atom_site_label
 _atom_site_symmetry_multiplicity
 _atom_site_fract_x
 _atom_site_fract_y
 _atom_site_fract_z
 _atom_site_occupancy
  La  La0  1  0.249914  0.688471  0.437907  1
  La  La1  1  0.749479  0.811586  0.061413  1
  La  La2  1  0.439522  0.249978  0.689528  1
  La  La3  1  0.690507  0.435546  0.248420  1
  La  La4  1  0.061544  0.750005  0.811576  1
  La  La5  1  0.812951  0.064450  0.755018  1
  La  La6  1  0.214253  0.215736  0.212706  1
  La  La7  1  0.501610  0.003653  0.287091  1
  La  La8  1  0.283440  0.496407  0.997967  1
  La  La9  1  0.996977  0.284297  0.498582  1
  Ga  Ga10  1  0.500481  0.001454  0.907249  1
  Ga  Ga11  1  0.596008  0.594088  0.594273  1
  Ga  Ga12  1  0.905773  0.498516  0.999036  1
  Ga  Ga13  1  0.000186  0.905943  0.501898  1
  Ir  Ir14  1  0.121078  0.871691  0.249647  1
  Ir  Ir15  1  0.626671  0.750031  0.376643  1
  Ir  Ir16  1  0.377946  0.628351  0.749376  1
  Ru  Ru17  1  0.249117  0.120442  0.869657  1
  Ru  Ru18  1  0.749219  0.379397  0.628646  1
  Ru  Ru19  1  0.873322  0.249959  0.123365  1
