# generated using pymatgen
data_Er5Lu5In8PtRh3
_symmetry_space_group_name_H-M   'P 1'
_cell_length_a   3.57652900
_cell_length_b   8.01197006
_cell_length_c   18.08146830
_cell_angle_alpha   89.96336247
_cell_angle_beta   90.00000000
_cell_angle_gamma   90.00000000
_symmetry_Int_Tables_number   1
_chemical_formula_structural   Er5Lu5In8PtRh3
_chemical_formula_sum   'Er5 Lu5 In8 Pt1 Rh3'
_cell_volume   518.12515083
_cell_formula_units_Z   1
loop_
 _symmetry_equiv_pos_site_id
 _symmetry_equiv_pos_as_xyz
  1  'x, y, z'
loop_
 _atom_site_type_symbol
 _atom_site_label
 _atom_site_symmetry_multiplicity
 _atom_site_fract_x
 _atom_site_fract_y
 _atom_site_fract_z
 _atom_site_occupancy
  Er  Er0  1  0.000000  0.755998  0.779338  1
  Er  Er1  1  0.000000  0.256197  0.720718  1
  Er  Er2  1  0.000000  0.747226  0.279730  1
  Er  Er3  1  0.000000  0.999727  0.000091  1
  Er  Er4  1  0.000000  0.500293  0.499985  1
  Lu  Lu5  1  0.000000  0.115779  0.412522  1
  Lu  Lu6  1  0.000000  0.883757  0.587645  1
  Lu  Lu7  1  0.000000  0.383949  0.912303  1
  Lu  Lu8  1  0.000000  0.616861  0.086316  1
  Lu  Lu9  1  0.000000  0.240962  0.221195  1
  In  In10  1  0.500000  0.421804  0.351621  1
  In  In11  1  0.500000  0.575218  0.649858  1
  In  In12  1  0.500000  0.075903  0.850145  1
  In  In13  1  0.500000  0.927336  0.149522  1
  In  In14  1  0.500000  0.292954  0.065831  1
  In  In15  1  0.500000  0.705324  0.933170  1
  In  In16  1  0.500000  0.205242  0.566506  1
  In  In17  1  0.500000  0.794886  0.433185  1
  Pt  Pt18  1  0.500000  0.522623  0.195791  1
  Rh  Rh19  1  0.500000  0.025890  0.304502  1
  Rh  Rh20  1  0.500000  0.976276  0.695133  1
  Rh  Rh21  1  0.500000  0.475793  0.804891  1
