# generated using pymatgen
data_Dy20Ir5Pt2Rh5
_symmetry_space_group_name_H-M   'P 1'
_cell_length_a   10.93477195
_cell_length_b   10.92948717
_cell_length_c   6.36301641
_cell_angle_alpha   90.01817146
_cell_angle_beta   89.96050092
_cell_angle_gamma   90.11685890
_symmetry_Int_Tables_number   1
_chemical_formula_structural   Dy20Ir5Pt2Rh5
_chemical_formula_sum   'Dy20 Ir5 Pt2 Rh5'
_cell_volume   760.45151546
_cell_formula_units_Z   1
loop_
 _symmetry_equiv_pos_site_id
 _symmetry_equiv_pos_as_xyz
  1  'x, y, z'
loop_
 _atom_site_type_symbol
 _atom_site_label
 _atom_site_symmetry_multiplicity
 _atom_site_fract_x
 _atom_site_fract_y
 _atom_site_fract_z
 _atom_site_occupancy
  Dy  Dy0  1  0.291336  0.089168  0.378020  1
  Dy  Dy1  1  0.291299  0.908921  0.879456  1
  Dy  Dy2  1  0.705933  0.090833  0.877100  1
  Dy  Dy3  1  0.705877  0.909115  0.376421  1
  Dy  Dy4  1  0.586299  0.790058  0.880649  1
  Dy  Dy5  1  0.586190  0.209728  0.380450  1
  Dy  Dy6  1  0.410075  0.790433  0.380124  1
  Dy  Dy7  1  0.411390  0.209857  0.879947  1
  Dy  Dy8  1  0.209972  0.411877  0.619660  1
  Dy  Dy9  1  0.209442  0.589761  0.119667  1
  Dy  Dy10  1  0.790030  0.413448  0.119428  1
  Dy  Dy11  1  0.790131  0.586779  0.619497  1
  Dy  Dy12  1  0.912150  0.707686  0.124584  1
  Dy  Dy13  1  0.910510  0.292901  0.623757  1
  Dy  Dy14  1  0.092125  0.707884  0.619911  1
  Dy  Dy15  1  0.091934  0.292796  0.121259  1
  Dy  Dy16  1  0.002601  0.999397  0.500416  1
  Dy  Dy17  1  0.002658  0.000375  0.999534  1
  Dy  Dy18  1  0.499709  0.499638  0.000140  1
  Dy  Dy19  1  0.499983  0.500239  0.499877  1
  Ir  Ir20  1  0.152861  0.846640  0.249898  1
  Ir  Ir21  1  0.655278  0.345021  0.749734  1
  Ir  Ir22  1  0.655416  0.654959  0.249647  1
  Ir  Ir23  1  0.345494  0.344924  0.250494  1
  Ir  Ir24  1  0.346050  0.654214  0.750139  1
  Pt  Pt25  1  0.846182  0.153715  0.249994  1
  Pt  Pt26  1  0.845487  0.846228  0.749978  1
  Rh  Rh27  1  0.152997  0.154059  0.750147  1
  Rh  Rh28  1  0.500758  0.999858  0.124455  1
  Rh  Rh29  1  0.500494  0.000552  0.624964  1
  Rh  Rh30  1  0.999689  0.499429  0.875029  1
  Rh  Rh31  1  0.999652  0.499508  0.375622  1
