# generated using pymatgen
data_TiCo6Re
_symmetry_space_group_name_H-M   'P 1'
_cell_length_a   4.08025000
_cell_length_b   5.08219771
_cell_length_c   5.08012200
_cell_angle_alpha   119.97929109
_cell_angle_beta   90.00000000
_cell_angle_gamma   90.00000000
_symmetry_Int_Tables_number   1
_chemical_formula_structural   TiCo6Re
_chemical_formula_sum   'Ti1 Co6 Re1'
_cell_volume   91.25017220
_cell_formula_units_Z   1
loop_
 _symmetry_equiv_pos_site_id
 _symmetry_equiv_pos_as_xyz
  1  'x, y, z'
loop_
 _atom_site_type_symbol
 _atom_site_label
 _atom_site_symmetry_multiplicity
 _atom_site_fract_x
 _atom_site_fract_y
 _atom_site_fract_z
 _atom_site_occupancy
  Ti  Ti0  1  0.250000  0.333447  0.666631  1
  Co  Co1  1  0.750000  0.159210  0.318430  1
  Co  Co2  1  0.750000  0.159150  0.840823  1
  Co  Co3  1  0.750000  0.681500  0.840759  1
  Co  Co4  1  0.250000  0.836571  0.673150  1
  Co  Co5  1  0.250000  0.836579  0.163370  1
  Co  Co6  1  0.250000  0.326899  0.163412  1
  Re  Re7  1  0.750000  0.666644  0.333426  1
