# generated using pymatgen
data_Dy5Si8P4Ir2Rh17
_symmetry_space_group_name_H-M   'P 1'
_cell_length_a   12.76671854
_cell_length_b   12.81154513
_cell_length_c   3.92111300
_cell_angle_alpha   90.00000000
_cell_angle_beta   90.00000000
_cell_angle_gamma   119.85096758
_symmetry_Int_Tables_number   1
_chemical_formula_structural   Dy5Si8P4Ir2Rh17
_chemical_formula_sum   'Dy5 Si8 P4 Ir2 Rh17'
_cell_volume   556.25128732
_cell_formula_units_Z   1
loop_
 _symmetry_equiv_pos_site_id
 _symmetry_equiv_pos_as_xyz
  1  'x, y, z'
loop_
 _atom_site_type_symbol
 _atom_site_label
 _atom_site_symmetry_multiplicity
 _atom_site_fract_x
 _atom_site_fract_y
 _atom_site_fract_z
 _atom_site_occupancy
  Dy  Dy0  1  0.332054  0.665262  0.500000  1
  Dy  Dy1  1  0.667585  0.333687  0.500000  1
  Dy  Dy2  1  0.000103  0.812776  0.000000  1
  Dy  Dy3  1  0.185699  0.186708  0.000000  1
  Dy  Dy4  1  0.813746  0.998496  0.000000  1
  Si  Si5  1  0.000726  0.631167  0.500000  1
  Si  Si6  1  0.369351  0.369333  0.500000  1
  Si  Si7  1  0.631355  0.999837  0.500000  1
  Si  Si8  1  0.520900  0.683797  0.000000  1
  Si  Si9  1  0.316336  0.836944  0.000000  1
  Si  Si10  1  0.161393  0.477824  0.000000  1
  Si  Si11  1  0.479343  0.165135  0.000000  1
  Si  Si12  1  0.685543  0.521063  0.000000  1
  P  P13  1  0.829027  0.311077  0.000000  1
  P  P14  1  0.998689  0.179567  0.500000  1
  P  P15  1  0.820967  0.819362  0.500000  1
  P  P16  1  0.178988  0.000747  0.500000  1
  Ir  Ir17  1  0.275927  0.000470  0.000000  1
  Ir  Ir18  1  0.998976  0.000399  0.500000  1
  Rh  Rh19  1  0.515269  0.872689  0.000000  1
  Rh  Rh20  1  0.128085  0.643418  0.000000  1
  Rh  Rh21  1  0.356814  0.485486  0.000000  1
  Rh  Rh22  1  0.486110  0.359506  0.000000  1
  Rh  Rh23  1  0.872164  0.508746  0.000000  1
  Rh  Rh24  1  0.641623  0.127007  0.000000  1
  Rh  Rh25  1  0.011177  0.453568  0.500000  1
  Rh  Rh26  1  0.553429  0.554239  0.500000  1
  Rh  Rh27  1  0.446333  0.999525  0.500000  1
  Rh  Rh28  1  0.995538  0.275974  0.000000  1
  Rh  Rh29  1  0.724386  0.723524  0.000000  1
  Rh  Rh30  1  0.628528  0.806873  0.500000  1
  Rh  Rh31  1  0.193815  0.820909  0.500000  1
  Rh  Rh32  1  0.177970  0.369554  0.500000  1
  Rh  Rh33  1  0.373668  0.180312  0.500000  1
  Rh  Rh34  1  0.807905  0.626945  0.500000  1
  Rh  Rh35  1  0.820480  0.198077  0.500000  1
