# generated using pymatgen
data_ErTm3Lu2(Sb4Au3)2
_symmetry_space_group_name_H-M   'P 1'
_cell_length_a   8.55093225
_cell_length_b   8.55079123
_cell_length_c   8.55098013
_cell_angle_alpha   109.43460201
_cell_angle_beta   109.46996951
_cell_angle_gamma   109.50991331
_symmetry_Int_Tables_number   1
_chemical_formula_structural   ErTm3Lu2(Sb4Au3)2
_chemical_formula_sum   'Er1 Tm3 Lu2 Sb8 Au6'
_cell_volume   481.29264339
_cell_formula_units_Z   1
loop_
 _symmetry_equiv_pos_site_id
 _symmetry_equiv_pos_as_xyz
  1  'x, y, z'
loop_
 _atom_site_type_symbol
 _atom_site_label
 _atom_site_symmetry_multiplicity
 _atom_site_fract_x
 _atom_site_fract_y
 _atom_site_fract_z
 _atom_site_occupancy
  Er  Er0  1  0.874925  0.249939  0.124903  1
  Tm  Tm1  1  0.749931  0.375083  0.624956  1
  Tm  Tm2  1  0.125190  0.875121  0.250087  1
  Tm  Tm3  1  0.375003  0.624966  0.750183  1
  Lu  Lu4  1  0.625062  0.749967  0.375020  1
  Lu  Lu5  1  0.249876  0.124959  0.874854  1
  Sb  Sb6  1  0.679498  0.499114  0.999733  1
  Sb  Sb7  1  0.500858  0.000990  0.680646  1
  Sb  Sb8  1  0.000255  0.680122  0.499694  1
  Sb  Sb9  1  0.819733  0.819919  0.820409  1
  Sb  Sb10  1  0.500320  0.000729  0.180323  1
  Sb  Sb11  1  0.179766  0.499390  0.999491  1
  Sb  Sb12  1  0.000140  0.179698  0.499299  1
  Sb  Sb13  1  0.319439  0.320032  0.320411  1
  Au  Au14  1  0.374574  0.249663  0.625500  1
  Au  Au15  1  0.125429  0.750929  0.875089  1
  Au  Au16  1  0.253197  0.627363  0.376091  1
  Au  Au17  1  0.748730  0.872631  0.125837  1
  Au  Au18  1  0.623068  0.376583  0.250320  1
  Au  Au19  1  0.875006  0.122804  0.747155  1
