# generated using pymatgen
data_Lu12Ni4SnAu
_symmetry_space_group_name_H-M   'P 1'
_cell_length_a   8.19274555
_cell_length_b   8.19274484
_cell_length_c   8.19274432
_cell_angle_alpha   112.36017158
_cell_angle_beta   109.43809914
_cell_angle_gamma   106.66551409
_symmetry_Int_Tables_number   1
_chemical_formula_structural   Lu12Ni4SnAu
_chemical_formula_sum   'Lu12 Ni4 Sn1 Au1'
_cell_volume   422.27144804
_cell_formula_units_Z   1
loop_
 _symmetry_equiv_pos_site_id
 _symmetry_equiv_pos_as_xyz
  1  'x, y, z'
loop_
 _atom_site_type_symbol
 _atom_site_label
 _atom_site_symmetry_multiplicity
 _atom_site_fract_x
 _atom_site_fract_y
 _atom_site_fract_z
 _atom_site_occupancy
  Lu  Lu0  1  0.674229  0.866148  0.191919  1
  Lu  Lu1  1  0.325771  0.517690  0.191919  1
  Lu  Lu2  1  0.819414  0.786716  0.606131  1
  Lu  Lu3  1  0.180586  0.786716  0.967302  1
  Lu  Lu4  1  0.819414  0.213284  0.032698  1
  Lu  Lu5  1  0.180586  0.213284  0.393869  1
  Lu  Lu6  1  0.674229  0.482310  0.808081  1
  Lu  Lu7  1  0.325771  0.133852  0.808081  1
  Lu  Lu8  1  0.571208  0.272091  0.299115  1
  Lu  Lu9  1  0.428792  0.727909  0.700885  1
  Lu  Lu10  1  0.027024  0.727909  0.299115  1
  Lu  Lu11  1  0.972976  0.272091  0.700885  1
  Ni  Ni12  1  0.351034  0.500000  0.851034  1
  Ni  Ni13  1  0.648966  0.500000  0.148966  1
  Ni  Ni14  1  0.875836  0.875836  0.000000  1
  Ni  Ni15  1  0.124164  0.124164  0.000000  1
  Sn  Sn16  1  0.500000  0.000000  0.500000  1
  Au  Au17  1  0.000000  0.500000  0.500000  1
