# generated using pymatgen
data_Y3HoMnRu7
_symmetry_space_group_name_H-M   'P 1'
_cell_length_a   5.35676018
_cell_length_b   5.25309899
_cell_length_c   8.91429104
_cell_angle_alpha   89.98940614
_cell_angle_beta   90.00194883
_cell_angle_gamma   120.62161444
_symmetry_Int_Tables_number   1
_chemical_formula_structural   Y3HoMnRu7
_chemical_formula_sum   'Y3 Ho1 Mn1 Ru7'
_cell_volume   215.86422105
_cell_formula_units_Z   1
loop_
 _symmetry_equiv_pos_site_id
 _symmetry_equiv_pos_as_xyz
  1  'x, y, z'
loop_
 _atom_site_type_symbol
 _atom_site_label
 _atom_site_symmetry_multiplicity
 _atom_site_fract_x
 _atom_site_fract_y
 _atom_site_fract_z
 _atom_site_occupancy
  Y  Y0  1  0.668073  0.336164  0.565220  1
  Y  Y1  1  0.330830  0.662211  0.432412  1
  Y  Y2  1  0.330812  0.662192  0.067156  1
  Ho  Ho3  1  0.668039  0.336095  0.935471  1
  Mn  Mn4  1  0.164757  0.329326  0.750466  1
  Ru  Ru5  1  0.999089  0.998814  0.501418  1
  Ru  Ru6  1  0.998875  0.998500  0.997990  1
  Ru  Ru7  1  0.177926  0.830470  0.750674  1
  Ru  Ru8  1  0.653201  0.830644  0.750689  1
  Ru  Ru9  1  0.835439  0.671233  0.249569  1
  Ru  Ru10  1  0.824730  0.171993  0.249463  1
  Ru  Ru11  1  0.348227  0.172356  0.249471  1
