# generated using pymatgen
data_Y20Hg6OsPd
_symmetry_space_group_name_H-M   'P 1'
_cell_length_a   9.72005400
_cell_length_b   9.72005427
_cell_length_c   9.66122300
_cell_angle_alpha   90.00000000
_cell_angle_beta   90.00000000
_cell_angle_gamma   119.99999909
_symmetry_Int_Tables_number   1
_chemical_formula_structural   Y20Hg6OsPd
_chemical_formula_sum   'Y20 Hg6 Os1 Pd1'
_cell_volume   790.49678799
_cell_formula_units_Z   1
loop_
 _symmetry_equiv_pos_site_id
 _symmetry_equiv_pos_as_xyz
  1  'x, y, z'
loop_
 _atom_site_type_symbol
 _atom_site_label
 _atom_site_symmetry_multiplicity
 _atom_site_fract_x
 _atom_site_fract_y
 _atom_site_fract_z
 _atom_site_occupancy
  Y  Y0  1  0.208834  0.791166  0.939505  1
  Y  Y1  1  0.208834  0.417669  0.939505  1
  Y  Y2  1  0.582331  0.791166  0.939505  1
  Y  Y3  1  0.793411  0.206589  0.059361  1
  Y  Y4  1  0.793411  0.586821  0.059361  1
  Y  Y5  1  0.413179  0.206589  0.059361  1
  Y  Y6  1  0.793411  0.206589  0.440639  1
  Y  Y7  1  0.793411  0.586821  0.440639  1
  Y  Y8  1  0.413179  0.206589  0.440639  1
  Y  Y9  1  0.208834  0.791166  0.560495  1
  Y  Y10  1  0.208834  0.417669  0.560495  1
  Y  Y11  1  0.582331  0.791166  0.560495  1
  Y  Y12  1  0.539745  0.460255  0.750000  1
  Y  Y13  1  0.539745  0.079490  0.750000  1
  Y  Y14  1  0.920510  0.460255  0.750000  1
  Y  Y15  1  0.457365  0.542635  0.250000  1
  Y  Y16  1  0.457365  0.914730  0.250000  1
  Y  Y17  1  0.085270  0.542635  0.250000  1
  Y  Y18  1  0.000000  0.000000  0.000382  1
  Y  Y19  1  0.000000  0.000000  0.499618  1
  Hg  Hg20  1  0.880175  0.119825  0.750000  1
  Hg  Hg21  1  0.880175  0.760350  0.750000  1
  Hg  Hg22  1  0.239650  0.119825  0.750000  1
  Hg  Hg23  1  0.119809  0.880191  0.250000  1
  Hg  Hg24  1  0.119809  0.239618  0.250000  1
  Hg  Hg25  1  0.760382  0.880191  0.250000  1
  Os  Os26  1  0.333333  0.666667  0.750000  1
  Pd  Pd27  1  0.666667  0.333333  0.250000  1
