# generated using pymatgen
data_Ti10BeSiAs4
_symmetry_space_group_name_H-M   'P 1'
_cell_length_a   4.98321029
_cell_length_b   7.45488061
_cell_length_c   7.45488227
_cell_angle_alpha   83.56711140
_cell_angle_beta   70.42800644
_cell_angle_gamma   70.42800431
_symmetry_Int_Tables_number   1
_chemical_formula_structural   Ti10BeSiAs4
_chemical_formula_sum   'Ti10 Be1 Si1 As4'
_cell_volume   245.86489669
_cell_formula_units_Z   1
loop_
 _symmetry_equiv_pos_site_id
 _symmetry_equiv_pos_as_xyz
  1  'x, y, z'
loop_
 _atom_site_type_symbol
 _atom_site_label
 _atom_site_symmetry_multiplicity
 _atom_site_fract_x
 _atom_site_fract_y
 _atom_site_fract_z
 _atom_site_occupancy
  Ti  Ti0  1  0.250000  0.500251  0.499749  1
  Ti  Ti1  1  0.750000  0.499815  0.500185  1
  Ti  Ti2  1  0.081169  0.137909  0.708829  1
  Ti  Ti3  1  0.926713  0.862119  0.291360  1
  Ti  Ti4  1  0.788980  0.291228  0.137776  1
  Ti  Ti5  1  0.418831  0.291171  0.862091  1
  Ti  Ti6  1  0.219159  0.708593  0.862074  1
  Ti  Ti7  1  0.573287  0.708640  0.137881  1
  Ti  Ti8  1  0.711020  0.862224  0.708772  1
  Ti  Ti9  1  0.280841  0.137926  0.291407  1
  Be  Be10  1  0.250000  0.000185  0.999815  1
  Si  Si11  1  0.750000  0.999864  0.000136  1
  As  As12  1  0.162158  0.500084  0.176273  1
  As  As13  1  0.837803  0.499980  0.823715  1
  As  As14  1  0.337842  0.823727  0.499916  1
  As  As15  1  0.662197  0.176285  0.500020  1
