# generated using pymatgen
data_Tb2Er2MnRu7
_symmetry_space_group_name_H-M   'P 1'
_cell_length_a   5.33647103
_cell_length_b   5.33529376
_cell_length_c   8.68089000
_cell_angle_alpha   89.99999920
_cell_angle_beta   89.99556275
_cell_angle_gamma   60.00728475
_symmetry_Int_Tables_number   1
_chemical_formula_structural   Tb2Er2MnRu7
_chemical_formula_sum   'Tb2 Er2 Mn1 Ru7'
_cell_volume   214.06183825
_cell_formula_units_Z   1
loop_
 _symmetry_equiv_pos_site_id
 _symmetry_equiv_pos_as_xyz
  1  'x, y, z'
loop_
 _atom_site_type_symbol
 _atom_site_label
 _atom_site_symmetry_multiplicity
 _atom_site_fract_x
 _atom_site_fract_y
 _atom_site_fract_z
 _atom_site_occupancy
  Tb  Tb0  1  0.333261  0.333370  0.565185  1
  Tb  Tb1  1  0.666739  0.666630  0.434815  1
  Er  Er2  1  0.666703  0.666649  0.067871  1
  Er  Er3  1  0.333297  0.333351  0.932129  1
  Mn  Mn4  1  0.000000  0.000000  0.000000  1
  Ru  Ru5  1  0.000000  0.000000  0.500000  1
  Ru  Ru6  1  0.828803  0.342376  0.754893  1
  Ru  Ru7  1  0.342464  0.828768  0.754848  1
  Ru  Ru8  1  0.828803  0.828822  0.754893  1
  Ru  Ru9  1  0.171197  0.657624  0.245107  1
  Ru  Ru10  1  0.657536  0.171232  0.245152  1
  Ru  Ru11  1  0.171197  0.171178  0.245107  1
