# generated using pymatgen
data_Hf4Mn3Cr(FeSi)2
_symmetry_space_group_name_H-M   'P 1'
_cell_length_a   4.96393521
_cell_length_b   4.96543083
_cell_length_c   8.03380700
_cell_angle_alpha   90.00000000
_cell_angle_beta   90.00000000
_cell_angle_gamma   120.00997101
_symmetry_Int_Tables_number   1
_chemical_formula_structural   Hf4Mn3Cr(FeSi)2
_chemical_formula_sum   'Hf4 Mn3 Cr1 Fe2 Si2'
_cell_volume   171.47129305
_cell_formula_units_Z   1
loop_
 _symmetry_equiv_pos_site_id
 _symmetry_equiv_pos_as_xyz
  1  'x, y, z'
loop_
 _atom_site_type_symbol
 _atom_site_label
 _atom_site_symmetry_multiplicity
 _atom_site_fract_x
 _atom_site_fract_y
 _atom_site_fract_z
 _atom_site_occupancy
  Hf  Hf0  1  0.332942  0.666471  0.433614  1
  Hf  Hf1  1  0.666090  0.333045  0.563058  1
  Hf  Hf2  1  0.666090  0.333045  0.936942  1
  Hf  Hf3  1  0.332942  0.666471  0.066386  1
  Mn  Mn4  1  0.341579  0.170790  0.250000  1
  Mn  Mn5  1  0.174608  0.830073  0.750000  1
  Mn  Mn6  1  0.174608  0.344535  0.750000  1
  Cr  Cr7  1  0.649079  0.824539  0.750000  1
  Fe  Fe8  1  0.828962  0.170561  0.250000  1
  Fe  Fe9  1  0.828962  0.658401  0.250000  1
  Si  Si10  1  0.002070  0.001036  0.497066  1
  Si  Si11  1  0.002070  0.001036  0.002934  1
