# generated using pymatgen
data_Sr2Li(P3Pd10)2
_symmetry_space_group_name_H-M   'P 1'
_cell_length_a   8.70458274
_cell_length_b   8.70458235
_cell_length_c   8.70458300
_cell_angle_alpha   60.00000132
_cell_angle_beta   60.00000283
_cell_angle_gamma   60.00000476
_symmetry_Int_Tables_number   1
_chemical_formula_structural   Sr2Li(P3Pd10)2
_chemical_formula_sum   'Sr2 Li1 P6 Pd20'
_cell_volume   466.36816608
_cell_formula_units_Z   1
loop_
 _symmetry_equiv_pos_site_id
 _symmetry_equiv_pos_as_xyz
  1  'x, y, z'
loop_
 _atom_site_type_symbol
 _atom_site_label
 _atom_site_symmetry_multiplicity
 _atom_site_fract_x
 _atom_site_fract_y
 _atom_site_fract_z
 _atom_site_occupancy
  Sr  Sr0  1  0.250000  0.250000  0.250000  1
  Sr  Sr1  1  0.750000  0.750000  0.750000  1
  Li  Li2  1  0.000000  0.000000  0.000000  1
  P  P3  1  0.738564  0.261436  0.261436  1
  P  P4  1  0.261436  0.738564  0.738564  1
  P  P5  1  0.261436  0.738564  0.261436  1
  P  P6  1  0.738564  0.261436  0.738564  1
  P  P7  1  0.261436  0.261436  0.738564  1
  P  P8  1  0.738564  0.738564  0.261436  1
  Pd  Pd9  1  0.387725  0.387725  0.387725  1
  Pd  Pd10  1  0.612275  0.612275  0.612275  1
  Pd  Pd11  1  0.387725  0.387725  0.836826  1
  Pd  Pd12  1  0.387725  0.836826  0.387725  1
  Pd  Pd13  1  0.612275  0.612275  0.163174  1
  Pd  Pd14  1  0.612275  0.163174  0.612275  1
  Pd  Pd15  1  0.836826  0.387725  0.387725  1
  Pd  Pd16  1  0.163174  0.612275  0.612275  1
  Pd  Pd17  1  0.342900  0.000000  0.000000  1
  Pd  Pd18  1  0.657100  0.000000  0.000000  1
  Pd  Pd19  1  0.000000  0.342900  0.657100  1
  Pd  Pd20  1  0.000000  0.657100  0.342900  1
  Pd  Pd21  1  0.000000  0.342900  0.000000  1
  Pd  Pd22  1  0.657100  0.000000  0.342900  1
  Pd  Pd23  1  0.000000  0.657100  0.000000  1
  Pd  Pd24  1  0.342900  0.000000  0.657100  1
  Pd  Pd25  1  0.000000  0.000000  0.342900  1
  Pd  Pd26  1  0.000000  0.000000  0.657100  1
  Pd  Pd27  1  0.657100  0.342900  0.000000  1
  Pd  Pd28  1  0.342900  0.657100  0.000000  1
