# generated using pymatgen
data_MgSc3Sn2(B2Rh5)2
_symmetry_space_group_name_H-M   'P 1'
_cell_length_a   9.42828600
_cell_length_b   9.42828600
_cell_length_c   3.16291200
_cell_angle_alpha   90.00000000
_cell_angle_beta   90.00000000
_cell_angle_gamma   89.99699796
_symmetry_Int_Tables_number   1
_chemical_formula_structural   MgSc3Sn2(B2Rh5)2
_chemical_formula_sum   'Mg1 Sc3 Sn2 B4 Rh10'
_cell_volume   281.15939799
_cell_formula_units_Z   1
loop_
 _symmetry_equiv_pos_site_id
 _symmetry_equiv_pos_as_xyz
  1  'x, y, z'
loop_
 _atom_site_type_symbol
 _atom_site_label
 _atom_site_symmetry_multiplicity
 _atom_site_fract_x
 _atom_site_fract_y
 _atom_site_fract_z
 _atom_site_occupancy
  Mg  Mg0  1  0.823751  0.676249  0.000000  1
  Sc  Sc1  1  0.674933  0.174210  0.000000  1
  Sc  Sc2  1  0.325790  0.825067  0.000000  1
  Sc  Sc3  1  0.172342  0.327658  0.000000  1
  Sn  Sn4  1  0.000030  0.998848  0.000000  1
  Sn  Sn5  1  0.501152  0.499970  0.000000  1
  B  B6  1  0.122789  0.620645  0.000000  1
  B  B7  1  0.879355  0.377211  0.000000  1
  B  B8  1  0.621754  0.878246  0.000000  1
  B  B9  1  0.378270  0.121730  0.000000  1
  Rh  Rh10  1  0.499271  0.000729  0.500000  1
  Rh  Rh11  1  0.999490  0.500510  0.500000  1
  Rh  Rh12  1  0.222204  0.072810  0.500000  1
  Rh  Rh13  1  0.775982  0.930229  0.500000  1
  Rh  Rh14  1  0.076172  0.777643  0.500000  1
  Rh  Rh15  1  0.722357  0.423828  0.500000  1
  Rh  Rh16  1  0.929212  0.221814  0.500000  1
  Rh  Rh17  1  0.278186  0.570788  0.500000  1
  Rh  Rh18  1  0.569771  0.724018  0.500000  1
  Rh  Rh19  1  0.427190  0.277796  0.500000  1
