# generated using pymatgen
data_Yb2Sc2ReB12Ir
_symmetry_space_group_name_H-M   'P 1'
_cell_length_a   3.52711600
_cell_length_b   9.02174087
_cell_length_c   11.41086369
_cell_angle_alpha   90.13036716
_cell_angle_beta   90.00000000
_cell_angle_gamma   90.00000000
_symmetry_Int_Tables_number   1
_chemical_formula_structural   Yb2Sc2ReB12Ir
_chemical_formula_sum   'Yb4 Sc4 Re2 B24 Ir2'
_cell_volume   363.10103376
_cell_formula_units_Z   2
loop_
 _symmetry_equiv_pos_site_id
 _symmetry_equiv_pos_as_xyz
  1  'x, y, z'
loop_
 _atom_site_type_symbol
 _atom_site_label
 _atom_site_symmetry_multiplicity
 _atom_site_fract_x
 _atom_site_fract_y
 _atom_site_fract_z
 _atom_site_occupancy
  Yb  Yb0  1  0.500000  0.321318  0.414362  1
  Yb  Yb1  1  0.500000  0.678682  0.585638  1
  Yb  Yb2  1  0.500000  0.176836  0.915431  1
  Yb  Yb3  1  0.500000  0.823164  0.084569  1
  Sc  Sc4  1  0.500000  0.442122  0.127685  1
  Sc  Sc5  1  0.500000  0.557878  0.872315  1
  Sc  Sc6  1  0.500000  0.052941  0.629423  1
  Sc  Sc7  1  0.500000  0.947059  0.370577  1
  Re  Re8  1  0.500000  0.141443  0.183235  1
  Re  Re9  1  0.500000  0.858557  0.816765  1
  B  B10  1  0.000000  0.095620  0.474767  1
  B  B11  1  0.000000  0.904380  0.525233  1
  B  B12  1  0.000000  0.404046  0.973824  1
  B  B13  1  0.000000  0.595954  0.026176  1
  B  B14  1  0.000000  0.130371  0.318859  1
  B  B15  1  0.000000  0.869629  0.681141  1
  B  B16  1  0.000000  0.369768  0.817058  1
  B  B17  1  0.000000  0.630232  0.182942  1
  B  B18  1  0.000000  0.053702  0.067260  1
  B  B19  1  0.000000  0.946298  0.932740  1
  B  B20  1  0.000000  0.444558  0.567064  1
  B  B21  1  0.000000  0.555442  0.432936  1
  B  B22  1  0.000000  0.482963  0.287097  1
  B  B23  1  0.000000  0.517037  0.712903  1
  B  B24  1  0.000000  0.019551  0.786070  1
  B  B25  1  0.000000  0.980449  0.213930  1
  B  B26  1  0.000000  0.254229  0.081189  1
  B  B27  1  0.000000  0.745771  0.918811  1
  B  B28  1  0.000000  0.246921  0.581788  1
  B  B29  1  0.000000  0.753079  0.418212  1
  B  B30  1  0.000000  0.297129  0.236541  1
  B  B31  1  0.000000  0.702871  0.763459  1
  B  B32  1  0.000000  0.205815  0.735536  1
  B  B33  1  0.000000  0.794185  0.264464  1
  Ir  Ir34  1  0.500000  0.358835  0.681435  1
  Ir  Ir35  1  0.500000  0.641165  0.318565  1
