# generated using pymatgen
data_Ba3AlSe4I
_symmetry_space_group_name_H-M   'P 1'
_cell_length_a   8.99869000
_cell_length_b   10.15365500
_cell_length_c   13.18890900
_cell_angle_alpha   90.00000000
_cell_angle_beta   90.00000000
_cell_angle_gamma   90.00000000
_symmetry_Int_Tables_number   1
_chemical_formula_structural   Ba3AlSe4I
_chemical_formula_sum   'Ba12 Al4 Se16 I4'
_cell_volume   1205.06525683
_cell_formula_units_Z   4
loop_
 _symmetry_equiv_pos_site_id
 _symmetry_equiv_pos_as_xyz
  1  'x, y, z'
loop_
 _atom_site_type_symbol
 _atom_site_label
 _atom_site_symmetry_multiplicity
 _atom_site_fract_x
 _atom_site_fract_y
 _atom_site_fract_z
 _atom_site_occupancy
  Ba  Ba0  1  0.422525  0.750000  0.471331  1
  Ba  Ba1  1  0.077475  0.750000  0.971331  1
  Ba  Ba2  1  0.577475  0.250000  0.528669  1
  Ba  Ba3  1  0.922525  0.250000  0.028669  1
  Ba  Ba4  1  0.909984  0.521233  0.341404  1
  Ba  Ba5  1  0.590016  0.978767  0.841404  1
  Ba  Ba6  1  0.090016  0.021233  0.658596  1
  Ba  Ba7  1  0.409984  0.478767  0.158596  1
  Ba  Ba8  1  0.090016  0.478767  0.658596  1
  Ba  Ba9  1  0.409984  0.021233  0.158596  1
  Ba  Ba10  1  0.909984  0.978767  0.341404  1
  Ba  Ba11  1  0.590016  0.521233  0.841404  1
  Al  Al12  1  0.689763  0.750000  0.106153  1
  Al  Al13  1  0.810237  0.750000  0.606153  1
  Al  Al14  1  0.310237  0.250000  0.893847  1
  Al  Al15  1  0.189763  0.250000  0.393847  1
  Se  Se16  1  0.813362  0.549174  0.070098  1
  Se  Se17  1  0.686638  0.950826  0.570098  1
  Se  Se18  1  0.186638  0.049174  0.929902  1
  Se  Se19  1  0.313362  0.450826  0.429902  1
  Se  Se20  1  0.186638  0.450826  0.929902  1
  Se  Se21  1  0.313362  0.049174  0.429902  1
  Se  Se22  1  0.813362  0.950826  0.070098  1
  Se  Se23  1  0.686638  0.549174  0.570098  1
  Se  Se24  1  0.644604  0.750000  0.284674  1
  Se  Se25  1  0.855396  0.750000  0.784674  1
  Se  Se26  1  0.355396  0.250000  0.715326  1
  Se  Se27  1  0.144604  0.250000  0.215326  1
  Se  Se28  1  0.464128  0.750000  0.007894  1
  Se  Se29  1  0.035872  0.750000  0.507894  1
  Se  Se30  1  0.535872  0.250000  0.992106  1
  Se  Se31  1  0.964128  0.250000  0.492106  1
  I  I32  1  0.169993  0.750000  0.231379  1
  I  I33  1  0.330007  0.750000  0.731379  1
  I  I34  1  0.830007  0.250000  0.768621  1
  I  I35  1  0.669993  0.250000  0.268621  1
