# generated using pymatgen
data_KZrAsS4
_symmetry_space_group_name_H-M   'P 1'
_cell_length_a   6.47159700
_cell_length_b   7.42564400
_cell_length_c   15.32881700
_cell_angle_alpha   90.00000000
_cell_angle_beta   90.00000000
_cell_angle_gamma   90.00000000
_symmetry_Int_Tables_number   1
_chemical_formula_structural   KZrAsS4
_chemical_formula_sum   'K4 Zr4 As4 S16'
_cell_volume   736.63818741
_cell_formula_units_Z   4
loop_
 _symmetry_equiv_pos_site_id
 _symmetry_equiv_pos_as_xyz
  1  'x, y, z'
loop_
 _atom_site_type_symbol
 _atom_site_label
 _atom_site_symmetry_multiplicity
 _atom_site_fract_x
 _atom_site_fract_y
 _atom_site_fract_z
 _atom_site_occupancy
  K  K0  1  0.369830  0.000000  0.000000  1
  K  K1  1  0.630170  0.500000  0.500000  1
  K  K2  1  0.023398  0.000000  0.500000  1
  K  K3  1  0.976602  0.500000  0.000000  1
  Zr  Zr4  1  0.500000  0.250000  0.250000  1
  Zr  Zr5  1  0.500000  0.750000  0.750000  1
  Zr  Zr6  1  0.500000  0.750000  0.250000  1
  Zr  Zr7  1  0.500000  0.250000  0.750000  1
  As  As8  1  0.021002  0.000000  0.232253  1
  As  As9  1  0.021002  0.000000  0.767747  1
  As  As10  1  0.978998  0.500000  0.267747  1
  As  As11  1  0.978998  0.500000  0.732253  1
  S  S12  1  0.824880  0.263721  0.346775  1
  S  S13  1  0.824880  0.736279  0.653225  1
  S  S14  1  0.175120  0.763721  0.153225  1
  S  S15  1  0.175120  0.236279  0.846775  1
  S  S16  1  0.175120  0.236279  0.153225  1
  S  S17  1  0.175120  0.763721  0.846775  1
  S  S18  1  0.824880  0.736279  0.346775  1
  S  S19  1  0.824880  0.263721  0.653225  1
  S  S20  1  0.682888  0.000000  0.157673  1
  S  S21  1  0.682888  0.000000  0.842327  1
  S  S22  1  0.317112  0.500000  0.342327  1
  S  S23  1  0.317112  0.500000  0.657673  1
  S  S24  1  0.347272  0.000000  0.343819  1
  S  S25  1  0.347272  0.000000  0.656181  1
  S  S26  1  0.652728  0.500000  0.156181  1
  S  S27  1  0.652728  0.500000  0.843819  1
