# generated using pymatgen
data_Tb6Al24ZnFe(CoRu2)2
_symmetry_space_group_name_H-M   'P 1'
_cell_length_a   8.79939043
_cell_length_b   8.79939070
_cell_length_c   9.46197300
_cell_angle_alpha   90.07932762
_cell_angle_beta   89.92067889
_cell_angle_gamma   119.99112315
_symmetry_Int_Tables_number   1
_chemical_formula_structural   Tb6Al24ZnFe(CoRu2)2
_chemical_formula_sum   'Tb6 Al24 Zn1 Fe1 Co2 Ru4'
_cell_volume   634.53533347
_cell_formula_units_Z   1
loop_
 _symmetry_equiv_pos_site_id
 _symmetry_equiv_pos_as_xyz
  1  'x, y, z'
loop_
 _atom_site_type_symbol
 _atom_site_label
 _atom_site_symmetry_multiplicity
 _atom_site_fract_x
 _atom_site_fract_y
 _atom_site_fract_z
 _atom_site_occupancy
  Tb  Tb0  1  0.384789  0.193517  0.254225  1
  Tb  Tb1  1  0.806564  0.193436  0.246480  1
  Tb  Tb2  1  0.806483  0.615211  0.254225  1
  Tb  Tb3  1  0.615211  0.806483  0.745775  1
  Tb  Tb4  1  0.193436  0.806564  0.753520  1
  Tb  Tb5  1  0.193517  0.384789  0.745775  1
  Al  Al6  1  0.438192  0.880178  0.255781  1
  Al  Al7  1  0.119822  0.561808  0.255781  1
  Al  Al8  1  0.434452  0.565548  0.245579  1
  Al  Al9  1  0.561808  0.119822  0.744219  1
  Al  Al10  1  0.880178  0.438192  0.744219  1
  Al  Al11  1  0.565548  0.434452  0.754421  1
  Al  Al12  1  0.163015  0.836985  0.423618  1
  Al  Al13  1  0.149447  0.324255  0.420517  1
  Al  Al14  1  0.675745  0.850553  0.420517  1
  Al  Al15  1  0.836985  0.163015  0.576382  1
  Al  Al16  1  0.850553  0.675745  0.579483  1
  Al  Al17  1  0.324255  0.149447  0.579483  1
  Al  Al18  1  0.840254  0.159746  0.922434  1
  Al  Al19  1  0.840978  0.680577  0.926689  1
  Al  Al20  1  0.319423  0.159022  0.926689  1
  Al  Al21  1  0.159746  0.840254  0.077566  1
  Al  Al22  1  0.159022  0.319423  0.073311  1
  Al  Al23  1  0.680577  0.840978  0.073311  1
  Al  Al24  1  0.325972  0.674028  0.521249  1
  Al  Al25  1  0.674028  0.325972  0.478751  1
  Al  Al26  1  0.666305  0.333695  0.014251  1
  Al  Al27  1  0.333695  0.666305  0.985749  1
  Al  Al28  1  0.000319  0.999681  0.243361  1
  Al  Al29  1  0.999681  0.000319  0.756639  1
  Zn  Zn30  1  0.500000  0.500000  0.500000  1
  Fe  Fe31  1  0.000000  0.000000  0.000000  1
  Co  Co32  1  0.500000  0.000000  0.500000  1
  Co  Co33  1  0.000000  0.500000  0.500000  1
  Ru  Ru34  1  0.000000  0.000000  0.500000  1
  Ru  Ru35  1  0.500000  0.000000  0.000000  1
  Ru  Ru36  1  0.000000  0.500000  0.000000  1
  Ru  Ru37  1  0.500000  0.500000  0.000000  1
