# generated using pymatgen
data_Mn5Nb4Cr2Si
_symmetry_space_group_name_H-M   'P 1'
_cell_length_a   4.86413204
_cell_length_b   4.81551857
_cell_length_c   7.98477944
_cell_angle_alpha   89.99999974
_cell_angle_beta   90.16930558
_cell_angle_gamma   119.66996451
_symmetry_Int_Tables_number   1
_chemical_formula_structural   Mn5Nb4Cr2Si
_chemical_formula_sum   'Mn5 Nb4 Cr2 Si1'
_cell_volume   162.50779251
_cell_formula_units_Z   1
loop_
 _symmetry_equiv_pos_site_id
 _symmetry_equiv_pos_as_xyz
  1  'x, y, z'
loop_
 _atom_site_type_symbol
 _atom_site_label
 _atom_site_symmetry_multiplicity
 _atom_site_fract_x
 _atom_site_fract_y
 _atom_site_fract_z
 _atom_site_occupancy
  Mn  Mn0  1  0.340224  0.169841  0.251065  1
  Mn  Mn1  1  0.659776  0.829616  0.748935  1
  Mn  Mn2  1  0.000000  0.994904  0.500000  1
  Mn  Mn3  1  0.832031  0.660855  0.251487  1
  Mn  Mn4  1  0.167969  0.828823  0.748513  1
  Nb  Nb5  1  0.334055  0.668251  0.441361  1
  Nb  Nb6  1  0.666251  0.332770  0.932444  1
  Nb  Nb7  1  0.665945  0.334195  0.558639  1
  Nb  Nb8  1  0.333749  0.666520  0.067556  1
  Cr  Cr9  1  0.171529  0.344596  0.746825  1
  Cr  Cr10  1  0.828471  0.173068  0.253175  1
  Si  Si11  1  0.000000  0.996562  0.000000  1
