# generated using pymatgen
data_Ho8Lu11ScPb16
_symmetry_space_group_name_H-M   'P 1'
_cell_length_a   8.08443019
_cell_length_b   15.39939300
_cell_length_c   8.16991519
_cell_angle_alpha   90.00000000
_cell_angle_beta   90.02503434
_cell_angle_gamma   90.00000000
_symmetry_Int_Tables_number   1
_chemical_formula_structural   Ho8Lu11ScPb16
_chemical_formula_sum   'Ho8 Lu11 Sc1 Pb16'
_cell_volume   1017.11609087
_cell_formula_units_Z   1
loop_
 _symmetry_equiv_pos_site_id
 _symmetry_equiv_pos_as_xyz
  1  'x, y, z'
loop_
 _atom_site_type_symbol
 _atom_site_label
 _atom_site_symmetry_multiplicity
 _atom_site_fract_x
 _atom_site_fract_y
 _atom_site_fract_z
 _atom_site_occupancy
  Ho  Ho0  1  0.470539  0.596211  0.677030  1
  Ho  Ho1  1  0.970642  0.903857  0.822914  1
  Ho  Ho2  1  0.529717  0.096427  0.322514  1
  Ho  Ho3  1  0.029092  0.403638  0.176771  1
  Ho  Ho4  1  0.529717  0.403573  0.322514  1
  Ho  Ho5  1  0.029092  0.096362  0.176771  1
  Ho  Ho6  1  0.470539  0.903789  0.677030  1
  Ho  Ho7  1  0.970642  0.596143  0.822914  1
  Lu  Lu8  1  0.631934  0.623262  0.155754  1
  Lu  Lu9  1  0.131974  0.876690  0.344378  1
  Lu  Lu10  1  0.368758  0.123661  0.844746  1
  Lu  Lu11  1  0.867819  0.376452  0.656016  1
  Lu  Lu12  1  0.368758  0.376339  0.844746  1
  Lu  Lu13  1  0.867819  0.123548  0.656016  1
  Lu  Lu14  1  0.631934  0.876738  0.155754  1
  Lu  Lu15  1  0.131974  0.623310  0.344378  1
  Lu  Lu16  1  0.798611  0.750000  0.494964  1
  Lu  Lu17  1  0.298623  0.750000  0.004978  1
  Lu  Lu18  1  0.201289  0.250000  0.505137  1
  Sc  Sc19  1  0.701391  0.250000  0.994448  1
  Pb  Pb20  1  0.708712  0.456024  0.959416  1
  Pb  Pb21  1  0.208663  0.042955  0.540931  1
  Pb  Pb22  1  0.291482  0.957151  0.040871  1
  Pb  Pb23  1  0.791378  0.542853  0.459128  1
  Pb  Pb24  1  0.291482  0.542849  0.040871  1
  Pb  Pb25  1  0.791378  0.957147  0.459128  1
  Pb  Pb26  1  0.708712  0.043976  0.959416  1
  Pb  Pb27  1  0.208663  0.457045  0.540931  1
  Pb  Pb28  1  0.437928  0.750000  0.372271  1
  Pb  Pb29  1  0.937992  0.750000  0.127677  1
  Pb  Pb30  1  0.563167  0.250000  0.629664  1
  Pb  Pb31  1  0.059180  0.250000  0.874029  1
  Pb  Pb32  1  0.657795  0.750000  0.843320  1
  Pb  Pb33  1  0.157768  0.750000  0.656855  1
  Pb  Pb34  1  0.344179  0.250000  0.155546  1
  Pb  Pb35  1  0.840657  0.250000  0.340172  1
