# generated using pymatgen
data_Nd2Sc3Nb3(Co4P3)4
_symmetry_space_group_name_H-M   'P 1'
_cell_length_a   12.15444800
_cell_length_b   12.15444686
_cell_length_c   3.66349900
_cell_angle_alpha   90.00000000
_cell_angle_beta   90.00000000
_cell_angle_gamma   119.99999765
_symmetry_Int_Tables_number   1
_chemical_formula_structural   Nd2Sc3Nb3(Co4P3)4
_chemical_formula_sum   'Nd2 Sc3 Nb3 Co16 P12'
_cell_volume   468.70237966
_cell_formula_units_Z   1
loop_
 _symmetry_equiv_pos_site_id
 _symmetry_equiv_pos_as_xyz
  1  'x, y, z'
loop_
 _atom_site_type_symbol
 _atom_site_label
 _atom_site_symmetry_multiplicity
 _atom_site_fract_x
 _atom_site_fract_y
 _atom_site_fract_z
 _atom_site_occupancy
  Nd  Nd0  1  0.333333  0.666667  0.000000  1
  Nd  Nd1  1  0.666667  0.333333  0.000000  1
  Sc  Sc2  1  0.817520  0.000000  0.500000  1
  Sc  Sc3  1  0.000000  0.817520  0.500000  1
  Sc  Sc4  1  0.182480  0.182480  0.500000  1
  Nb  Nb5  1  0.445073  0.000000  0.000000  1
  Nb  Nb6  1  0.000000  0.445073  0.000000  1
  Nb  Nb7  1  0.554927  0.554927  0.000000  1
  Co  Co8  1  0.272967  0.000000  0.500000  1
  Co  Co9  1  0.000000  0.272967  0.500000  1
  Co  Co10  1  0.727033  0.727033  0.500000  1
  Co  Co11  1  0.633704  0.808491  0.000000  1
  Co  Co12  1  0.191509  0.825213  0.000000  1
  Co  Co13  1  0.174787  0.366296  0.000000  1
  Co  Co14  1  0.366296  0.174787  0.000000  1
  Co  Co15  1  0.808491  0.633704  0.000000  1
  Co  Co16  1  0.825213  0.191509  0.000000  1
  Co  Co17  1  0.524438  0.876716  0.500000  1
  Co  Co18  1  0.123284  0.647722  0.500000  1
  Co  Co19  1  0.352278  0.475562  0.500000  1
  Co  Co20  1  0.475562  0.352278  0.500000  1
  Co  Co21  1  0.876716  0.524438  0.500000  1
  Co  Co22  1  0.647722  0.123284  0.500000  1
  Co  Co23  1  0.000000  0.000000  0.000000  1
  P  P24  1  0.172680  0.000000  0.000000  1
  P  P25  1  0.000000  0.172680  0.000000  1
  P  P26  1  0.827320  0.827320  0.000000  1
  P  P27  1  0.527173  0.692017  0.500000  1
  P  P28  1  0.307983  0.835155  0.500000  1
  P  P29  1  0.164845  0.472827  0.500000  1
  P  P30  1  0.472827  0.164845  0.500000  1
  P  P31  1  0.692017  0.527173  0.500000  1
  P  P32  1  0.835155  0.307983  0.500000  1
  P  P33  1  0.648276  0.000000  0.000000  1
  P  P34  1  0.000000  0.648276  0.000000  1
  P  P35  1  0.351724  0.351724  0.000000  1
