# generated using pymatgen
data_Tb5HfNpO12
_symmetry_space_group_name_H-M   'P 1'
_cell_length_a   6.71837080
_cell_length_b   6.55660040
_cell_length_c   6.41024108
_cell_angle_alpha   99.18864358
_cell_angle_beta   98.63858852
_cell_angle_gamma   99.93928439
_symmetry_Int_Tables_number   1
_chemical_formula_structural   Tb5HfNpO12
_chemical_formula_sum   'Tb5 Hf1 Np1 O12'
_cell_volume   269.93473981
_cell_formula_units_Z   1
loop_
 _symmetry_equiv_pos_site_id
 _symmetry_equiv_pos_as_xyz
  1  'x, y, z'
loop_
 _atom_site_type_symbol
 _atom_site_label
 _atom_site_symmetry_multiplicity
 _atom_site_fract_x
 _atom_site_fract_y
 _atom_site_fract_z
 _atom_site_occupancy
  Tb  Tb0  1  0.857046  0.683303  0.386414  1
  Tb  Tb1  1  0.392231  0.865135  0.697863  1
  Tb  Tb2  1  0.329660  0.605551  0.155100  1
  Tb  Tb3  1  0.139363  0.313158  0.611528  1
  Tb  Tb4  1  0.607957  0.135052  0.307863  1
  Hf  Hf5  1  0.661127  0.393764  0.847361  1
  Np  Np6  1  0.997003  0.997551  0.993845  1
  O  O7  1  0.431677  0.188426  0.591820  1
  O  O8  1  0.592983  0.426862  0.168430  1
  O  O9  1  0.171706  0.590887  0.436614  1
  O  O10  1  0.577164  0.820577  0.425692  1
  O  O11  1  0.434503  0.566082  0.818963  1
  O  O12  1  0.814811  0.408725  0.590597  1
  O  O13  1  0.109224  0.309298  0.961763  1
  O  O14  1  0.688438  0.091629  0.919684  1
  O  O15  1  0.053950  0.933643  0.684635  1
  O  O16  1  0.885260  0.672283  0.022663  1
  O  O17  1  0.311978  0.930234  0.071204  1
  O  O18  1  0.943919  0.067842  0.307960  1
