# generated using pymatgen
data_Ba(In3Pd2)2
_symmetry_space_group_name_H-M   'P 1'
_cell_length_a   7.97124700
_cell_length_b   7.97124504
_cell_length_c   4.48981600
_cell_angle_alpha   90.00000000
_cell_angle_beta   90.00000000
_cell_angle_gamma   119.99999570
_symmetry_Int_Tables_number   1
_chemical_formula_structural   Ba(In3Pd2)2
_chemical_formula_sum   'Ba1 In6 Pd4'
_cell_volume   247.06522393
_cell_formula_units_Z   1
loop_
 _symmetry_equiv_pos_site_id
 _symmetry_equiv_pos_as_xyz
  1  'x, y, z'
loop_
 _atom_site_type_symbol
 _atom_site_label
 _atom_site_symmetry_multiplicity
 _atom_site_fract_x
 _atom_site_fract_y
 _atom_site_fract_z
 _atom_site_occupancy
  Ba  Ba0  1  0.000000  0.000000  0.000000  1
  In  In1  1  0.534530  0.465470  0.000000  1
  In  In2  1  0.197890  0.802110  0.500000  1
  In  In3  1  0.534530  0.069058  0.000000  1
  In  In4  1  0.197890  0.395779  0.500000  1
  In  In5  1  0.930942  0.465470  0.000000  1
  In  In6  1  0.604221  0.802110  0.500000  1
  Pd  Pd7  1  0.789664  0.210336  0.500000  1
  Pd  Pd8  1  0.333333  0.666667  0.000000  1
  Pd  Pd9  1  0.789664  0.579329  0.500000  1
  Pd  Pd10  1  0.420671  0.210336  0.500000  1
