# generated using pymatgen
data_CeTcF7
_symmetry_space_group_name_H-M   'P 1'
_cell_length_a   5.72127300
_cell_length_b   9.24849904
_cell_length_c   12.40496100
_cell_angle_alpha   62.10899645
_cell_angle_beta   90.00000000
_cell_angle_gamma   90.00000000
_symmetry_Int_Tables_number   1
_chemical_formula_structural   CeTcF7
_chemical_formula_sum   'Ce4 Tc4 F28'
_cell_volume   580.13963464
_cell_formula_units_Z   4
loop_
 _symmetry_equiv_pos_site_id
 _symmetry_equiv_pos_as_xyz
  1  'x, y, z'
loop_
 _atom_site_type_symbol
 _atom_site_label
 _atom_site_symmetry_multiplicity
 _atom_site_fract_x
 _atom_site_fract_y
 _atom_site_fract_z
 _atom_site_occupancy
  Ce  Ce0  1  0.758250  0.808920  0.764209  1
  Ce  Ce1  1  0.258250  0.191080  0.735791  1
  Ce  Ce2  1  0.241750  0.191080  0.235791  1
  Ce  Ce3  1  0.741750  0.808920  0.264209  1
  Tc  Tc4  1  0.756457  0.273145  0.958186  1
  Tc  Tc5  1  0.256457  0.726855  0.541814  1
  Tc  Tc6  1  0.243543  0.726855  0.041814  1
  Tc  Tc7  1  0.743543  0.273145  0.458186  1
  F  F8  1  0.444625  0.709295  0.919491  1
  F  F9  1  0.944625  0.290705  0.580509  1
  F  F10  1  0.555375  0.290705  0.080509  1
  F  F11  1  0.055375  0.709295  0.419491  1
  F  F12  1  0.458403  0.280503  0.546485  1
  F  F13  1  0.958403  0.719497  0.953515  1
  F  F14  1  0.541597  0.719497  0.453515  1
  F  F15  1  0.041597  0.280503  0.046485  1
  F  F16  1  0.766791  0.513941  0.861610  1
  F  F17  1  0.266791  0.486059  0.638390  1
  F  F18  1  0.233209  0.486059  0.138390  1
  F  F19  1  0.733209  0.513941  0.361610  1
  F  F20  1  0.758251  0.033050  0.052766  1
  F  F21  1  0.258251  0.966950  0.447234  1
  F  F22  1  0.241749  0.966950  0.947234  1
  F  F23  1  0.741749  0.033050  0.552766  1
  F  F24  1  0.980226  0.730745  0.636883  1
  F  F25  1  0.480226  0.269255  0.863117  1
  F  F26  1  0.019774  0.269255  0.363117  1
  F  F27  1  0.519774  0.730745  0.136883  1
  F  F28  1  0.046784  0.744412  0.167183  1
  F  F29  1  0.546784  0.255588  0.332817  1
  F  F30  1  0.953216  0.255588  0.832817  1
  F  F31  1  0.453216  0.744412  0.667183  1
  F  F32  1  0.413837  0.972382  0.230335  1
  F  F33  1  0.913837  0.027618  0.269665  1
  F  F34  1  0.586163  0.027618  0.769665  1
  F  F35  1  0.086163  0.972382  0.730335  1
