# generated using pymatgen
data_Th6Cd23Pd
_symmetry_space_group_name_H-M   'P 1'
_cell_length_a   10.08968566
_cell_length_b   10.08968658
_cell_length_c   10.08968600
_cell_angle_alpha   60.00000191
_cell_angle_beta   59.99999889
_cell_angle_gamma   60.00000418
_symmetry_Int_Tables_number   1
_chemical_formula_structural   Th6Cd23Pd
_chemical_formula_sum   'Th6 Cd23 Pd1'
_cell_volume   726.30323983
_cell_formula_units_Z   1
loop_
 _symmetry_equiv_pos_site_id
 _symmetry_equiv_pos_as_xyz
  1  'x, y, z'
loop_
 _atom_site_type_symbol
 _atom_site_label
 _atom_site_symmetry_multiplicity
 _atom_site_fract_x
 _atom_site_fract_y
 _atom_site_fract_z
 _atom_site_occupancy
  Th  Th0  1  0.796311  0.796311  0.203689  1
  Th  Th1  1  0.203689  0.796311  0.203689  1
  Th  Th2  1  0.796311  0.203689  0.203689  1
  Th  Th3  1  0.203689  0.203689  0.796311  1
  Th  Th4  1  0.796311  0.203689  0.796311  1
  Th  Th5  1  0.203689  0.796311  0.796311  1
  Cd  Cd6  1  0.833802  0.833802  0.498593  1
  Cd  Cd7  1  0.833802  0.498593  0.833802  1
  Cd  Cd8  1  0.498593  0.833802  0.833802  1
  Cd  Cd9  1  0.833802  0.833802  0.833802  1
  Cd  Cd10  1  0.166198  0.166198  0.501407  1
  Cd  Cd11  1  0.166198  0.501407  0.166198  1
  Cd  Cd12  1  0.501407  0.166198  0.166198  1
  Cd  Cd13  1  0.166198  0.166198  0.166198  1
  Cd  Cd14  1  0.621141  0.621141  0.136577  1
  Cd  Cd15  1  0.621141  0.136577  0.621141  1
  Cd  Cd16  1  0.136577  0.621141  0.621141  1
  Cd  Cd17  1  0.621141  0.621141  0.621141  1
  Cd  Cd18  1  0.378859  0.378859  0.863423  1
  Cd  Cd19  1  0.378859  0.863423  0.378859  1
  Cd  Cd20  1  0.863423  0.378859  0.378859  1
  Cd  Cd21  1  0.378859  0.378859  0.378859  1
  Cd  Cd22  1  0.000000  0.000000  0.500000  1
  Cd  Cd23  1  0.500000  0.000000  0.500000  1
  Cd  Cd24  1  0.000000  0.500000  0.500000  1
  Cd  Cd25  1  0.500000  0.500000  0.000000  1
  Cd  Cd26  1  0.000000  0.500000  0.000000  1
  Cd  Cd27  1  0.500000  0.000000  0.000000  1
  Cd  Cd28  1  0.500000  0.500000  0.500000  1
  Pd  Pd29  1  0.000000  0.000000  0.000000  1
