# generated using pymatgen
data_Ba5Tc2I2O9
_symmetry_space_group_name_H-M   'P 1'
_cell_length_a   5.98271600
_cell_length_b   5.98271597
_cell_length_c   27.03095100
_cell_angle_alpha   90.00000000
_cell_angle_beta   90.00000000
_cell_angle_gamma   120.00000019
_symmetry_Int_Tables_number   1
_chemical_formula_structural   Ba5Tc2I2O9
_chemical_formula_sum   'Ba10 Tc4 I4 O18'
_cell_volume   837.89332047
_cell_formula_units_Z   2
loop_
 _symmetry_equiv_pos_site_id
 _symmetry_equiv_pos_as_xyz
  1  'x, y, z'
loop_
 _atom_site_type_symbol
 _atom_site_label
 _atom_site_symmetry_multiplicity
 _atom_site_fract_x
 _atom_site_fract_y
 _atom_site_fract_z
 _atom_site_occupancy
  Ba  Ba0  1  0.333333  0.666667  0.905134  1
  Ba  Ba1  1  0.666667  0.333333  0.405134  1
  Ba  Ba2  1  0.666667  0.333333  0.094866  1
  Ba  Ba3  1  0.333333  0.666667  0.176836  1
  Ba  Ba4  1  0.666667  0.333333  0.676836  1
  Ba  Ba5  1  0.333333  0.666667  0.323164  1
  Ba  Ba6  1  0.666667  0.333333  0.823164  1
  Ba  Ba7  1  0.666667  0.333333  0.250000  1
  Ba  Ba8  1  0.333333  0.666667  0.594866  1
  Ba  Ba9  1  0.333333  0.666667  0.750000  1
  Tc  Tc10  1  0.000000  0.000000  0.801604  1
  Tc  Tc11  1  0.000000  0.000000  0.301604  1
  Tc  Tc12  1  0.000000  0.000000  0.698396  1
  Tc  Tc13  1  0.000000  0.000000  0.198396  1
  I  I14  1  0.333333  0.666667  0.454148  1
  I  I15  1  0.333333  0.666667  0.045852  1
  I  I16  1  0.666667  0.333333  0.545852  1
  I  I17  1  0.666667  0.333333  0.954148  1
  O  O18  1  0.158814  0.841186  0.663096  1
  O  O19  1  0.682373  0.841186  0.836904  1
  O  O20  1  0.158814  0.317627  0.663096  1
  O  O21  1  0.847158  0.152842  0.750000  1
  O  O22  1  0.305686  0.152842  0.750000  1
  O  O23  1  0.152842  0.305686  0.250000  1
  O  O24  1  0.152842  0.847158  0.250000  1
  O  O25  1  0.694314  0.847158  0.250000  1
  O  O26  1  0.841186  0.158814  0.336904  1
  O  O27  1  0.317627  0.158814  0.163096  1
  O  O28  1  0.847158  0.694314  0.750000  1
  O  O29  1  0.841186  0.682373  0.163096  1
  O  O30  1  0.317627  0.158814  0.336904  1
  O  O31  1  0.841186  0.158814  0.163096  1
  O  O32  1  0.158814  0.317627  0.836904  1
  O  O33  1  0.841186  0.682373  0.336904  1
  O  O34  1  0.682373  0.841186  0.663096  1
  O  O35  1  0.158814  0.841186  0.836904  1
