# generated using pymatgen
data_TbTmAlZnPt2
_symmetry_space_group_name_H-M   'P 1'
_cell_length_a   4.34020300
_cell_length_b   6.81067400
_cell_length_c   7.91780600
_cell_angle_alpha   90.00000000
_cell_angle_beta   90.00000000
_cell_angle_gamma   90.00000000
_symmetry_Int_Tables_number   1
_chemical_formula_structural   TbTmAlZnPt2
_chemical_formula_sum   'Tb2 Tm2 Al2 Zn2 Pt4'
_cell_volume   234.04803120
_cell_formula_units_Z   2
loop_
 _symmetry_equiv_pos_site_id
 _symmetry_equiv_pos_as_xyz
  1  'x, y, z'
loop_
 _atom_site_type_symbol
 _atom_site_label
 _atom_site_symmetry_multiplicity
 _atom_site_fract_x
 _atom_site_fract_y
 _atom_site_fract_z
 _atom_site_occupancy
  Tb  Tb0  1  0.750000  0.969597  0.319081  1
  Tb  Tb1  1  0.750000  0.469597  0.180919  1
  Tm  Tm2  1  0.250000  0.027271  0.687707  1
  Tm  Tm3  1  0.250000  0.527271  0.812293  1
  Al  Al4  1  0.750000  0.857831  0.937941  1
  Al  Al5  1  0.750000  0.357831  0.562059  1
  Zn  Zn6  1  0.250000  0.151164  0.066377  1
  Zn  Zn7  1  0.250000  0.651164  0.433623  1
  Pt  Pt8  1  0.250000  0.260589  0.394618  1
  Pt  Pt9  1  0.250000  0.760589  0.105382  1
  Pt  Pt10  1  0.750000  0.733548  0.627476  1
  Pt  Pt11  1  0.750000  0.233548  0.872524  1
