# generated using pymatgen
data_Ho2Ga5Rh3
_symmetry_space_group_name_H-M   'P 1'
_cell_length_a   8.59765095
_cell_length_b   8.59765038
_cell_length_c   5.65695928
_cell_angle_alpha   70.70434954
_cell_angle_beta   70.70434357
_cell_angle_gamma   96.89129994
_symmetry_Int_Tables_number   1
_chemical_formula_structural   Ho2Ga5Rh3
_chemical_formula_sum   'Ho4 Ga10 Rh6'
_cell_volume   359.96164983
_cell_formula_units_Z   2
loop_
 _symmetry_equiv_pos_site_id
 _symmetry_equiv_pos_as_xyz
  1  'x, y, z'
loop_
 _atom_site_type_symbol
 _atom_site_label
 _atom_site_symmetry_multiplicity
 _atom_site_fract_x
 _atom_site_fract_y
 _atom_site_fract_z
 _atom_site_occupancy
  Ho  Ho0  1  0.084521  0.367517  0.775479  1
  Ho  Ho1  1  0.632483  0.915479  0.724521  1
  Ho  Ho2  1  0.915479  0.632483  0.224521  1
  Ho  Ho3  1  0.367517  0.084521  0.275479  1
  Ga  Ga4  1  0.998974  0.001026  0.750000  1
  Ga  Ga5  1  0.001026  0.998974  0.250000  1
  Ga  Ga6  1  0.298691  0.701309  0.750000  1
  Ga  Ga7  1  0.701309  0.298691  0.250000  1
  Ga  Ga8  1  0.703158  0.296842  0.750000  1
  Ga  Ga9  1  0.296842  0.703158  0.250000  1
  Ga  Ga10  1  0.764989  0.592466  0.820248  1
  Ga  Ga11  1  0.592466  0.764989  0.320248  1
  Ga  Ga12  1  0.235011  0.407534  0.179752  1
  Ga  Ga13  1  0.407534  0.235011  0.679752  1
  Rh  Rh14  1  0.761941  0.063339  0.090561  1
  Rh  Rh15  1  0.499131  0.500869  0.250000  1
  Rh  Rh16  1  0.063339  0.761941  0.590561  1
  Rh  Rh17  1  0.238059  0.936661  0.909439  1
  Rh  Rh18  1  0.936661  0.238059  0.409439  1
  Rh  Rh19  1  0.500869  0.499131  0.750000  1
