# generated using pymatgen
data_Co12Sn8BC
_symmetry_space_group_name_H-M   'P 1'
_cell_length_a   5.30655600
_cell_length_b   5.30655660
_cell_length_c   13.20956100
_cell_angle_alpha   90.00000000
_cell_angle_beta   90.00000000
_cell_angle_gamma   119.99999624
_symmetry_Int_Tables_number   1
_chemical_formula_structural   Co12Sn8BC
_chemical_formula_sum   'Co12 Sn8 B1 C1'
_cell_volume   322.13994909
_cell_formula_units_Z   1
loop_
 _symmetry_equiv_pos_site_id
 _symmetry_equiv_pos_as_xyz
  1  'x, y, z'
loop_
 _atom_site_type_symbol
 _atom_site_label
 _atom_site_symmetry_multiplicity
 _atom_site_fract_x
 _atom_site_fract_y
 _atom_site_fract_z
 _atom_site_occupancy
  Co  Co0  1  0.330596  0.165298  0.413452  1
  Co  Co1  1  0.834702  0.165298  0.413452  1
  Co  Co2  1  0.834702  0.669404  0.413452  1
  Co  Co3  1  0.168273  0.336544  0.909134  1
  Co  Co4  1  0.669404  0.834702  0.586548  1
  Co  Co5  1  0.663456  0.831727  0.909134  1
  Co  Co6  1  0.336544  0.168273  0.090866  1
  Co  Co7  1  0.165298  0.330596  0.586548  1
  Co  Co8  1  0.165298  0.834702  0.586548  1
  Co  Co9  1  0.831727  0.168273  0.090866  1
  Co  Co10  1  0.831727  0.663456  0.090866  1
  Co  Co11  1  0.168273  0.831727  0.909134  1
  Sn  Sn12  1  0.000000  0.000000  0.750513  1
  Sn  Sn13  1  0.000000  0.000000  0.249487  1
  Sn  Sn14  1  0.333333  0.666667  0.748366  1
  Sn  Sn15  1  0.666667  0.333333  0.251634  1
  Sn  Sn16  1  0.333333  0.666667  0.417623  1
  Sn  Sn17  1  0.666667  0.333333  0.920795  1
  Sn  Sn18  1  0.666667  0.333333  0.582377  1
  Sn  Sn19  1  0.333333  0.666667  0.079205  1
  B  B20  1  0.000000  0.000000  0.000000  1
  C  C21  1  0.000000  0.000000  0.500000  1
