# generated using pymatgen
data_K4Ba2CaYbSb4
_symmetry_space_group_name_H-M   'P 1'
_cell_length_a   5.37030800
_cell_length_b   8.74828833
_cell_length_c   10.19051339
_cell_angle_alpha   90.03160553
_cell_angle_beta   90.00000000
_cell_angle_gamma   90.00000000
_symmetry_Int_Tables_number   1
_chemical_formula_structural   K4Ba2CaYbSb4
_chemical_formula_sum   'K4 Ba2 Ca1 Yb1 Sb4'
_cell_volume   478.76046536
_cell_formula_units_Z   1
loop_
 _symmetry_equiv_pos_site_id
 _symmetry_equiv_pos_as_xyz
  1  'x, y, z'
loop_
 _atom_site_type_symbol
 _atom_site_label
 _atom_site_symmetry_multiplicity
 _atom_site_fract_x
 _atom_site_fract_y
 _atom_site_fract_z
 _atom_site_occupancy
  K  K0  1  0.500000  0.022131  0.419242  1
  K  K1  1  0.000000  0.343362  0.341243  1
  K  K2  1  0.500000  0.522408  0.580587  1
  K  K3  1  0.000000  0.843161  0.658653  1
  Ba  Ba4  1  0.000000  0.997655  0.056153  1
  Ba  Ba5  1  0.000000  0.498217  0.944666  1
  Ca  Ca6  1  0.500000  0.151392  0.817866  1
  Yb  Yb7  1  0.500000  0.650986  0.181232  1
  Sb  Sb8  1  0.000000  0.244451  0.679019  1
  Sb  Sb9  1  0.500000  0.286757  0.114094  1
  Sb  Sb10  1  0.000000  0.744306  0.321230  1
  Sb  Sb11  1  0.500000  0.786374  0.886014  1
