# generated using pymatgen
data_Tb20Fe3Bi8Au
_symmetry_space_group_name_H-M   'P 1'
_cell_length_a   8.07136947
_cell_length_b   9.03566000
_cell_length_c   12.44765876
_cell_angle_alpha   90.00000000
_cell_angle_beta   90.09916682
_cell_angle_gamma   90.00000000
_symmetry_Int_Tables_number   1
_chemical_formula_structural   Tb20Fe3Bi8Au
_chemical_formula_sum   'Tb20 Fe3 Bi8 Au1'
_cell_volume   907.80826468
_cell_formula_units_Z   1
loop_
 _symmetry_equiv_pos_site_id
 _symmetry_equiv_pos_as_xyz
  1  'x, y, z'
loop_
 _atom_site_type_symbol
 _atom_site_label
 _atom_site_symmetry_multiplicity
 _atom_site_fract_x
 _atom_site_fract_y
 _atom_site_fract_z
 _atom_site_occupancy
  Tb  Tb0  1  0.831490  0.750000  0.780780  1
  Tb  Tb1  1  0.154064  0.250000  0.201166  1
  Tb  Tb2  1  0.348880  0.250000  0.699096  1
  Tb  Tb3  1  0.651862  0.750000  0.302361  1
  Tb  Tb4  1  0.379752  0.750000  0.694030  1
  Tb  Tb5  1  0.613830  0.250000  0.311128  1
  Tb  Tb6  1  0.882779  0.250000  0.810153  1
  Tb  Tb7  1  0.130668  0.750000  0.202884  1
  Tb  Tb8  1  0.954023  0.750000  0.500665  1
  Tb  Tb9  1  0.059895  0.250000  0.494422  1
  Tb  Tb10  1  0.450487  0.250000  0.998098  1
  Tb  Tb11  1  0.539847  0.750000  0.002097  1
  Tb  Tb12  1  0.673893  0.030508  0.560111  1
  Tb  Tb13  1  0.324410  0.960068  0.438972  1
  Tb  Tb14  1  0.178488  0.976373  0.933927  1
  Tb  Tb15  1  0.324410  0.539932  0.438972  1
  Tb  Tb16  1  0.820225  0.053721  0.065185  1
  Tb  Tb17  1  0.673893  0.469492  0.560111  1
  Tb  Tb18  1  0.820225  0.446279  0.065185  1
  Tb  Tb19  1  0.178488  0.523627  0.933927  1
  Fe  Fe20  1  0.577914  0.750000  0.516874  1
  Fe  Fe21  1  0.433662  0.250000  0.491441  1
  Fe  Fe22  1  0.069578  0.250000  0.990330  1
  Bi  Bi23  1  0.572431  0.490235  0.827608  1
  Bi  Bi24  1  0.428650  0.508199  0.173934  1
  Bi  Bi25  1  0.070877  0.506850  0.672222  1
  Bi  Bi26  1  0.428650  0.991801  0.173934  1
  Bi  Bi27  1  0.927580  0.490666  0.325433  1
  Bi  Bi28  1  0.572431  0.009765  0.827608  1
  Bi  Bi29  1  0.927580  0.009334  0.325433  1
  Bi  Bi30  1  0.070877  0.993150  0.672222  1
  Au  Au31  1  0.928155  0.750000  0.009687  1
