# generated using pymatgen
data_Ho4Si12Ni19Pt
_symmetry_space_group_name_H-M   'P 1'
_cell_length_a   3.77694300
_cell_length_b   6.68400263
_cell_length_c   18.69962804
_cell_angle_alpha   89.85057090
_cell_angle_beta   89.99999996
_cell_angle_gamma   89.99994394
_symmetry_Int_Tables_number   1
_chemical_formula_structural   Ho4Si12Ni19Pt
_chemical_formula_sum   'Ho4 Si12 Ni19 Pt1'
_cell_volume   472.07231742
_cell_formula_units_Z   1
loop_
 _symmetry_equiv_pos_site_id
 _symmetry_equiv_pos_as_xyz
  1  'x, y, z'
loop_
 _atom_site_type_symbol
 _atom_site_label
 _atom_site_symmetry_multiplicity
 _atom_site_fract_x
 _atom_site_fract_y
 _atom_site_fract_z
 _atom_site_occupancy
  Ho  Ho0  1  0.249999  0.620111  0.641081  1
  Ho  Ho1  1  0.250000  0.877805  0.143764  1
  Ho  Ho2  1  0.750001  0.377504  0.356854  1
  Ho  Ho3  1  0.750000  0.132045  0.857634  1
  Si  Si4  1  0.250000  0.419244  0.914971  1
  Si  Si5  1  0.250000  0.082412  0.413586  1
  Si  Si6  1  0.750000  0.583630  0.087080  1
  Si  Si7  1  0.750000  0.913862  0.584359  1
  Si  Si8  1  0.250000  0.128143  0.734542  1
  Si  Si9  1  0.250000  0.378323  0.238542  1
  Si  Si10  1  0.750001  0.878201  0.262260  1
  Si  Si11  1  0.750000  0.608572  0.760500  1
  Si  Si12  1  0.250000  0.851027  0.930970  1
  Si  Si13  1  0.250000  0.654207  0.424685  1
  Si  Si14  1  0.750000  0.157151  0.076046  1
  Si  Si15  1  0.750000  0.344683  0.572492  1
  Ni  Ni16  1  0.250002  0.685201  0.300274  1
  Ni  Ni17  1  0.750001  0.185649  0.200683  1
  Ni  Ni18  1  0.750001  0.312132  0.696986  1
  Ni  Ni19  1  0.250001  0.137890  0.996328  1
  Ni  Ni20  1  0.249999  0.365712  0.492685  1
  Ni  Ni21  1  0.749999  0.869311  0.008095  1
  Ni  Ni22  1  0.750003  0.632421  0.504557  1
  Ni  Ni23  1  0.249999  0.882175  0.513403  1
  Ni  Ni24  1  0.250000  0.615528  0.016176  1
  Ni  Ni25  1  0.749997  0.114778  0.484499  1
  Ni  Ni26  1  0.749998  0.385723  0.986704  1
  Ni  Ni27  1  0.250000  0.142911  0.612202  1
  Ni  Ni28  1  0.250001  0.356901  0.116182  1
  Ni  Ni29  1  0.750000  0.855870  0.384675  1
  Ni  Ni30  1  0.750001  0.642601  0.887447  1
  Ni  Ni31  1  0.250000  0.422988  0.793255  1
  Ni  Ni32  1  0.250000  0.069152  0.293309  1
  Ni  Ni33  1  0.750001  0.569370  0.207376  1
  Ni  Ni34  1  0.749999  0.927898  0.704199  1
  Pt  Pt35  1  0.249998  0.818869  0.801596  1
