# generated using pymatgen
data_Gd4MnRuC8
_symmetry_space_group_name_H-M   'P 1'
_cell_length_a   6.69524513
_cell_length_b   6.69524341
_cell_length_c   6.69524356
_cell_angle_alpha   134.26370888
_cell_angle_beta   110.16063362
_cell_angle_gamma   87.55758419
_symmetry_Int_Tables_number   1
_chemical_formula_structural   Gd4MnRuC8
_chemical_formula_sum   'Gd4 Mn1 Ru1 C8'
_cell_volume   192.81585861
_cell_formula_units_Z   1
loop_
 _symmetry_equiv_pos_site_id
 _symmetry_equiv_pos_as_xyz
  1  'x, y, z'
loop_
 _atom_site_type_symbol
 _atom_site_label
 _atom_site_symmetry_multiplicity
 _atom_site_fract_x
 _atom_site_fract_y
 _atom_site_fract_z
 _atom_site_occupancy
  Gd  Gd0  1  0.504271  0.354393  0.154491  1
  Gd  Gd1  1  0.495729  0.650218  0.850121  1
  Gd  Gd2  1  0.199903  0.849782  0.345509  1
  Gd  Gd3  1  0.800097  0.145607  0.649879  1
  Mn  Mn4  1  0.000000  0.750000  0.750000  1
  Ru  Ru5  1  0.000000  0.250000  0.250000  1
  C  C6  1  0.249475  0.053806  0.148304  1
  C  C7  1  0.750525  0.898828  0.804331  1
  C  C8  1  0.905502  0.601172  0.351696  1
  C  C9  1  0.094498  0.446194  0.695669  1
  C  C10  1  0.465062  0.125769  0.337660  1
  C  C11  1  0.534938  0.872599  0.660709  1
  C  C12  1  0.788110  0.627401  0.162340  1
  C  C13  1  0.211890  0.374231  0.839291  1
