# generated using pymatgen
data_Y8Al(PdPt)12
_symmetry_space_group_name_H-M   'P 1'
_cell_length_a   8.36115215
_cell_length_b   8.36489400
_cell_length_c   8.40040015
_cell_angle_alpha   90.00000000
_cell_angle_beta   89.97842376
_cell_angle_gamma   90.00000000
_symmetry_Int_Tables_number   1
_chemical_formula_structural   Y8Al(PdPt)12
_chemical_formula_sum   'Y8 Al1 Pd12 Pt12'
_cell_volume   587.52521689
_cell_formula_units_Z   1
loop_
 _symmetry_equiv_pos_site_id
 _symmetry_equiv_pos_as_xyz
  1  'x, y, z'
loop_
 _atom_site_type_symbol
 _atom_site_label
 _atom_site_symmetry_multiplicity
 _atom_site_fract_x
 _atom_site_fract_y
 _atom_site_fract_z
 _atom_site_occupancy
  Y  Y0  1  0.251119  0.250664  0.251422  1
  Y  Y1  1  0.749080  0.748397  0.748889  1
  Y  Y2  1  0.748885  0.748895  0.251212  1
  Y  Y3  1  0.749080  0.251603  0.748889  1
  Y  Y4  1  0.250994  0.250929  0.748593  1
  Y  Y5  1  0.251119  0.749336  0.251422  1
  Y  Y6  1  0.250994  0.749071  0.748593  1
  Y  Y7  1  0.748885  0.251105  0.251212  1
  Al  Al8  1  0.000057  0.000000  0.000235  1
  Pd  Pd9  1  0.500169  0.000000  0.738196  1
  Pd  Pd10  1  0.739669  0.000000  0.499909  1
  Pd  Pd11  1  0.999903  0.500000  0.261974  1
  Pd  Pd12  1  0.999880  0.500000  0.738141  1
  Pd  Pd13  1  0.253050  0.500000  0.500143  1
  Pd  Pd14  1  0.747044  0.500000  0.500124  1
  Pd  Pd15  1  0.499881  0.253230  0.499826  1
  Pd  Pd16  1  0.499881  0.746770  0.499826  1
  Pd  Pd17  1  0.500160  0.500000  0.253813  1
  Pd  Pd18  1  0.500160  0.500000  0.746168  1
  Pd  Pd19  1  0.999552  0.000000  0.292910  1
  Pd  Pd20  1  0.999623  0.000000  0.707233  1
  Pt  Pt21  1  0.260507  0.500000  0.999926  1
  Pt  Pt22  1  0.739512  0.500000  0.999892  1
  Pt  Pt23  1  0.000117  0.260473  0.500125  1
  Pt  Pt24  1  0.499972  0.260858  0.999932  1
  Pt  Pt25  1  0.000117  0.739527  0.500125  1
  Pt  Pt26  1  0.499972  0.739142  0.999932  1
  Pt  Pt27  1  0.500084  0.000000  0.262328  1
  Pt  Pt28  1  0.260336  0.000000  0.499709  1
  Pt  Pt29  1  0.291326  0.000000  0.999664  1
  Pt  Pt30  1  0.708828  0.000000  0.999726  1
  Pt  Pt31  1  0.000023  0.291580  0.999955  1
  Pt  Pt32  1  0.000023  0.708420  0.999955  1
