# generated using pymatgen
data_Sr8Ru3RhO16
_symmetry_space_group_name_H-M   'P 1'
_cell_length_a   5.52213103
_cell_length_b   5.52260663
_cell_length_c   13.60392796
_cell_angle_alpha   101.41693221
_cell_angle_beta   101.47714888
_cell_angle_gamma   89.98904648
_symmetry_Int_Tables_number   1
_chemical_formula_structural   Sr8Ru3RhO16
_chemical_formula_sum   'Sr8 Ru3 Rh1 O16'
_cell_volume   398.20027978
_cell_formula_units_Z   1
loop_
 _symmetry_equiv_pos_site_id
 _symmetry_equiv_pos_as_xyz
  1  'x, y, z'
loop_
 _atom_site_type_symbol
 _atom_site_label
 _atom_site_symmetry_multiplicity
 _atom_site_fract_x
 _atom_site_fract_y
 _atom_site_fract_z
 _atom_site_occupancy
  Sr  Sr0  1  0.828420  0.831499  0.648715  1
  Sr  Sr1  1  0.079653  0.578411  0.149175  1
  Sr  Sr2  1  0.173450  0.172965  0.351271  1
  Sr  Sr3  1  0.423449  0.924409  0.850846  1
  Sr  Sr4  1  0.327415  0.326237  0.648713  1
  Sr  Sr5  1  0.576051  0.076396  0.150103  1
  Sr  Sr6  1  0.670623  0.669555  0.351260  1
  Sr  Sr7  1  0.921131  0.420500  0.849870  1
  Ru  Ru8  1  0.999559  0.999818  0.000039  1
  Ru  Ru9  1  0.249783  0.749677  0.499986  1
  Ru  Ru10  1  0.500238  0.500301  0.000001  1
  Rh  Rh11  1  0.750388  0.250293  0.499988  1
  O  O12  1  0.053886  0.454292  0.500103  1
  O  O13  1  0.914824  0.927215  0.839704  1
  O  O14  1  0.083035  0.070807  0.160366  1
  O  O15  1  0.178453  0.664979  0.341019  1
  O  O16  1  0.320038  0.833566  0.658983  1
  O  O17  1  0.204220  0.704453  0.995024  1
  O  O18  1  0.293015  0.206911  0.999985  1
  O  O19  1  0.447009  0.044659  0.499878  1
  O  O20  1  0.547988  0.556019  0.505845  1
  O  O21  1  0.428609  0.417218  0.839636  1
  O  O22  1  0.573003  0.584462  0.160364  1
  O  O23  1  0.666224  0.177483  0.337554  1
  O  O24  1  0.835533  0.324153  0.662389  1
  O  O25  1  0.706100  0.793885  0.000064  1
  O  O26  1  0.795696  0.295883  0.005011  1
  O  O27  1  0.952208  0.943953  0.494110  1
