# generated using pymatgen
data_Tb4SmFe6Co13
_symmetry_space_group_name_H-M   'P 1'
_cell_length_a   5.05538158
_cell_length_b   5.05538244
_cell_length_c   16.14156847
_cell_angle_alpha   80.99067470
_cell_angle_beta   80.99068347
_cell_angle_gamma   60.00000622
_symmetry_Int_Tables_number   1
_chemical_formula_structural   Tb4SmFe6Co13
_chemical_formula_sum   'Tb4 Sm1 Fe6 Co13'
_cell_volume   351.37093054
_cell_formula_units_Z   1
loop_
 _symmetry_equiv_pos_site_id
 _symmetry_equiv_pos_as_xyz
  1  'x, y, z'
loop_
 _atom_site_type_symbol
 _atom_site_label
 _atom_site_symmetry_multiplicity
 _atom_site_fract_x
 _atom_site_fract_y
 _atom_site_fract_z
 _atom_site_occupancy
  Tb  Tb0  1  0.079074  0.079074  0.762777  1
  Tb  Tb1  1  0.920926  0.920926  0.237223  1
  Tb  Tb2  1  0.152785  0.152785  0.541646  1
  Tb  Tb3  1  0.847215  0.847215  0.458354  1
  Sm  Sm4  1  0.000000  0.000000  0.000000  1
  Fe  Fe5  1  0.251025  0.251025  0.246923  1
  Fe  Fe6  1  0.748975  0.748975  0.753077  1
  Fe  Fe7  1  0.333175  0.333175  0.000476  1
  Fe  Fe8  1  0.666825  0.666825  0.999524  1
  Fe  Fe9  1  0.415665  0.415665  0.753007  1
  Fe  Fe10  1  0.584335  0.584335  0.246993  1
  Co  Co11  1  0.500000  0.500000  0.500000  1
  Co  Co12  1  0.124017  0.623215  0.629552  1
  Co  Co13  1  0.623215  0.623215  0.629552  1
  Co  Co14  1  0.623215  0.124017  0.629552  1
  Co  Co15  1  0.875983  0.376785  0.370448  1
  Co  Co16  1  0.376785  0.376785  0.370448  1
  Co  Co17  1  0.376785  0.875983  0.370448  1
  Co  Co18  1  0.041908  0.540861  0.876369  1
  Co  Co19  1  0.540861  0.540861  0.876369  1
  Co  Co20  1  0.540861  0.041908  0.876369  1
  Co  Co21  1  0.958092  0.459139  0.123631  1
  Co  Co22  1  0.459139  0.459139  0.123631  1
  Co  Co23  1  0.459139  0.958092  0.123631  1
