# generated using pymatgen
data_Li2(Al3Ni)3
_symmetry_space_group_name_H-M   'P 1'
_cell_length_a   7.23464357
_cell_length_b   7.23464358
_cell_length_c   9.22845900
_cell_angle_alpha   90.00000000
_cell_angle_beta   90.00000000
_cell_angle_gamma   119.59158211
_symmetry_Int_Tables_number   1
_chemical_formula_structural   Li2(Al3Ni)3
_chemical_formula_sum   'Li4 Al18 Ni6'
_cell_volume   420.01689619
_cell_formula_units_Z   2
loop_
 _symmetry_equiv_pos_site_id
 _symmetry_equiv_pos_as_xyz
  1  'x, y, z'
loop_
 _atom_site_type_symbol
 _atom_site_label
 _atom_site_symmetry_multiplicity
 _atom_site_fract_x
 _atom_site_fract_y
 _atom_site_fract_z
 _atom_site_occupancy
  Li  Li0  1  0.995096  0.673551  0.250000  1
  Li  Li1  1  0.004904  0.326449  0.750000  1
  Li  Li2  1  0.673551  0.995096  0.250000  1
  Li  Li3  1  0.326449  0.004904  0.750000  1
  Al  Al4  1  0.992707  0.333914  0.074408  1
  Al  Al5  1  0.007293  0.666086  0.925592  1
  Al  Al6  1  0.007293  0.666086  0.574408  1
  Al  Al7  1  0.333914  0.992707  0.425592  1
  Al  Al8  1  0.992707  0.333914  0.425592  1
  Al  Al9  1  0.666086  0.007293  0.574408  1
  Al  Al10  1  0.666086  0.007293  0.925592  1
  Al  Al11  1  0.333914  0.992707  0.074408  1
  Al  Al12  1  0.338313  0.567490  0.250000  1
  Al  Al13  1  0.661687  0.432510  0.750000  1
  Al  Al14  1  0.567490  0.338313  0.250000  1
  Al  Al15  1  0.432510  0.661687  0.750000  1
  Al  Al16  1  0.327138  0.327138  0.557712  1
  Al  Al17  1  0.672862  0.672862  0.442288  1
  Al  Al18  1  0.672862  0.672862  0.057712  1
  Al  Al19  1  0.327138  0.327138  0.942288  1
  Al  Al20  1  0.106706  0.106706  0.250000  1
  Al  Al21  1  0.893294  0.893294  0.750000  1
  Ni  Ni22  1  0.668354  0.331646  0.000000  1
  Ni  Ni23  1  0.331646  0.668354  0.000000  1
  Ni  Ni24  1  0.331646  0.668354  0.500000  1
  Ni  Ni25  1  0.668354  0.331646  0.500000  1
  Ni  Ni26  1  0.000000  0.000000  0.000000  1
  Ni  Ni27  1  0.000000  0.000000  0.500000  1
