# generated using pymatgen
data_Nd3Th11(TcOs)3
_symmetry_space_group_name_H-M   'P 1'
_cell_length_a   9.91112664
_cell_length_b   10.03050536
_cell_length_c   6.41137332
_cell_angle_alpha   89.70617262
_cell_angle_beta   90.31859803
_cell_angle_gamma   120.21613239
_symmetry_Int_Tables_number   1
_chemical_formula_structural   Nd3Th11(TcOs)3
_chemical_formula_sum   'Nd3 Th11 Tc3 Os3'
_cell_volume   550.76872503
_cell_formula_units_Z   1
loop_
 _symmetry_equiv_pos_site_id
 _symmetry_equiv_pos_as_xyz
  1  'x, y, z'
loop_
 _atom_site_type_symbol
 _atom_site_label
 _atom_site_symmetry_multiplicity
 _atom_site_fract_x
 _atom_site_fract_y
 _atom_site_fract_z
 _atom_site_occupancy
  Nd  Nd0  1  0.463267  0.537217  0.293503  1
  Nd  Nd1  1  0.071114  0.534408  0.295693  1
  Nd  Nd2  1  0.923954  0.459732  0.791973  1
  Th  Th3  1  0.251298  0.126766  0.509452  1
  Th  Th4  1  0.541518  0.077279  0.801207  1
  Th  Th5  1  0.752388  0.874853  0.010845  1
  Th  Th6  1  0.665708  0.333940  0.271691  1
  Th  Th7  1  0.124922  0.870457  0.007226  1
  Th  Th8  1  0.464990  0.924776  0.303506  1
  Th  Th9  1  0.537381  0.464834  0.797902  1
  Th  Th10  1  0.875551  0.124645  0.510485  1
  Th  Th11  1  0.123020  0.249240  0.008835  1
  Th  Th12  1  0.875010  0.752841  0.509220  1
  Th  Th13  1  0.332674  0.666609  0.771336  1
  Tc  Tc14  1  0.810298  0.636594  0.044366  1
  Tc  Tc15  1  0.807646  0.172013  0.052825  1
  Tc  Tc16  1  0.633089  0.821249  0.551124  1
  Os  Os17  1  0.369790  0.184898  0.043303  1
  Os  Os18  1  0.186032  0.365330  0.560518  1
  Os  Os19  1  0.190352  0.822318  0.548989  1
