# generated using pymatgen
data_DyHo15Cd4FeNi3
_symmetry_space_group_name_H-M   'P 1'
_cell_length_a   9.48602090
_cell_length_b   9.48601952
_cell_length_c   9.48627548
_cell_angle_alpha   59.79806379
_cell_angle_beta   59.79806791
_cell_angle_gamma   59.76943926
_symmetry_Int_Tables_number   1
_chemical_formula_structural   DyHo15Cd4FeNi3
_chemical_formula_sum   'Dy1 Ho15 Cd4 Fe1 Ni3'
_cell_volume   600.70143291
_cell_formula_units_Z   1
loop_
 _symmetry_equiv_pos_site_id
 _symmetry_equiv_pos_as_xyz
  1  'x, y, z'
loop_
 _atom_site_type_symbol
 _atom_site_label
 _atom_site_symmetry_multiplicity
 _atom_site_fract_x
 _atom_site_fract_y
 _atom_site_fract_z
 _atom_site_occupancy
  Dy  Dy0  1  0.187950  0.187950  0.809296  1
  Ho  Ho1  1  0.597657  0.597657  0.597805  1
  Ho  Ho2  1  0.597505  0.597505  0.206734  1
  Ho  Ho3  1  0.597603  0.206657  0.597357  1
  Ho  Ho4  1  0.206657  0.597603  0.597357  1
  Ho  Ho5  1  0.065419  0.438220  0.437810  1
  Ho  Ho6  1  0.437176  0.061634  0.061681  1
  Ho  Ho7  1  0.438220  0.065419  0.437810  1
  Ho  Ho8  1  0.061634  0.437176  0.061681  1
  Ho  Ho9  1  0.438025  0.438025  0.065500  1
  Ho  Ho10  1  0.061678  0.061678  0.436873  1
  Ho  Ho11  1  0.186171  0.814094  0.814468  1
  Ho  Ho12  1  0.808959  0.188071  0.188210  1
  Ho  Ho13  1  0.814094  0.186171  0.814468  1
  Ho  Ho14  1  0.188071  0.808959  0.188210  1
  Ho  Ho15  1  0.814438  0.814438  0.186343  1
  Cd  Cd16  1  0.829765  0.829765  0.829734  1
  Cd  Cd17  1  0.830483  0.830483  0.505796  1
  Cd  Cd18  1  0.830135  0.506113  0.830452  1
  Cd  Cd19  1  0.506113  0.830135  0.830452  1
  Fe  Fe20  1  0.393059  0.393059  0.392814  1
  Ni  Ni21  1  0.392226  0.392226  0.824820  1
  Ni  Ni22  1  0.392110  0.824854  0.392165  1
  Ni  Ni23  1  0.824854  0.392110  0.392165  1
