# generated using pymatgen
data_Tb7Nd13Sn16
_symmetry_space_group_name_H-M   'P 1'
_cell_length_a   8.22952792
_cell_length_b   8.36349414
_cell_length_c   15.86927164
_cell_angle_alpha   89.93057500
_cell_angle_beta   90.08882794
_cell_angle_gamma   90.13224681
_symmetry_Int_Tables_number   1
_chemical_formula_structural   Tb7Nd13Sn16
_chemical_formula_sum   'Tb7 Nd13 Sn16'
_cell_volume   1092.23899770
_cell_formula_units_Z   1
loop_
 _symmetry_equiv_pos_site_id
 _symmetry_equiv_pos_as_xyz
  1  'x, y, z'
loop_
 _atom_site_type_symbol
 _atom_site_label
 _atom_site_symmetry_multiplicity
 _atom_site_fract_x
 _atom_site_fract_y
 _atom_site_fract_z
 _atom_site_occupancy
  Tb  Tb0  1  0.019083  0.180302  0.401261  1
  Tb  Tb1  1  0.367209  0.837663  0.122127  1
  Tb  Tb2  1  0.132061  0.337182  0.621520  1
  Tb  Tb3  1  0.198982  0.502417  0.250201  1
  Tb  Tb4  1  0.698530  0.997857  0.250187  1
  Tb  Tb5  1  0.300575  0.002823  0.749662  1
  Tb  Tb6  1  0.801945  0.497469  0.749530  1
  Nd  Nd7  1  0.481859  0.680915  0.901939  1
  Nd  Nd8  1  0.868724  0.662605  0.120974  1
  Nd  Nd9  1  0.132557  0.336427  0.879895  1
  Nd  Nd10  1  0.481778  0.680393  0.598503  1
  Nd  Nd11  1  0.630651  0.162698  0.620243  1
  Nd  Nd12  1  0.868071  0.663444  0.378579  1
  Nd  Nd13  1  0.017665  0.180510  0.098250  1
  Nd  Nd14  1  0.982012  0.818701  0.901002  1
  Nd  Nd15  1  0.632343  0.163472  0.878569  1
  Nd  Nd16  1  0.517843  0.318571  0.099108  1
  Nd  Nd17  1  0.367464  0.836930  0.380120  1
  Nd  Nd18  1  0.981927  0.819241  0.598379  1
  Nd  Nd19  1  0.517974  0.318165  0.401011  1
  Sn  Sn20  1  0.797120  0.463527  0.543515  1
  Sn  Sn21  1  0.711180  0.967285  0.455715  1
  Sn  Sn22  1  0.675771  0.854333  0.749787  1
  Sn  Sn23  1  0.206140  0.531387  0.458338  1
  Sn  Sn24  1  0.293259  0.033187  0.958842  1
  Sn  Sn25  1  0.826484  0.352717  0.251291  1
  Sn  Sn26  1  0.792025  0.464851  0.956631  1
  Sn  Sn27  1  0.563575  0.619251  0.249135  1
  Sn  Sn28  1  0.210780  0.538964  0.043934  1
  Sn  Sn29  1  0.432941  0.382696  0.748761  1
  Sn  Sn30  1  0.174841  0.643593  0.748917  1
  Sn  Sn31  1  0.936267  0.119113  0.748962  1
  Sn  Sn32  1  0.287082  0.040297  0.542644  1
  Sn  Sn33  1  0.702751  0.963304  0.043710  1
  Sn  Sn34  1  0.323807  0.143733  0.249564  1
  Sn  Sn35  1  0.066724  0.883976  0.249193  1
