# generated using pymatgen
data_Hf6Fe2Sn6Ir3Rh
_symmetry_space_group_name_H-M   'P 1'
_cell_length_a   7.43535900
_cell_length_b   7.43535981
_cell_length_c   6.97826000
_cell_angle_alpha   90.00000000
_cell_angle_beta   90.00000000
_cell_angle_gamma   119.99999967
_symmetry_Int_Tables_number   1
_chemical_formula_structural   Hf6Fe2Sn6Ir3Rh
_chemical_formula_sum   'Hf6 Fe2 Sn6 Ir3 Rh1'
_cell_volume   334.10402793
_cell_formula_units_Z   1
loop_
 _symmetry_equiv_pos_site_id
 _symmetry_equiv_pos_as_xyz
  1  'x, y, z'
loop_
 _atom_site_type_symbol
 _atom_site_label
 _atom_site_symmetry_multiplicity
 _atom_site_fract_x
 _atom_site_fract_y
 _atom_site_fract_z
 _atom_site_occupancy
  Hf  Hf0  1  0.009839  0.396087  0.749497  1
  Hf  Hf1  1  0.603913  0.613752  0.749497  1
  Hf  Hf2  1  0.386248  0.990161  0.749497  1
  Hf  Hf3  1  0.994053  0.388052  0.250954  1
  Hf  Hf4  1  0.611948  0.606001  0.250954  1
  Hf  Hf5  1  0.393999  0.005947  0.250954  1
  Fe  Fe6  1  0.000000  0.000000  0.743552  1
  Fe  Fe7  1  0.000000  0.000000  0.256921  1
  Sn  Sn8  1  0.265663  0.264410  0.500283  1
  Sn  Sn9  1  0.998747  0.734337  0.500283  1
  Sn  Sn10  1  0.996565  0.736424  0.000157  1
  Sn  Sn11  1  0.735590  0.001253  0.500283  1
  Sn  Sn12  1  0.739860  0.003435  0.000157  1
  Sn  Sn13  1  0.263576  0.260140  0.000157  1
  Ir  Ir14  1  0.333333  0.666667  0.485487  1
  Ir  Ir15  1  0.666667  0.333333  0.513567  1
  Ir  Ir16  1  0.333333  0.666667  0.014666  1
  Rh  Rh17  1  0.666667  0.333333  0.983131  1
