# generated using pymatgen
data_TbDy5YCoI12
_symmetry_space_group_name_H-M   'P 1'
_cell_length_a   9.76965578
_cell_length_b   9.76672152
_cell_length_c   9.76780901
_cell_angle_alpha   106.84960480
_cell_angle_beta   106.86577364
_cell_angle_gamma   106.86675577
_symmetry_Int_Tables_number   1
_chemical_formula_structural   TbDy5YCoI12
_chemical_formula_sum   'Tb1 Dy5 Y1 Co1 I12'
_cell_volume   779.12559472
_cell_formula_units_Z   1
loop_
 _symmetry_equiv_pos_site_id
 _symmetry_equiv_pos_as_xyz
  1  'x, y, z'
loop_
 _atom_site_type_symbol
 _atom_site_label
 _atom_site_symmetry_multiplicity
 _atom_site_fract_x
 _atom_site_fract_y
 _atom_site_fract_z
 _atom_site_occupancy
  Tb  Tb0  1  0.711542  0.977910  0.907732  1
  Dy  Dy1  1  0.022167  0.091809  0.287472  1
  Dy  Dy2  1  0.092071  0.287455  0.022026  1
  Dy  Dy3  1  0.287276  0.021945  0.091775  1
  Dy  Dy4  1  0.978228  0.908206  0.712649  1
  Dy  Dy5  1  0.908398  0.712602  0.978116  1
  Y  Y6  1  0.500045  0.499987  0.500001  1
  Co  Co7  1  0.000174  0.000020  0.000052  1
  I  I8  1  0.160899  0.463430  0.386412  1
  I  I9  1  0.463444  0.386443  0.160910  1
  I  I10  1  0.386416  0.160896  0.463452  1
  I  I11  1  0.839132  0.536574  0.613590  1
  I  I12  1  0.536517  0.613226  0.839114  1
  I  I13  1  0.613615  0.838981  0.536143  1
  I  I14  1  0.678155  0.071902  0.225426  1
  I  I15  1  0.071729  0.224827  0.678058  1
  I  I16  1  0.224836  0.677996  0.071720  1
  I  I17  1  0.321655  0.928204  0.775051  1
  I  I18  1  0.928278  0.775174  0.321947  1
  I  I19  1  0.775424  0.322416  0.928351  1
