# generated using pymatgen
data_Y2Er8In8Pd3Rh
_symmetry_space_group_name_H-M   'P 1'
_cell_length_a   3.59967500
_cell_length_b   8.12391571
_cell_length_c   18.23272936
_cell_angle_alpha   90.00191587
_cell_angle_beta   90.00000000
_cell_angle_gamma   90.00000000
_symmetry_Int_Tables_number   1
_chemical_formula_structural   Y2Er8In8Pd3Rh
_chemical_formula_sum   'Y2 Er8 In8 Pd3 Rh1'
_cell_volume   533.18802395
_cell_formula_units_Z   1
loop_
 _symmetry_equiv_pos_site_id
 _symmetry_equiv_pos_as_xyz
  1  'x, y, z'
loop_
 _atom_site_type_symbol
 _atom_site_label
 _atom_site_symmetry_multiplicity
 _atom_site_fract_x
 _atom_site_fract_y
 _atom_site_fract_z
 _atom_site_occupancy
  Y  Y0  1  0.500000  0.000102  0.000053  1
  Y  Y1  1  0.500000  0.499850  0.500370  1
  Er  Er2  1  0.500000  0.233797  0.777976  1
  Er  Er3  1  0.500000  0.758558  0.218961  1
  Er  Er4  1  0.500000  0.257814  0.280591  1
  Er  Er5  1  0.500000  0.754710  0.720035  1
  Er  Er6  1  0.500000  0.116063  0.587323  1
  Er  Er7  1  0.500000  0.881177  0.416377  1
  Er  Er8  1  0.500000  0.381530  0.083539  1
  Er  Er9  1  0.500000  0.618479  0.914914  1
  In  In10  1  0.000000  0.078231  0.150018  1
  In  In11  1  0.000000  0.924882  0.850190  1
  In  In12  1  0.000000  0.424182  0.650259  1
  In  In13  1  0.000000  0.578345  0.349734  1
  In  In14  1  0.000000  0.205273  0.433067  1
  In  In15  1  0.000000  0.794162  0.568667  1
  In  In16  1  0.000000  0.293793  0.931906  1
  In  In17  1  0.000000  0.705157  0.066802  1
  Pd  Pd18  1  0.000000  0.973826  0.304006  1
  Pd  Pd19  1  0.000000  0.474506  0.196095  1
  Pd  Pd20  1  0.000000  0.522381  0.803639  1
  Rh  Rh21  1  0.000000  0.023181  0.695478  1
