# generated using pymatgen
data_Ta13Nb5Os12
_symmetry_space_group_name_H-M   'P 1'
_cell_length_a   9.90830951
_cell_length_b   9.90831022
_cell_length_c   5.11220064
_cell_angle_alpha   90.06527130
_cell_angle_beta   89.93473100
_cell_angle_gamma   89.82525710
_symmetry_Int_Tables_number   1
_chemical_formula_structural   Ta13Nb5Os12
_chemical_formula_sum   'Ta13 Nb5 Os12'
_cell_volume   501.88528813
_cell_formula_units_Z   1
loop_
 _symmetry_equiv_pos_site_id
 _symmetry_equiv_pos_as_xyz
  1  'x, y, z'
loop_
 _atom_site_type_symbol
 _atom_site_label
 _atom_site_symmetry_multiplicity
 _atom_site_fract_x
 _atom_site_fract_y
 _atom_site_fract_z
 _atom_site_occupancy
  Ta  Ta0  1  0.038934  0.370392  0.501574  1
  Ta  Ta1  1  0.961308  0.629523  0.501981  1
  Ta  Ta2  1  0.534666  0.130716  0.002688  1
  Ta  Ta3  1  0.465244  0.869497  0.002490  1
  Ta  Ta4  1  0.629608  0.961066  0.501574  1
  Ta  Ta5  1  0.370477  0.038692  0.501981  1
  Ta  Ta6  1  0.869284  0.465334  0.002688  1
  Ta  Ta7  1  0.130503  0.534756  0.002490  1
  Ta  Ta8  1  0.181276  0.818724  0.751472  1
  Ta  Ta9  1  0.681162  0.680991  0.750064  1
  Ta  Ta10  1  0.319009  0.318838  0.750064  1
  Ta  Ta11  1  0.181857  0.818143  0.251065  1
  Ta  Ta12  1  0.818289  0.181711  0.250000  1
  Nb  Nb13  1  0.103863  0.103266  0.503521  1
  Nb  Nb14  1  0.896734  0.896137  0.503521  1
  Nb  Nb15  1  0.600905  0.399095  0.994093  1
  Nb  Nb16  1  0.398465  0.601535  0.994125  1
  Nb  Nb17  1  0.818491  0.181509  0.750841  1
  Os  Os18  1  0.499767  0.500233  0.475544  1
  Os  Os19  1  0.000242  0.999758  0.000996  1
  Os  Os20  1  0.758072  0.434184  0.499262  1
  Os  Os21  1  0.241617  0.566205  0.499787  1
  Os  Os22  1  0.260153  0.069413  0.002299  1
  Os  Os23  1  0.739877  0.930087  0.002972  1
  Os  Os24  1  0.565816  0.241928  0.499262  1
  Os  Os25  1  0.433795  0.758383  0.499787  1
  Os  Os26  1  0.930587  0.739847  0.002299  1
  Os  Os27  1  0.069913  0.260123  0.002972  1
  Os  Os28  1  0.318922  0.318835  0.249293  1
  Os  Os29  1  0.681165  0.681078  0.249293  1
