# generated using pymatgen
data_TiBe3CuIr
_symmetry_space_group_name_H-M   'P 1'
_cell_length_a   4.50947929
_cell_length_b   4.50947876
_cell_length_c   4.47582749
_cell_angle_alpha   59.75098497
_cell_angle_beta   59.75099096
_cell_angle_gamma   59.99999814
_symmetry_Int_Tables_number   1
_chemical_formula_structural   TiBe3CuIr
_chemical_formula_sum   'Ti1 Be3 Cu1 Ir1'
_cell_volume   64.11596426
_cell_formula_units_Z   1
loop_
 _symmetry_equiv_pos_site_id
 _symmetry_equiv_pos_as_xyz
  1  'x, y, z'
loop_
 _atom_site_type_symbol
 _atom_site_label
 _atom_site_symmetry_multiplicity
 _atom_site_fract_x
 _atom_site_fract_y
 _atom_site_fract_z
 _atom_site_occupancy
  Ti  Ti0  1  0.000699  0.000699  0.997902  1
  Be  Be1  1  0.624398  0.128978  0.622227  1
  Be  Be2  1  0.128978  0.624398  0.622227  1
  Be  Be3  1  0.624398  0.624398  0.622227  1
  Cu  Cu4  1  0.628066  0.628066  0.115801  1
  Ir  Ir5  1  0.243461  0.243461  0.269617  1
