# generated using pymatgen
data_SmZnCo2NiB
_symmetry_space_group_name_H-M   'P 1'
_cell_length_a   5.17215316
_cell_length_b   5.14135336
_cell_length_c   6.83121200
_cell_angle_alpha   89.99681535
_cell_angle_beta   90.00053637
_cell_angle_gamma   119.79372574
_symmetry_Int_Tables_number   1
_chemical_formula_structural   SmZnCo2NiB
_chemical_formula_sum   'Sm2 Zn2 Co4 Ni2 B2'
_cell_volume   157.64354166
_cell_formula_units_Z   2
loop_
 _symmetry_equiv_pos_site_id
 _symmetry_equiv_pos_as_xyz
  1  'x, y, z'
loop_
 _atom_site_type_symbol
 _atom_site_label
 _atom_site_symmetry_multiplicity
 _atom_site_fract_x
 _atom_site_fract_y
 _atom_site_fract_z
 _atom_site_occupancy
  Sm  Sm0  1  0.999965  0.999963  0.987433  1
  Sm  Sm1  1  0.000026  0.000002  0.498898  1
  Zn  Zn2  1  0.330845  0.665560  0.000291  1
  Zn  Zn3  1  0.669083  0.334379  0.000317  1
  Co  Co4  1  0.999980  0.500001  0.300681  1
  Co  Co5  1  0.499980  0.999978  0.701948  1
  Co  Co6  1  0.499979  0.499963  0.702036  1
  Co  Co7  1  0.999946  0.499956  0.703975  1
  Ni  Ni8  1  0.500081  0.000064  0.297615  1
  Ni  Ni9  1  0.500013  0.500160  0.297718  1
  B  B10  1  0.327236  0.663621  0.504558  1
  B  B11  1  0.672667  0.336354  0.504527  1
