# generated using pymatgen
data_SmSi4P2(Pd10Pb)2
_symmetry_space_group_name_H-M   'P 1'
_cell_length_a   8.74963111
_cell_length_b   8.74963072
_cell_length_c   8.72293900
_cell_angle_alpha   60.10084782
_cell_angle_beta   60.10084671
_cell_angle_gamma   59.79826802
_symmetry_Int_Tables_number   1
_chemical_formula_structural   SmSi4P2(Pd10Pb)2
_chemical_formula_sum   'Sm1 Si4 P2 Pd20 Pb2'
_cell_volume   472.19254178
_cell_formula_units_Z   1
loop_
 _symmetry_equiv_pos_site_id
 _symmetry_equiv_pos_as_xyz
  1  'x, y, z'
loop_
 _atom_site_type_symbol
 _atom_site_label
 _atom_site_symmetry_multiplicity
 _atom_site_fract_x
 _atom_site_fract_y
 _atom_site_fract_z
 _atom_site_occupancy
  Sm  Sm0  1  0.000000  0.000000  0.000000  1
  Si  Si1  1  0.731238  0.268762  0.268762  1
  Si  Si2  1  0.268762  0.731238  0.731238  1
  Si  Si3  1  0.268762  0.731238  0.268762  1
  Si  Si4  1  0.731238  0.268762  0.731238  1
  P  P5  1  0.267062  0.267062  0.732937  1
  P  P6  1  0.732938  0.732938  0.267063  1
  Pd  Pd7  1  0.383471  0.383471  0.385474  1
  Pd  Pd8  1  0.616529  0.616529  0.614526  1
  Pd  Pd9  1  0.383471  0.383471  0.847584  1
  Pd  Pd10  1  0.385474  0.847583  0.383471  1
  Pd  Pd11  1  0.616529  0.616529  0.152416  1
  Pd  Pd12  1  0.614526  0.152417  0.616529  1
  Pd  Pd13  1  0.847583  0.385474  0.383471  1
  Pd  Pd14  1  0.152417  0.614526  0.616529  1
  Pd  Pd15  1  0.343911  0.000171  0.999828  1
  Pd  Pd16  1  0.656089  0.999829  0.000172  1
  Pd  Pd17  1  0.000172  0.343911  0.656089  1
  Pd  Pd18  1  0.999828  0.656089  0.343911  1
  Pd  Pd19  1  0.000172  0.343911  0.999827  1
  Pd  Pd20  1  0.656089  0.999828  0.343911  1
  Pd  Pd21  1  0.999828  0.656089  0.000173  1
  Pd  Pd22  1  0.343911  0.000172  0.656089  1
  Pd  Pd23  1  0.000000  0.000000  0.345048  1
  Pd  Pd24  1  0.000000  0.000000  0.654952  1
  Pd  Pd25  1  0.654953  0.345047  0.999999  1
  Pd  Pd26  1  0.345047  0.654953  0.000001  1
  Pb  Pb27  1  0.249999  0.250000  0.250001  1
  Pb  Pb28  1  0.750001  0.750000  0.749999  1
