# generated using pymatgen
data_Eu3Y2ErTa2O14
_symmetry_space_group_name_H-M   'P 1'
_cell_length_a   6.48794902
_cell_length_b   6.54277534
_cell_length_c   7.61624100
_cell_angle_alpha   90.00000000
_cell_angle_beta   90.00000000
_cell_angle_gamma   109.38144113
_symmetry_Int_Tables_number   1
_chemical_formula_structural   Eu3Y2ErTa2O14
_chemical_formula_sum   'Eu3 Y2 Er1 Ta2 O14'
_cell_volume   304.98175063
_cell_formula_units_Z   1
loop_
 _symmetry_equiv_pos_site_id
 _symmetry_equiv_pos_as_xyz
  1  'x, y, z'
loop_
 _atom_site_type_symbol
 _atom_site_label
 _atom_site_symmetry_multiplicity
 _atom_site_fract_x
 _atom_site_fract_y
 _atom_site_fract_z
 _atom_site_occupancy
  Eu  Eu0  1  0.498976  0.499244  0.503325  1
  Eu  Eu1  1  0.498976  0.499244  0.996675  1
  Eu  Eu2  1  0.997647  0.524461  0.250000  1
  Y  Y3  1  0.462525  0.000318  0.250000  1
  Y  Y4  1  0.001904  0.465881  0.750000  1
  Er  Er5  1  0.533993  0.000982  0.750000  1
  Ta  Ta6  1  0.999099  0.997730  0.501884  1
  Ta  Ta7  1  0.999099  0.997730  0.998116  1
  O  O8  1  0.682179  0.938976  0.464363  1
  O  O9  1  0.928242  0.682743  0.536229  1
  O  O10  1  0.682179  0.938976  0.035637  1
  O  O11  1  0.928242  0.682743  0.963771  1
  O  O12  1  0.318384  0.059422  0.535822  1
  O  O13  1  0.079897  0.322660  0.478252  1
  O  O14  1  0.318384  0.059422  0.964178  1
  O  O15  1  0.079897  0.322660  0.021748  1
  O  O16  1  0.926503  0.060605  0.750000  1
  O  O17  1  0.064974  0.946521  0.250000  1
  O  O18  1  0.371975  0.639232  0.750000  1
  O  O19  1  0.627307  0.365571  0.250000  1
  O  O20  1  0.638291  0.356208  0.750000  1
  O  O21  1  0.361327  0.638671  0.250000  1
