# generated using pymatgen
data_Er4In3Co2
_symmetry_space_group_name_H-M   'P 1'
_cell_length_a   3.63980800
_cell_length_b   7.31271911
_cell_length_c   8.14552478
_cell_angle_alpha   72.01460524
_cell_angle_beta   90.00000000
_cell_angle_gamma   90.00000000
_symmetry_Int_Tables_number   1
_chemical_formula_structural   Er4In3Co2
_chemical_formula_sum   'Er4 In3 Co2'
_cell_volume   206.21427084
_cell_formula_units_Z   1
loop_
 _symmetry_equiv_pos_site_id
 _symmetry_equiv_pos_as_xyz
  1  'x, y, z'
loop_
 _atom_site_type_symbol
 _atom_site_label
 _atom_site_symmetry_multiplicity
 _atom_site_fract_x
 _atom_site_fract_y
 _atom_site_fract_z
 _atom_site_occupancy
  Er  Er0  1  0.500000  0.607272  0.179486  1
  Er  Er1  1  0.500000  0.392728  0.820514  1
  Er  Er2  1  0.500000  0.091720  0.276230  1
  Er  Er3  1  0.500000  0.908280  0.723770  1
  In  In4  1  0.000000  0.705807  0.506584  1
  In  In5  1  0.000000  0.000000  0.000000  1
  In  In6  1  0.000000  0.294193  0.493416  1
  Co  Co7  1  0.000000  0.650967  0.896899  1
  Co  Co8  1  0.000000  0.349033  0.103101  1
