# generated using pymatgen
data_TbPr5(ThS6)2
_symmetry_space_group_name_H-M   'P 1'
_cell_length_a   4.05774500
_cell_length_b   10.65147675
_cell_length_c   10.98660845
_cell_angle_alpha   90.04924149
_cell_angle_beta   90.00000000
_cell_angle_gamma   90.00000000
_symmetry_Int_Tables_number   1
_chemical_formula_structural   TbPr5(ThS6)2
_chemical_formula_sum   'Tb1 Pr5 Th2 S12'
_cell_volume   474.85177057
_cell_formula_units_Z   1
loop_
 _symmetry_equiv_pos_site_id
 _symmetry_equiv_pos_as_xyz
  1  'x, y, z'
loop_
 _atom_site_type_symbol
 _atom_site_label
 _atom_site_symmetry_multiplicity
 _atom_site_fract_x
 _atom_site_fract_y
 _atom_site_fract_z
 _atom_site_occupancy
  Tb  Tb0  1  0.750000  0.687337  0.009281  1
  Pr  Pr1  1  0.250000  0.992794  0.806400  1
  Pr  Pr2  1  0.750000  0.000115  0.190289  1
  Pr  Pr3  1  0.750000  0.498532  0.696802  1
  Pr  Pr4  1  0.250000  0.505018  0.307206  1
  Pr  Pr5  1  0.250000  0.188296  0.489183  1
  Th  Th6  1  0.750000  0.813505  0.511041  1
  Th  Th7  1  0.250000  0.313607  0.989090  1
  S  S8  1  0.250000  0.297881  0.733637  1
  S  S9  1  0.750000  0.705036  0.269718  1
  S  S10  1  0.750000  0.792111  0.770113  1
  S  S11  1  0.250000  0.201913  0.224406  1
  S  S12  1  0.250000  0.943051  0.378807  1
  S  S13  1  0.750000  0.052917  0.621033  1
  S  S14  1  0.750000  0.448297  0.118252  1
  S  S15  1  0.250000  0.557977  0.886193  1
  S  S16  1  0.250000  0.865439  0.043866  1
  S  S17  1  0.750000  0.129004  0.953136  1
  S  S18  1  0.750000  0.376252  0.454130  1
  S  S19  1  0.250000  0.630921  0.547420  1
