# generated using pymatgen
data_Pr2SiRuI
_symmetry_space_group_name_H-M   'P 1'
_cell_length_a   4.25683500
_cell_length_b   4.25683453
_cell_length_c   17.56094100
_cell_angle_alpha   90.00000000
_cell_angle_beta   90.00000000
_cell_angle_gamma   119.99999585
_symmetry_Int_Tables_number   1
_chemical_formula_structural   Pr2SiRuI
_chemical_formula_sum   'Pr4 Si2 Ru2 I2'
_cell_volume   275.58274362
_cell_formula_units_Z   2
loop_
 _symmetry_equiv_pos_site_id
 _symmetry_equiv_pos_as_xyz
  1  'x, y, z'
loop_
 _atom_site_type_symbol
 _atom_site_label
 _atom_site_symmetry_multiplicity
 _atom_site_fract_x
 _atom_site_fract_y
 _atom_site_fract_z
 _atom_site_occupancy
  Pr  Pr0  1  0.000000  0.000000  0.604535  1
  Pr  Pr1  1  0.000000  0.000000  0.393493  1
  Pr  Pr2  1  0.000000  0.000000  0.104535  1
  Pr  Pr3  1  0.000000  0.000000  0.893493  1
  Si  Si4  1  0.666667  0.333333  0.997775  1
  Si  Si5  1  0.333333  0.666667  0.497775  1
  Ru  Ru6  1  0.666667  0.333333  0.502852  1
  Ru  Ru7  1  0.333333  0.666667  0.002852  1
  I  I8  1  0.666667  0.333333  0.251345  1
  I  I9  1  0.333333  0.666667  0.751345  1
