# generated using pymatgen
data_Ce6HfMgAs10
_symmetry_space_group_name_H-M   'P 1'
_cell_length_a   8.80889500
_cell_length_b   8.80889575
_cell_length_c   5.98710000
_cell_angle_alpha   90.00000000
_cell_angle_beta   90.00000000
_cell_angle_gamma   119.99999344
_symmetry_Int_Tables_number   1
_chemical_formula_structural   Ce6HfMgAs10
_chemical_formula_sum   'Ce6 Hf1 Mg1 As10'
_cell_volume   402.33709505
_cell_formula_units_Z   1
loop_
 _symmetry_equiv_pos_site_id
 _symmetry_equiv_pos_as_xyz
  1  'x, y, z'
loop_
 _atom_site_type_symbol
 _atom_site_label
 _atom_site_symmetry_multiplicity
 _atom_site_fract_x
 _atom_site_fract_y
 _atom_site_fract_z
 _atom_site_occupancy
  Ce  Ce0  1  0.617008  0.000000  0.247184  1
  Ce  Ce1  1  0.382992  0.000000  0.752816  1
  Ce  Ce2  1  0.000000  0.617008  0.247184  1
  Ce  Ce3  1  0.000000  0.382992  0.752816  1
  Ce  Ce4  1  0.382992  0.382992  0.247184  1
  Ce  Ce5  1  0.617008  0.617008  0.752816  1
  Hf  Hf6  1  0.000000  0.000000  0.500000  1
  Mg  Mg7  1  0.000000  0.000000  0.000000  1
  As  As8  1  0.260798  0.000000  0.253079  1
  As  As9  1  0.739202  0.000000  0.746921  1
  As  As10  1  0.000000  0.260798  0.253079  1
  As  As11  1  0.000000  0.739202  0.746921  1
  As  As12  1  0.739202  0.739202  0.253079  1
  As  As13  1  0.260798  0.260798  0.746921  1
  As  As14  1  0.333333  0.666667  0.000000  1
  As  As15  1  0.666667  0.333333  0.000000  1
  As  As16  1  0.666667  0.333333  0.500000  1
  As  As17  1  0.333333  0.666667  0.500000  1
