# generated using pymatgen
data_Nb9Al4ZnMo
_symmetry_space_group_name_H-M   'P 1'
_cell_length_a   9.92145913
_cell_length_b   9.92034413
_cell_length_c   5.19597600
_cell_angle_alpha   90.00000000
_cell_angle_beta   90.00000000
_cell_angle_gamma   89.98160002
_symmetry_Int_Tables_number   1
_chemical_formula_structural   Nb9Al4ZnMo
_chemical_formula_sum   'Nb18 Al8 Zn2 Mo2'
_cell_volume   511.41021605
_cell_formula_units_Z   2
loop_
 _symmetry_equiv_pos_site_id
 _symmetry_equiv_pos_as_xyz
  1  'x, y, z'
loop_
 _atom_site_type_symbol
 _atom_site_label
 _atom_site_symmetry_multiplicity
 _atom_site_fract_x
 _atom_site_fract_y
 _atom_site_fract_z
 _atom_site_occupancy
  Nb  Nb0  1  0.391458  0.398318  0.000000  1
  Nb  Nb1  1  0.897816  0.108737  0.500000  1
  Nb  Nb2  1  0.101986  0.897829  0.500000  1
  Nb  Nb3  1  0.602721  0.602368  0.000000  1
  Nb  Nb4  1  0.034789  0.622915  0.500000  1
  Nb  Nb5  1  0.876648  0.531969  0.000000  1
  Nb  Nb6  1  0.371455  0.964530  0.500000  1
  Nb  Nb7  1  0.628867  0.035554  0.500000  1
  Nb  Nb8  1  0.464460  0.128595  0.000000  1
  Nb  Nb9  1  0.535512  0.871029  0.000000  1
  Nb  Nb10  1  0.181235  0.183332  0.252685  1
  Nb  Nb11  1  0.683002  0.318583  0.753279  1
  Nb  Nb12  1  0.317078  0.681043  0.752242  1
  Nb  Nb13  1  0.818804  0.817614  0.253103  1
  Nb  Nb14  1  0.317078  0.681043  0.247758  1
  Nb  Nb15  1  0.683002  0.318583  0.246721  1
  Nb  Nb16  1  0.181235  0.183332  0.747315  1
  Nb  Nb17  1  0.818804  0.817614  0.746897  1
  Al  Al18  1  0.258640  0.934052  0.000000  1
  Al  Al19  1  0.433518  0.241358  0.500000  1
  Al  Al20  1  0.566026  0.758750  0.500000  1
  Al  Al21  1  0.741103  0.066599  0.000000  1
  Al  Al22  1  0.238117  0.433450  0.500000  1
  Al  Al23  1  0.760496  0.564643  0.500000  1
  Al  Al24  1  0.936016  0.261300  0.000000  1
  Al  Al25  1  0.066732  0.739134  0.000000  1
  Zn  Zn26  1  0.999939  0.000628  0.000000  1
  Zn  Zn27  1  0.499716  0.499641  0.500000  1
  Mo  Mo28  1  0.126734  0.464593  0.000000  1
  Mo  Mo29  1  0.967014  0.372863  0.500000  1
