# generated using pymatgen
data_Ti3GaTcS8
_symmetry_space_group_name_H-M   'P 1'
_cell_length_a   7.07131488
_cell_length_b   7.07131541
_cell_length_c   6.92990588
_cell_angle_alpha   59.32265506
_cell_angle_beta   59.32265797
_cell_angle_gamma   60.00000438
_symmetry_Int_Tables_number   1
_chemical_formula_structural   Ti3GaTcS8
_chemical_formula_sum   'Ti3 Ga1 Tc1 S8'
_cell_volume   242.48769161
_cell_formula_units_Z   1
loop_
 _symmetry_equiv_pos_site_id
 _symmetry_equiv_pos_as_xyz
  1  'x, y, z'
loop_
 _atom_site_type_symbol
 _atom_site_label
 _atom_site_symmetry_multiplicity
 _atom_site_fract_x
 _atom_site_fract_y
 _atom_site_fract_z
 _atom_site_occupancy
  Ti  Ti0  1  0.617085  0.172529  0.593303  1
  Ti  Ti1  1  0.172529  0.617085  0.593303  1
  Ti  Ti2  1  0.617085  0.617085  0.593303  1
  Ga  Ga3  1  0.006588  0.006588  0.980235  1
  Tc  Tc4  1  0.598917  0.598917  0.203249  1
  S  S5  1  0.376211  0.376211  0.871366  1
  S  S6  1  0.365124  0.889387  0.380364  1
  S  S7  1  0.889387  0.365124  0.380364  1
  S  S8  1  0.365124  0.365124  0.380364  1
  S  S9  1  0.869591  0.869591  0.391225  1
  S  S10  1  0.856719  0.408920  0.877641  1
  S  S11  1  0.408920  0.856719  0.877641  1
  S  S12  1  0.856719  0.856719  0.877641  1
