# generated using pymatgen
data_Na(ZrS2)8
_symmetry_space_group_name_H-M   'P 1'
_cell_length_a   7.35335000
_cell_length_b   7.35334908
_cell_length_c   13.90432200
_cell_angle_alpha   90.00000000
_cell_angle_beta   90.00000000
_cell_angle_gamma   119.99998613
_symmetry_Int_Tables_number   1
_chemical_formula_structural   Na(ZrS2)8
_chemical_formula_sum   'Na1 Zr8 S16'
_cell_volume   651.10485022
_cell_formula_units_Z   1
loop_
 _symmetry_equiv_pos_site_id
 _symmetry_equiv_pos_as_xyz
  1  'x, y, z'
loop_
 _atom_site_type_symbol
 _atom_site_label
 _atom_site_symmetry_multiplicity
 _atom_site_fract_x
 _atom_site_fract_y
 _atom_site_fract_z
 _atom_site_occupancy
  Na  Na0  1  0.000000  0.000000  0.000000  1
  Zr  Zr1  1  0.500503  0.499497  0.743770  1
  Zr  Zr2  1  0.499497  0.500503  0.256230  1
  Zr  Zr3  1  0.500503  0.001006  0.743770  1
  Zr  Zr4  1  0.499497  0.998994  0.256230  1
  Zr  Zr5  1  0.998994  0.499497  0.743770  1
  Zr  Zr6  1  0.001006  0.500503  0.256230  1
  Zr  Zr7  1  0.000000  0.000000  0.735913  1
  Zr  Zr8  1  0.000000  0.000000  0.264087  1
  S  S9  1  0.835552  0.671106  0.150238  1
  S  S10  1  0.831540  0.663080  0.636547  1
  S  S11  1  0.835552  0.164448  0.150238  1
  S  S12  1  0.831540  0.168460  0.636547  1
  S  S13  1  0.333333  0.666667  0.149927  1
  S  S14  1  0.333333  0.666667  0.639278  1
  S  S15  1  0.328894  0.164448  0.150238  1
  S  S16  1  0.336920  0.168460  0.636547  1
  S  S17  1  0.671106  0.835552  0.849762  1
  S  S18  1  0.663080  0.831540  0.363453  1
  S  S19  1  0.666667  0.333333  0.850073  1
  S  S20  1  0.666667  0.333333  0.360722  1
  S  S21  1  0.164448  0.835552  0.849762  1
  S  S22  1  0.168460  0.831540  0.363453  1
  S  S23  1  0.164448  0.328894  0.849762  1
  S  S24  1  0.168460  0.336920  0.363453  1
