# generated using pymatgen
data_LuTiCo4P3
_symmetry_space_group_name_H-M   'P 1'
_cell_length_a   3.63985100
_cell_length_b   10.42484900
_cell_length_c   11.91653700
_cell_angle_alpha   90.00000000
_cell_angle_beta   90.00000000
_cell_angle_gamma   90.00000000
_symmetry_Int_Tables_number   1
_chemical_formula_structural   LuTiCo4P3
_chemical_formula_sum   'Lu4 Ti4 Co16 P12'
_cell_volume   452.17176975
_cell_formula_units_Z   4
loop_
 _symmetry_equiv_pos_site_id
 _symmetry_equiv_pos_as_xyz
  1  'x, y, z'
loop_
 _atom_site_type_symbol
 _atom_site_label
 _atom_site_symmetry_multiplicity
 _atom_site_fract_x
 _atom_site_fract_y
 _atom_site_fract_z
 _atom_site_occupancy
  Lu  Lu0  1  0.250000  0.582215  0.706434  1
  Lu  Lu1  1  0.250000  0.917785  0.206434  1
  Lu  Lu2  1  0.750000  0.417785  0.293566  1
  Lu  Lu3  1  0.750000  0.082215  0.793566  1
  Ti  Ti4  1  0.250000  0.702846  0.990466  1
  Ti  Ti5  1  0.250000  0.797154  0.490466  1
  Ti  Ti6  1  0.750000  0.297154  0.009534  1
  Ti  Ti7  1  0.750000  0.202846  0.509534  1
  Co  Co8  1  0.250000  0.406175  0.488878  1
  Co  Co9  1  0.250000  0.093825  0.988878  1
  Co  Co10  1  0.750000  0.593825  0.511122  1
  Co  Co11  1  0.750000  0.906175  0.011122  1
  Co  Co12  1  0.250000  0.221814  0.175998  1
  Co  Co13  1  0.250000  0.278186  0.675998  1
  Co  Co14  1  0.750000  0.778186  0.824002  1
  Co  Co15  1  0.750000  0.721814  0.324002  1
  Co  Co16  1  0.250000  0.885512  0.700952  1
  Co  Co17  1  0.250000  0.614488  0.200952  1
  Co  Co18  1  0.750000  0.114488  0.299048  1
  Co  Co19  1  0.750000  0.385512  0.799048  1
  Co  Co20  1  0.250000  0.464299  0.932827  1
  Co  Co21  1  0.250000  0.035701  0.432827  1
  Co  Co22  1  0.750000  0.535701  0.067173  1
  Co  Co23  1  0.750000  0.964299  0.567173  1
  P  P24  1  0.250000  0.421589  0.116462  1
  P  P25  1  0.250000  0.078411  0.616462  1
  P  P26  1  0.750000  0.578411  0.883538  1
  P  P27  1  0.750000  0.921589  0.383538  1
  P  P28  1  0.250000  0.267444  0.862078  1
  P  P29  1  0.250000  0.232556  0.362078  1
  P  P30  1  0.750000  0.732556  0.137922  1
  P  P31  1  0.750000  0.767444  0.637922  1
  P  P32  1  0.250000  0.591309  0.389442  1
  P  P33  1  0.250000  0.908691  0.889442  1
  P  P34  1  0.750000  0.408691  0.610558  1
  P  P35  1  0.750000  0.091309  0.110558  1
