# generated using pymatgen
data_Y12Al3Ga5Rh8
_symmetry_space_group_name_H-M   'P 1'
_cell_length_a   5.58629200
_cell_length_b   7.87450385
_cell_length_c   13.65021822
_cell_angle_alpha   89.93020165
_cell_angle_beta   90.00000000
_cell_angle_gamma   90.00000000
_symmetry_Int_Tables_number   1
_chemical_formula_structural   Y12Al3Ga5Rh8
_chemical_formula_sum   'Y12 Al3 Ga5 Rh8'
_cell_volume   600.46279678
_cell_formula_units_Z   1
loop_
 _symmetry_equiv_pos_site_id
 _symmetry_equiv_pos_as_xyz
  1  'x, y, z'
loop_
 _atom_site_type_symbol
 _atom_site_label
 _atom_site_symmetry_multiplicity
 _atom_site_fract_x
 _atom_site_fract_y
 _atom_site_fract_z
 _atom_site_occupancy
  Y  Y0  1  0.146139  0.600581  0.099667  1
  Y  Y1  1  0.146139  0.899419  0.900333  1
  Y  Y2  1  0.852567  0.102280  0.401060  1
  Y  Y3  1  0.852567  0.397720  0.598940  1
  Y  Y4  1  0.854025  0.399863  0.900116  1
  Y  Y5  1  0.854025  0.100137  0.099884  1
  Y  Y6  1  0.147843  0.901100  0.599260  1
  Y  Y7  1  0.147843  0.598900  0.400740  1
  Y  Y8  1  0.370207  0.238394  0.250476  1
  Y  Y9  1  0.370207  0.261606  0.749524  1
  Y  Y10  1  0.629446  0.739166  0.250910  1
  Y  Y11  1  0.629446  0.760834  0.749090  1
  Al  Al12  1  0.372869  0.250000  0.000000  1
  Al  Al13  1  0.629976  0.750000  0.500000  1
  Al  Al14  1  0.627258  0.750000  0.000000  1
  Ga  Ga15  1  0.872224  0.390360  0.249897  1
  Ga  Ga16  1  0.872224  0.109640  0.750103  1
  Ga  Ga17  1  0.127165  0.889227  0.250498  1
  Ga  Ga18  1  0.127165  0.610773  0.749502  1
  Ga  Ga19  1  0.362143  0.250000  0.500000  1
  Rh  Rh20  1  0.641625  0.466095  0.091351  1
  Rh  Rh21  1  0.641625  0.033905  0.908649  1
  Rh  Rh22  1  0.360500  0.963080  0.407567  1
  Rh  Rh23  1  0.360500  0.536920  0.592433  1
  Rh  Rh24  1  0.358424  0.533370  0.908285  1
  Rh  Rh25  1  0.358424  0.966630  0.091715  1
  Rh  Rh26  1  0.643714  0.032733  0.591445  1
  Rh  Rh27  1  0.643714  0.467267  0.408555  1
