# generated using pymatgen
data_EuHo2Er(SbO4)4
_symmetry_space_group_name_H-M   'P 1'
_cell_length_a   5.39199930
_cell_length_b   7.67629050
_cell_length_c   7.56321952
_cell_angle_alpha   81.02672773
_cell_angle_beta   90.27813567
_cell_angle_gamma   91.58292408
_symmetry_Int_Tables_number   1
_chemical_formula_structural   EuHo2Er(SbO4)4
_chemical_formula_sum   'Eu1 Ho2 Er1 Sb4 O16'
_cell_volume   309.09648922
_cell_formula_units_Z   1
loop_
 _symmetry_equiv_pos_site_id
 _symmetry_equiv_pos_as_xyz
  1  'x, y, z'
loop_
 _atom_site_type_symbol
 _atom_site_label
 _atom_site_symmetry_multiplicity
 _atom_site_fract_x
 _atom_site_fract_y
 _atom_site_fract_z
 _atom_site_occupancy
  Eu  Eu0  1  0.219834  0.153775  0.107732  1
  Ho  Ho1  1  0.267047  0.133706  0.613001  1
  Ho  Ho2  1  0.735399  0.864850  0.386384  1
  Er  Er3  1  0.785321  0.843700  0.889485  1
  Sb  Sb4  1  0.239294  0.663685  0.194024  1
  Sb  Sb5  1  0.762053  0.337536  0.804311  1
  Sb  Sb6  1  0.728004  0.336596  0.309567  1
  Sb  Sb7  1  0.273557  0.664704  0.691895  1
  O  O8  1  0.089813  0.434056  0.691032  1
  O  O9  1  0.915214  0.564221  0.312480  1
  O  O10  1  0.608635  0.328680  0.560294  1
  O  O11  1  0.390870  0.677394  0.438871  1
  O  O12  1  0.867371  0.331589  0.061314  1
  O  O13  1  0.124384  0.669724  0.938380  1
  O  O14  1  0.404419  0.432851  0.197245  1
  O  O15  1  0.599214  0.570184  0.804350  1
  O  O16  1  0.031653  0.881567  0.172889  1
  O  O17  1  0.958040  0.112958  0.822905  1
  O  O18  1  0.514405  0.111324  0.329822  1
  O  O19  1  0.487346  0.888051  0.679992  1
  O  O20  1  0.469705  0.184789  0.872206  1
  O  O21  1  0.530532  0.816153  0.119784  1
  O  O22  1  0.995373  0.168189  0.383299  1
  O  O23  1  0.002518  0.829720  0.618738  1
