# generated using pymatgen
data_Dy2PSe
_symmetry_space_group_name_H-M   'P 1'
_cell_length_a   7.07010416
_cell_length_b   7.07010423
_cell_length_c   7.07010346
_cell_angle_alpha   33.12779369
_cell_angle_beta   33.12778934
_cell_angle_gamma   33.12780166
_symmetry_Int_Tables_number   1
_chemical_formula_structural   Dy2PSe
_chemical_formula_sum   'Dy2 P1 Se1'
_cell_volume   93.95261426
_cell_formula_units_Z   1
loop_
 _symmetry_equiv_pos_site_id
 _symmetry_equiv_pos_as_xyz
  1  'x, y, z'
loop_
 _atom_site_type_symbol
 _atom_site_label
 _atom_site_symmetry_multiplicity
 _atom_site_fract_x
 _atom_site_fract_y
 _atom_site_fract_z
 _atom_site_occupancy
  Dy  Dy0  1  0.257351  0.257351  0.257351  1
  Dy  Dy1  1  0.742649  0.742649  0.742649  1
  P  P2  1  0.000000  0.000000  0.000000  1
  Se  Se3  1  0.500000  0.500000  0.500000  1
