# generated using pymatgen
data_Ac5Mg(SnPt)6
_symmetry_space_group_name_H-M   'P 1'
_cell_length_a   7.85067000
_cell_length_b   7.77975582
_cell_length_c   8.52439200
_cell_angle_alpha   90.00000000
_cell_angle_beta   90.00000000
_cell_angle_gamma   119.87293788
_symmetry_Int_Tables_number   1
_chemical_formula_structural   Ac5Mg(SnPt)6
_chemical_formula_sum   'Ac5 Mg1 Sn6 Pt6'
_cell_volume   451.46216999
_cell_formula_units_Z   1
loop_
 _symmetry_equiv_pos_site_id
 _symmetry_equiv_pos_as_xyz
  1  'x, y, z'
loop_
 _atom_site_type_symbol
 _atom_site_label
 _atom_site_symmetry_multiplicity
 _atom_site_fract_x
 _atom_site_fract_y
 _atom_site_fract_z
 _atom_site_occupancy
  Ac  Ac0  1  0.414307  0.003082  0.250000  1
  Ac  Ac1  1  0.585953  0.586979  0.250000  1
  Ac  Ac2  1  0.999574  0.422795  0.250000  1
  Ac  Ac3  1  0.416543  0.997974  0.750000  1
  Ac  Ac4  1  0.581462  0.580548  0.750000  1
  Mg  Mg5  1  0.996181  0.393993  0.750000  1
  Sn  Sn6  1  0.237352  0.247258  0.996821  1
  Sn  Sn7  1  0.000386  0.750648  0.986437  1
  Sn  Sn8  1  0.000386  0.750648  0.513563  1
  Sn  Sn9  1  0.759855  0.007663  0.503113  1
  Sn  Sn10  1  0.237352  0.247258  0.503179  1
  Sn  Sn11  1  0.759855  0.007663  0.996887  1
  Pt  Pt12  1  0.998269  0.009014  0.750000  1
  Pt  Pt13  1  0.998493  0.003676  0.250000  1
  Pt  Pt14  1  0.691652  0.340910  0.987484  1
  Pt  Pt15  1  0.315364  0.654491  0.508234  1
  Pt  Pt16  1  0.315364  0.654491  0.991766  1
  Pt  Pt17  1  0.691652  0.340910  0.512516  1
