# generated using pymatgen
data_DyHo2Hg5
_symmetry_space_group_name_H-M   'P 1'
_cell_length_a   6.35919639
_cell_length_b   6.35919671
_cell_length_c   10.14752100
_cell_angle_alpha   90.00000000
_cell_angle_beta   90.00000000
_cell_angle_gamma   104.09283432
_symmetry_Int_Tables_number   1
_chemical_formula_structural   DyHo2Hg5
_chemical_formula_sum   'Dy2 Ho4 Hg10'
_cell_volume   398.00866116
_cell_formula_units_Z   2
loop_
 _symmetry_equiv_pos_site_id
 _symmetry_equiv_pos_as_xyz
  1  'x, y, z'
loop_
 _atom_site_type_symbol
 _atom_site_label
 _atom_site_symmetry_multiplicity
 _atom_site_fract_x
 _atom_site_fract_y
 _atom_site_fract_z
 _atom_site_occupancy
  Dy  Dy0  1  0.212518  0.787482  0.500000  1
  Dy  Dy1  1  0.212518  0.787482  0.000000  1
  Ho  Ho2  1  0.572603  0.571941  0.250000  1
  Ho  Ho3  1  0.428059  0.427397  0.750000  1
  Ho  Ho4  1  0.787041  0.212959  0.500000  1
  Ho  Ho5  1  0.787041  0.212959  0.000000  1
  Hg  Hg6  1  0.970304  0.969864  0.250000  1
  Hg  Hg7  1  0.030136  0.029696  0.750000  1
  Hg  Hg8  1  0.293964  0.294445  0.030887  1
  Hg  Hg9  1  0.705555  0.706036  0.969113  1
  Hg  Hg10  1  0.293964  0.294445  0.469113  1
  Hg  Hg11  1  0.705555  0.706036  0.530887  1
  Hg  Hg12  1  0.479385  0.040183  0.250000  1
  Hg  Hg13  1  0.959817  0.520615  0.750000  1
  Hg  Hg14  1  0.523146  0.961606  0.750000  1
  Hg  Hg15  1  0.038394  0.476854  0.250000  1
