# generated using pymatgen
data_CdBiOs2O7
_symmetry_space_group_name_H-M   'P 1'
_cell_length_a   7.32790532
_cell_length_b   7.32790510
_cell_length_c   7.28183700
_cell_angle_alpha   60.20774879
_cell_angle_beta   60.20774977
_cell_angle_gamma   60.54752524
_symmetry_Int_Tables_number   1
_chemical_formula_structural   CdBiOs2O7
_chemical_formula_sum   'Cd2 Bi2 Os4 O14'
_cell_volume   278.49569831
_cell_formula_units_Z   2
loop_
 _symmetry_equiv_pos_site_id
 _symmetry_equiv_pos_as_xyz
  1  'x, y, z'
loop_
 _atom_site_type_symbol
 _atom_site_label
 _atom_site_symmetry_multiplicity
 _atom_site_fract_x
 _atom_site_fract_y
 _atom_site_fract_z
 _atom_site_occupancy
  Cd  Cd0  1  0.125000  0.125000  0.625000  1
  Cd  Cd1  1  0.125000  0.125000  0.125000  1
  Bi  Bi2  1  0.125000  0.625000  0.125000  1
  Bi  Bi3  1  0.625000  0.125000  0.125000  1
  Os  Os4  1  0.625000  0.625000  0.125000  1
  Os  Os5  1  0.625000  0.125000  0.625000  1
  Os  Os6  1  0.625000  0.625000  0.625000  1
  Os  Os7  1  0.125000  0.625000  0.625000  1
  O  O8  1  0.303789  0.688772  0.708151  1
  O  O9  1  0.303789  0.688772  0.299288  1
  O  O10  1  0.561228  0.946211  0.541849  1
  O  O11  1  0.312497  0.312497  0.687503  1
  O  O12  1  0.237923  0.237923  0.262077  1
  O  O13  1  0.703850  0.703850  0.296150  1
  O  O14  1  0.937503  0.937503  0.562497  1
  O  O15  1  0.688772  0.303789  0.299288  1
  O  O16  1  0.946211  0.561228  0.541849  1
  O  O17  1  0.012077  0.012077  0.987923  1
  O  O18  1  0.561228  0.946211  0.950712  1
  O  O19  1  0.946211  0.561228  0.950712  1
  O  O20  1  0.688772  0.303789  0.708151  1
  O  O21  1  0.546150  0.546150  0.953850  1
