# generated using pymatgen
data_HfTa5(Fe5B2)2
_symmetry_space_group_name_H-M   'P 1'
_cell_length_a   8.81435093
_cell_length_b   8.81435093
_cell_length_c   2.98708200
_cell_angle_alpha   90.00000000
_cell_angle_beta   90.00000000
_cell_angle_gamma   89.85635670
_symmetry_Int_Tables_number   1
_chemical_formula_structural   HfTa5(Fe5B2)2
_chemical_formula_sum   'Hf1 Ta5 Fe10 B4'
_cell_volume   232.07398200
_cell_formula_units_Z   1
loop_
 _symmetry_equiv_pos_site_id
 _symmetry_equiv_pos_as_xyz
  1  'x, y, z'
loop_
 _atom_site_type_symbol
 _atom_site_label
 _atom_site_symmetry_multiplicity
 _atom_site_fract_x
 _atom_site_fract_y
 _atom_site_fract_z
 _atom_site_occupancy
  Hf  Hf0  1  0.824984  0.324984  0.000000  1
  Ta  Ta1  1  0.499732  0.500262  0.000000  1
  Ta  Ta2  1  0.000262  0.999732  0.000000  1
  Ta  Ta3  1  0.175092  0.675092  0.000000  1
  Ta  Ta4  1  0.325057  0.174988  0.000000  1
  Ta  Ta5  1  0.674988  0.825057  0.000000  1
  Fe  Fe6  1  0.498398  0.998398  0.500000  1
  Fe  Fe7  1  0.003837  0.503837  0.500000  1
  Fe  Fe8  1  0.721745  0.574583  0.500000  1
  Fe  Fe9  1  0.278755  0.430317  0.500000  1
  Fe  Fe10  1  0.222051  0.928545  0.500000  1
  Fe  Fe11  1  0.775465  0.065480  0.500000  1
  Fe  Fe12  1  0.428545  0.722051  0.500000  1
  Fe  Fe13  1  0.565480  0.275465  0.500000  1
  Fe  Fe14  1  0.074583  0.221745  0.500000  1
  Fe  Fe15  1  0.930317  0.778755  0.500000  1
  B  B16  1  0.616888  0.116888  0.000000  1
  B  B17  1  0.380887  0.880887  0.000000  1
  B  B18  1  0.120797  0.382136  0.000000  1
  B  B19  1  0.882136  0.620797  0.000000  1
