# generated using pymatgen
data_Hf3U(GeRh5)2
_symmetry_space_group_name_H-M   'P 1'
_cell_length_a   4.07813400
_cell_length_b   5.64414651
_cell_length_c   11.05032500
_cell_angle_alpha   89.57741523
_cell_angle_beta   90.00000000
_cell_angle_gamma   90.00000000
_symmetry_Int_Tables_number   1
_chemical_formula_structural   Hf3U(GeRh5)2
_chemical_formula_sum   'Hf3 U1 Ge2 Rh10'
_cell_volume   254.34488574
_cell_formula_units_Z   1
loop_
 _symmetry_equiv_pos_site_id
 _symmetry_equiv_pos_as_xyz
  1  'x, y, z'
loop_
 _atom_site_type_symbol
 _atom_site_label
 _atom_site_symmetry_multiplicity
 _atom_site_fract_x
 _atom_site_fract_y
 _atom_site_fract_z
 _atom_site_occupancy
  Hf  Hf0  1  0.500000  0.817895  0.353214  1
  Hf  Hf1  1  0.500000  0.678561  0.864775  1
  Hf  Hf2  1  0.500000  0.320133  0.141036  1
  U  U3  1  0.500000  0.182756  0.640897  1
  Ge  Ge4  1  0.000000  0.512955  0.492639  1
  Ge  Ge5  1  0.000000  0.000253  0.004106  1
  Rh  Rh6  1  0.500000  0.185157  0.892793  1
  Rh  Rh7  1  0.500000  0.809776  0.107442  1
  Rh  Rh8  1  0.500000  0.692827  0.607723  1
  Rh  Rh9  1  0.500000  0.303040  0.394259  1
  Rh  Rh10  1  0.000000  0.430840  0.743054  1
  Rh  Rh11  1  0.000000  0.564851  0.256719  1
  Rh  Rh12  1  0.000000  0.998772  0.500584  1
  Rh  Rh13  1  0.000000  0.500245  0.000563  1
  Rh  Rh14  1  0.000000  0.066109  0.242824  1
  Rh  Rh15  1  0.000000  0.935833  0.757373  1
