# generated using pymatgen
data_SrYb3(Sb2O7)2
_symmetry_space_group_name_H-M   'P 1'
_cell_length_a   7.37266157
_cell_length_b   7.37266113
_cell_length_c   7.43096654
_cell_angle_alpha   119.93999667
_cell_angle_beta   118.67756393
_cell_angle_gamma   90.76122011
_symmetry_Int_Tables_number   1
_chemical_formula_structural   SrYb3(Sb2O7)2
_chemical_formula_sum   'Sr1 Yb3 Sb4 O14'
_cell_volume   289.60747464
_cell_formula_units_Z   1
loop_
 _symmetry_equiv_pos_site_id
 _symmetry_equiv_pos_as_xyz
  1  'x, y, z'
loop_
 _atom_site_type_symbol
 _atom_site_label
 _atom_site_symmetry_multiplicity
 _atom_site_fract_x
 _atom_site_fract_y
 _atom_site_fract_z
 _atom_site_occupancy
  Sr  Sr0  1  0.500000  0.000000  0.000000  1
  Yb  Yb1  1  0.500000  0.500000  0.500000  1
  Yb  Yb2  1  0.500000  0.500000  0.000000  1
  Yb  Yb3  1  0.000000  0.000000  0.000000  1
  Sb  Sb4  1  0.000000  0.500000  0.000000  1
  Sb  Sb5  1  0.000000  0.000000  0.500000  1
  Sb  Sb6  1  0.000000  0.500000  0.500000  1
  Sb  Sb7  1  0.500000  0.000000  0.500000  1
  O  O8  1  0.943659  0.594392  0.773794  1
  O  O9  1  0.056176  0.829236  0.650231  1
  O  O10  1  0.679005  0.905945  0.349769  1
  O  O11  1  0.320598  0.669864  0.226206  1
  O  O12  1  0.056341  0.405608  0.226206  1
  O  O13  1  0.943824  0.170764  0.349769  1
  O  O14  1  0.320995  0.094055  0.650231  1
  O  O15  1  0.679402  0.330136  0.773794  1
  O  O16  1  0.100537  0.248698  0.849235  1
  O  O17  1  0.899463  0.751302  0.150765  1
  O  O18  1  0.679197  0.419730  0.280577  1
  O  O19  1  0.320803  0.580270  0.719423  1
  O  O20  1  0.360846  0.101380  0.280577  1
  O  O21  1  0.639154  0.898620  0.719423  1
