# generated using pymatgen
data_SmDyNi6(BPt)2
_symmetry_space_group_name_H-M   'P 1'
_cell_length_a   5.10181500
_cell_length_b   5.10142297
_cell_length_c   7.16178600
_cell_angle_alpha   90.00000000
_cell_angle_beta   90.00000000
_cell_angle_gamma   120.00253564
_symmetry_Int_Tables_number   1
_chemical_formula_structural   SmDyNi6(BPt)2
_chemical_formula_sum   'Sm1 Dy1 Ni6 B2 Pt2'
_cell_volume   161.41984054
_cell_formula_units_Z   1
loop_
 _symmetry_equiv_pos_site_id
 _symmetry_equiv_pos_as_xyz
  1  'x, y, z'
loop_
 _atom_site_type_symbol
 _atom_site_label
 _atom_site_symmetry_multiplicity
 _atom_site_fract_x
 _atom_site_fract_y
 _atom_site_fract_z
 _atom_site_occupancy
  Sm  Sm0  1  0.500000  0.000000  0.000000  1
  Dy  Dy1  1  0.500000  0.000000  0.500000  1
  Ni  Ni2  1  0.000000  0.000000  0.694154  1
  Ni  Ni3  1  0.500000  0.500000  0.694221  1
  Ni  Ni4  1  0.000000  0.500000  0.694221  1
  Ni  Ni5  1  0.000000  0.000000  0.305846  1
  Ni  Ni6  1  0.500000  0.500000  0.305779  1
  Ni  Ni7  1  0.000000  0.500000  0.305779  1
  B  B8  1  0.833320  0.666639  0.500000  1
  B  B9  1  0.166680  0.333361  0.500000  1
  Pt  Pt10  1  0.833350  0.666700  0.000000  1
  Pt  Pt11  1  0.166650  0.333300  0.000000  1
