# generated using pymatgen
data_SmDy2RuI3
_symmetry_space_group_name_H-M   'P 1'
_cell_length_a   4.24067000
_cell_length_b   8.96995532
_cell_length_c   12.35065072
_cell_angle_alpha   94.95576499
_cell_angle_beta   90.00000000
_cell_angle_gamma   90.00000000
_symmetry_Int_Tables_number   1
_chemical_formula_structural   SmDy2RuI3
_chemical_formula_sum   'Sm2 Dy4 Ru2 I6'
_cell_volume   468.04544998
_cell_formula_units_Z   2
loop_
 _symmetry_equiv_pos_site_id
 _symmetry_equiv_pos_as_xyz
  1  'x, y, z'
loop_
 _atom_site_type_symbol
 _atom_site_label
 _atom_site_symmetry_multiplicity
 _atom_site_fract_x
 _atom_site_fract_y
 _atom_site_fract_z
 _atom_site_occupancy
  Sm  Sm0  1  0.750000  0.273424  0.605182  1
  Sm  Sm1  1  0.250000  0.726576  0.394818  1
  Dy  Dy2  1  0.750000  0.879812  0.624852  1
  Dy  Dy3  1  0.250000  0.120188  0.375148  1
  Dy  Dy4  1  0.750000  0.893097  0.182904  1
  Dy  Dy5  1  0.250000  0.106903  0.817096  1
  Ru  Ru6  1  0.750000  0.938395  0.404641  1
  Ru  Ru7  1  0.250000  0.061605  0.595359  1
  I  I8  1  0.750000  0.415566  0.363551  1
  I  I9  1  0.250000  0.584434  0.636449  1
  I  I10  1  0.750000  0.867570  0.889153  1
  I  I11  1  0.250000  0.132430  0.110847  1
  I  I12  1  0.750000  0.358266  0.870648  1
  I  I13  1  0.250000  0.641734  0.129352  1
