# generated using pymatgen
data_LiY(NiH3)2
_symmetry_space_group_name_H-M   'P 1'
_cell_length_a   4.83081694
_cell_length_b   4.83084789
_cell_length_c   4.83082100
_cell_angle_alpha   120.00011885
_cell_angle_beta   120.00013503
_cell_angle_gamma   89.99983574
_symmetry_Int_Tables_number   1
_chemical_formula_structural   LiY(NiH3)2
_chemical_formula_sum   'Li1 Y1 Ni2 H6'
_cell_volume   79.71661463
_cell_formula_units_Z   1
loop_
 _symmetry_equiv_pos_site_id
 _symmetry_equiv_pos_as_xyz
  1  'x, y, z'
loop_
 _atom_site_type_symbol
 _atom_site_label
 _atom_site_symmetry_multiplicity
 _atom_site_fract_x
 _atom_site_fract_y
 _atom_site_fract_z
 _atom_site_occupancy
  Li  Li0  1  0.749994  0.749998  0.000005  1
  Y  Y1  1  0.250001  0.249998  0.999997  1
  Ni  Ni2  1  0.500004  0.000000  0.500000  1
  Ni  Ni3  1  0.999998  0.500002  0.500000  1
  H  H4  1  0.250003  0.750002  0.000005  1
  H  H5  1  0.749996  0.750003  0.499998  1
  H  H6  1  0.749996  0.249996  0.499999  1
  H  H7  1  0.250002  0.750001  0.499998  1
  H  H8  1  0.250003  0.249996  0.499999  1
  H  H9  1  0.749997  0.249995  0.999992  1
