# generated using pymatgen
data_Ta6Ti(B4Os3)2
_symmetry_space_group_name_H-M   'P 1'
_cell_length_a   9.61313600
_cell_length_b   9.61313601
_cell_length_c   3.11284600
_cell_angle_alpha   90.00000000
_cell_angle_beta   90.00000000
_cell_angle_gamma   119.99999996
_symmetry_Int_Tables_number   1
_chemical_formula_structural   Ta6Ti(B4Os3)2
_chemical_formula_sum   'Ta6 Ti1 B8 Os6'
_cell_volume   249.12564777
_cell_formula_units_Z   1
loop_
 _symmetry_equiv_pos_site_id
 _symmetry_equiv_pos_as_xyz
  1  'x, y, z'
loop_
 _atom_site_type_symbol
 _atom_site_label
 _atom_site_symmetry_multiplicity
 _atom_site_fract_x
 _atom_site_fract_y
 _atom_site_fract_z
 _atom_site_occupancy
  Ta  Ta0  1  0.727036  0.641682  0.000000  1
  Ta  Ta1  1  0.358318  0.085354  0.000000  1
  Ta  Ta2  1  0.914646  0.272964  0.000000  1
  Ta  Ta3  1  0.272964  0.358318  0.000000  1
  Ta  Ta4  1  0.641682  0.914646  0.000000  1
  Ta  Ta5  1  0.085354  0.727036  0.000000  1
  Ti  Ti6  1  0.000000  0.000000  0.000000  1
  B  B7  1  0.666667  0.333333  0.000000  1
  B  B8  1  0.333333  0.666667  0.000000  1
  B  B9  1  0.150148  0.936715  0.500000  1
  B  B10  1  0.063285  0.213433  0.500000  1
  B  B11  1  0.786567  0.849852  0.500000  1
  B  B12  1  0.849852  0.063285  0.500000  1
  B  B13  1  0.936715  0.786567  0.500000  1
  B  B14  1  0.213433  0.150148  0.500000  1
  Os  Os15  1  0.359486  0.846342  0.500000  1
  Os  Os16  1  0.153658  0.513144  0.500000  1
  Os  Os17  1  0.486856  0.640514  0.500000  1
  Os  Os18  1  0.640514  0.153658  0.500000  1
  Os  Os19  1  0.846342  0.486856  0.500000  1
  Os  Os20  1  0.513144  0.359486  0.500000  1
