# generated using pymatgen
data_Tb10Dy6MgCo4Ag3
_symmetry_space_group_name_H-M   'P 1'
_cell_length_a   9.45553511
_cell_length_b   9.48089479
_cell_length_c   9.48207800
_cell_angle_alpha   59.99587158
_cell_angle_beta   59.90709744
_cell_angle_gamma   59.92091267
_symmetry_Int_Tables_number   1
_chemical_formula_structural   Tb10Dy6MgCo4Ag3
_chemical_formula_sum   'Tb10 Dy6 Mg1 Co4 Ag3'
_cell_volume   600.26733206
_cell_formula_units_Z   1
loop_
 _symmetry_equiv_pos_site_id
 _symmetry_equiv_pos_as_xyz
  1  'x, y, z'
loop_
 _atom_site_type_symbol
 _atom_site_label
 _atom_site_symmetry_multiplicity
 _atom_site_fract_x
 _atom_site_fract_y
 _atom_site_fract_z
 _atom_site_occupancy
  Tb  Tb0  1  0.809458  0.189211  0.189200  1
  Tb  Tb1  1  0.185888  0.813542  0.813608  1
  Tb  Tb2  1  0.185888  0.813542  0.186962  1
  Tb  Tb3  1  0.809458  0.189211  0.812131  1
  Tb  Tb4  1  0.185723  0.186826  0.813726  1
  Tb  Tb5  1  0.809678  0.812289  0.189017  1
  Tb  Tb6  1  0.936306  0.562761  0.562727  1
  Tb  Tb7  1  0.562112  0.937703  0.937714  1
  Tb  Tb8  1  0.562112  0.937703  0.562471  1
  Tb  Tb9  1  0.936306  0.562761  0.938205  1
  Dy  Dy10  1  0.561848  0.562124  0.938014  1
  Dy  Dy11  1  0.936381  0.938833  0.562393  1
  Dy  Dy12  1  0.345773  0.345096  0.344593  1
  Dy  Dy13  1  0.345773  0.345096  0.964537  1
  Dy  Dy14  1  0.345377  0.964483  0.345070  1
  Dy  Dy15  1  0.951657  0.349238  0.349553  1
  Mg  Mg16  1  0.290157  0.569960  0.569942  1
  Co  Co17  1  0.138778  0.142355  0.142742  1
  Co  Co18  1  0.138778  0.142355  0.576124  1
  Co  Co19  1  0.139126  0.576112  0.142380  1
  Co  Co20  1  0.575221  0.141835  0.141472  1
  Ag  Ag21  1  0.582597  0.582915  0.583350  1
  Ag  Ag22  1  0.582597  0.582915  0.251137  1
  Ag  Ag23  1  0.583002  0.251134  0.582931  1
