# generated using pymatgen
data_TiGaRh3Se8
_symmetry_space_group_name_H-M   'P 1'
_cell_length_a   7.23328570
_cell_length_b   7.23328670
_cell_length_c   7.23328454
_cell_angle_alpha   62.52711682
_cell_angle_beta   62.52711185
_cell_angle_gamma   62.52710826
_symmetry_Int_Tables_number   1
_chemical_formula_structural   TiGaRh3Se8
_chemical_formula_sum   'Ti1 Ga1 Rh3 Se8'
_cell_volume   282.67120000
_cell_formula_units_Z   1
loop_
 _symmetry_equiv_pos_site_id
 _symmetry_equiv_pos_as_xyz
  1  'x, y, z'
loop_
 _atom_site_type_symbol
 _atom_site_label
 _atom_site_symmetry_multiplicity
 _atom_site_fract_x
 _atom_site_fract_y
 _atom_site_fract_z
 _atom_site_occupancy
  Ti  Ti0  1  0.406622  0.406622  0.406622  1
  Ga  Ga1  1  0.988546  0.988546  0.988546  1
  Rh  Rh2  1  0.859161  0.374849  0.374849  1
  Rh  Rh3  1  0.374849  0.859161  0.374849  1
  Rh  Rh4  1  0.374849  0.374849  0.859161  1
  Se  Se5  1  0.131441  0.131441  0.131441  1
  Se  Se6  1  0.581360  0.139903  0.139903  1
  Se  Se7  1  0.139903  0.581360  0.139903  1
  Se  Se8  1  0.139903  0.139903  0.581360  1
  Se  Se9  1  0.611860  0.611860  0.611860  1
  Se  Se10  1  0.123537  0.633986  0.633986  1
  Se  Se11  1  0.633986  0.123537  0.633986  1
  Se  Se12  1  0.633986  0.633986  0.123537  1
