# generated using pymatgen
data_GdIrF7
_symmetry_space_group_name_H-M   'P 1'
_cell_length_a   5.66933500
_cell_length_b   5.97343281
_cell_length_c   8.15766900
_cell_angle_alpha   102.59556744
_cell_angle_beta   90.00000000
_cell_angle_gamma   90.00000000
_symmetry_Int_Tables_number   1
_chemical_formula_structural   GdIrF7
_chemical_formula_sum   'Gd2 Ir2 F14'
_cell_volume   269.61401833
_cell_formula_units_Z   2
loop_
 _symmetry_equiv_pos_site_id
 _symmetry_equiv_pos_as_xyz
  1  'x, y, z'
loop_
 _atom_site_type_symbol
 _atom_site_label
 _atom_site_symmetry_multiplicity
 _atom_site_fract_x
 _atom_site_fract_y
 _atom_site_fract_z
 _atom_site_occupancy
  Gd  Gd0  1  0.701827  0.658660  0.687904  1
  Gd  Gd1  1  0.201827  0.341340  0.312096  1
  Ir  Ir2  1  0.710885  0.810091  0.223202  1
  Ir  Ir3  1  0.210885  0.189909  0.776798  1
  F  F4  1  0.885126  0.443011  0.474430  1
  F  F5  1  0.385126  0.556989  0.525570  1
  F  F6  1  0.412280  0.926353  0.776517  1
  F  F7  1  0.912280  0.073647  0.223483  1
  F  F8  1  0.933286  0.984934  0.764989  1
  F  F9  1  0.433286  0.015066  0.235011  1
  F  F10  1  0.012288  0.461922  0.790633  1
  F  F11  1  0.512288  0.538078  0.209367  1
  F  F12  1  0.704304  0.757986  0.981049  1
  F  F13  1  0.204304  0.242014  0.018951  1
  F  F14  1  0.717004  0.874436  0.467561  1
  F  F15  1  0.217004  0.125564  0.532439  1
  F  F16  1  0.499361  0.380542  0.792103  1
  F  F17  1  0.999361  0.619458  0.207897  1
