# generated using pymatgen
data_Tb2Mn2Co5(NiP2)3
_symmetry_space_group_name_H-M   'P 1'
_cell_length_a   3.68650300
_cell_length_b   10.35397100
_cell_length_c   11.86986100
_cell_angle_alpha   90.00000000
_cell_angle_beta   90.00000000
_cell_angle_gamma   90.00000000
_symmetry_Int_Tables_number   1
_chemical_formula_structural   Tb2Mn2Co5(NiP2)3
_chemical_formula_sum   'Tb4 Mn4 Co10 Ni6 P12'
_cell_volume   453.07194335
_cell_formula_units_Z   2
loop_
 _symmetry_equiv_pos_site_id
 _symmetry_equiv_pos_as_xyz
  1  'x, y, z'
loop_
 _atom_site_type_symbol
 _atom_site_label
 _atom_site_symmetry_multiplicity
 _atom_site_fract_x
 _atom_site_fract_y
 _atom_site_fract_z
 _atom_site_occupancy
  Tb  Tb0  1  0.250000  0.582507  0.705373  1
  Tb  Tb1  1  0.250000  0.917493  0.205373  1
  Tb  Tb2  1  0.750000  0.419005  0.295370  1
  Tb  Tb3  1  0.750000  0.080995  0.795370  1
  Mn  Mn4  1  0.250000  0.708239  0.986511  1
  Mn  Mn5  1  0.250000  0.791761  0.486511  1
  Mn  Mn6  1  0.750000  0.290178  0.012684  1
  Mn  Mn7  1  0.750000  0.209822  0.512684  1
  Co  Co8  1  0.750000  0.777339  0.823504  1
  Co  Co9  1  0.750000  0.722661  0.323504  1
  Co  Co10  1  0.250000  0.881491  0.697910  1
  Co  Co11  1  0.250000  0.618509  0.197910  1
  Co  Co12  1  0.750000  0.118048  0.301647  1
  Co  Co13  1  0.750000  0.381952  0.801647  1
  Co  Co14  1  0.250000  0.466592  0.932740  1
  Co  Co15  1  0.250000  0.033408  0.432740  1
  Co  Co16  1  0.750000  0.533869  0.067481  1
  Co  Co17  1  0.750000  0.966131  0.567481  1
  Ni  Ni18  1  0.250000  0.407902  0.487519  1
  Ni  Ni19  1  0.250000  0.092098  0.987519  1
  Ni  Ni20  1  0.750000  0.593405  0.512386  1
  Ni  Ni21  1  0.750000  0.906595  0.012386  1
  Ni  Ni22  1  0.250000  0.223105  0.176717  1
  Ni  Ni23  1  0.250000  0.276895  0.676717  1
  P  P24  1  0.250000  0.423574  0.112475  1
  P  P25  1  0.250000  0.076426  0.612475  1
  P  P26  1  0.750000  0.580125  0.887545  1
  P  P27  1  0.750000  0.919875  0.387545  1
  P  P28  1  0.250000  0.272009  0.868016  1
  P  P29  1  0.250000  0.227991  0.368016  1
  P  P30  1  0.750000  0.728123  0.134068  1
  P  P31  1  0.750000  0.771877  0.634068  1
  P  P32  1  0.250000  0.605875  0.387950  1
  P  P33  1  0.250000  0.894125  0.887950  1
  P  P34  1  0.750000  0.399149  0.610107  1
  P  P35  1  0.750000  0.100851  0.110107  1
