# generated using pymatgen
data_LiDy3Ho5InIr2
_symmetry_space_group_name_H-M   'P 1'
_cell_length_a   9.63087312
_cell_length_b   9.63087348
_cell_length_c   9.65303600
_cell_angle_alpha   59.92384096
_cell_angle_beta   59.92383971
_cell_angle_gamma   59.79562372
_symmetry_Int_Tables_number   1
_chemical_formula_structural   LiDy3Ho5InIr2
_chemical_formula_sum   'Li2 Dy6 Ho10 In2 Ir4'
_cell_volume   631.40151213
_cell_formula_units_Z   2
loop_
 _symmetry_equiv_pos_site_id
 _symmetry_equiv_pos_as_xyz
  1  'x, y, z'
loop_
 _atom_site_type_symbol
 _atom_site_label
 _atom_site_symmetry_multiplicity
 _atom_site_fract_x
 _atom_site_fract_y
 _atom_site_fract_z
 _atom_site_occupancy
  Li  Li0  1  0.822304  0.822304  0.825511  1
  Li  Li1  1  0.822304  0.822304  0.529881  1
  Dy  Dy2  1  0.188317  0.811015  0.812056  1
  Dy  Dy3  1  0.811015  0.188317  0.188612  1
  Dy  Dy4  1  0.811015  0.188317  0.812056  1
  Dy  Dy5  1  0.188317  0.811015  0.188612  1
  Dy  Dy6  1  0.810097  0.810097  0.189903  1
  Dy  Dy7  1  0.186960  0.186960  0.813040  1
  Ho  Ho8  1  0.598636  0.598636  0.600468  1
  Ho  Ho9  1  0.598636  0.598636  0.202259  1
  Ho  Ho10  1  0.596211  0.209469  0.597161  1
  Ho  Ho11  1  0.209469  0.596211  0.597161  1
  Ho  Ho12  1  0.062033  0.438065  0.439577  1
  Ho  Ho13  1  0.438065  0.062033  0.060324  1
  Ho  Ho14  1  0.438065  0.062033  0.439577  1
  Ho  Ho15  1  0.062033  0.438065  0.060324  1
  Ho  Ho16  1  0.441871  0.441871  0.058129  1
  Ho  Ho17  1  0.066454  0.066454  0.433546  1
  In  In18  1  0.834524  0.506802  0.829337  1
  In  In19  1  0.506802  0.834524  0.829337  1
  Ir  Ir20  1  0.393388  0.393388  0.388052  1
  Ir  Ir21  1  0.393388  0.393388  0.825172  1
  Ir  Ir22  1  0.394585  0.825510  0.389953  1
  Ir  Ir23  1  0.825510  0.394585  0.389953  1
