# generated using pymatgen
data_Th4In2OsAu3
_symmetry_space_group_name_H-M   'P 1'
_cell_length_a   8.05212400
_cell_length_b   8.05212440
_cell_length_c   3.94897000
_cell_angle_alpha   90.00000000
_cell_angle_beta   90.00000000
_cell_angle_gamma   89.94008655
_symmetry_Int_Tables_number   1
_chemical_formula_structural   Th4In2OsAu3
_chemical_formula_sum   'Th4 In2 Os1 Au3'
_cell_volume   256.03805961
_cell_formula_units_Z   1
loop_
 _symmetry_equiv_pos_site_id
 _symmetry_equiv_pos_as_xyz
  1  'x, y, z'
loop_
 _atom_site_type_symbol
 _atom_site_label
 _atom_site_symmetry_multiplicity
 _atom_site_fract_x
 _atom_site_fract_y
 _atom_site_fract_z
 _atom_site_occupancy
  Th  Th0  1  0.189587  0.310413  0.000000  1
  Th  Th1  1  0.829779  0.670221  0.000000  1
  Th  Th2  1  0.651321  0.178342  0.000000  1
  Th  Th3  1  0.321658  0.848679  0.000000  1
  In  In4  1  0.000457  0.003050  0.500000  1
  In  In5  1  0.496950  0.499543  0.500000  1
  Os  Os6  1  0.371863  0.128137  0.500000  1
  Au  Au7  1  0.632572  0.867428  0.500000  1
  Au  Au8  1  0.874483  0.368671  0.500000  1
  Au  Au9  1  0.131329  0.625517  0.500000  1
