# generated using pymatgen
data_Na2Zr3Ni9As7
_symmetry_space_group_name_H-M   'P 1'
_cell_length_a   9.80920500
_cell_length_b   9.80920376
_cell_length_c   3.86960300
_cell_angle_alpha   90.00000000
_cell_angle_beta   90.00000000
_cell_angle_gamma   120.00000756
_symmetry_Int_Tables_number   1
_chemical_formula_structural   Na2Zr3Ni9As7
_chemical_formula_sum   'Na2 Zr3 Ni9 As7'
_cell_volume   322.45162986
_cell_formula_units_Z   1
loop_
 _symmetry_equiv_pos_site_id
 _symmetry_equiv_pos_as_xyz
  1  'x, y, z'
loop_
 _atom_site_type_symbol
 _atom_site_label
 _atom_site_symmetry_multiplicity
 _atom_site_fract_x
 _atom_site_fract_y
 _atom_site_fract_z
 _atom_site_occupancy
  Na  Na0  1  0.333333  0.666667  0.000000  1
  Na  Na1  1  0.666667  0.333333  0.500000  1
  Zr  Zr2  1  0.231765  0.123797  0.500000  1
  Zr  Zr3  1  0.876203  0.107968  0.500000  1
  Zr  Zr4  1  0.892032  0.768235  0.500000  1
  Ni  Ni5  1  0.126276  0.285118  0.000000  1
  Ni  Ni6  1  0.714882  0.841158  0.000000  1
  Ni  Ni7  1  0.158842  0.873724  0.000000  1
  Ni  Ni8  1  0.421893  0.361750  0.000000  1
  Ni  Ni9  1  0.638250  0.060144  0.000000  1
  Ni  Ni10  1  0.939856  0.578107  0.000000  1
  Ni  Ni11  1  0.054381  0.439058  0.500000  1
  Ni  Ni12  1  0.560942  0.615322  0.500000  1
  Ni  Ni13  1  0.384678  0.945619  0.500000  1
  As  As14  1  0.291720  0.423538  0.500000  1
  As  As15  1  0.576462  0.868182  0.500000  1
  As  As16  1  0.131818  0.708280  0.500000  1
  As  As17  1  0.426092  0.108935  0.000000  1
  As  As18  1  0.891065  0.317157  0.000000  1
  As  As19  1  0.682843  0.573908  0.000000  1
  As  As20  1  0.000000  0.000000  0.000000  1
