# generated using pymatgen
data_CaPr3Ni14
_symmetry_space_group_name_H-M   'P 1'
_cell_length_a   5.02392667
_cell_length_b   5.02392601
_cell_length_c   12.48991896
_cell_angle_alpha   78.39758363
_cell_angle_beta   78.39758248
_cell_angle_gamma   59.99999414
_symmetry_Int_Tables_number   1
_chemical_formula_structural   CaPr3Ni14
_chemical_formula_sum   'Ca1 Pr3 Ni14'
_cell_volume   265.54488811
_cell_formula_units_Z   1
loop_
 _symmetry_equiv_pos_site_id
 _symmetry_equiv_pos_as_xyz
  1  'x, y, z'
loop_
 _atom_site_type_symbol
 _atom_site_label
 _atom_site_symmetry_multiplicity
 _atom_site_fract_x
 _atom_site_fract_y
 _atom_site_fract_z
 _atom_site_occupancy
  Ca  Ca0  1  0.147478  0.147478  0.557564  1
  Pr  Pr1  1  0.948982  0.948982  0.153054  1
  Pr  Pr2  1  0.052579  0.052579  0.842265  1
  Pr  Pr3  1  0.850929  0.850929  0.447213  1
  Ni  Ni4  1  0.499526  0.499526  0.501421  1
  Ni  Ni5  1  0.721667  0.721667  0.834997  1
  Ni  Ni6  1  0.278505  0.278505  0.164485  1
  Ni  Ni7  1  0.612278  0.612278  0.163167  1
  Ni  Ni8  1  0.387667  0.387667  0.836999  1
  Ni  Ni9  1  0.999970  0.500241  0.999549  1
  Ni  Ni10  1  0.500241  0.999970  0.999549  1
  Ni  Ni11  1  0.500241  0.500241  0.999549  1
  Ni  Ni12  1  0.391730  0.391730  0.326607  1
  Ni  Ni13  1  0.889933  0.391730  0.326607  1
  Ni  Ni14  1  0.391730  0.889933  0.326607  1
  Ni  Ni15  1  0.608087  0.608087  0.673455  1
  Ni  Ni16  1  0.110369  0.608087  0.673455  1
  Ni  Ni17  1  0.608087  0.110369  0.673455  1
