# generated using pymatgen
data_NbTc5As14
_symmetry_space_group_name_H-M   'P 1'
_cell_length_a   7.67684669
_cell_length_b   7.67684604
_cell_length_c   7.67684545
_cell_angle_alpha   109.16612258
_cell_angle_beta   110.08316473
_cell_angle_gamma   109.16611483
_symmetry_Int_Tables_number   1
_chemical_formula_structural   NbTc5As14
_chemical_formula_sum   'Nb1 Tc5 As14'
_cell_volume   348.24861107
_cell_formula_units_Z   1
loop_
 _symmetry_equiv_pos_site_id
 _symmetry_equiv_pos_as_xyz
  1  'x, y, z'
loop_
 _atom_site_type_symbol
 _atom_site_label
 _atom_site_symmetry_multiplicity
 _atom_site_fract_x
 _atom_site_fract_y
 _atom_site_fract_z
 _atom_site_occupancy
  Nb  Nb0  1  0.658478  0.000000  0.658478  1
  Tc  Tc1  1  0.333896  0.000000  0.333896  1
  Tc  Tc2  1  0.999715  0.341472  0.341187  1
  Tc  Tc3  1  0.999715  0.658528  0.658243  1
  Tc  Tc4  1  0.341187  0.341472  0.999715  1
  Tc  Tc5  1  0.658243  0.658528  0.999715  1
  As  As6  1  0.748689  0.500000  0.248689  1
  As  As7  1  0.499719  0.747034  0.246755  1
  As  As8  1  0.499719  0.252966  0.752685  1
  As  As9  1  0.752685  0.252966  0.499719  1
  As  As10  1  0.246755  0.747034  0.499719  1
  As  As11  1  0.248689  0.500000  0.748689  1
  As  As12  1  0.000228  0.000000  0.331076  1
  As  As13  1  0.670478  0.000000  0.004472  1
  As  As14  1  0.000228  0.669153  0.000228  1
  As  As15  1  0.331076  0.330847  0.331076  1
  As  As16  1  0.004472  0.333994  0.004472  1
  As  As17  1  0.670478  0.666006  0.670478  1
  As  As18  1  0.331076  0.000000  0.000228  1
  As  As19  1  0.004472  0.000000  0.670478  1
