# generated using pymatgen
data_Ho3Pa(VB4)4
_symmetry_space_group_name_H-M   'P 1'
_cell_length_a   3.47676700
_cell_length_b   5.99043708
_cell_length_c   11.59677302
_cell_angle_alpha   90.09540050
_cell_angle_beta   90.00000000
_cell_angle_gamma   90.00000000
_symmetry_Int_Tables_number   1
_chemical_formula_structural   Ho3Pa(VB4)4
_chemical_formula_sum   'Ho3 Pa1 V4 B16'
_cell_volume   241.52976143
_cell_formula_units_Z   1
loop_
 _symmetry_equiv_pos_site_id
 _symmetry_equiv_pos_as_xyz
  1  'x, y, z'
loop_
 _atom_site_type_symbol
 _atom_site_label
 _atom_site_symmetry_multiplicity
 _atom_site_fract_x
 _atom_site_fract_y
 _atom_site_fract_z
 _atom_site_occupancy
  Ho  Ho0  1  0.500000  0.874287  0.348074  1
  Ho  Ho1  1  0.500000  0.623667  0.850537  1
  Ho  Ho2  1  0.500000  0.375407  0.150721  1
  Pa  Pa3  1  0.500000  0.125880  0.651213  1
  V  V4  1  0.500000  0.126367  0.915816  1
  V  V5  1  0.500000  0.872578  0.082437  1
  V  V6  1  0.500000  0.627835  0.583764  1
  V  V7  1  0.500000  0.371967  0.418196  1
  B  B8  1  0.000000  0.475266  0.691674  1
  B  B9  1  0.000000  0.522773  0.307017  1
  B  B10  1  0.000000  0.976700  0.808584  1
  B  B11  1  0.000000  0.023383  0.192578  1
  B  B12  1  0.000000  0.285535  0.814778  1
  B  B13  1  0.000000  0.713791  0.185915  1
  B  B14  1  0.000000  0.785163  0.685115  1
  B  B15  1  0.000000  0.215240  0.313644  1
  B  B16  1  0.000000  0.365305  0.967761  1
  B  B17  1  0.000000  0.635122  0.032560  1
  B  B18  1  0.000000  0.864709  0.532516  1
  B  B19  1  0.000000  0.136461  0.467237  1
  B  B20  1  0.000000  0.387730  0.546608  1
  B  B21  1  0.000000  0.614544  0.452318  1
  B  B22  1  0.000000  0.885454  0.953428  1
  B  B23  1  0.000000  0.114837  0.047509  1
