# generated using pymatgen
data_Ho6ScMoO12
_symmetry_space_group_name_H-M   'P 1'
_cell_length_a   6.59281327
_cell_length_b   6.59281358
_cell_length_c   6.59281447
_cell_angle_alpha   92.06836364
_cell_angle_beta   92.06836003
_cell_angle_gamma   92.06836343
_symmetry_Int_Tables_number   1
_chemical_formula_structural   Ho6ScMoO12
_chemical_formula_sum   'Ho6 Sc1 Mo1 O12'
_cell_volume   285.98396296
_cell_formula_units_Z   1
loop_
 _symmetry_equiv_pos_site_id
 _symmetry_equiv_pos_as_xyz
  1  'x, y, z'
loop_
 _atom_site_type_symbol
 _atom_site_label
 _atom_site_symmetry_multiplicity
 _atom_site_fract_x
 _atom_site_fract_y
 _atom_site_fract_z
 _atom_site_occupancy
  Ho  Ho0  1  0.745940  0.931130  0.439734  1
  Ho  Ho1  1  0.931130  0.439734  0.745940  1
  Ho  Ho2  1  0.439734  0.745940  0.931130  1
  Ho  Ho3  1  0.254060  0.068870  0.560266  1
  Ho  Ho4  1  0.068870  0.560266  0.254060  1
  Ho  Ho5  1  0.560266  0.254060  0.068870  1
  Sc  Sc6  1  0.500000  0.500000  0.500000  1
  Mo  Mo7  1  0.000000  0.000000  0.000000  1
  O  O8  1  0.593419  0.463805  0.806936  1
  O  O9  1  0.463805  0.806936  0.593419  1
  O  O10  1  0.806936  0.593419  0.463805  1
  O  O11  1  0.406581  0.536195  0.193064  1
  O  O12  1  0.536195  0.193064  0.406581  1
  O  O13  1  0.193064  0.406581  0.536195  1
  O  O14  1  0.069569  0.909950  0.311055  1
  O  O15  1  0.909950  0.311055  0.069569  1
  O  O16  1  0.688945  0.930431  0.090050  1
  O  O17  1  0.090050  0.688945  0.930431  1
  O  O18  1  0.930431  0.090050  0.688945  1
  O  O19  1  0.311055  0.069569  0.909950  1
