# generated using pymatgen
data_Sr2Tb(B3Ir4)2
_symmetry_space_group_name_H-M   'P 1'
_cell_length_a   10.00694497
_cell_length_b   9.12155894
_cell_length_c   5.71052781
_cell_angle_alpha   81.34675054
_cell_angle_beta   64.30923140
_cell_angle_gamma   34.34401490
_symmetry_Int_Tables_number   1
_chemical_formula_structural   Sr2Tb(B3Ir4)2
_chemical_formula_sum   'Sr2 Tb1 B6 Ir8'
_cell_volume   241.92593528
_cell_formula_units_Z   1
loop_
 _symmetry_equiv_pos_site_id
 _symmetry_equiv_pos_as_xyz
  1  'x, y, z'
loop_
 _atom_site_type_symbol
 _atom_site_label
 _atom_site_symmetry_multiplicity
 _atom_site_fract_x
 _atom_site_fract_y
 _atom_site_fract_z
 _atom_site_occupancy
  Sr  Sr0  1  0.318098  0.318098  0.681902  1
  Sr  Sr1  1  0.681902  0.681902  0.318098  1
  Tb  Tb2  1  0.500000  0.500000  0.500000  1
  B  B3  1  0.668362  0.989792  0.010208  1
  B  B4  1  0.989792  0.668362  0.331638  1
  B  B5  1  0.331638  0.010208  0.989792  1
  B  B6  1  0.010208  0.331638  0.668362  1
  B  B7  1  0.166234  0.833766  0.166234  1
  B  B8  1  0.833766  0.166234  0.833766  1
  Ir  Ir9  1  0.583913  0.583913  0.916087  1
  Ir  Ir10  1  0.914334  0.914334  0.085666  1
  Ir  Ir11  1  0.416087  0.416087  0.083913  1
  Ir  Ir12  1  0.083913  0.083913  0.416087  1
  Ir  Ir13  1  0.916087  0.916087  0.583913  1
  Ir  Ir14  1  0.250000  0.250000  0.250000  1
  Ir  Ir15  1  0.085666  0.085666  0.914334  1
  Ir  Ir16  1  0.750000  0.750000  0.750000  1
