# generated using pymatgen
data_K3ErTi2O7
_symmetry_space_group_name_H-M   'P 1'
_cell_length_a   6.11051900
_cell_length_b   6.11051766
_cell_length_c   15.17100100
_cell_angle_alpha   90.00000000
_cell_angle_beta   90.00000000
_cell_angle_gamma   119.99999103
_symmetry_Int_Tables_number   1
_chemical_formula_structural   K3ErTi2O7
_chemical_formula_sum   'K6 Er2 Ti4 O14'
_cell_volume   490.57002717
_cell_formula_units_Z   2
loop_
 _symmetry_equiv_pos_site_id
 _symmetry_equiv_pos_as_xyz
  1  'x, y, z'
loop_
 _atom_site_type_symbol
 _atom_site_label
 _atom_site_symmetry_multiplicity
 _atom_site_fract_x
 _atom_site_fract_y
 _atom_site_fract_z
 _atom_site_occupancy
  K  K0  1  0.333333  0.666667  0.415741  1
  K  K1  1  0.000000  0.000000  0.250000  1
  K  K2  1  0.666667  0.333333  0.584259  1
  K  K3  1  0.333333  0.666667  0.084259  1
  K  K4  1  0.666667  0.333333  0.915741  1
  K  K5  1  0.000000  0.000000  0.750000  1
  Er  Er6  1  0.000000  0.000000  0.500000  1
  Er  Er7  1  0.000000  0.000000  0.000000  1
  Ti  Ti8  1  0.333333  0.666667  0.627683  1
  Ti  Ti9  1  0.666667  0.333333  0.372317  1
  Ti  Ti10  1  0.666667  0.333333  0.127683  1
  Ti  Ti11  1  0.333333  0.666667  0.872317  1
  O  O12  1  0.343096  0.171547  0.412024  1
  O  O13  1  0.828453  0.171547  0.087976  1
  O  O14  1  0.171547  0.343096  0.587976  1
  O  O15  1  0.171547  0.828453  0.912024  1
  O  O16  1  0.656904  0.828453  0.912024  1
  O  O17  1  0.656904  0.828453  0.587976  1
  O  O18  1  0.343096  0.171547  0.087976  1
  O  O19  1  0.171547  0.828453  0.587976  1
  O  O20  1  0.828453  0.171547  0.412024  1
  O  O21  1  0.171547  0.343096  0.912024  1
  O  O22  1  0.828453  0.656904  0.087976  1
  O  O23  1  0.828453  0.656904  0.412024  1
  O  O24  1  0.666667  0.333333  0.250000  1
  O  O25  1  0.333333  0.666667  0.750000  1
