# generated using pymatgen
data_YHo15(InPt)4
_symmetry_space_group_name_H-M   'P 1'
_cell_length_a   9.69493083
_cell_length_b   9.69493109
_cell_length_c   9.70423900
_cell_angle_alpha   59.96823229
_cell_angle_beta   59.96823140
_cell_angle_gamma   59.92607139
_symmetry_Int_Tables_number   1
_chemical_formula_structural   YHo15(InPt)4
_chemical_formula_sum   'Y1 Ho15 In4 Pt4'
_cell_volume   644.29419888
_cell_formula_units_Z   1
loop_
 _symmetry_equiv_pos_site_id
 _symmetry_equiv_pos_as_xyz
  1  'x, y, z'
loop_
 _atom_site_type_symbol
 _atom_site_label
 _atom_site_symmetry_multiplicity
 _atom_site_fract_x
 _atom_site_fract_y
 _atom_site_fract_z
 _atom_site_occupancy
  Y  Y0  1  0.187766  0.187766  0.812234  1
  Ho  Ho1  1  0.600499  0.600499  0.197846  1
  Ho  Ho2  1  0.441098  0.060124  0.439425  1
  Ho  Ho3  1  0.440042  0.440042  0.059958  1
  Ho  Ho4  1  0.812079  0.187047  0.812640  1
  Ho  Ho5  1  0.187047  0.812079  0.188234  1
  Ho  Ho6  1  0.441098  0.060124  0.059352  1
  Ho  Ho7  1  0.187047  0.812079  0.812640  1
  Ho  Ho8  1  0.060124  0.441098  0.059352  1
  Ho  Ho9  1  0.813169  0.813169  0.186831  1
  Ho  Ho10  1  0.196641  0.600934  0.601213  1
  Ho  Ho11  1  0.060124  0.441098  0.439425  1
  Ho  Ho12  1  0.059517  0.059517  0.440483  1
  Ho  Ho13  1  0.812079  0.187047  0.188234  1
  Ho  Ho14  1  0.600934  0.196641  0.601213  1
  Ho  Ho15  1  0.600499  0.600499  0.601157  1
  In  In16  1  0.833259  0.833259  0.833262  1
  In  In17  1  0.833259  0.833259  0.500219  1
  In  In18  1  0.500800  0.832973  0.833114  1
  In  In19  1  0.832973  0.500800  0.833114  1
  Pt  Pt20  1  0.392472  0.821846  0.392841  1
  Pt  Pt21  1  0.392814  0.392814  0.393012  1
  Pt  Pt22  1  0.821846  0.392472  0.392841  1
  Pt  Pt23  1  0.392814  0.392814  0.821359  1
