# generated using pymatgen
data_Er16MgCd3Co3Ni
_symmetry_space_group_name_H-M   'P 1'
_cell_length_a   9.46524418
_cell_length_b   9.47305085
_cell_length_c   9.47305160
_cell_angle_alpha   59.66625203
_cell_angle_beta   59.59555167
_cell_angle_gamma   59.59555637
_symmetry_Int_Tables_number   1
_chemical_formula_structural   Er16MgCd3Co3Ni
_chemical_formula_sum   'Er16 Mg1 Cd3 Co3 Ni1'
_cell_volume   595.41607549
_cell_formula_units_Z   1
loop_
 _symmetry_equiv_pos_site_id
 _symmetry_equiv_pos_as_xyz
  1  'x, y, z'
loop_
 _atom_site_type_symbol
 _atom_site_label
 _atom_site_symmetry_multiplicity
 _atom_site_fract_x
 _atom_site_fract_y
 _atom_site_fract_z
 _atom_site_occupancy
  Er  Er0  1  0.343704  0.347741  0.347741  1
  Er  Er1  1  0.344622  0.348696  0.960962  1
  Er  Er2  1  0.344622  0.960962  0.348696  1
  Er  Er3  1  0.963921  0.345718  0.345718  1
  Er  Er4  1  0.813244  0.188763  0.188763  1
  Er  Er5  1  0.184981  0.813128  0.813128  1
  Er  Er6  1  0.188288  0.810174  0.189019  1
  Er  Er7  1  0.816465  0.185561  0.809558  1
  Er  Er8  1  0.188288  0.189019  0.810174  1
  Er  Er9  1  0.816465  0.809558  0.185561  1
  Er  Er10  1  0.937750  0.564073  0.564073  1
  Er  Er11  1  0.560386  0.938151  0.938151  1
  Er  Er12  1  0.562328  0.938732  0.565177  1
  Er  Er13  1  0.937717  0.562147  0.938468  1
  Er  Er14  1  0.562328  0.565177  0.938732  1
  Er  Er15  1  0.937717  0.938468  0.562147  1
  Mg  Mg16  1  0.575035  0.575180  0.575180  1
  Cd  Cd17  1  0.580848  0.580426  0.256535  1
  Cd  Cd18  1  0.580848  0.256535  0.580426  1
  Cd  Cd19  1  0.255428  0.581119  0.581119  1
  Co  Co20  1  0.143211  0.141400  0.141400  1
  Co  Co21  1  0.142759  0.141764  0.575993  1
  Co  Co22  1  0.142759  0.575993  0.141764  1
  Ni  Ni23  1  0.576289  0.141515  0.141515  1
