# generated using pymatgen
data_Y8Mg2Sc10Si15Sn
_symmetry_space_group_name_H-M   'P 1'
_cell_length_a   7.07875538
_cell_length_b   7.44028597
_cell_length_c   14.08424500
_cell_angle_alpha   89.93270313
_cell_angle_beta   89.55931526
_cell_angle_gamma   89.85753853
_symmetry_Int_Tables_number   1
_chemical_formula_structural   Y8Mg2Sc10Si15Sn
_chemical_formula_sum   'Y8 Mg2 Sc10 Si15 Sn1'
_cell_volume   741.76378380
_cell_formula_units_Z   1
loop_
 _symmetry_equiv_pos_site_id
 _symmetry_equiv_pos_as_xyz
  1  'x, y, z'
loop_
 _atom_site_type_symbol
 _atom_site_label
 _atom_site_symmetry_multiplicity
 _atom_site_fract_x
 _atom_site_fract_y
 _atom_site_fract_z
 _atom_site_occupancy
  Y  Y0  1  0.009891  0.179683  0.097091  1
  Y  Y1  1  0.989894  0.821201  0.903651  1
  Y  Y2  1  0.486905  0.673658  0.904062  1
  Y  Y3  1  0.990142  0.828450  0.598579  1
  Y  Y4  1  0.512324  0.326122  0.096590  1
  Y  Y5  1  0.004430  0.172253  0.398793  1
  Y  Y6  1  0.516214  0.322169  0.398946  1
  Y  Y7  1  0.498533  0.683669  0.600130  1
  Mg  Mg8  1  0.161012  0.504076  0.753092  1
  Mg  Mg9  1  0.839458  0.495285  0.249111  1
  Sc  Sc10  1  0.338304  0.002497  0.249730  1
  Sc  Sc11  1  0.662853  0.997256  0.751673  1
  Sc  Sc12  1  0.340820  0.166456  0.629589  1
  Sc  Sc13  1  0.666519  0.821268  0.373495  1
  Sc  Sc14  1  0.160807  0.685285  0.369562  1
  Sc  Sc15  1  0.670909  0.819213  0.123424  1
  Sc  Sc16  1  0.825640  0.320557  0.626389  1
  Sc  Sc17  1  0.327385  0.179822  0.876593  1
  Sc  Sc18  1  0.835015  0.321088  0.875838  1
  Sc  Sc19  1  0.165126  0.678504  0.124689  1
  Si  Si20  1  0.034361  0.105776  0.752119  1
  Si  Si21  1  0.964270  0.896156  0.246381  1
  Si  Si22  1  0.458639  0.618650  0.248555  1
  Si  Si23  1  0.539644  0.381844  0.752417  1
  Si  Si24  1  0.291108  0.881866  0.752695  1
  Si  Si25  1  0.707358  0.115148  0.247611  1
  Si  Si26  1  0.219557  0.374865  0.249214  1
  Si  Si27  1  0.781642  0.625720  0.751709  1
  Si  Si28  1  0.829228  0.542704  0.464849  1
  Si  Si29  1  0.338398  0.966076  0.459843  1
  Si  Si30  1  0.840550  0.537857  0.033598  1
  Si  Si31  1  0.662118  0.036030  0.537756  1
  Si  Si32  1  0.159186  0.461497  0.967172  1
  Si  Si33  1  0.655555  0.033098  0.960332  1
  Si  Si34  1  0.343326  0.967244  0.040190  1
  Sn  Sn35  1  0.172882  0.456958  0.534530  1
