# generated using pymatgen
data_HoEr11Co4BiRu
_symmetry_space_group_name_H-M   'P 1'
_cell_length_a   8.23696693
_cell_length_b   8.23696745
_cell_length_c   8.23455372
_cell_angle_alpha   110.68332911
_cell_angle_beta   111.21314256
_cell_angle_gamma   106.56892431
_symmetry_Int_Tables_number   1
_chemical_formula_structural   HoEr11Co4BiRu
_chemical_formula_sum   'Ho1 Er11 Co4 Bi1 Ru1'
_cell_volume   429.18149523
_cell_formula_units_Z   1
loop_
 _symmetry_equiv_pos_site_id
 _symmetry_equiv_pos_as_xyz
  1  'x, y, z'
loop_
 _atom_site_type_symbol
 _atom_site_label
 _atom_site_symmetry_multiplicity
 _atom_site_fract_x
 _atom_site_fract_y
 _atom_site_fract_z
 _atom_site_occupancy
  Ho  Ho0  1  0.284621  0.182988  0.467609  1
  Er  Er1  1  0.715639  0.817315  0.532954  1
  Er  Er2  1  0.284437  0.816971  0.101409  1
  Er  Er3  1  0.715734  0.182818  0.898551  1
  Er  Er4  1  0.619606  0.311223  0.308115  1
  Er  Er5  1  0.380543  0.688987  0.691869  1
  Er  Er6  1  0.002884  0.311326  0.691869  1
  Er  Er7  1  0.996890  0.688510  0.308115  1
  Er  Er8  1  0.212590  0.409182  0.196289  1
  Er  Er9  1  0.787559  0.591155  0.803736  1
  Er  Er10  1  0.212579  0.016177  0.803736  1
  Er  Er11  1  0.787108  0.983700  0.196289  1
  Co  Co12  1  0.999856  0.374997  0.374853  1
  Co  Co13  1  0.999928  0.625093  0.625021  1
  Co  Co14  1  0.388746  0.888317  0.500005  1
  Co  Co15  1  0.611688  0.111259  0.500005  1
  Bi  Bi16  1  0.499994  0.500008  0.000002  1
  Ru  Ru17  1  0.999599  0.999975  0.999574  1
