# generated using pymatgen
data_Y13Er3Cd3InPd4
_symmetry_space_group_name_H-M   'P 1'
_cell_length_a   9.70109238
_cell_length_b   9.70470010
_cell_length_c   9.70470008
_cell_angle_alpha   60.08625093
_cell_angle_beta   60.07063868
_cell_angle_gamma   60.07063822
_symmetry_Int_Tables_number   1
_chemical_formula_structural   Y13Er3Cd3InPd4
_chemical_formula_sum   'Y13 Er3 Cd3 In1 Pd4'
_cell_volume   647.16593171
_cell_formula_units_Z   1
loop_
 _symmetry_equiv_pos_site_id
 _symmetry_equiv_pos_as_xyz
  1  'x, y, z'
loop_
 _atom_site_type_symbol
 _atom_site_label
 _atom_site_symmetry_multiplicity
 _atom_site_fract_x
 _atom_site_fract_y
 _atom_site_fract_z
 _atom_site_occupancy
  Y  Y0  1  0.936196  0.355977  0.355977  1
  Y  Y1  1  0.810313  0.189828  0.189828  1
  Y  Y2  1  0.191106  0.808995  0.808995  1
  Y  Y3  1  0.190105  0.810251  0.190113  1
  Y  Y4  1  0.809072  0.190804  0.809581  1
  Y  Y5  1  0.190105  0.190113  0.810251  1
  Y  Y6  1  0.809072  0.809581  0.190804  1
  Y  Y7  1  0.936136  0.566319  0.566319  1
  Y  Y8  1  0.564047  0.936179  0.936179  1
  Y  Y9  1  0.565969  0.936254  0.566020  1
  Y  Y10  1  0.936070  0.564433  0.935591  1
  Y  Y11  1  0.565969  0.566020  0.936254  1
  Y  Y12  1  0.936070  0.935591  0.564433  1
  Er  Er13  1  0.351369  0.351285  0.351285  1
  Er  Er14  1  0.355392  0.355315  0.938149  1
  Er  Er15  1  0.355392  0.938149  0.355315  1
  Cd  Cd16  1  0.580558  0.581125  0.252388  1
  Cd  Cd17  1  0.580558  0.252388  0.581125  1
  Cd  Cd18  1  0.252400  0.580931  0.580931  1
  In  In19  1  0.582106  0.582669  0.582669  1
  Pd  Pd20  1  0.147726  0.145505  0.145505  1
  Pd  Pd21  1  0.145132  0.142843  0.565398  1
  Pd  Pd22  1  0.145132  0.565398  0.142843  1
  Pd  Pd23  1  0.564005  0.144047  0.144047  1
