# generated using pymatgen
data_Tb20Ir3Pd5Ru4
_symmetry_space_group_name_H-M   'P 1'
_cell_length_a   11.00168597
_cell_length_b   11.00168597
_cell_length_c   6.45707206
_cell_angle_alpha   89.98913880
_cell_angle_beta   89.98913880
_cell_angle_gamma   89.67990015
_symmetry_Int_Tables_number   1
_chemical_formula_structural   Tb20Ir3Pd5Ru4
_chemical_formula_sum   'Tb20 Ir3 Pd5 Ru4'
_cell_volume   781.53301437
_cell_formula_units_Z   1
loop_
 _symmetry_equiv_pos_site_id
 _symmetry_equiv_pos_as_xyz
  1  'x, y, z'
loop_
 _atom_site_type_symbol
 _atom_site_label
 _atom_site_symmetry_multiplicity
 _atom_site_fract_x
 _atom_site_fract_y
 _atom_site_fract_z
 _atom_site_occupancy
  Tb  Tb0  1  0.297925  0.090344  0.372570  1
  Tb  Tb1  1  0.298476  0.908881  0.871478  1
  Tb  Tb2  1  0.701539  0.084144  0.871870  1
  Tb  Tb3  1  0.701493  0.908400  0.371498  1
  Tb  Tb4  1  0.583789  0.790786  0.879581  1
  Tb  Tb5  1  0.580939  0.204601  0.372191  1
  Tb  Tb6  1  0.416314  0.793244  0.378863  1
  Tb  Tb7  1  0.411358  0.205723  0.881401  1
  Tb  Tb8  1  0.209214  0.416211  0.620419  1
  Tb  Tb9  1  0.206756  0.583686  0.121137  1
  Tb  Tb10  1  0.795399  0.419061  0.127809  1
  Tb  Tb11  1  0.794277  0.588642  0.618599  1
  Tb  Tb12  1  0.909656  0.702075  0.127430  1
  Tb  Tb13  1  0.915856  0.298461  0.628130  1
  Tb  Tb14  1  0.091119  0.701524  0.628522  1
  Tb  Tb15  1  0.091600  0.298507  0.128502  1
  Tb  Tb16  1  0.999309  0.999557  0.499201  1
  Tb  Tb17  1  0.000443  0.000691  0.000799  1
  Tb  Tb18  1  0.497832  0.501636  0.000645  1
  Tb  Tb19  1  0.498364  0.502168  0.499355  1
  Ir  Ir20  1  0.653107  0.652024  0.250188  1
  Ir  Ir21  1  0.347976  0.346893  0.249812  1
  Ir  Ir22  1  0.345765  0.654235  0.750000  1
  Pd  Pd23  1  0.845849  0.154151  0.250000  1
  Pd  Pd24  1  0.846525  0.847647  0.750565  1
  Pd  Pd25  1  0.152353  0.153475  0.749435  1
  Pd  Pd26  1  0.153123  0.846877  0.250000  1
  Pd  Pd27  1  0.654685  0.345315  0.750000  1
  Ru  Ru28  1  0.500660  0.000777  0.123164  1
  Ru  Ru29  1  0.500385  0.001311  0.624726  1
  Ru  Ru30  1  0.998689  0.499615  0.875274  1
  Ru  Ru31  1  0.999223  0.499340  0.376836  1
