# generated using pymatgen
data_Tb4TlPd
_symmetry_space_group_name_H-M   'P 1'
_cell_length_a   9.82309793
_cell_length_b   9.82337607
_cell_length_c   9.82495729
_cell_angle_alpha   59.71716818
_cell_angle_beta   59.72199453
_cell_angle_gamma   59.71548448
_symmetry_Int_Tables_number   1
_chemical_formula_structural   Tb4TlPd
_chemical_formula_sum   'Tb16 Tl4 Pd4'
_cell_volume   666.09550869
_cell_formula_units_Z   4
loop_
 _symmetry_equiv_pos_site_id
 _symmetry_equiv_pos_as_xyz
  1  'x, y, z'
loop_
 _atom_site_type_symbol
 _atom_site_label
 _atom_site_symmetry_multiplicity
 _atom_site_fract_x
 _atom_site_fract_y
 _atom_site_fract_z
 _atom_site_occupancy
  Tb  Tb0  1  0.350766  0.350804  0.350688  1
  Tb  Tb1  1  0.352116  0.352139  0.941393  1
  Tb  Tb2  1  0.352119  0.941462  0.352041  1
  Tb  Tb3  1  0.941386  0.352142  0.352025  1
  Tb  Tb4  1  0.812292  0.189241  0.188997  1
  Tb  Tb5  1  0.190533  0.810665  0.810905  1
  Tb  Tb6  1  0.189210  0.812267  0.188966  1
  Tb  Tb7  1  0.810747  0.190482  0.810890  1
  Tb  Tb8  1  0.189043  0.188980  0.812473  1
  Tb  Tb9  1  0.810930  0.810897  0.190313  1
  Tb  Tb10  1  0.935458  0.563896  0.564070  1
  Tb  Tb11  1  0.563123  0.938040  0.938218  1
  Tb  Tb12  1  0.563848  0.935416  0.564083  1
  Tb  Tb13  1  0.938066  0.563183  0.938159  1
  Tb  Tb14  1  0.563837  0.563854  0.935603  1
  Tb  Tb15  1  0.938202  0.938083  0.563222  1
  Tl  Tl16  1  0.587417  0.587456  0.587588  1
  Tl  Tl17  1  0.584623  0.584606  0.243611  1
  Tl  Tl18  1  0.584720  0.243552  0.584657  1
  Tl  Tl19  1  0.243585  0.584712  0.584677  1
  Pd  Pd20  1  0.144660  0.144786  0.144627  1
  Pd  Pd21  1  0.142961  0.142860  0.567341  1
  Pd  Pd22  1  0.142964  0.567404  0.142687  1
  Pd  Pd23  1  0.567394  0.143071  0.142765  1
