# generated using pymatgen
data_Zr9Ta10Si16W
_symmetry_space_group_name_H-M   'P 1'
_cell_length_a   6.88444377
_cell_length_b   6.88268378
_cell_length_c   12.75166919
_cell_angle_alpha   90.19140824
_cell_angle_beta   89.84754120
_cell_angle_gamma   89.98906583
_symmetry_Int_Tables_number   1
_chemical_formula_structural   Zr9Ta10Si16W
_chemical_formula_sum   'Zr9 Ta10 Si16 W1'
_cell_volume   604.21255062
_cell_formula_units_Z   1
loop_
 _symmetry_equiv_pos_site_id
 _symmetry_equiv_pos_as_xyz
  1  'x, y, z'
loop_
 _atom_site_type_symbol
 _atom_site_label
 _atom_site_symmetry_multiplicity
 _atom_site_fract_x
 _atom_site_fract_y
 _atom_site_fract_z
 _atom_site_occupancy
  Zr  Zr0  1  0.152781  0.001835  0.873886  1
  Zr  Zr1  1  0.001859  0.658909  0.032554  1
  Zr  Zr2  1  0.998073  0.339726  0.529375  1
  Zr  Zr3  1  0.659280  0.001748  0.969134  1
  Zr  Zr4  1  0.159422  0.498646  0.780526  1
  Zr  Zr5  1  0.839778  0.500946  0.279866  1
  Zr  Zr6  1  0.499329  0.161155  0.220111  1
  Zr  Zr7  1  0.501094  0.839738  0.718805  1
  Zr  Zr8  1  0.339027  0.999238  0.469099  1
  Ta  Ta9  1  0.347190  0.504379  0.376109  1
  Ta  Ta10  1  0.847606  0.995562  0.373599  1
  Ta  Ta11  1  0.005113  0.153118  0.126700  1
  Ta  Ta12  1  0.993869  0.847550  0.625832  1
  Ta  Ta13  1  0.654213  0.494547  0.877487  1
  Ta  Ta14  1  0.504648  0.348466  0.622770  1
  Ta  Ta15  1  0.497065  0.652542  0.124127  1
  Ta  Ta16  1  0.667670  0.668355  0.499870  1
  Ta  Ta17  1  0.829334  0.172141  0.749506  1
  Ta  Ta18  1  0.170586  0.830821  0.249717  1
  Si  Si19  1  0.043203  0.701108  0.436279  1
  Si  Si20  1  0.957610  0.302367  0.938000  1
  Si  Si21  1  0.700115  0.043836  0.563010  1
  Si  Si22  1  0.203675  0.454899  0.185793  1
  Si  Si23  1  0.798416  0.543743  0.686359  1
  Si  Si24  1  0.457804  0.204163  0.813546  1
  Si  Si25  1  0.544476  0.798685  0.313566  1
  Si  Si26  1  0.302063  0.958241  0.064900  1
  Si  Si27  1  0.860185  0.789012  0.821016  1
  Si  Si28  1  0.134044  0.209144  0.322581  1
  Si  Si29  1  0.791092  0.866649  0.177683  1
  Si  Si30  1  0.289652  0.634586  0.572671  1
  Si  Si31  1  0.708045  0.364283  0.072791  1
  Si  Si32  1  0.634354  0.291200  0.426958  1
  Si  Si33  1  0.365712  0.701478  0.929627  1
  Si  Si34  1  0.208602  0.135617  0.675085  1
  W  W35  1  0.333013  0.331565  0.001064  1
