# generated using pymatgen
data_YHo19(Bi2Pt)4
_symmetry_space_group_name_H-M   'P 1'
_cell_length_a   8.04641941
_cell_length_b   9.02806800
_cell_length_c   12.37602700
_cell_angle_alpha   90.00000000
_cell_angle_beta   89.98290182
_cell_angle_gamma   90.00000000
_symmetry_Int_Tables_number   1
_chemical_formula_structural   YHo19(Bi2Pt)4
_chemical_formula_sum   'Y1 Ho19 Bi8 Pt4'
_cell_volume   899.03938228
_cell_formula_units_Z   1
loop_
 _symmetry_equiv_pos_site_id
 _symmetry_equiv_pos_as_xyz
  1  'x, y, z'
loop_
 _atom_site_type_symbol
 _atom_site_label
 _atom_site_symmetry_multiplicity
 _atom_site_fract_x
 _atom_site_fract_y
 _atom_site_fract_z
 _atom_site_occupancy
  Y  Y0  1  0.338634  0.750000  0.711478  1
  Ho  Ho1  1  0.660703  0.250000  0.289890  1
  Ho  Ho2  1  0.839495  0.250000  0.790011  1
  Ho  Ho3  1  0.160819  0.750000  0.210081  1
  Ho  Ho4  1  0.873377  0.750000  0.801975  1
  Ho  Ho5  1  0.126103  0.250000  0.198101  1
  Ho  Ho6  1  0.373811  0.250000  0.698061  1
  Ho  Ho7  1  0.626289  0.750000  0.301624  1
  Ho  Ho8  1  0.679106  0.546526  0.566444  1
  Ho  Ho9  1  0.320823  0.453624  0.433214  1
  Ho  Ho10  1  0.179220  0.453342  0.933303  1
  Ho  Ho11  1  0.320823  0.046376  0.433214  1
  Ho  Ho12  1  0.821068  0.546594  0.066801  1
  Ho  Ho13  1  0.679106  0.953474  0.566444  1
  Ho  Ho14  1  0.821068  0.953406  0.066801  1
  Ho  Ho15  1  0.179220  0.046658  0.933303  1
  Ho  Ho16  1  0.051137  0.750000  0.500206  1
  Ho  Ho17  1  0.948558  0.250000  0.499315  1
  Ho  Ho18  1  0.551497  0.250000  0.999769  1
  Ho  Ho19  1  0.448992  0.750000  0.000903  1
  Bi  Bi20  1  0.570900  0.509422  0.828111  1
  Bi  Bi21  1  0.429498  0.490125  0.172286  1
  Bi  Bi22  1  0.070013  0.490028  0.672025  1
  Bi  Bi23  1  0.429498  0.009875  0.172286  1
  Bi  Bi24  1  0.929518  0.509778  0.327675  1
  Bi  Bi25  1  0.570900  0.990578  0.828111  1
  Bi  Bi26  1  0.929518  0.990222  0.327675  1
  Bi  Bi27  1  0.070013  0.009972  0.672025  1
  Pt  Pt28  1  0.076776  0.750000  0.987983  1
  Pt  Pt29  1  0.923545  0.250000  0.011917  1
  Pt  Pt30  1  0.576281  0.250000  0.511735  1
  Pt  Pt31  1  0.423688  0.750000  0.487233  1
