# generated using pymatgen
data_Ho5Er3Cr2(OsC4)2
_symmetry_space_group_name_H-M   'P 1'
_cell_length_a   5.03687700
_cell_length_b   6.45735606
_cell_length_c   9.73306070
_cell_angle_alpha   90.24510472
_cell_angle_beta   90.00000000
_cell_angle_gamma   90.00000000
_symmetry_Int_Tables_number   1
_chemical_formula_structural   Ho5Er3Cr2(OsC4)2
_chemical_formula_sum   'Ho5 Er3 Cr2 Os2 C8'
_cell_volume   316.56400935
_cell_formula_units_Z   1
loop_
 _symmetry_equiv_pos_site_id
 _symmetry_equiv_pos_as_xyz
  1  'x, y, z'
loop_
 _atom_site_type_symbol
 _atom_site_label
 _atom_site_symmetry_multiplicity
 _atom_site_fract_x
 _atom_site_fract_y
 _atom_site_fract_z
 _atom_site_occupancy
  Ho  Ho0  1  0.250000  0.178124  0.945971  1
  Ho  Ho1  1  0.250000  0.531442  0.215783  1
  Ho  Ho2  1  0.750000  0.468792  0.784222  1
  Ho  Ho3  1  0.750000  0.972054  0.715988  1
  Ho  Ho4  1  0.250000  0.027743  0.284129  1
  Er  Er5  1  0.250000  0.681650  0.558468  1
  Er  Er6  1  0.750000  0.318376  0.441385  1
  Er  Er7  1  0.750000  0.822388  0.054522  1
  Cr  Cr8  1  0.250000  0.723917  0.862512  1
  Cr  Cr9  1  0.750000  0.275954  0.137534  1
  Os  Os10  1  0.750000  0.776922  0.363439  1
  Os  Os11  1  0.250000  0.223048  0.636404  1
  C  C12  1  0.250000  0.462826  0.763631  1
  C  C13  1  0.750000  0.537445  0.236022  1
  C  C14  1  0.750000  0.047712  0.255852  1
  C  C15  1  0.250000  0.952077  0.743991  1
  C  C16  1  0.250000  0.814398  0.041028  1
  C  C17  1  0.750000  0.185111  0.959222  1
  C  C18  1  0.750000  0.677169  0.549392  1
  C  C19  1  0.250000  0.322850  0.450505  1
