# generated using pymatgen
data_YbZr(TcO4)6
_symmetry_space_group_name_H-M   'P 1'
_cell_length_a   10.15727800
_cell_length_b   10.15727786
_cell_length_c   6.09253300
_cell_angle_alpha   90.00000000
_cell_angle_beta   90.00000000
_cell_angle_gamma   120.00000180
_symmetry_Int_Tables_number   1
_chemical_formula_structural   YbZr(TcO4)6
_chemical_formula_sum   'Yb1 Zr1 Tc6 O24'
_cell_volume   544.35621554
_cell_formula_units_Z   1
loop_
 _symmetry_equiv_pos_site_id
 _symmetry_equiv_pos_as_xyz
  1  'x, y, z'
loop_
 _atom_site_type_symbol
 _atom_site_label
 _atom_site_symmetry_multiplicity
 _atom_site_fract_x
 _atom_site_fract_y
 _atom_site_fract_z
 _atom_site_occupancy
  Yb  Yb0  1  0.333333  0.666667  0.250000  1
  Zr  Zr1  1  0.666667  0.333333  0.750000  1
  Tc  Tc2  1  0.077191  0.390274  0.750000  1
  Tc  Tc3  1  0.402547  0.300126  0.250000  1
  Tc  Tc4  1  0.609726  0.686916  0.750000  1
  Tc  Tc5  1  0.897577  0.597453  0.250000  1
  Tc  Tc6  1  0.313084  0.922809  0.750000  1
  Tc  Tc7  1  0.699874  0.102423  0.250000  1
  O  O8  1  0.495633  0.648448  0.518927  1
  O  O9  1  0.351552  0.847185  0.518927  1
  O  O10  1  0.830767  0.722050  0.250000  1
  O  O11  1  0.124972  0.871991  0.750000  1
  O  O12  1  0.277950  0.108718  0.250000  1
  O  O13  1  0.128009  0.252981  0.750000  1
  O  O14  1  0.519280  0.350270  0.014100  1
  O  O15  1  0.891282  0.169233  0.250000  1
  O  O16  1  0.093227  0.697605  0.250000  1
  O  O17  1  0.152815  0.504367  0.981073  1
  O  O18  1  0.152815  0.504367  0.518927  1
  O  O19  1  0.876312  0.306348  0.750000  1
  O  O20  1  0.302395  0.395622  0.250000  1
  O  O21  1  0.693652  0.569964  0.750000  1
  O  O22  1  0.830990  0.480720  0.485900  1
  O  O23  1  0.430036  0.123688  0.750000  1
  O  O24  1  0.649730  0.169010  0.014100  1
  O  O25  1  0.495633  0.648448  0.981073  1
  O  O26  1  0.351552  0.847185  0.981073  1
  O  O27  1  0.649730  0.169010  0.485900  1
  O  O28  1  0.519280  0.350270  0.485900  1
  O  O29  1  0.830990  0.480720  0.014100  1
  O  O30  1  0.747019  0.875028  0.750000  1
  O  O31  1  0.604378  0.906773  0.250000  1
