# generated using pymatgen
data_Lu4Al18IrOs2Pt3
_symmetry_space_group_name_H-M   'P 1'
_cell_length_a   7.54604986
_cell_length_b   7.54604966
_cell_length_c   9.40328425
_cell_angle_alpha   89.98653570
_cell_angle_beta   89.98653645
_cell_angle_gamma   119.13187197
_symmetry_Int_Tables_number   1
_chemical_formula_structural   Lu4Al18IrOs2Pt3
_chemical_formula_sum   'Lu4 Al18 Ir1 Os2 Pt3'
_cell_volume   467.71632537
_cell_formula_units_Z   1
loop_
 _symmetry_equiv_pos_site_id
 _symmetry_equiv_pos_as_xyz
  1  'x, y, z'
loop_
 _atom_site_type_symbol
 _atom_site_label
 _atom_site_symmetry_multiplicity
 _atom_site_fract_x
 _atom_site_fract_y
 _atom_site_fract_z
 _atom_site_occupancy
  Lu  Lu0  1  0.993299  0.678794  0.250843  1
  Lu  Lu1  1  0.006389  0.321102  0.749253  1
  Lu  Lu2  1  0.678898  0.993611  0.250747  1
  Lu  Lu3  1  0.321206  0.006701  0.749157  1
  Al  Al4  1  0.129561  0.130361  0.250241  1
  Al  Al5  1  0.869639  0.870439  0.749759  1
  Al  Al6  1  0.999887  0.333294  0.077822  1
  Al  Al7  1  0.999761  0.667260  0.921693  1
  Al  Al8  1  0.997175  0.663586  0.576881  1
  Al  Al9  1  0.336414  0.002825  0.423119  1
  Al  Al10  1  0.996587  0.332459  0.423277  1
  Al  Al11  1  0.667541  0.003413  0.576723  1
  Al  Al12  1  0.666706  0.000113  0.922178  1
  Al  Al13  1  0.332740  0.000239  0.078307  1
  Al  Al14  1  0.331014  0.327797  0.550428  1
  Al  Al15  1  0.672203  0.668986  0.449572  1
  Al  Al16  1  0.671631  0.671789  0.053265  1
  Al  Al17  1  0.328211  0.328369  0.946735  1
  Al  Al18  1  0.343259  0.550434  0.250305  1
  Al  Al19  1  0.656542  0.447906  0.747756  1
  Al  Al20  1  0.552094  0.343458  0.252244  1
  Al  Al21  1  0.449566  0.656741  0.749695  1
  Ir  Ir22  1  0.672149  0.327851  0.500000  1
  Os  Os23  1  0.999813  0.000187  0.000000  1
  Os  Os24  1  0.000201  0.999799  0.500000  1
  Pt  Pt25  1  0.672433  0.327567  0.000000  1
  Pt  Pt26  1  0.327486  0.672514  0.000000  1
  Pt  Pt27  1  0.327595  0.672405  0.500000  1
