# generated using pymatgen
data_HoLu3(HfPt)4
_symmetry_space_group_name_H-M   'P 1'
_cell_length_a   4.63371000
_cell_length_b   6.97887115
_cell_length_c   8.18553507
_cell_angle_alpha   90.04752035
_cell_angle_beta   90.00000000
_cell_angle_gamma   90.00000000
_symmetry_Int_Tables_number   1
_chemical_formula_structural   HoLu3(HfPt)4
_chemical_formula_sum   'Ho1 Lu3 Hf4 Pt4'
_cell_volume   264.70427471
_cell_formula_units_Z   1
loop_
 _symmetry_equiv_pos_site_id
 _symmetry_equiv_pos_as_xyz
  1  'x, y, z'
loop_
 _atom_site_type_symbol
 _atom_site_label
 _atom_site_symmetry_multiplicity
 _atom_site_fract_x
 _atom_site_fract_y
 _atom_site_fract_z
 _atom_site_occupancy
  Ho  Ho0  1  0.750000  0.516611  0.822347  1
  Lu  Lu1  1  0.250000  0.982882  0.322625  1
  Lu  Lu2  1  0.250000  0.483541  0.177795  1
  Lu  Lu3  1  0.750000  0.016145  0.676276  1
  Hf  Hf4  1  0.250000  0.855737  0.922824  1
  Hf  Hf5  1  0.250000  0.353577  0.576247  1
  Hf  Hf6  1  0.750000  0.145301  0.078176  1
  Hf  Hf7  1  0.750000  0.645264  0.421847  1
  Pt  Pt8  1  0.250000  0.234081  0.904420  1
  Pt  Pt9  1  0.250000  0.735418  0.595567  1
  Pt  Pt10  1  0.750000  0.766394  0.098369  1
  Pt  Pt11  1  0.750000  0.265047  0.403510  1
