# generated using pymatgen
data_Tl3O2F5
_symmetry_space_group_name_H-M   'P 1'
_cell_length_a   5.39779900
_cell_length_b   5.72547800
_cell_length_c   17.91467300
_cell_angle_alpha   90.00000000
_cell_angle_beta   90.00000000
_cell_angle_gamma   90.00000000
_symmetry_Int_Tables_number   1
_chemical_formula_structural   Tl3O2F5
_chemical_formula_sum   'Tl12 O8 F20'
_cell_volume   553.65260043
_cell_formula_units_Z   4
loop_
 _symmetry_equiv_pos_site_id
 _symmetry_equiv_pos_as_xyz
  1  'x, y, z'
loop_
 _atom_site_type_symbol
 _atom_site_label
 _atom_site_symmetry_multiplicity
 _atom_site_fract_x
 _atom_site_fract_y
 _atom_site_fract_z
 _atom_site_occupancy
  Tl  Tl0  1  0.453997  0.064389  0.750000  1
  Tl  Tl1  1  0.040767  0.125665  0.596250  1
  Tl  Tl2  1  0.040767  0.125665  0.903750  1
  Tl  Tl3  1  0.540767  0.374335  0.096250  1
  Tl  Tl4  1  0.540767  0.374335  0.403750  1
  Tl  Tl5  1  0.953997  0.435611  0.250000  1
  Tl  Tl6  1  0.046003  0.564389  0.750000  1
  Tl  Tl7  1  0.459233  0.625665  0.903750  1
  Tl  Tl8  1  0.459233  0.625665  0.596250  1
  Tl  Tl9  1  0.959233  0.874335  0.096250  1
  Tl  Tl10  1  0.959233  0.874335  0.403750  1
  Tl  Tl11  1  0.546003  0.935611  0.250000  1
  O  O12  1  0.786539  0.158578  0.169820  1
  O  O13  1  0.786539  0.158578  0.330180  1
  O  O14  1  0.286539  0.341422  0.830180  1
  O  O15  1  0.286539  0.341422  0.669820  1
  O  O16  1  0.713461  0.658578  0.330180  1
  O  O17  1  0.713461  0.658578  0.169820  1
  O  O18  1  0.213461  0.841422  0.669820  1
  O  O19  1  0.213461  0.841422  0.830180  1
  F  F20  1  0.330803  0.029653  0.117700  1
  F  F21  1  0.330803  0.029653  0.382300  1
  F  F22  1  0.836411  0.171388  0.016396  1
  F  F23  1  0.836411  0.171388  0.483604  1
  F  F24  1  0.839602  0.197028  0.750000  1
  F  F25  1  0.339602  0.302972  0.250000  1
  F  F26  1  0.336411  0.328612  0.516396  1
  F  F27  1  0.336411  0.328612  0.983604  1
  F  F28  1  0.830803  0.470347  0.617700  1
  F  F29  1  0.830803  0.470347  0.882300  1
  F  F30  1  0.169197  0.529653  0.382300  1
  F  F31  1  0.169197  0.529653  0.117700  1
  F  F32  1  0.663589  0.671388  0.016396  1
  F  F33  1  0.663589  0.671388  0.483604  1
  F  F34  1  0.660398  0.697028  0.750000  1
  F  F35  1  0.160398  0.802972  0.250000  1
  F  F36  1  0.163589  0.828612  0.983604  1
  F  F37  1  0.163589  0.828612  0.516396  1
  F  F38  1  0.669197  0.970347  0.882300  1
  F  F39  1  0.669197  0.970347  0.617700  1
