# generated using pymatgen
data_Ho15Tm(ZnIn3)2
_symmetry_space_group_name_H-M   'P 1'
_cell_length_a   10.63147600
_cell_length_b   10.63147574
_cell_length_c   6.74832000
_cell_angle_alpha   90.00000000
_cell_angle_beta   90.00000000
_cell_angle_gamma   120.00000080
_symmetry_Int_Tables_number   1
_chemical_formula_structural   Ho15Tm(ZnIn3)2
_chemical_formula_sum   'Ho15 Tm1 Zn2 In6'
_cell_volume   660.56173503
_cell_formula_units_Z   1
loop_
 _symmetry_equiv_pos_site_id
 _symmetry_equiv_pos_as_xyz
  1  'x, y, z'
loop_
 _atom_site_type_symbol
 _atom_site_label
 _atom_site_symmetry_multiplicity
 _atom_site_fract_x
 _atom_site_fract_y
 _atom_site_fract_z
 _atom_site_occupancy
  Ho  Ho0  1  0.520181  0.040363  0.518488  1
  Ho  Ho1  1  0.959637  0.479819  0.518488  1
  Ho  Ho2  1  0.520181  0.479819  0.518488  1
  Ho  Ho3  1  0.479806  0.959611  0.018448  1
  Ho  Ho4  1  0.040389  0.520194  0.018448  1
  Ho  Ho5  1  0.479806  0.520194  0.018448  1
  Ho  Ho6  1  0.173005  0.346011  0.735092  1
  Ho  Ho7  1  0.653989  0.826995  0.735092  1
  Ho  Ho8  1  0.173005  0.826995  0.735092  1
  Ho  Ho9  1  0.827026  0.654052  0.234764  1
  Ho  Ho10  1  0.345948  0.172974  0.234764  1
  Ho  Ho11  1  0.827026  0.172974  0.234764  1
  Ho  Ho12  1  0.666667  0.333333  0.867120  1
  Ho  Ho13  1  0.333333  0.666667  0.367031  1
  Ho  Ho14  1  0.000000  0.000000  0.498151  1
  Tm  Tm15  1  0.000000  0.000000  0.997973  1
  Zn  Zn16  1  0.666667  0.333333  0.303595  1
  Zn  Zn17  1  0.333333  0.666667  0.803524  1
  In  In18  1  0.835681  0.671364  0.750173  1
  In  In19  1  0.328636  0.164319  0.750173  1
  In  In20  1  0.835681  0.164319  0.750173  1
  In  In21  1  0.164316  0.328632  0.249904  1
  In  In22  1  0.671368  0.835684  0.249904  1
  In  In23  1  0.164316  0.835684  0.249904  1
