# generated using pymatgen
data_Li2Sm8Sc10Si15Ge
_symmetry_space_group_name_H-M   'P 1'
_cell_length_a   7.09969578
_cell_length_b   7.49313232
_cell_length_c   14.14773007
_cell_angle_alpha   90.01073270
_cell_angle_beta   89.93346222
_cell_angle_gamma   89.95244013
_symmetry_Int_Tables_number   1
_chemical_formula_structural   Li2Sm8Sc10Si15Ge
_chemical_formula_sum   'Li2 Sm8 Sc10 Si15 Ge1'
_cell_volume   752.64374445
_cell_formula_units_Z   1
loop_
 _symmetry_equiv_pos_site_id
 _symmetry_equiv_pos_as_xyz
  1  'x, y, z'
loop_
 _atom_site_type_symbol
 _atom_site_label
 _atom_site_symmetry_multiplicity
 _atom_site_fract_x
 _atom_site_fract_y
 _atom_site_fract_z
 _atom_site_occupancy
  Li  Li0  1  0.157763  0.500468  0.750958  1
  Li  Li1  1  0.842220  0.499629  0.249987  1
  Sm  Sm2  1  0.010201  0.181356  0.099396  1
  Sm  Sm3  1  0.989853  0.818808  0.900485  1
  Sm  Sm4  1  0.482772  0.673745  0.900807  1
  Sm  Sm5  1  0.989510  0.819782  0.599558  1
  Sm  Sm6  1  0.517089  0.326245  0.099093  1
  Sm  Sm7  1  0.009319  0.180795  0.400004  1
  Sm  Sm8  1  0.517793  0.325111  0.399944  1
  Sm  Sm9  1  0.485151  0.675368  0.599519  1
  Sc  Sc10  1  0.340278  0.999886  0.249844  1
  Sc  Sc11  1  0.659776  0.000130  0.750303  1
  Sc  Sc12  1  0.329359  0.180612  0.626336  1
  Sc  Sc13  1  0.672037  0.817471  0.374108  1
  Sc  Sc14  1  0.165357  0.674856  0.373112  1
  Sc  Sc15  1  0.672686  0.816731  0.125343  1
  Sc  Sc16  1  0.831987  0.325718  0.626436  1
  Sc  Sc17  1  0.327017  0.183019  0.874622  1
  Sc  Sc18  1  0.833447  0.325652  0.873656  1
  Sc  Sc19  1  0.166490  0.674353  0.126369  1
  Si  Si20  1  0.031507  0.110495  0.750082  1
  Si  Si21  1  0.968410  0.890005  0.249600  1
  Si  Si22  1  0.461433  0.619037  0.249860  1
  Si  Si23  1  0.537989  0.381066  0.750212  1
  Si  Si24  1  0.289439  0.890405  0.750218  1
  Si  Si25  1  0.710386  0.108936  0.249611  1
  Si  Si26  1  0.219658  0.379003  0.249958  1
  Si  Si27  1  0.780681  0.621023  0.750131  1
  Si  Si28  1  0.840220  0.540600  0.465740  1
  Si  Si29  1  0.345469  0.965607  0.461206  1
  Si  Si30  1  0.844641  0.539266  0.033591  1
  Si  Si31  1  0.654404  0.034747  0.538454  1
  Si  Si32  1  0.155441  0.460707  0.966407  1
  Si  Si33  1  0.653855  0.034097  0.961196  1
  Si  Si34  1  0.346156  0.965891  0.038764  1
  Ge  Ge35  1  0.160210  0.459381  0.535087  1
