# generated using pymatgen
data_CoSi(NiMo)2
_symmetry_space_group_name_H-M   'P 1'
_cell_length_a   4.64637843
_cell_length_b   4.64637808
_cell_length_c   7.72706600
_cell_angle_alpha   90.00000000
_cell_angle_beta   90.00000000
_cell_angle_gamma   118.31259593
_symmetry_Int_Tables_number   1
_chemical_formula_structural   CoSi(NiMo)2
_chemical_formula_sum   'Co2 Si2 Ni4 Mo4'
_cell_volume   146.86236403
_cell_formula_units_Z   2
loop_
 _symmetry_equiv_pos_site_id
 _symmetry_equiv_pos_as_xyz
  1  'x, y, z'
loop_
 _atom_site_type_symbol
 _atom_site_label
 _atom_site_symmetry_multiplicity
 _atom_site_fract_x
 _atom_site_fract_y
 _atom_site_fract_z
 _atom_site_occupancy
  Co  Co0  1  0.160328  0.347034  0.500000  1
  Co  Co1  1  0.652966  0.839672  0.500000  1
  Si  Si2  1  0.837166  0.162834  0.000000  1
  Si  Si3  1  0.161722  0.838278  0.500000  1
  Ni  Ni4  1  0.999604  0.000396  0.250361  1
  Ni  Ni5  1  0.999604  0.000396  0.749639  1
  Ni  Ni6  1  0.838675  0.653170  0.000000  1
  Ni  Ni7  1  0.346830  0.161325  0.000000  1
  Mo  Mo8  1  0.338537  0.661463  0.190743  1
  Mo  Mo9  1  0.663077  0.336923  0.315461  1
  Mo  Mo10  1  0.663077  0.336923  0.684539  1
  Mo  Mo11  1  0.338537  0.661463  0.809257  1
