# generated using pymatgen
data_SmTm2TeAs2
_symmetry_space_group_name_H-M   'P 1'
_cell_length_a   4.19239700
_cell_length_b   10.43754113
_cell_length_c   7.24499000
_cell_angle_alpha   89.80714623
_cell_angle_beta   90.00000000
_cell_angle_gamma   90.00000000
_symmetry_Int_Tables_number   1
_chemical_formula_structural   SmTm2TeAs2
_chemical_formula_sum   'Sm2 Tm4 Te2 As4'
_cell_volume   317.02676670
_cell_formula_units_Z   2
loop_
 _symmetry_equiv_pos_site_id
 _symmetry_equiv_pos_as_xyz
  1  'x, y, z'
loop_
 _atom_site_type_symbol
 _atom_site_label
 _atom_site_symmetry_multiplicity
 _atom_site_fract_x
 _atom_site_fract_y
 _atom_site_fract_z
 _atom_site_occupancy
  Sm  Sm0  1  0.250000  0.500666  0.249107  1
  Sm  Sm1  1  0.750000  0.499334  0.750893  1
  Tm  Tm2  1  0.250000  0.808302  0.916509  1
  Tm  Tm3  1  0.750000  0.191698  0.083491  1
  Tm  Tm4  1  0.750000  0.806526  0.418417  1
  Tm  Tm5  1  0.250000  0.193474  0.581583  1
  Te  Te6  1  0.750000  0.000769  0.748951  1
  Te  Te7  1  0.250000  0.999231  0.251049  1
  As  As8  1  0.250000  0.667311  0.584932  1
  As  As9  1  0.750000  0.332689  0.415068  1
  As  As10  1  0.750000  0.669255  0.083702  1
  As  As11  1  0.250000  0.330745  0.916298  1
