# generated using pymatgen
data_KNdGeSe4
_symmetry_space_group_name_H-M   'P 1'
_cell_length_a   7.14850100
_cell_length_b   6.95396277
_cell_length_c   9.31218683
_cell_angle_alpha   72.85029642
_cell_angle_beta   90.00000000
_cell_angle_gamma   90.00000000
_symmetry_Int_Tables_number   1
_chemical_formula_structural   KNdGeSe4
_chemical_formula_sum   'K2 Nd2 Ge2 Se8'
_cell_volume   442.33040703
_cell_formula_units_Z   2
loop_
 _symmetry_equiv_pos_site_id
 _symmetry_equiv_pos_as_xyz
  1  'x, y, z'
loop_
 _atom_site_type_symbol
 _atom_site_label
 _atom_site_symmetry_multiplicity
 _atom_site_fract_x
 _atom_site_fract_y
 _atom_site_fract_z
 _atom_site_occupancy
  K  K0  1  0.991669  0.734480  0.065926  1
  K  K1  1  0.491669  0.265520  0.934074  1
  Nd  Nd2  1  0.507561  0.227065  0.449449  1
  Nd  Nd3  1  0.007561  0.772935  0.550551  1
  Ge  Ge4  1  0.474112  0.774894  0.327156  1
  Ge  Ge5  1  0.974112  0.225106  0.672844  1
  Se  Se6  1  0.472033  0.571827  0.164516  1
  Se  Se7  1  0.235550  0.027637  0.276311  1
  Se  Se8  1  0.748284  0.980556  0.295020  1
  Se  Se9  1  0.903793  0.430640  0.424635  1
  Se  Se10  1  0.403793  0.569360  0.575365  1
  Se  Se11  1  0.248284  0.019444  0.704980  1
  Se  Se12  1  0.735550  0.972363  0.723689  1
  Se  Se13  1  0.972033  0.428173  0.835484  1
