# generated using pymatgen
data_Br(O2F7)2
_symmetry_space_group_name_H-M   'P 1'
_cell_length_a   12.86824900
_cell_length_b   6.60002811
_cell_length_c   8.78283506
_cell_angle_alpha   68.81381772
_cell_angle_beta   90.00000000
_cell_angle_gamma   90.00000000
_symmetry_Int_Tables_number   1
_chemical_formula_structural   Br(O2F7)2
_chemical_formula_sum   'Br2 O8 F28'
_cell_volume   695.51635963
_cell_formula_units_Z   2
loop_
 _symmetry_equiv_pos_site_id
 _symmetry_equiv_pos_as_xyz
  1  'x, y, z'
loop_
 _atom_site_type_symbol
 _atom_site_label
 _atom_site_symmetry_multiplicity
 _atom_site_fract_x
 _atom_site_fract_y
 _atom_site_fract_z
 _atom_site_occupancy
  Br  Br0  1  0.500000  0.500000  0.500000  1
  Br  Br1  1  0.000000  0.500000  0.000000  1
  O  O2  1  0.369047  0.779520  0.908706  1
  O  O3  1  0.630953  0.220480  0.091294  1
  O  O4  1  0.869047  0.220480  0.591294  1
  O  O5  1  0.130953  0.779520  0.408706  1
  O  O6  1  0.734144  0.757584  0.878454  1
  O  O7  1  0.265856  0.242416  0.121546  1
  O  O8  1  0.234144  0.242416  0.621546  1
  O  O9  1  0.765856  0.757584  0.378454  1
  F  F10  1  0.447564  0.854038  0.788163  1
  F  F11  1  0.552436  0.145962  0.211837  1
  F  F12  1  0.947564  0.145962  0.711837  1
  F  F13  1  0.052436  0.854038  0.288163  1
  F  F14  1  0.438432  0.759907  0.487986  1
  F  F15  1  0.561568  0.240093  0.512014  1
  F  F16  1  0.938432  0.240093  0.012014  1
  F  F17  1  0.061568  0.759907  0.987986  1
  F  F18  1  0.429534  0.355768  0.694542  1
  F  F19  1  0.570466  0.644232  0.305458  1
  F  F20  1  0.929534  0.644232  0.805458  1
  F  F21  1  0.070466  0.355768  0.194542  1
  F  F22  1  0.088482  0.804738  0.550194  1
  F  F23  1  0.911518  0.195262  0.449806  1
  F  F24  1  0.588482  0.195262  0.949806  1
  F  F25  1  0.411518  0.804738  0.050194  1
  F  F26  1  0.347825  0.300668  0.005073  1
  F  F27  1  0.652175  0.699332  0.994927  1
  F  F28  1  0.847825  0.699332  0.494927  1
  F  F29  1  0.152175  0.300668  0.505073  1
  F  F30  1  0.110311  0.448380  0.882016  1
  F  F31  1  0.889689  0.551620  0.117984  1
  F  F32  1  0.610311  0.551620  0.617984  1
  F  F33  1  0.389689  0.448380  0.382016  1
  F  F34  1  0.187347  0.104369  0.769194  1
  F  F35  1  0.812653  0.895631  0.230806  1
  F  F36  1  0.687347  0.895631  0.730806  1
  F  F37  1  0.312653  0.104369  0.269194  1
