# generated using pymatgen
data_CsIn9CoRh
_symmetry_space_group_name_H-M   'P 1'
_cell_length_a   8.98652200
_cell_length_b   8.98652170
_cell_length_c   4.36285000
_cell_angle_alpha   90.00000000
_cell_angle_beta   90.00000000
_cell_angle_gamma   120.00000110
_symmetry_Int_Tables_number   1
_chemical_formula_structural   CsIn9CoRh
_chemical_formula_sum   'Cs1 In9 Co1 Rh1'
_cell_volume   305.12948631
_cell_formula_units_Z   1
loop_
 _symmetry_equiv_pos_site_id
 _symmetry_equiv_pos_as_xyz
  1  'x, y, z'
loop_
 _atom_site_type_symbol
 _atom_site_label
 _atom_site_symmetry_multiplicity
 _atom_site_fract_x
 _atom_site_fract_y
 _atom_site_fract_z
 _atom_site_occupancy
  Cs  Cs0  1  0.000000  0.000000  0.000000  1
  In  In1  1  0.791542  0.583081  0.500000  1
  In  In2  1  0.496057  0.503943  0.000000  1
  In  In3  1  0.496057  0.992113  0.000000  1
  In  In4  1  0.416919  0.208458  0.500000  1
  In  In5  1  0.210955  0.421911  0.500000  1
  In  In6  1  0.210955  0.789045  0.500000  1
  In  In7  1  0.578089  0.789045  0.500000  1
  In  In8  1  0.007887  0.503943  0.000000  1
  In  In9  1  0.791542  0.208458  0.500000  1
  Co  Co10  1  0.333333  0.666667  0.000000  1
  Rh  Rh11  1  0.666667  0.333333  0.000000  1
