# generated using pymatgen
data_HoHfB6Os
_symmetry_space_group_name_H-M   'P 1'
_cell_length_a   3.54999000
_cell_length_b   9.00740700
_cell_length_c   11.38017900
_cell_angle_alpha   90.00000000
_cell_angle_beta   90.00000000
_cell_angle_gamma   90.00000000
_symmetry_Int_Tables_number   1
_chemical_formula_structural   HoHfB6Os
_chemical_formula_sum   'Ho4 Hf4 B24 Os4'
_cell_volume   363.89493409
_cell_formula_units_Z   4
loop_
 _symmetry_equiv_pos_site_id
 _symmetry_equiv_pos_as_xyz
  1  'x, y, z'
loop_
 _atom_site_type_symbol
 _atom_site_label
 _atom_site_symmetry_multiplicity
 _atom_site_fract_x
 _atom_site_fract_y
 _atom_site_fract_z
 _atom_site_occupancy
  Ho  Ho0  1  0.000000  0.321230  0.413156  1
  Ho  Ho1  1  0.000000  0.678770  0.586844  1
  Ho  Ho2  1  0.000000  0.821230  0.086844  1
  Ho  Ho3  1  0.000000  0.178770  0.913156  1
  Hf  Hf4  1  0.000000  0.944805  0.374725  1
  Hf  Hf5  1  0.000000  0.055195  0.625276  1
  Hf  Hf6  1  0.000000  0.444805  0.125275  1
  Hf  Hf7  1  0.000000  0.555195  0.874724  1
  B  B8  1  0.500000  0.554125  0.433844  1
  B  B9  1  0.500000  0.445875  0.566156  1
  B  B10  1  0.500000  0.054125  0.066156  1
  B  B11  1  0.500000  0.945875  0.933844  1
  B  B12  1  0.500000  0.751974  0.419352  1
  B  B13  1  0.500000  0.248026  0.580648  1
  B  B14  1  0.500000  0.251974  0.080648  1
  B  B15  1  0.500000  0.748026  0.919352  1
  B  B16  1  0.500000  0.794763  0.264272  1
  B  B17  1  0.500000  0.205237  0.735728  1
  B  B18  1  0.500000  0.294762  0.235728  1
  B  B19  1  0.500000  0.705237  0.764272  1
  B  B20  1  0.500000  0.629588  0.182891  1
  B  B21  1  0.500000  0.370412  0.817109  1
  B  B22  1  0.500000  0.129588  0.317109  1
  B  B23  1  0.500000  0.870412  0.682891  1
  B  B24  1  0.500000  0.981082  0.213818  1
  B  B25  1  0.500000  0.018918  0.786182  1
  B  B26  1  0.500000  0.481082  0.286182  1
  B  B27  1  0.500000  0.518918  0.713818  1
  B  B28  1  0.500000  0.601493  0.027640  1
  B  B29  1  0.500000  0.398507  0.972360  1
  B  B30  1  0.500000  0.101493  0.472360  1
  B  B31  1  0.500000  0.898507  0.527640  1
  Os  Os32  1  0.000000  0.640965  0.319407  1
  Os  Os33  1  0.000000  0.359035  0.680593  1
  Os  Os34  1  0.000000  0.140965  0.180593  1
  Os  Os35  1  0.000000  0.859035  0.819407  1
