# generated using pymatgen
data_Tb2Al8GaIr2Pt
_symmetry_space_group_name_H-M   'P 1'
_cell_length_a   7.57036884
_cell_length_b   7.57036741
_cell_length_c   9.49487600
_cell_angle_alpha   90.00000000
_cell_angle_beta   90.00000000
_cell_angle_gamma   119.48622479
_symmetry_Int_Tables_number   1
_chemical_formula_structural   Tb2Al8GaIr2Pt
_chemical_formula_sum   'Tb4 Al16 Ga2 Ir4 Pt2'
_cell_volume   473.67354358
_cell_formula_units_Z   2
loop_
 _symmetry_equiv_pos_site_id
 _symmetry_equiv_pos_as_xyz
  1  'x, y, z'
loop_
 _atom_site_type_symbol
 _atom_site_label
 _atom_site_symmetry_multiplicity
 _atom_site_fract_x
 _atom_site_fract_y
 _atom_site_fract_z
 _atom_site_occupancy
  Tb  Tb0  1  0.995441  0.675183  0.250000  1
  Tb  Tb1  1  0.004559  0.324817  0.750000  1
  Tb  Tb2  1  0.675183  0.995441  0.250000  1
  Tb  Tb3  1  0.324817  0.004559  0.750000  1
  Al  Al4  1  0.001265  0.339267  0.076137  1
  Al  Al5  1  0.998735  0.660733  0.923863  1
  Al  Al6  1  0.998735  0.660733  0.576137  1
  Al  Al7  1  0.339267  0.001265  0.423863  1
  Al  Al8  1  0.001265  0.339267  0.423863  1
  Al  Al9  1  0.660733  0.998735  0.576137  1
  Al  Al10  1  0.660733  0.998735  0.923863  1
  Al  Al11  1  0.339267  0.001265  0.076137  1
  Al  Al12  1  0.336982  0.336982  0.556414  1
  Al  Al13  1  0.663018  0.663018  0.443586  1
  Al  Al14  1  0.663018  0.663018  0.056414  1
  Al  Al15  1  0.336982  0.336982  0.943586  1
  Al  Al16  1  0.337744  0.550761  0.250000  1
  Al  Al17  1  0.662256  0.449239  0.750000  1
  Al  Al18  1  0.550761  0.337744  0.250000  1
  Al  Al19  1  0.449239  0.662256  0.750000  1
  Ga  Ga20  1  0.139677  0.139677  0.250000  1
  Ga  Ga21  1  0.860323  0.860323  0.750000  1
  Ir  Ir22  1  0.671447  0.328553  0.000000  1
  Ir  Ir23  1  0.328553  0.671447  0.000000  1
  Ir  Ir24  1  0.328553  0.671447  0.500000  1
  Ir  Ir25  1  0.671447  0.328553  0.500000  1
  Pt  Pt26  1  0.000000  0.000000  0.000000  1
  Pt  Pt27  1  0.000000  0.000000  0.500000  1
