# generated using pymatgen
data_LiDy16Zn2CdCo4
_symmetry_space_group_name_H-M   'P 1'
_cell_length_a   9.40224804
_cell_length_b   9.46311659
_cell_length_c   9.40971432
_cell_angle_alpha   60.17030753
_cell_angle_beta   60.02102710
_cell_angle_gamma   60.27395788
_symmetry_Int_Tables_number   1
_chemical_formula_structural   LiDy16Zn2CdCo4
_chemical_formula_sum   'Li1 Dy16 Zn2 Cd1 Co4'
_cell_volume   594.08156984
_cell_formula_units_Z   1
loop_
 _symmetry_equiv_pos_site_id
 _symmetry_equiv_pos_as_xyz
  1  'x, y, z'
loop_
 _atom_site_type_symbol
 _atom_site_label
 _atom_site_symmetry_multiplicity
 _atom_site_fract_x
 _atom_site_fract_y
 _atom_site_fract_z
 _atom_site_occupancy
  Li  Li0  1  0.925912  0.209806  0.932404  1
  Dy  Dy1  1  0.149992  0.546416  0.152115  1
  Dy  Dy2  1  0.687965  0.313680  0.687258  1
  Dy  Dy3  1  0.688704  0.312104  0.313277  1
  Dy  Dy4  1  0.938307  0.567265  0.556469  1
  Dy  Dy5  1  0.541364  0.149815  0.153735  1
  Dy  Dy6  1  0.154246  0.152272  0.537772  1
  Dy  Dy7  1  0.937008  0.937831  0.561573  1
  Dy  Dy8  1  0.309798  0.691743  0.310301  1
  Dy  Dy9  1  0.566768  0.937637  0.935339  1
  Dy  Dy10  1  0.567011  0.937813  0.558712  1
  Dy  Dy11  1  0.689972  0.692060  0.309760  1
  Dy  Dy12  1  0.559294  0.563078  0.938602  1
  Dy  Dy13  1  0.938654  0.566849  0.937294  1
  Dy  Dy14  1  0.310637  0.691149  0.688555  1
  Dy  Dy15  1  0.155130  0.153355  0.155113  1
  Dy  Dy16  1  0.314598  0.312956  0.687220  1
  Zn  Zn17  1  0.916800  0.918174  0.921928  1
  Zn  Zn18  1  0.916983  0.917428  0.244684  1
  Cd  Cd19  1  0.232028  0.922199  0.923432  1
  Co  Co20  1  0.358518  0.360697  0.923026  1
  Co  Co21  1  0.358497  0.923558  0.357749  1
  Co  Co22  1  0.922746  0.360555  0.357347  1
  Co  Co23  1  0.359069  0.361562  0.356335  1
