# generated using pymatgen
data_Dy11ThTc4
_symmetry_space_group_name_H-M   'P 1'
_cell_length_a   6.31496114
_cell_length_b   7.40495720
_cell_length_c   9.26183700
_cell_angle_alpha   90.00000000
_cell_angle_beta   90.00000000
_cell_angle_gamma   90.45285582
_symmetry_Int_Tables_number   1
_chemical_formula_structural   Dy11ThTc4
_chemical_formula_sum   'Dy11 Th1 Tc4'
_cell_volume   433.08865137
_cell_formula_units_Z   1
loop_
 _symmetry_equiv_pos_site_id
 _symmetry_equiv_pos_as_xyz
  1  'x, y, z'
loop_
 _atom_site_type_symbol
 _atom_site_label
 _atom_site_symmetry_multiplicity
 _atom_site_fract_x
 _atom_site_fract_y
 _atom_site_fract_z
 _atom_site_occupancy
  Dy  Dy0  1  0.663322  0.324031  0.937811  1
  Dy  Dy1  1  0.372695  0.955684  0.750000  1
  Dy  Dy2  1  0.871858  0.541670  0.250000  1
  Dy  Dy3  1  0.629430  0.043724  0.250000  1
  Dy  Dy4  1  0.165843  0.173835  0.434032  1
  Dy  Dy5  1  0.835348  0.823943  0.561530  1
  Dy  Dy6  1  0.165843  0.173835  0.065968  1
  Dy  Dy7  1  0.835348  0.823943  0.938470  1
  Dy  Dy8  1  0.663322  0.324031  0.562189  1
  Dy  Dy9  1  0.334148  0.676536  0.065877  1
  Dy  Dy10  1  0.334148  0.676536  0.434123  1
  Th  Th11  1  0.138642  0.447864  0.750000  1
  Tc  Tc12  1  0.513114  0.612739  0.750000  1
  Tc  Tc13  1  0.977159  0.128763  0.750000  1
  Tc  Tc14  1  0.034908  0.885895  0.250000  1
  Tc  Tc15  1  0.464876  0.386966  0.250000  1
