# generated using pymatgen
data_Nd9HoSe10
_symmetry_space_group_name_H-M   'P 1'
_cell_length_a   7.27672864
_cell_length_b   8.37003187
_cell_length_c   9.50405438
_cell_angle_alpha   103.23153296
_cell_angle_beta   96.75558493
_cell_angle_gamma   106.61232049
_symmetry_Int_Tables_number   1
_chemical_formula_structural   Nd9HoSe10
_chemical_formula_sum   'Nd9 Ho1 Se10'
_cell_volume   529.47086232
_cell_formula_units_Z   1
loop_
 _symmetry_equiv_pos_site_id
 _symmetry_equiv_pos_as_xyz
  1  'x, y, z'
loop_
 _atom_site_type_symbol
 _atom_site_label
 _atom_site_symmetry_multiplicity
 _atom_site_fract_x
 _atom_site_fract_y
 _atom_site_fract_z
 _atom_site_occupancy
  Nd  Nd0  1  0.799899  0.599320  0.596500  1
  Nd  Nd1  1  0.592448  0.195995  0.197911  1
  Nd  Nd2  1  0.407552  0.804005  0.802089  1
  Nd  Nd3  1  0.599903  0.701674  0.200886  1
  Nd  Nd4  1  0.200101  0.400680  0.403500  1
  Nd  Nd5  1  0.400097  0.298326  0.799114  1
  Nd  Nd6  1  0.000000  0.000000  0.000000  1
  Nd  Nd7  1  0.202340  0.901413  0.400595  1
  Nd  Nd8  1  0.797660  0.098587  0.599405  1
  Ho  Ho9  1  0.000000  0.500000  0.000000  1
  Se  Se10  1  0.707969  0.645641  0.901474  1
  Se  Se11  1  0.500316  0.250573  0.499855  1
  Se  Se12  1  0.708387  0.159671  0.903016  1
  Se  Se13  1  0.291613  0.840329  0.096984  1
  Se  Se14  1  0.499684  0.749427  0.500145  1
  Se  Se15  1  0.098719  0.452815  0.708219  1
  Se  Se16  1  0.292031  0.354359  0.098526  1
  Se  Se17  1  0.899429  0.051126  0.300021  1
  Se  Se18  1  0.100571  0.948874  0.699979  1
  Se  Se19  1  0.901281  0.547185  0.291781  1
