# generated using pymatgen
data_Tm12Fe2Ni3Sn
_symmetry_space_group_name_H-M   'P 1'
_cell_length_a   8.18209163
_cell_length_b   8.18317087
_cell_length_c   8.18189978
_cell_angle_alpha   105.15403052
_cell_angle_beta   111.59779647
_cell_angle_gamma   111.73971602
_symmetry_Int_Tables_number   1
_chemical_formula_structural   Tm12Fe2Ni3Sn
_chemical_formula_sum   'Tm12 Fe2 Ni3 Sn1'
_cell_volume   419.97069230
_cell_formula_units_Z   1
loop_
 _symmetry_equiv_pos_site_id
 _symmetry_equiv_pos_as_xyz
  1  'x, y, z'
loop_
 _atom_site_type_symbol
 _atom_site_label
 _atom_site_symmetry_multiplicity
 _atom_site_fract_x
 _atom_site_fract_y
 _atom_site_fract_z
 _atom_site_occupancy
  Tm  Tm0  1  0.696261  0.286304  0.982557  1
  Tm  Tm1  1  0.303711  0.713676  0.017374  1
  Tm  Tm2  1  0.696246  0.713673  0.409921  1
  Tm  Tm3  1  0.303717  0.286333  0.590027  1
  Tm  Tm4  1  0.803205  0.119732  0.316540  1
  Tm  Tm5  1  0.803217  0.486659  0.683461  1
  Tm  Tm6  1  0.196811  0.880285  0.683478  1
  Tm  Tm7  1  0.196826  0.513368  0.316542  1
  Tm  Tm8  1  0.596626  0.784059  0.812575  1
  Tm  Tm9  1  0.971462  0.784034  0.187427  1
  Tm  Tm10  1  0.028520  0.215944  0.812552  1
  Tm  Tm11  1  0.403392  0.215951  0.187406  1
  Fe  Fe12  1  0.880510  0.500036  0.380459  1
  Fe  Fe13  1  0.119668  0.500003  0.619670  1
  Ni  Ni14  1  0.000194  0.116442  0.116479  1
  Ni  Ni15  1  0.000011  0.883604  0.883731  1
  Ni  Ni16  1  0.499654  0.499982  0.999879  1
  Sn  Sn17  1  0.499968  0.999914  0.499922  1
