# generated using pymatgen
data_Ta16Ti7NbAs8
_symmetry_space_group_name_H-M   'P 1'
_cell_length_a   7.75805889
_cell_length_b   7.75386514
_cell_length_c   14.48888826
_cell_angle_alpha   89.88116053
_cell_angle_beta   89.88820709
_cell_angle_gamma   38.82675190
_symmetry_Int_Tables_number   1
_chemical_formula_structural   Ta16Ti7NbAs8
_chemical_formula_sum   'Ta16 Ti7 Nb1 As8'
_cell_volume   546.45008302
_cell_formula_units_Z   1
loop_
 _symmetry_equiv_pos_site_id
 _symmetry_equiv_pos_as_xyz
  1  'x, y, z'
loop_
 _atom_site_type_symbol
 _atom_site_label
 _atom_site_symmetry_multiplicity
 _atom_site_fract_x
 _atom_site_fract_y
 _atom_site_fract_z
 _atom_site_occupancy
  Ta  Ta0  1  0.497916  0.976955  0.200387  1
  Ta  Ta1  1  0.024650  0.502625  0.299767  1
  Ta  Ta2  1  0.502242  0.022418  0.797855  1
  Ta  Ta3  1  0.977231  0.495142  0.699916  1
  Ta  Ta4  1  0.806601  0.295273  0.988365  1
  Ta  Ta5  1  0.704022  0.194583  0.512709  1
  Ta  Ta6  1  0.193695  0.705259  0.011986  1
  Ta  Ta7  1  0.297048  0.804790  0.486986  1
  Ta  Ta8  1  0.893463  0.423212  0.492943  1
  Ta  Ta9  1  0.576990  0.107572  0.007274  1
  Ta  Ta10  1  0.106364  0.578034  0.506496  1
  Ta  Ta11  1  0.424530  0.892526  0.994427  1
  Ta  Ta12  1  0.025420  0.488545  0.908647  1
  Ta  Ta13  1  0.512061  0.974026  0.590841  1
  Ta  Ta14  1  0.975328  0.511831  0.092101  1
  Ta  Ta15  1  0.488160  0.026555  0.407895  1
  Ti  Ti16  1  0.575411  0.547420  0.164871  1
  Ti  Ti17  1  0.455371  0.423640  0.335511  1
  Ti  Ti18  1  0.423987  0.453680  0.835777  1
  Ti  Ti19  1  0.544066  0.578365  0.665382  1
  Ti  Ti20  1  0.068238  0.092051  0.317513  1
  Ti  Ti21  1  0.908013  0.933135  0.182241  1
  Ti  Ti22  1  0.931357  0.907761  0.682086  1
  Nb  Nb23  1  0.091317  0.065070  0.818471  1
  As  As24  1  0.070748  0.106533  0.634891  1
  As  As25  1  0.892277  0.921550  0.863051  1
  As  As26  1  0.927967  0.894654  0.363234  1
  As  As27  1  0.105803  0.073823  0.137385  1
  As  As28  1  0.401264  0.365168  0.666331  1
  As  As29  1  0.633705  0.600069  0.834803  1
  As  As30  1  0.599064  0.635106  0.333479  1
  As  As31  1  0.365692  0.402631  0.166383  1
