# generated using pymatgen
data_CaTh(NiAs)2
_symmetry_space_group_name_H-M   'P 1'
_cell_length_a   4.12443300
_cell_length_b   4.12443346
_cell_length_c   15.93051200
_cell_angle_alpha   90.00000000
_cell_angle_beta   90.00000000
_cell_angle_gamma   120.00000431
_symmetry_Int_Tables_number   1
_chemical_formula_structural   CaTh(NiAs)2
_chemical_formula_sum   'Ca2 Th2 Ni4 As4'
_cell_volume   234.68692883
_cell_formula_units_Z   2
loop_
 _symmetry_equiv_pos_site_id
 _symmetry_equiv_pos_as_xyz
  1  'x, y, z'
loop_
 _atom_site_type_symbol
 _atom_site_label
 _atom_site_symmetry_multiplicity
 _atom_site_fract_x
 _atom_site_fract_y
 _atom_site_fract_z
 _atom_site_occupancy
  Ca  Ca0  1  0.000000  0.000000  0.000000  1
  Ca  Ca1  1  0.000000  0.000000  0.500000  1
  Th  Th2  1  0.000000  0.000000  0.250000  1
  Th  Th3  1  0.000000  0.000000  0.750000  1
  Ni  Ni4  1  0.333333  0.666667  0.134887  1
  Ni  Ni5  1  0.666667  0.333333  0.865113  1
  Ni  Ni6  1  0.666667  0.333333  0.634887  1
  Ni  Ni7  1  0.333333  0.666667  0.365113  1
  As  As8  1  0.333333  0.666667  0.622242  1
  As  As9  1  0.666667  0.333333  0.377758  1
  As  As10  1  0.666667  0.333333  0.122242  1
  As  As11  1  0.333333  0.666667  0.877758  1
