# generated using pymatgen
data_Tb12Co4PbAu
_symmetry_space_group_name_H-M   'P 1'
_cell_length_a   8.41823460
_cell_length_b   8.41823485
_cell_length_c   8.41823467
_cell_angle_alpha   111.45175358
_cell_angle_beta   109.62926438
_cell_angle_gamma   107.35850838
_symmetry_Int_Tables_number   1
_chemical_formula_structural   Tb12Co4PbAu
_chemical_formula_sum   'Tb12 Co4 Pb1 Au1'
_cell_volume   458.65467059
_cell_formula_units_Z   1
loop_
 _symmetry_equiv_pos_site_id
 _symmetry_equiv_pos_as_xyz
  1  'x, y, z'
loop_
 _atom_site_type_symbol
 _atom_site_label
 _atom_site_symmetry_multiplicity
 _atom_site_fract_x
 _atom_site_fract_y
 _atom_site_fract_z
 _atom_site_occupancy
  Tb  Tb0  1  0.420646  0.215623  0.205022  1
  Tb  Tb1  1  0.579354  0.784377  0.794978  1
  Tb  Tb2  1  0.010600  0.215623  0.794978  1
  Tb  Tb3  1  0.989400  0.784377  0.205022  1
  Tb  Tb4  1  0.184906  0.291000  0.475907  1
  Tb  Tb5  1  0.815094  0.709000  0.524093  1
  Tb  Tb6  1  0.184906  0.709000  0.893905  1
  Tb  Tb7  1  0.815094  0.291000  0.106095  1
  Tb  Tb8  1  0.314597  0.621336  0.306739  1
  Tb  Tb9  1  0.685403  0.378664  0.693261  1
  Tb  Tb10  1  0.314597  0.007859  0.693261  1
  Tb  Tb11  1  0.685403  0.992141  0.306739  1
  Co  Co12  1  0.379809  0.000000  0.379809  1
  Co  Co13  1  0.620191  0.000000  0.620191  1
  Co  Co14  1  0.111225  0.611225  0.500000  1
  Co  Co15  1  0.888775  0.388775  0.500000  1
  Pb  Pb16  1  0.500000  0.500000  0.000000  1
  Au  Au17  1  0.000000  0.000000  0.000000  1
