# generated using pymatgen
data_Nd4Dy5Y7(CdNi)4
_symmetry_space_group_name_H-M   'P 1'
_cell_length_a   9.66347392
_cell_length_b   9.66347479
_cell_length_c   9.65751700
_cell_angle_alpha   60.02039587
_cell_angle_beta   60.02039288
_cell_angle_gamma   60.02777821
_symmetry_Int_Tables_number   1
_chemical_formula_structural   Nd4Dy5Y7(CdNi)4
_chemical_formula_sum   'Nd4 Dy5 Y7 Cd4 Ni4'
_cell_volume   638.03137262
_cell_formula_units_Z   1
loop_
 _symmetry_equiv_pos_site_id
 _symmetry_equiv_pos_as_xyz
  1  'x, y, z'
loop_
 _atom_site_type_symbol
 _atom_site_label
 _atom_site_symmetry_multiplicity
 _atom_site_fract_x
 _atom_site_fract_y
 _atom_site_fract_z
 _atom_site_occupancy
  Nd  Nd0  1  0.600145  0.600145  0.599598  1
  Nd  Nd1  1  0.600145  0.600145  0.200112  1
  Nd  Nd2  1  0.600787  0.198163  0.600524  1
  Nd  Nd3  1  0.198163  0.600787  0.600524  1
  Dy  Dy4  1  0.063750  0.436777  0.436771  1
  Dy  Dy5  1  0.436777  0.063750  0.062702  1
  Dy  Dy6  1  0.436777  0.063750  0.436771  1
  Dy  Dy7  1  0.063750  0.436777  0.062702  1
  Dy  Dy8  1  0.437721  0.437721  0.062279  1
  Y  Y9  1  0.063409  0.063409  0.436591  1
  Y  Y10  1  0.186121  0.814211  0.815062  1
  Y  Y11  1  0.814211  0.186121  0.184606  1
  Y  Y12  1  0.814211  0.186121  0.815062  1
  Y  Y13  1  0.186121  0.814211  0.184606  1
  Y  Y14  1  0.814740  0.814740  0.185260  1
  Y  Y15  1  0.185912  0.185912  0.814088  1
  Cd  Cd16  1  0.831575  0.831575  0.832222  1
  Cd  Cd17  1  0.831575  0.831575  0.504627  1
  Cd  Cd18  1  0.831331  0.503767  0.832450  1
  Cd  Cd19  1  0.503767  0.831331  0.832450  1
  Ni  Ni20  1  0.390408  0.390408  0.393171  1
  Ni  Ni21  1  0.390408  0.390408  0.826014  1
  Ni  Ni22  1  0.391100  0.827095  0.390903  1
  Ni  Ni23  1  0.827095  0.391100  0.390903  1
