# generated using pymatgen
data_DyEr2Tm3Os2
_symmetry_space_group_name_H-M   'P 1'
_cell_length_a   7.38086307
_cell_length_b   8.92340028
_cell_length_c   6.24998158
_cell_angle_alpha   89.97176391
_cell_angle_beta   90.14852805
_cell_angle_gamma   90.00609732
_symmetry_Int_Tables_number   1
_chemical_formula_structural   DyEr2Tm3Os2
_chemical_formula_sum   'Dy2 Er4 Tm6 Os4'
_cell_volume   411.63732436
_cell_formula_units_Z   2
loop_
 _symmetry_equiv_pos_site_id
 _symmetry_equiv_pos_as_xyz
  1  'x, y, z'
loop_
 _atom_site_type_symbol
 _atom_site_label
 _atom_site_symmetry_multiplicity
 _atom_site_fract_x
 _atom_site_fract_y
 _atom_site_fract_z
 _atom_site_occupancy
  Dy  Dy0  1  0.039332  0.250091  0.628505  1
  Dy  Dy1  1  0.960668  0.749909  0.371495  1
  Er  Er2  1  0.460081  0.749913  0.129190  1
  Er  Er3  1  0.539919  0.250087  0.870810  1
  Er  Er4  1  0.175931  0.062636  0.164581  1
  Er  Er5  1  0.824069  0.937364  0.835419  1
  Tm  Tm6  1  0.327205  0.937352  0.667420  1
  Tm  Tm7  1  0.824210  0.562583  0.835476  1
  Tm  Tm8  1  0.672795  0.062648  0.332580  1
  Tm  Tm9  1  0.175790  0.437417  0.164524  1
  Tm  Tm10  1  0.672830  0.437424  0.332515  1
  Tm  Tm11  1  0.327170  0.562576  0.667485  1
  Os  Os12  1  0.383531  0.250032  0.460662  1
  Os  Os13  1  0.616469  0.749968  0.539338  1
  Os  Os14  1  0.118420  0.749885  0.958766  1
  Os  Os15  1  0.881580  0.250115  0.041234  1
