# generated using pymatgen
data_CsTb9Pr(C2Br9)2
_symmetry_space_group_name_H-M   'P 1'
_cell_length_a   10.79597581
_cell_length_b   10.87789316
_cell_length_c   11.00281681
_cell_angle_alpha   113.41841050
_cell_angle_beta   87.38555442
_cell_angle_gamma   118.82858541
_symmetry_Int_Tables_number   1
_chemical_formula_structural   CsTb9Pr(C2Br9)2
_chemical_formula_sum   'Cs1 Tb9 Pr1 C4 Br18'
_cell_volume   1021.47487498
_cell_formula_units_Z   1
loop_
 _symmetry_equiv_pos_site_id
 _symmetry_equiv_pos_as_xyz
  1  'x, y, z'
loop_
 _atom_site_type_symbol
 _atom_site_label
 _atom_site_symmetry_multiplicity
 _atom_site_fract_x
 _atom_site_fract_y
 _atom_site_fract_z
 _atom_site_occupancy
  Cs  Cs0  1  0.500150  0.000879  0.499982  1
  Tb  Tb1  1  0.281358  0.363295  0.012955  1
  Tb  Tb2  1  0.092246  0.405271  0.299880  1
  Tb  Tb3  1  0.961009  0.037821  0.332642  1
  Tb  Tb4  1  0.906748  0.593647  0.699079  1
  Tb  Tb5  1  0.112544  0.942384  0.001644  1
  Tb  Tb6  1  0.040552  0.963149  0.668077  1
  Tb  Tb7  1  0.337198  0.282103  0.296911  1
  Tb  Tb8  1  0.719721  0.637123  0.988382  1
  Tb  Tb9  1  0.888545  0.058114  0.998974  1
  Pr  Pr10  1  0.654296  0.713775  0.697466  1
  C  C11  1  0.156664  0.227250  0.124025  1
  C  C12  1  0.846537  0.773963  0.877803  1
  C  C13  1  0.924352  0.852111  0.798330  1
  C  C14  1  0.078711  0.148988  0.203686  1
  Br  Br15  1  0.449186  0.527410  0.838552  1
  Br  Br16  1  0.382124  0.039112  0.159385  1
  Br  Br17  1  0.782930  0.861478  0.499043  1
  Br  Br18  1  0.839472  0.311265  0.154705  1
  Br  Br19  1  0.547048  0.468515  0.166671  1
  Br  Br20  1  0.221801  0.143119  0.497445  1
  Br  Br21  1  0.313805  0.099506  0.830001  1
  Br  Br22  1  0.687005  0.900752  0.169878  1
  Br  Br23  1  0.975001  0.762452  0.172667  1
  Br  Br24  1  0.933600  0.301935  0.499976  1
  Br  Br25  1  0.025414  0.237309  0.827794  1
  Br  Br26  1  0.066751  0.698206  0.500046  1
  Br  Br27  1  0.259749  0.621369  0.187192  1
  Br  Br28  1  0.740085  0.378892  0.812909  1
  Br  Br29  1  0.638975  0.422919  0.492912  1
  Br  Br30  1  0.160737  0.689429  0.845829  1
  Br  Br31  1  0.618595  0.972443  0.847585  1
  Br  Br32  1  0.357094  0.564016  0.497575  1
