# generated using pymatgen
data_LiNd4Y5Si8
_symmetry_space_group_name_H-M   'P 1'
_cell_length_a   7.77101585
_cell_length_b   7.76591000
_cell_length_c   14.16975932
_cell_angle_alpha   90.00000000
_cell_angle_beta   89.65427569
_cell_angle_gamma   90.00000000
_symmetry_Int_Tables_number   1
_chemical_formula_structural   LiNd4Y5Si8
_chemical_formula_sum   'Li2 Nd8 Y10 Si16'
_cell_volume   855.11537504
_cell_formula_units_Z   2
loop_
 _symmetry_equiv_pos_site_id
 _symmetry_equiv_pos_as_xyz
  1  'x, y, z'
loop_
 _atom_site_type_symbol
 _atom_site_label
 _atom_site_symmetry_multiplicity
 _atom_site_fract_x
 _atom_site_fract_y
 _atom_site_fract_z
 _atom_site_occupancy
  Li  Li0  1  0.315209  0.313491  0.501562  1
  Li  Li1  1  0.184791  0.813491  0.748438  1
  Nd  Nd2  1  0.631166  0.997158  0.461474  1
  Nd  Nd3  1  0.362444  0.004628  0.951382  1
  Nd  Nd4  1  0.000196  0.632062  0.546498  1
  Nd  Nd5  1  0.490128  0.860010  0.210422  1
  Nd  Nd6  1  0.499804  0.132062  0.703502  1
  Nd  Nd7  1  0.868834  0.497158  0.788526  1
  Nd  Nd8  1  0.137556  0.504628  0.298618  1
  Nd  Nd9  1  0.009872  0.360010  0.039578  1
  Y  Y10  1  0.489375  0.367220  0.123746  1
  Y  Y11  1  0.002171  0.131855  0.625079  1
  Y  Y12  1  0.869438  0.005325  0.869004  1
  Y  Y13  1  0.135410  0.999310  0.379170  1
  Y  Y14  1  0.497829  0.631855  0.624921  1
  Y  Y15  1  0.364590  0.499310  0.870830  1
  Y  Y16  1  0.630562  0.505325  0.380996  1
  Y  Y17  1  0.010625  0.867220  0.126254  1
  Y  Y18  1  0.813856  0.185316  0.251327  1
  Y  Y19  1  0.686144  0.685316  0.998673  1
  Si  Si20  1  0.284044  0.918454  0.562679  1
  Si  Si21  1  0.708267  0.068623  0.058855  1
  Si  Si22  1  0.920812  0.288924  0.441111  1
  Si  Si23  1  0.430905  0.212260  0.311803  1
  Si  Si24  1  0.579188  0.788924  0.808889  1
  Si  Si25  1  0.215956  0.418454  0.687321  1
  Si  Si26  1  0.791733  0.568623  0.191145  1
  Si  Si27  1  0.069095  0.712260  0.938197  1
  Si  Si28  1  0.786552  0.849170  0.682483  1
  Si  Si29  1  0.202788  0.157165  0.192283  1
  Si  Si30  1  0.844647  0.795548  0.313247  1
  Si  Si31  1  0.347464  0.713480  0.438311  1
  Si  Si32  1  0.655353  0.295548  0.936753  1
  Si  Si33  1  0.713448  0.349170  0.567517  1
  Si  Si34  1  0.297212  0.657165  0.057717  1
  Si  Si35  1  0.152536  0.213480  0.811689  1
