# generated using pymatgen
data_Zr5Mn16(CrP4)3
_symmetry_space_group_name_H-M   'P 1'
_cell_length_a   12.32851700
_cell_length_b   12.32851769
_cell_length_c   3.51508800
_cell_angle_alpha   90.00000000
_cell_angle_beta   90.00000000
_cell_angle_gamma   119.99999546
_symmetry_Int_Tables_number   1
_chemical_formula_structural   Zr5Mn16(CrP4)3
_chemical_formula_sum   'Zr5 Mn16 Cr3 P12'
_cell_volume   462.68833944
_cell_formula_units_Z   1
loop_
 _symmetry_equiv_pos_site_id
 _symmetry_equiv_pos_as_xyz
  1  'x, y, z'
loop_
 _atom_site_type_symbol
 _atom_site_label
 _atom_site_symmetry_multiplicity
 _atom_site_fract_x
 _atom_site_fract_y
 _atom_site_fract_z
 _atom_site_occupancy
  Zr  Zr0  1  0.666667  0.333333  0.000000  1
  Zr  Zr1  1  0.333333  0.666667  0.000000  1
  Zr  Zr2  1  0.820067  0.820067  0.500000  1
  Zr  Zr3  1  0.179933  0.000000  0.500000  1
  Zr  Zr4  1  0.000000  0.179933  0.500000  1
  Mn  Mn5  1  0.200845  0.376710  0.000000  1
  Mn  Mn6  1  0.175866  0.799155  0.000000  1
  Mn  Mn7  1  0.824134  0.623290  0.000000  1
  Mn  Mn8  1  0.799155  0.175866  0.000000  1
  Mn  Mn9  1  0.376710  0.200845  0.000000  1
  Mn  Mn10  1  0.127038  0.474326  0.500000  1
  Mn  Mn11  1  0.347289  0.872962  0.500000  1
  Mn  Mn12  1  0.525674  0.652711  0.500000  1
  Mn  Mn13  1  0.652711  0.525674  0.500000  1
  Mn  Mn14  1  0.872962  0.347289  0.500000  1
  Mn  Mn15  1  0.474326  0.127038  0.500000  1
  Mn  Mn16  1  0.000000  0.000000  0.000000  1
  Mn  Mn17  1  0.711833  0.000000  0.500000  1
  Mn  Mn18  1  0.000000  0.711833  0.500000  1
  Mn  Mn19  1  0.623290  0.824134  0.000000  1
  Mn  Mn20  1  0.288167  0.288167  0.500000  1
  Cr  Cr21  1  0.453641  0.453641  0.000000  1
  Cr  Cr22  1  0.546359  0.000000  0.000000  1
  Cr  Cr23  1  0.000000  0.546359  0.000000  1
  P  P24  1  0.647798  0.647798  0.000000  1
  P  P25  1  0.352202  0.000000  0.000000  1
  P  P26  1  0.000000  0.352202  0.000000  1
  P  P27  1  0.490208  0.328038  0.500000  1
  P  P28  1  0.671962  0.162169  0.500000  1
  P  P29  1  0.837831  0.509792  0.500000  1
  P  P30  1  0.509792  0.837831  0.500000  1
  P  P31  1  0.162169  0.671962  0.500000  1
  P  P32  1  0.825095  0.000000  0.000000  1
  P  P33  1  0.000000  0.825095  0.000000  1
  P  P34  1  0.328038  0.490208  0.500000  1
  P  P35  1  0.174905  0.174905  0.000000  1
