# generated using pymatgen
data_DyYFe7Ni5P7
_symmetry_space_group_name_H-M   'P 1'
_cell_length_a   9.02808263
_cell_length_b   9.05281991
_cell_length_c   3.65188900
_cell_angle_alpha   90.00000000
_cell_angle_beta   90.00000000
_cell_angle_gamma   120.11000150
_symmetry_Int_Tables_number   1
_chemical_formula_structural   DyYFe7Ni5P7
_chemical_formula_sum   'Dy1 Y1 Fe7 Ni5 P7'
_cell_volume   258.19340523
_cell_formula_units_Z   1
loop_
 _symmetry_equiv_pos_site_id
 _symmetry_equiv_pos_as_xyz
  1  'x, y, z'
loop_
 _atom_site_type_symbol
 _atom_site_label
 _atom_site_symmetry_multiplicity
 _atom_site_fract_x
 _atom_site_fract_y
 _atom_site_fract_z
 _atom_site_occupancy
  Dy  Dy0  1  0.997635  0.998833  0.500000  1
  Y  Y1  1  0.336030  0.668118  0.000000  1
  Fe  Fe2  1  0.941856  0.489259  0.000000  1
  Fe  Fe3  1  0.509024  0.450646  0.000000  1
  Fe  Fe4  1  0.548324  0.062251  0.000000  1
  Fe  Fe5  1  0.619403  0.899330  0.500000  1
  Fe  Fe6  1  0.762309  0.552717  0.500000  1
  Fe  Fe7  1  0.449348  0.212087  0.500000  1
  Fe  Fe8  1  0.786213  0.239123  0.500000  1
  Ni  Ni9  1  0.727980  0.764451  0.000000  1
  Ni  Ni10  1  0.232470  0.959021  0.000000  1
  Ni  Ni11  1  0.037502  0.269501  0.000000  1
  Ni  Ni12  1  0.104421  0.720902  0.500000  1
  Ni  Ni13  1  0.278731  0.381995  0.500000  1
  P  P14  1  0.959859  0.737580  0.000000  1
  P  P15  1  0.261025  0.219779  0.000000  1
  P  P16  1  0.772608  0.032949  0.000000  1
  P  P17  1  0.064246  0.447291  0.500000  1
  P  P18  1  0.553910  0.622664  0.500000  1
  P  P19  1  0.389852  0.935980  0.500000  1
  P  P20  1  0.667252  0.335523  0.000000  1
