# generated using pymatgen
data_Zr9Ta3RhO3
_symmetry_space_group_name_H-M   'P 1'
_cell_length_a   8.78741300
_cell_length_b   8.67995663
_cell_length_c   8.68214500
_cell_angle_alpha   90.00000000
_cell_angle_beta   90.00000000
_cell_angle_gamma   120.41038490
_symmetry_Int_Tables_number   1
_chemical_formula_structural   Zr9Ta3RhO3
_chemical_formula_sum   'Zr18 Ta6 Rh2 O6'
_cell_volume   571.11744037
_cell_formula_units_Z   2
loop_
 _symmetry_equiv_pos_site_id
 _symmetry_equiv_pos_as_xyz
  1  'x, y, z'
loop_
 _atom_site_type_symbol
 _atom_site_label
 _atom_site_symmetry_multiplicity
 _atom_site_fract_x
 _atom_site_fract_y
 _atom_site_fract_z
 _atom_site_occupancy
  Zr  Zr0  1  0.454101  0.908203  0.250000  1
  Zr  Zr1  1  0.545899  0.091797  0.750000  1
  Zr  Zr2  1  0.094723  0.546849  0.250000  1
  Zr  Zr3  1  0.905277  0.453151  0.750000  1
  Zr  Zr4  1  0.452125  0.546849  0.250000  1
  Zr  Zr5  1  0.547875  0.453151  0.750000  1
  Zr  Zr6  1  0.207054  0.414109  0.568542  1
  Zr  Zr7  1  0.792946  0.585891  0.431458  1
  Zr  Zr8  1  0.588448  0.793906  0.559743  1
  Zr  Zr9  1  0.792946  0.585891  0.068542  1
  Zr  Zr10  1  0.411552  0.206094  0.440257  1
  Zr  Zr11  1  0.207054  0.414109  0.931458  1
  Zr  Zr12  1  0.205457  0.793906  0.559743  1
  Zr  Zr13  1  0.411552  0.206094  0.059743  1
  Zr  Zr14  1  0.794543  0.206094  0.440257  1
  Zr  Zr15  1  0.588448  0.793906  0.940257  1
  Zr  Zr16  1  0.794543  0.206094  0.059743  1
  Zr  Zr17  1  0.205457  0.793906  0.940257  1
  Ta  Ta18  1  0.778941  0.891194  0.250000  1
  Ta  Ta19  1  0.221059  0.108806  0.750000  1
  Ta  Ta20  1  0.112254  0.891194  0.250000  1
  Ta  Ta21  1  0.887746  0.108806  0.750000  1
  Ta  Ta22  1  0.000000  0.000000  0.000000  1
  Ta  Ta23  1  0.000000  0.000000  0.500000  1
  Rh  Rh24  1  0.112657  0.225312  0.250000  1
  Rh  Rh25  1  0.887343  0.774688  0.750000  1
  O  O26  1  0.500000  0.000000  0.000000  1
  O  O27  1  0.000000  0.500000  0.000000  1
  O  O28  1  0.500000  0.000000  0.500000  1
  O  O29  1  0.500000  0.500000  0.000000  1
  O  O30  1  0.000000  0.500000  0.500000  1
  O  O31  1  0.500000  0.500000  0.500000  1
