# generated using pymatgen
data_Tb2PuThPt4
_symmetry_space_group_name_H-M   'P 1'
_cell_length_a   4.60216400
_cell_length_b   5.62157885
_cell_length_c   7.09055418
_cell_angle_alpha   90.77067611
_cell_angle_beta   90.00000000
_cell_angle_gamma   90.00000000
_symmetry_Int_Tables_number   1
_chemical_formula_structural   Tb2PuThPt4
_chemical_formula_sum   'Tb2 Pu1 Th1 Pt4'
_cell_volume   183.42616629
_cell_formula_units_Z   1
loop_
 _symmetry_equiv_pos_site_id
 _symmetry_equiv_pos_as_xyz
  1  'x, y, z'
loop_
 _atom_site_type_symbol
 _atom_site_label
 _atom_site_symmetry_multiplicity
 _atom_site_fract_x
 _atom_site_fract_y
 _atom_site_fract_z
 _atom_site_occupancy
  Tb  Tb0  1  0.750000  0.644475  0.314664  1
  Tb  Tb1  1  0.750000  0.856338  0.819184  1
  Pu  Pu2  1  0.250000  0.141216  0.183028  1
  Th  Th3  1  0.250000  0.358275  0.683022  1
  Pt  Pt4  1  0.250000  0.840766  0.543298  1
  Pt  Pt5  1  0.250000  0.657332  0.044351  1
  Pt  Pt6  1  0.750000  0.159657  0.455937  1
  Pt  Pt7  1  0.750000  0.341939  0.956517  1
