# generated using pymatgen
data_Er3Tm7(In2Rh)4
_symmetry_space_group_name_H-M   'P 1'
_cell_length_a   3.55791000
_cell_length_b   7.99064100
_cell_length_c   18.17808201
_cell_angle_alpha   89.99656178
_cell_angle_beta   90.00000000
_cell_angle_gamma   90.00000000
_symmetry_Int_Tables_number   1
_chemical_formula_structural   Er3Tm7(In2Rh)4
_chemical_formula_sum   'Er3 Tm7 In8 Rh4'
_cell_volume   516.80253490
_cell_formula_units_Z   1
loop_
 _symmetry_equiv_pos_site_id
 _symmetry_equiv_pos_as_xyz
  1  'x, y, z'
loop_
 _atom_site_type_symbol
 _atom_site_label
 _atom_site_symmetry_multiplicity
 _atom_site_fract_x
 _atom_site_fract_y
 _atom_site_fract_z
 _atom_site_occupancy
  Er  Er0  1  0.000000  0.117583  0.412942  1
  Er  Er1  1  0.000000  0.000021  0.999975  1
  Er  Er2  1  0.000000  0.499958  0.500104  1
  Tm  Tm3  1  0.000000  0.882706  0.587730  1
  Tm  Tm4  1  0.000000  0.382786  0.912452  1
  Tm  Tm5  1  0.000000  0.617399  0.087124  1
  Tm  Tm6  1  0.000000  0.245946  0.221349  1
  Tm  Tm7  1  0.000000  0.754163  0.778635  1
  Tm  Tm8  1  0.000000  0.254173  0.721595  1
  Tm  Tm9  1  0.000000  0.745892  0.278332  1
  In  In10  1  0.500000  0.429955  0.350146  1
  In  In11  1  0.500000  0.570816  0.649646  1
  In  In12  1  0.500000  0.070951  0.850591  1
  In  In13  1  0.500000  0.928701  0.149561  1
  In  In14  1  0.500000  0.293221  0.067170  1
  In  In15  1  0.500000  0.706721  0.932744  1
  In  In16  1  0.500000  0.206655  0.567803  1
  In  In17  1  0.500000  0.792748  0.432509  1
  Rh  Rh18  1  0.500000  0.024118  0.304040  1
  Rh  Rh19  1  0.500000  0.975458  0.696047  1
  Rh  Rh20  1  0.500000  0.475697  0.804246  1
  Rh  Rh21  1  0.500000  0.524331  0.195260  1
