# generated using pymatgen
data_Li3Pr3AlSn4
_symmetry_space_group_name_H-M   'P 1'
_cell_length_a   8.78544497
_cell_length_b   8.90773971
_cell_length_c   8.90773924
_cell_angle_alpha   149.11220263
_cell_angle_beta   130.78761648
_cell_angle_gamma   59.37233592
_symmetry_Int_Tables_number   1
_chemical_formula_structural   Li3Pr3AlSn4
_chemical_formula_sum   'Li3 Pr3 Al1 Sn4'
_cell_volume   268.59618208
_cell_formula_units_Z   1
loop_
 _symmetry_equiv_pos_site_id
 _symmetry_equiv_pos_as_xyz
  1  'x, y, z'
loop_
 _atom_site_type_symbol
 _atom_site_label
 _atom_site_symmetry_multiplicity
 _atom_site_fract_x
 _atom_site_fract_y
 _atom_site_fract_z
 _atom_site_occupancy
  Li  Li0  1  0.485189  0.669659  0.815529  1
  Li  Li1  1  0.858216  0.673265  0.184952  1
  Li  Li2  1  0.140685  0.329748  0.810936  1
  Pr  Pr3  1  0.495754  0.999967  0.495787  1
  Pr  Pr4  1  0.136291  0.125024  0.011267  1
  Pr  Pr5  1  0.867700  0.873431  0.994269  1
  Al  Al6  1  0.519436  0.328563  0.190873  1
  Sn  Sn7  1  0.195816  0.497995  0.697821  1
  Sn  Sn8  1  0.801252  0.502873  0.298379  1
  Sn  Sn9  1  0.714751  0.215347  0.499404  1
  Sn  Sn10  1  0.284909  0.784126  0.500783  1
