# generated using pymatgen
data_CeNd13(Ho3Sn8)2
_symmetry_space_group_name_H-M   'P 1'
_cell_length_a   8.17872827
_cell_length_b   8.36772635
_cell_length_c   15.81491800
_cell_angle_alpha   89.94420873
_cell_angle_beta   90.33795251
_cell_angle_gamma   90.18694067
_symmetry_Int_Tables_number   1
_chemical_formula_structural   CeNd13(Ho3Sn8)2
_chemical_formula_sum   'Ce1 Nd13 Ho6 Sn16'
_cell_volume   1082.30615634
_cell_formula_units_Z   1
loop_
 _symmetry_equiv_pos_site_id
 _symmetry_equiv_pos_as_xyz
  1  'x, y, z'
loop_
 _atom_site_type_symbol
 _atom_site_label
 _atom_site_symmetry_multiplicity
 _atom_site_fract_x
 _atom_site_fract_y
 _atom_site_fract_z
 _atom_site_occupancy
  Ce  Ce0  1  0.018533  0.182741  0.403911  1
  Nd  Nd1  1  0.485130  0.681265  0.903661  1
  Nd  Nd2  1  0.863741  0.662846  0.121469  1
  Nd  Nd3  1  0.139138  0.336112  0.879619  1
  Nd  Nd4  1  0.484540  0.679528  0.597181  1
  Nd  Nd5  1  0.633444  0.161070  0.619654  1
  Nd  Nd6  1  0.862932  0.663540  0.377650  1
  Nd  Nd7  1  0.012848  0.179698  0.097348  1
  Nd  Nd8  1  0.985792  0.819176  0.901986  1
  Nd  Nd9  1  0.639055  0.164263  0.876796  1
  Nd  Nd10  1  0.514341  0.319333  0.097611  1
  Nd  Nd11  1  0.363146  0.836971  0.380921  1
  Nd  Nd12  1  0.983570  0.819873  0.597533  1
  Nd  Nd13  1  0.518206  0.318746  0.401138  1
  Ho  Ho14  1  0.359071  0.837155  0.124765  1
  Ho  Ho15  1  0.136274  0.338155  0.623466  1
  Ho  Ho16  1  0.195760  0.500253  0.250556  1
  Ho  Ho17  1  0.694505  0.997905  0.249354  1
  Ho  Ho18  1  0.303527  0.001592  0.749107  1
  Ho  Ho19  1  0.805458  0.498172  0.748946  1
  Sn  Sn20  1  0.804146  0.461407  0.543302  1
  Sn  Sn21  1  0.710697  0.969079  0.454020  1
  Sn  Sn22  1  0.677920  0.852232  0.749640  1
  Sn  Sn23  1  0.202320  0.529091  0.458716  1
  Sn  Sn24  1  0.300769  0.033708  0.960349  1
  Sn  Sn25  1  0.824584  0.350534  0.251144  1
  Sn  Sn26  1  0.797829  0.464594  0.955743  1
  Sn  Sn27  1  0.557619  0.617867  0.249348  1
  Sn  Sn28  1  0.206814  0.540942  0.044653  1
  Sn  Sn29  1  0.437669  0.384030  0.747355  1
  Sn  Sn30  1  0.177776  0.645109  0.748894  1
  Sn  Sn31  1  0.941355  0.117537  0.748528  1
  Sn  Sn32  1  0.287045  0.042943  0.542748  1
  Sn  Sn33  1  0.691432  0.960736  0.043611  1
  Sn  Sn34  1  0.321584  0.144963  0.249331  1
  Sn  Sn35  1  0.061434  0.886832  0.249945  1
