# generated using pymatgen
data_Pr3SiSe2
_symmetry_space_group_name_H-M   'P 1'
_cell_length_a   7.47002493
_cell_length_b   7.47002379
_cell_length_c   7.47002397
_cell_angle_alpha   146.63942010
_cell_angle_beta   132.41667126
_cell_angle_gamma   59.35324736
_symmetry_Int_Tables_number   1
_chemical_formula_structural   Pr3SiSe2
_chemical_formula_sum   'Pr3 Si1 Se2'
_cell_volume   167.74147002
_cell_formula_units_Z   1
loop_
 _symmetry_equiv_pos_site_id
 _symmetry_equiv_pos_as_xyz
  1  'x, y, z'
loop_
 _atom_site_type_symbol
 _atom_site_label
 _atom_site_symmetry_multiplicity
 _atom_site_fract_x
 _atom_site_fract_y
 _atom_site_fract_z
 _atom_site_occupancy
  Pr  Pr0  1  0.841681  0.341681  0.500000  1
  Pr  Pr1  1  0.500000  0.000000  0.500000  1
  Pr  Pr2  1  0.158319  0.658319  0.500000  1
  Si  Si3  1  0.000000  0.000000  0.000000  1
  Se  Se4  1  0.667454  0.667454  0.000000  1
  Se  Se5  1  0.332546  0.332546  0.000000  1
