# generated using pymatgen
data_Ho4Cu2OsRu5
_symmetry_space_group_name_H-M   'P 1'
_cell_length_a   5.38003292
_cell_length_b   5.18130036
_cell_length_c   8.78756500
_cell_angle_alpha   90.00000000
_cell_angle_beta   90.00000000
_cell_angle_gamma   120.17148221
_symmetry_Int_Tables_number   1
_chemical_formula_structural   Ho4Cu2OsRu5
_chemical_formula_sum   'Ho4 Cu2 Os1 Ru5'
_cell_volume   211.77263532
_cell_formula_units_Z   1
loop_
 _symmetry_equiv_pos_site_id
 _symmetry_equiv_pos_as_xyz
  1  'x, y, z'
loop_
 _atom_site_type_symbol
 _atom_site_label
 _atom_site_symmetry_multiplicity
 _atom_site_fract_x
 _atom_site_fract_y
 _atom_site_fract_z
 _atom_site_occupancy
  Ho  Ho0  1  0.674741  0.340062  0.563833  1
  Ho  Ho1  1  0.341137  0.671662  0.436330  1
  Ho  Ho2  1  0.341137  0.671662  0.063670  1
  Ho  Ho3  1  0.674741  0.340062  0.936167  1
  Cu  Cu4  1  0.812112  0.652394  0.250000  1
  Cu  Cu5  1  0.815575  0.160235  0.250000  1
  Os  Os6  1  0.164292  0.326968  0.750000  1
  Ru  Ru7  1  0.022426  0.023555  0.498203  1
  Ru  Ru8  1  0.022426  0.023555  0.001797  1
  Ru  Ru9  1  0.170817  0.822456  0.750000  1
  Ru  Ru10  1  0.653466  0.818142  0.750000  1
  Ru  Ru11  1  0.307128  0.149246  0.250000  1
