# generated using pymatgen
data_Y7Er(IrO6)4
_symmetry_space_group_name_H-M   'P 1'
_cell_length_a   5.30246655
_cell_length_b   9.19511133
_cell_length_c   9.90810200
_cell_angle_alpha   90.00625604
_cell_angle_beta   89.94378980
_cell_angle_gamma   89.96982264
_symmetry_Int_Tables_number   1
_chemical_formula_structural   Y7Er(IrO6)4
_chemical_formula_sum   'Y7 Er1 Ir4 O24'
_cell_volume   483.08675064
_cell_formula_units_Z   1
loop_
 _symmetry_equiv_pos_site_id
 _symmetry_equiv_pos_as_xyz
  1  'x, y, z'
loop_
 _atom_site_type_symbol
 _atom_site_label
 _atom_site_symmetry_multiplicity
 _atom_site_fract_x
 _atom_site_fract_y
 _atom_site_fract_z
 _atom_site_occupancy
  Y  Y0  1  0.018447  0.398995  0.033797  1
  Y  Y1  1  0.041131  0.281408  0.629488  1
  Y  Y2  1  0.458235  0.718671  0.130012  1
  Y  Y3  1  0.480613  0.602278  0.533292  1
  Y  Y4  1  0.518490  0.101030  0.966399  1
  Y  Y5  1  0.541333  0.218149  0.370360  1
  Y  Y6  1  0.958757  0.781571  0.869881  1
  Er  Er7  1  0.982406  0.899754  0.466336  1
  Ir  Ir8  1  0.041917  0.003398  0.149247  1
  Ir  Ir9  1  0.458273  0.995662  0.647353  1
  Ir  Ir10  1  0.542187  0.496272  0.851644  1
  Ir  Ir11  1  0.957350  0.504389  0.352006  1
  O  O12  1  0.080501  0.657991  0.471948  1
  O  O13  1  0.163305  0.555494  0.201261  1
  O  O14  1  0.185459  0.857068  0.266316  1
  O  O15  1  0.171107  0.866035  0.679550  1
  O  O16  1  0.235031  0.386167  0.430213  1
  O  O17  1  0.251604  0.087478  0.501719  1
  O  O18  1  0.247238  0.910357  0.003439  1
  O  O19  1  0.264728  0.614641  0.929620  1
  O  O20  1  0.328101  0.133095  0.182795  1
  O  O21  1  0.313263  0.142447  0.763651  1
  O  O22  1  0.336348  0.444853  0.701100  1
  O  O23  1  0.418577  0.344493  0.973015  1
  O  O24  1  0.588300  0.844673  0.526877  1
  O  O25  1  0.662849  0.944457  0.798567  1
  O  O26  1  0.686398  0.643141  0.735504  1
  O  O27  1  0.670852  0.633090  0.317294  1
  O  O28  1  0.735374  0.114268  0.569908  1
  O  O29  1  0.752221  0.411242  0.497549  1
  O  O30  1  0.747211  0.589626  0.997025  1
  O  O31  1  0.764885  0.885611  0.070541  1
  O  O32  1  0.828159  0.366384  0.817468  1
  O  O33  1  0.814157  0.356836  0.236202  1
  O  O34  1  0.836866  0.053752  0.300753  1
  O  O35  1  0.918328  0.155226  0.027872  1
