# generated using pymatgen
data_Tm4ScIr2Ru
_symmetry_space_group_name_H-M   'P 1'
_cell_length_a   10.57457000
_cell_length_b   10.57457000
_cell_length_c   6.27903800
_cell_angle_alpha   90.00000000
_cell_angle_beta   90.00000000
_cell_angle_gamma   90.00000000
_symmetry_Int_Tables_number   1
_chemical_formula_structural   Tm4ScIr2Ru
_chemical_formula_sum   'Tm16 Sc4 Ir8 Ru4'
_cell_volume   702.13164039
_cell_formula_units_Z   4
loop_
 _symmetry_equiv_pos_site_id
 _symmetry_equiv_pos_as_xyz
  1  'x, y, z'
loop_
 _atom_site_type_symbol
 _atom_site_label
 _atom_site_symmetry_multiplicity
 _atom_site_fract_x
 _atom_site_fract_y
 _atom_site_fract_z
 _atom_site_occupancy
  Tm  Tm0  1  0.290437  0.084952  0.375348  1
  Tm  Tm1  1  0.290437  0.915048  0.875348  1
  Tm  Tm2  1  0.709563  0.084952  0.875348  1
  Tm  Tm3  1  0.709563  0.915048  0.375348  1
  Tm  Tm4  1  0.584952  0.790437  0.875348  1
  Tm  Tm5  1  0.584952  0.209563  0.375348  1
  Tm  Tm6  1  0.415048  0.790437  0.375348  1
  Tm  Tm7  1  0.415048  0.209563  0.875348  1
  Tm  Tm8  1  0.209563  0.415048  0.624652  1
  Tm  Tm9  1  0.209563  0.584952  0.124652  1
  Tm  Tm10  1  0.790437  0.415048  0.124652  1
  Tm  Tm11  1  0.790437  0.584952  0.624652  1
  Tm  Tm12  1  0.915048  0.709563  0.124652  1
  Tm  Tm13  1  0.915048  0.290437  0.624652  1
  Tm  Tm14  1  0.084952  0.709563  0.624652  1
  Tm  Tm15  1  0.084952  0.290437  0.124652  1
  Sc  Sc16  1  0.000000  0.000000  0.500000  1
  Sc  Sc17  1  0.000000  0.000000  0.000000  1
  Sc  Sc18  1  0.500000  0.500000  0.000000  1
  Sc  Sc19  1  0.500000  0.500000  0.500000  1
  Ir  Ir20  1  0.851749  0.148251  0.250000  1
  Ir  Ir21  1  0.851749  0.851749  0.750000  1
  Ir  Ir22  1  0.148251  0.148251  0.750000  1
  Ir  Ir23  1  0.148251  0.851749  0.250000  1
  Ir  Ir24  1  0.648251  0.351749  0.750000  1
  Ir  Ir25  1  0.648251  0.648251  0.250000  1
  Ir  Ir26  1  0.351749  0.351749  0.250000  1
  Ir  Ir27  1  0.351749  0.648251  0.750000  1
  Ru  Ru28  1  0.500000  0.000000  0.124540  1
  Ru  Ru29  1  0.500000  0.000000  0.624540  1
  Ru  Ru30  1  0.000000  0.500000  0.875460  1
  Ru  Ru31  1  0.000000  0.500000  0.375460  1
