# generated using pymatgen
data_Tb19SnIr12
_symmetry_space_group_name_H-M   'P 1'
_cell_length_a   10.92563700
_cell_length_b   10.92563700
_cell_length_c   6.36397800
_cell_angle_alpha   90.00000000
_cell_angle_beta   90.00000000
_cell_angle_gamma   90.00000000
_symmetry_Int_Tables_number   1
_chemical_formula_structural   Tb19SnIr12
_chemical_formula_sum   'Tb19 Sn1 Ir12'
_cell_volume   759.66515097
_cell_formula_units_Z   1
loop_
 _symmetry_equiv_pos_site_id
 _symmetry_equiv_pos_as_xyz
  1  'x, y, z'
loop_
 _atom_site_type_symbol
 _atom_site_label
 _atom_site_symmetry_multiplicity
 _atom_site_fract_x
 _atom_site_fract_y
 _atom_site_fract_z
 _atom_site_occupancy
  Tb  Tb0  1  0.284276  0.084992  0.380335  1
  Tb  Tb1  1  0.291738  0.910980  0.882512  1
  Tb  Tb2  1  0.708262  0.089020  0.882512  1
  Tb  Tb3  1  0.715724  0.915008  0.380335  1
  Tb  Tb4  1  0.589037  0.791205  0.882321  1
  Tb  Tb5  1  0.588265  0.208124  0.378608  1
  Tb  Tb6  1  0.411735  0.791876  0.378608  1
  Tb  Tb7  1  0.410963  0.208795  0.882321  1
  Tb  Tb8  1  0.208124  0.411735  0.621392  1
  Tb  Tb9  1  0.208795  0.589037  0.117679  1
  Tb  Tb10  1  0.791205  0.410963  0.117679  1
  Tb  Tb11  1  0.791876  0.588265  0.621392  1
  Tb  Tb12  1  0.910980  0.708262  0.117488  1
  Tb  Tb13  1  0.915008  0.284276  0.619665  1
  Tb  Tb14  1  0.084992  0.715724  0.619665  1
  Tb  Tb15  1  0.089020  0.291738  0.117488  1
  Tb  Tb16  1  0.000000  0.000000  0.000000  1
  Tb  Tb17  1  0.500000  0.500000  0.000000  1
  Tb  Tb18  1  0.500000  0.500000  0.500000  1
  Sn  Sn19  1  0.000000  0.000000  0.500000  1
  Ir  Ir20  1  0.848004  0.155212  0.247982  1
  Ir  Ir21  1  0.844788  0.848004  0.752018  1
  Ir  Ir22  1  0.155212  0.151996  0.752018  1
  Ir  Ir23  1  0.151996  0.844788  0.247982  1
  Ir  Ir24  1  0.654952  0.346830  0.745992  1
  Ir  Ir25  1  0.653170  0.654952  0.254008  1
  Ir  Ir26  1  0.346830  0.345048  0.254008  1
  Ir  Ir27  1  0.345048  0.653170  0.745992  1
  Ir  Ir28  1  0.500000  0.000000  0.126026  1
  Ir  Ir29  1  0.500000  0.000000  0.621116  1
  Ir  Ir30  1  0.000000  0.500000  0.873974  1
  Ir  Ir31  1  0.000000  0.500000  0.378884  1
