# generated using pymatgen
data_Pb(S8F)3
_symmetry_space_group_name_H-M   'P 1'
_cell_length_a   14.90383050
_cell_length_b   14.90383207
_cell_length_c   14.90382970
_cell_angle_alpha   118.77170644
_cell_angle_beta   118.77170522
_cell_angle_gamma   118.77170356
_symmetry_Int_Tables_number   1
_chemical_formula_structural   Pb(S8F)3
_chemical_formula_sum   'Pb1 S24 F3'
_cell_volume   947.84276826
_cell_formula_units_Z   1
loop_
 _symmetry_equiv_pos_site_id
 _symmetry_equiv_pos_as_xyz
  1  'x, y, z'
loop_
 _atom_site_type_symbol
 _atom_site_label
 _atom_site_symmetry_multiplicity
 _atom_site_fract_x
 _atom_site_fract_y
 _atom_site_fract_z
 _atom_site_occupancy
  Pb  Pb0  1  0.095677  0.095677  0.095677  1
  S  S1  1  0.801817  0.525270  0.525270  1
  S  S2  1  0.525270  0.525270  0.801817  1
  S  S3  1  0.525270  0.801817  0.525270  1
  S  S4  1  0.247390  0.378695  0.634869  1
  S  S5  1  0.348685  0.951741  0.348685  1
  S  S6  1  0.348685  0.348685  0.951741  1
  S  S7  1  0.951741  0.348685  0.348685  1
  S  S8  1  0.122388  0.736999  0.252972  1
  S  S9  1  0.252972  0.122388  0.736999  1
  S  S10  1  0.736999  0.252972  0.122388  1
  S  S11  1  0.736999  0.122388  0.252972  1
  S  S12  1  0.252972  0.736999  0.122388  1
  S  S13  1  0.122388  0.252972  0.736999  1
  S  S14  1  0.351411  0.883676  0.535142  1
  S  S15  1  0.535142  0.351411  0.883676  1
  S  S16  1  0.883676  0.535142  0.351411  1
  S  S17  1  0.883676  0.351411  0.535142  1
  S  S18  1  0.535142  0.883676  0.351411  1
  S  S19  1  0.351411  0.535142  0.883676  1
  S  S20  1  0.247390  0.634869  0.378695  1
  S  S21  1  0.378695  0.247390  0.634869  1
  S  S22  1  0.634869  0.378695  0.247390  1
  S  S23  1  0.634869  0.247390  0.378695  1
  S  S24  1  0.378695  0.634869  0.247390  1
  F  F25  1  0.797818  0.921624  0.921624  1
  F  F26  1  0.921624  0.921624  0.797818  1
  F  F27  1  0.921624  0.797818  0.921624  1
