# generated using pymatgen
data_Zr6B4IrRu9
_symmetry_space_group_name_H-M   'P 1'
_cell_length_a   9.58530912
_cell_length_b   9.59057512
_cell_length_c   3.15350600
_cell_angle_alpha   90.00000000
_cell_angle_beta   90.00000000
_cell_angle_gamma   90.01814855
_symmetry_Int_Tables_number   1
_chemical_formula_structural   Zr6B4IrRu9
_chemical_formula_sum   'Zr6 B4 Ir1 Ru9'
_cell_volume   289.89746280
_cell_formula_units_Z   1
loop_
 _symmetry_equiv_pos_site_id
 _symmetry_equiv_pos_as_xyz
  1  'x, y, z'
loop_
 _atom_site_type_symbol
 _atom_site_label
 _atom_site_symmetry_multiplicity
 _atom_site_fract_x
 _atom_site_fract_y
 _atom_site_fract_z
 _atom_site_occupancy
  Zr  Zr0  1  0.676213  0.176066  0.000000  1
  Zr  Zr1  1  0.325653  0.820856  0.000000  1
  Zr  Zr2  1  0.174451  0.328632  0.000000  1
  Zr  Zr3  1  0.823917  0.675636  0.000000  1
  Zr  Zr4  1  0.996089  0.998670  0.000000  1
  Zr  Zr5  1  0.501122  0.499629  0.000000  1
  B  B6  1  0.121565  0.621962  0.000000  1
  B  B7  1  0.878716  0.378376  0.000000  1
  B  B8  1  0.621027  0.876780  0.000000  1
  B  B9  1  0.384099  0.123311  0.000000  1
  Ir  Ir10  1  0.221855  0.071886  0.500000  1
  Ru  Ru11  1  0.775873  0.928691  0.500000  1
  Ru  Ru12  1  0.072817  0.778630  0.500000  1
  Ru  Ru13  1  0.722890  0.427233  0.500000  1
  Ru  Ru14  1  0.930493  0.222296  0.500000  1
  Ru  Ru15  1  0.277942  0.570771  0.500000  1
  Ru  Ru16  1  0.570875  0.721762  0.500000  1
  Ru  Ru17  1  0.426488  0.277749  0.500000  1
  Ru  Ru18  1  0.498447  0.999569  0.500000  1
  Ru  Ru19  1  0.999470  0.501496  0.500000  1
