# generated using pymatgen
data_Er12Zn11AgC4
_symmetry_space_group_name_H-M   'P 1'
_cell_length_a   9.08972595
_cell_length_b   9.10038938
_cell_length_c   9.08972600
_cell_angle_alpha   60.03874636
_cell_angle_beta   59.99999256
_cell_angle_gamma   60.03875303
_symmetry_Int_Tables_number   1
_chemical_formula_structural   Er12Zn11AgC4
_chemical_formula_sum   'Er12 Zn11 Ag1 C4'
_cell_volume   531.98655154
_cell_formula_units_Z   1
loop_
 _symmetry_equiv_pos_site_id
 _symmetry_equiv_pos_as_xyz
  1  'x, y, z'
loop_
 _atom_site_type_symbol
 _atom_site_label
 _atom_site_symmetry_multiplicity
 _atom_site_fract_x
 _atom_site_fract_y
 _atom_site_fract_z
 _atom_site_occupancy
  Er  Er0  1  0.446098  0.446617  0.053643  1
  Er  Er1  1  0.053643  0.446617  0.053643  1
  Er  Er2  1  0.445498  0.053613  0.055390  1
  Er  Er3  1  0.055390  0.053613  0.445498  1
  Er  Er4  1  0.445498  0.053613  0.445498  1
  Er  Er5  1  0.053643  0.446617  0.446098  1
  Er  Er6  1  0.803902  0.803383  0.196357  1
  Er  Er7  1  0.196357  0.803383  0.196357  1
  Er  Er8  1  0.804502  0.196387  0.194610  1
  Er  Er9  1  0.194610  0.196387  0.804502  1
  Er  Er10  1  0.804502  0.196387  0.804502  1
  Er  Er11  1  0.196357  0.803383  0.803902  1
  Zn  Zn12  1  0.828535  0.823250  0.519677  1
  Zn  Zn13  1  0.827062  0.518812  0.827062  1
  Zn  Zn14  1  0.519677  0.823250  0.828535  1
  Zn  Zn15  1  0.828535  0.823250  0.828535  1
  Zn  Zn16  1  0.421465  0.426750  0.730323  1
  Zn  Zn17  1  0.422938  0.731188  0.422938  1
  Zn  Zn18  1  0.730323  0.426750  0.421465  1
  Zn  Zn19  1  0.421465  0.426750  0.421465  1
  Zn  Zn20  1  0.625000  0.625000  0.125000  1
  Zn  Zn21  1  0.125000  0.625000  0.625000  1
  Zn  Zn22  1  0.625000  0.625000  0.625000  1
  Ag  Ag23  1  0.625000  0.125000  0.625000  1
  C  C24  1  0.125000  0.125000  0.625000  1
  C  C25  1  0.125000  0.625000  0.125000  1
  C  C26  1  0.625000  0.125000  0.125000  1
  C  C27  1  0.125000  0.125000  0.125000  1
