# generated using pymatgen
data_Hf12Zn4Pd8CN3
_symmetry_space_group_name_H-M   'P 1'
_cell_length_a   8.58051167
_cell_length_b   8.54410463
_cell_length_c   8.54410500
_cell_angle_alpha   59.99999472
_cell_angle_beta   60.14025279
_cell_angle_gamma   60.14025501
_symmetry_Int_Tables_number   1
_chemical_formula_structural   Hf12Zn4Pd8CN3
_chemical_formula_sum   'Hf12 Zn4 Pd8 C1 N3'
_cell_volume   443.86278877
_cell_formula_units_Z   1
loop_
 _symmetry_equiv_pos_site_id
 _symmetry_equiv_pos_as_xyz
  1  'x, y, z'
loop_
 _atom_site_type_symbol
 _atom_site_label
 _atom_site_symmetry_multiplicity
 _atom_site_fract_x
 _atom_site_fract_y
 _atom_site_fract_z
 _atom_site_occupancy
  Hf  Hf0  1  0.811606  0.188425  0.188425  1
  Hf  Hf1  1  0.188155  0.812024  0.187796  1
  Hf  Hf2  1  0.811606  0.811545  0.188425  1
  Hf  Hf3  1  0.188155  0.812024  0.812024  1
  Hf  Hf4  1  0.811606  0.188425  0.811545  1
  Hf  Hf5  1  0.188155  0.187796  0.812024  1
  Hf  Hf6  1  0.438394  0.061575  0.061575  1
  Hf  Hf7  1  0.061845  0.437976  0.062204  1
  Hf  Hf8  1  0.438394  0.438455  0.061575  1
  Hf  Hf9  1  0.061845  0.437976  0.437976  1
  Hf  Hf10  1  0.438394  0.061575  0.438455  1
  Hf  Hf11  1  0.061845  0.062204  0.437976  1
  Zn  Zn12  1  0.625000  0.625000  0.125000  1
  Zn  Zn13  1  0.625000  0.625000  0.625000  1
  Zn  Zn14  1  0.125000  0.625000  0.625000  1
  Zn  Zn15  1  0.625000  0.125000  0.625000  1
  Pd  Pd16  1  0.410315  0.412500  0.764686  1
  Pd  Pd17  1  0.410315  0.412500  0.412500  1
  Pd  Pd18  1  0.765164  0.411612  0.411612  1
  Pd  Pd19  1  0.410315  0.764686  0.412500  1
  Pd  Pd20  1  0.839685  0.837500  0.485314  1
  Pd  Pd21  1  0.839685  0.837500  0.837500  1
  Pd  Pd22  1  0.484836  0.838388  0.838388  1
  Pd  Pd23  1  0.839685  0.485314  0.837500  1
  C  C24  1  0.625000  0.125000  0.125000  1
  N  N25  1  0.125000  0.125000  0.625000  1
  N  N26  1  0.125000  0.125000  0.125000  1
  N  N27  1  0.125000  0.625000  0.125000  1
