# generated using pymatgen
data_Nd7DySb20
_symmetry_space_group_name_H-M   'P 1'
_cell_length_a   4.26662200
_cell_length_b   13.52210811
_cell_length_c   15.21335517
_cell_angle_alpha   77.70235471
_cell_angle_beta   90.00000000
_cell_angle_gamma   90.00000000
_symmetry_Int_Tables_number   1
_chemical_formula_structural   Nd7DySb20
_chemical_formula_sum   'Nd7 Dy1 Sb20'
_cell_volume   857.57535120
_cell_formula_units_Z   1
loop_
 _symmetry_equiv_pos_site_id
 _symmetry_equiv_pos_as_xyz
  1  'x, y, z'
loop_
 _atom_site_type_symbol
 _atom_site_label
 _atom_site_symmetry_multiplicity
 _atom_site_fract_x
 _atom_site_fract_y
 _atom_site_fract_z
 _atom_site_occupancy
  Nd  Nd0  1  0.750000  0.335855  0.145208  1
  Nd  Nd1  1  0.250000  0.949403  0.361010  1
  Nd  Nd2  1  0.250000  0.664661  0.857934  1
  Nd  Nd3  1  0.250000  0.668922  0.575249  1
  Nd  Nd4  1  0.750000  0.049153  0.637813  1
  Nd  Nd5  1  0.750000  0.331560  0.422232  1
  Nd  Nd6  1  0.250000  0.395282  0.773386  1
  Dy  Dy7  1  0.750000  0.604586  0.227408  1
  Sb  Sb8  1  0.750000  0.850451  0.819511  1
  Sb  Sb9  1  0.250000  0.861019  0.675111  1
  Sb  Sb10  1  0.250000  0.142117  0.477274  1
  Sb  Sb11  1  0.750000  0.284365  0.941073  1
  Sb  Sb12  1  0.250000  0.143585  0.779395  1
  Sb  Sb13  1  0.750000  0.574308  0.441238  1
  Sb  Sb14  1  0.750000  0.137363  0.324812  1
  Sb  Sb15  1  0.250000  0.706757  0.350129  1
  Sb  Sb16  1  0.750000  0.292443  0.646738  1
  Sb  Sb17  1  0.750000  0.853886  0.219026  1
  Sb  Sb18  1  0.250000  0.420990  0.976544  1
  Sb  Sb19  1  0.250000  0.425368  0.555778  1
  Sb  Sb20  1  0.750000  0.578053  0.735039  1
  Sb  Sb21  1  0.250000  0.428364  0.263848  1
  Sb  Sb22  1  0.750000  0.857738  0.521729  1
  Sb  Sb23  1  0.750000  0.029468  0.890056  1
  Sb  Sb24  1  0.250000  0.715600  0.065132  1
  Sb  Sb25  1  0.250000  0.969898  0.109008  1
  Sb  Sb26  1  0.250000  0.148874  0.180366  1
  Sb  Sb27  1  0.750000  0.579930  0.027950  1
