# generated using pymatgen
data_Yb2BiAsO6
_symmetry_space_group_name_H-M   'P 1'
_cell_length_a   7.40796168
_cell_length_b   7.40796230
_cell_length_c   5.57801200
_cell_angle_alpha   90.00000000
_cell_angle_beta   90.00000000
_cell_angle_gamma   106.57510166
_symmetry_Int_Tables_number   1
_chemical_formula_structural   Yb2BiAsO6
_chemical_formula_sum   'Yb4 Bi2 As2 O12'
_cell_volume   293.38970517
_cell_formula_units_Z   2
loop_
 _symmetry_equiv_pos_site_id
 _symmetry_equiv_pos_as_xyz
  1  'x, y, z'
loop_
 _atom_site_type_symbol
 _atom_site_label
 _atom_site_symmetry_multiplicity
 _atom_site_fract_x
 _atom_site_fract_y
 _atom_site_fract_z
 _atom_site_occupancy
  Yb  Yb0  1  0.300675  0.090945  0.761177  1
  Yb  Yb1  1  0.909055  0.699325  0.761177  1
  Yb  Yb2  1  0.090945  0.300675  0.261177  1
  Yb  Yb3  1  0.699325  0.909055  0.261177  1
  Bi  Bi4  1  0.591535  0.408465  0.249591  1
  Bi  Bi5  1  0.408465  0.591535  0.749591  1
  As  As6  1  0.817369  0.182631  0.805998  1
  As  As7  1  0.182631  0.817369  0.305998  1
  O  O8  1  0.345993  0.340963  0.508873  1
  O  O9  1  0.594035  0.086316  0.920864  1
  O  O10  1  0.086316  0.594035  0.420864  1
  O  O11  1  0.659037  0.654007  0.508873  1
  O  O12  1  0.183238  0.816762  0.998089  1
  O  O13  1  0.654007  0.659037  0.008873  1
  O  O14  1  0.816762  0.183238  0.498089  1
  O  O15  1  0.340963  0.345993  0.008873  1
  O  O16  1  0.050062  0.949938  0.438491  1
  O  O17  1  0.405965  0.913684  0.420864  1
  O  O18  1  0.949938  0.050062  0.938491  1
  O  O19  1  0.913684  0.405965  0.920864  1
