# generated using pymatgen
data_TmLu3Tc3B8Ru
_symmetry_space_group_name_H-M   'P 1'
_cell_length_a   5.23557400
_cell_length_b   5.87340262
_cell_length_c   6.37191172
_cell_angle_alpha   90.18633522
_cell_angle_beta   90.00000000
_cell_angle_gamma   90.00000000
_symmetry_Int_Tables_number   1
_chemical_formula_structural   TmLu3Tc3B8Ru
_chemical_formula_sum   'Tm1 Lu3 Tc3 B8 Ru1'
_cell_volume   195.93928939
_cell_formula_units_Z   1
loop_
 _symmetry_equiv_pos_site_id
 _symmetry_equiv_pos_as_xyz
  1  'x, y, z'
loop_
 _atom_site_type_symbol
 _atom_site_label
 _atom_site_symmetry_multiplicity
 _atom_site_fract_x
 _atom_site_fract_y
 _atom_site_fract_z
 _atom_site_occupancy
  Tm  Tm0  1  0.750000  0.485703  0.337053  1
  Lu  Lu1  1  0.250000  0.515901  0.664615  1
  Lu  Lu2  1  0.250000  0.014993  0.836400  1
  Lu  Lu3  1  0.750000  0.984779  0.162529  1
  Tc  Tc4  1  0.750000  0.818244  0.685694  1
  Tc  Tc5  1  0.750000  0.319778  0.815523  1
  Tc  Tc6  1  0.250000  0.180048  0.313667  1
  B  B7  1  0.922234  0.131903  0.534729  1
  B  B8  1  0.420198  0.867231  0.466521  1
  B  B9  1  0.578931  0.632731  0.964828  1
  B  B10  1  0.080122  0.366544  0.033707  1
  B  B11  1  0.079802  0.867231  0.466521  1
  B  B12  1  0.921069  0.632731  0.964828  1
  B  B13  1  0.419878  0.366544  0.033707  1
  B  B14  1  0.577766  0.131903  0.534729  1
  Ru  Ru15  1  0.250000  0.683733  0.184949  1
