# generated using pymatgen
data_Tb4IrPd3O14
_symmetry_space_group_name_H-M   'P 1'
_cell_length_a   7.26617319
_cell_length_b   7.26617396
_cell_length_c   7.28868902
_cell_angle_alpha   60.10214156
_cell_angle_beta   60.10213780
_cell_angle_gamma   60.00000455
_symmetry_Int_Tables_number   1
_chemical_formula_structural   Tb4IrPd3O14
_chemical_formula_sum   'Tb4 Ir1 Pd3 O14'
_cell_volume   272.53026199
_cell_formula_units_Z   1
loop_
 _symmetry_equiv_pos_site_id
 _symmetry_equiv_pos_as_xyz
  1  'x, y, z'
loop_
 _atom_site_type_symbol
 _atom_site_label
 _atom_site_symmetry_multiplicity
 _atom_site_fract_x
 _atom_site_fract_y
 _atom_site_fract_z
 _atom_site_occupancy
  Tb  Tb0  1  0.625000  0.125000  0.125000  1
  Tb  Tb1  1  0.125000  0.625000  0.125000  1
  Tb  Tb2  1  0.125000  0.125000  0.625000  1
  Tb  Tb3  1  0.125000  0.125000  0.125000  1
  Ir  Ir4  1  0.625000  0.625000  0.125000  1
  Pd  Pd5  1  0.125000  0.625000  0.625000  1
  Pd  Pd6  1  0.625000  0.125000  0.625000  1
  Pd  Pd7  1  0.625000  0.625000  0.625000  1
  O  O8  1  0.712617  0.712617  0.283989  1
  O  O9  1  0.284097  0.284097  0.717444  1
  O  O10  1  0.714363  0.284097  0.717444  1
  O  O11  1  0.290777  0.712617  0.283989  1
  O  O12  1  0.284097  0.714363  0.717444  1
  O  O13  1  0.712617  0.290777  0.283989  1
  O  O14  1  0.537383  0.537383  0.966011  1
  O  O15  1  0.965903  0.965903  0.532556  1
  O  O16  1  0.535637  0.965903  0.532556  1
  O  O17  1  0.959223  0.537383  0.966011  1
  O  O18  1  0.965903  0.535637  0.532556  1
  O  O19  1  0.537383  0.959223  0.966011  1
  O  O20  1  0.250367  0.250367  0.248898  1
  O  O21  1  0.999633  0.999633  0.001102  1
