# generated using pymatgen
data_YbTh(NiB4)2
_symmetry_space_group_name_H-M   'P 1'
_cell_length_a   6.89197274
_cell_length_b   6.89197069
_cell_length_c   6.89197427
_cell_angle_alpha   112.59301396
_cell_angle_beta   112.63373836
_cell_angle_gamma   103.35456629
_symmetry_Int_Tables_number   1
_chemical_formula_structural   YbTh(NiB4)2
_chemical_formula_sum   'Yb2 Th2 Ni4 B16'
_cell_volume   249.88247532
_cell_formula_units_Z   2
loop_
 _symmetry_equiv_pos_site_id
 _symmetry_equiv_pos_as_xyz
  1  'x, y, z'
loop_
 _atom_site_type_symbol
 _atom_site_label
 _atom_site_symmetry_multiplicity
 _atom_site_fract_x
 _atom_site_fract_y
 _atom_site_fract_z
 _atom_site_occupancy
  Yb  Yb0  1  0.204394  0.204394  0.000000  1
  Yb  Yb1  1  0.795606  0.795606  0.000000  1
  Th  Th2  1  0.749900  0.249899  0.500000  1
  Th  Th3  1  0.250100  0.750101  0.500000  1
  Ni  Ni4  1  0.500002  0.274412  0.774412  1
  Ni  Ni5  1  0.499998  0.725588  0.225588  1
  Ni  Ni6  1  0.725626  0.500000  0.225626  1
  Ni  Ni7  1  0.274374  0.500000  0.774374  1
  B  B8  1  0.112144  0.276214  0.388358  1
  B  B9  1  0.887856  0.723786  0.611642  1
  B  B10  1  0.887856  0.276214  0.164070  1
  B  B11  1  0.112144  0.723786  0.835930  1
  B  B12  1  0.723746  0.887784  0.611529  1
  B  B13  1  0.276254  0.112216  0.388471  1
  B  B14  1  0.723746  0.112216  0.835962  1
  B  B15  1  0.276254  0.887784  0.164038  1
  B  B16  1  0.415450  0.415420  0.527676  1
  B  B17  1  0.887744  0.887775  0.472324  1
  B  B18  1  0.584550  0.112226  0.999970  1
  B  B19  1  0.112256  0.584580  0.000030  1
  B  B20  1  0.584550  0.584580  0.472324  1
  B  B21  1  0.112256  0.112225  0.527676  1
  B  B22  1  0.887744  0.415420  0.999970  1
  B  B23  1  0.415450  0.887774  0.000030  1
