# generated using pymatgen
data_Th3Al2Pd3Au
_symmetry_space_group_name_H-M   'P 1'
_cell_length_a   7.23638284
_cell_length_b   7.23638267
_cell_length_c   4.22460700
_cell_angle_alpha   90.00000000
_cell_angle_beta   90.00000000
_cell_angle_gamma   118.12291285
_symmetry_Int_Tables_number   1
_chemical_formula_structural   Th3Al2Pd3Au
_chemical_formula_sum   'Th3 Al2 Pd3 Au1'
_cell_volume   195.10466088
_cell_formula_units_Z   1
loop_
 _symmetry_equiv_pos_site_id
 _symmetry_equiv_pos_as_xyz
  1  'x, y, z'
loop_
 _atom_site_type_symbol
 _atom_site_label
 _atom_site_symmetry_multiplicity
 _atom_site_fract_x
 _atom_site_fract_y
 _atom_site_fract_z
 _atom_site_occupancy
  Th  Th0  1  0.423833  0.423833  0.500000  1
  Th  Th1  1  0.586185  0.991927  0.500000  1
  Th  Th2  1  0.991927  0.586185  0.500000  1
  Al  Al3  1  0.232177  0.999363  0.000000  1
  Al  Al4  1  0.999363  0.232177  0.000000  1
  Pd  Pd5  1  0.663300  0.309715  0.000000  1
  Pd  Pd6  1  0.309715  0.663300  0.000000  1
  Pd  Pd7  1  0.034645  0.034645  0.500000  1
  Au  Au8  1  0.758855  0.758855  0.000000  1
