# generated using pymatgen
data_Y16Sc4(Ir3Rh)3
_symmetry_space_group_name_H-M   'P 1'
_cell_length_a   10.80416100
_cell_length_b   10.80416100
_cell_length_c   6.29245400
_cell_angle_alpha   90.00000000
_cell_angle_beta   90.00000000
_cell_angle_gamma   90.00000000
_symmetry_Int_Tables_number   1
_chemical_formula_structural   Y16Sc4(Ir3Rh)3
_chemical_formula_sum   'Y16 Sc4 Ir9 Rh3'
_cell_volume   734.51749417
_cell_formula_units_Z   1
loop_
 _symmetry_equiv_pos_site_id
 _symmetry_equiv_pos_as_xyz
  1  'x, y, z'
loop_
 _atom_site_type_symbol
 _atom_site_label
 _atom_site_symmetry_multiplicity
 _atom_site_fract_x
 _atom_site_fract_y
 _atom_site_fract_z
 _atom_site_occupancy
  Y  Y0  1  0.286845  0.086859  0.378514  1
  Y  Y1  1  0.286793  0.912980  0.878466  1
  Y  Y2  1  0.713207  0.087020  0.878466  1
  Y  Y3  1  0.713155  0.913141  0.378514  1
  Y  Y4  1  0.587020  0.786793  0.878466  1
  Y  Y5  1  0.586859  0.213155  0.378514  1
  Y  Y6  1  0.413141  0.786845  0.378514  1
  Y  Y7  1  0.412980  0.213207  0.878466  1
  Y  Y8  1  0.212627  0.413251  0.620846  1
  Y  Y9  1  0.212793  0.586887  0.122452  1
  Y  Y10  1  0.787207  0.413113  0.122452  1
  Y  Y11  1  0.787373  0.586749  0.620846  1
  Y  Y12  1  0.913113  0.712793  0.122452  1
  Y  Y13  1  0.913251  0.287373  0.620846  1
  Y  Y14  1  0.086749  0.712627  0.620846  1
  Y  Y15  1  0.086887  0.287207  0.122452  1
  Sc  Sc16  1  0.000000  0.000000  0.500145  1
  Sc  Sc17  1  0.000000  0.000000  0.000068  1
  Sc  Sc18  1  0.500000  0.500000  0.000068  1
  Sc  Sc19  1  0.500000  0.500000  0.500145  1
  Ir  Ir20  1  0.853033  0.146425  0.249684  1
  Ir  Ir21  1  0.853068  0.853476  0.749926  1
  Ir  Ir22  1  0.146932  0.146524  0.749926  1
  Ir  Ir23  1  0.146967  0.853575  0.249684  1
  Ir  Ir24  1  0.646524  0.353068  0.749926  1
  Ir  Ir25  1  0.646425  0.646967  0.249684  1
  Ir  Ir26  1  0.353575  0.353033  0.249684  1
  Ir  Ir27  1  0.353476  0.646932  0.749926  1
  Ir  Ir28  1  0.000000  0.500000  0.375178  1
  Rh  Rh29  1  0.500000  0.000000  0.124783  1
  Rh  Rh30  1  0.500000  0.000000  0.624742  1
  Rh  Rh31  1  0.000000  0.500000  0.875315  1
