# generated using pymatgen
data_HoSc2Tl(SbO4)4
_symmetry_space_group_name_H-M   'P 1'
_cell_length_a   5.30204228
_cell_length_b   7.50273139
_cell_length_c   7.61269743
_cell_angle_alpha   80.35784143
_cell_angle_beta   87.22595375
_cell_angle_gamma   90.42286657
_symmetry_Int_Tables_number   1
_chemical_formula_structural   HoSc2Tl(SbO4)4
_chemical_formula_sum   'Ho1 Sc2 Tl1 Sb4 O16'
_cell_volume   298.16675389
_cell_formula_units_Z   1
loop_
 _symmetry_equiv_pos_site_id
 _symmetry_equiv_pos_as_xyz
  1  'x, y, z'
loop_
 _atom_site_type_symbol
 _atom_site_label
 _atom_site_symmetry_multiplicity
 _atom_site_fract_x
 _atom_site_fract_y
 _atom_site_fract_z
 _atom_site_occupancy
  Ho  Ho0  1  0.249852  0.626632  0.629392  1
  Sc  Sc1  1  0.720788  0.868723  0.336418  1
  Sc  Sc2  1  0.280444  0.129918  0.666734  1
  Tl  Tl3  1  0.748025  0.370670  0.368375  1
  Sb  Sb4  1  0.770015  0.310515  0.836318  1
  Sb  Sb5  1  0.227754  0.691668  0.161277  1
  Sb  Sb6  1  0.248318  0.186671  0.168827  1
  Sb  Sb7  1  0.752619  0.812906  0.829484  1
  O  O8  1  0.901082  0.805715  0.069290  1
  O  O9  1  0.093838  0.191628  0.930194  1
  O  O10  1  0.391069  0.936357  0.176132  1
  O  O11  1  0.614669  0.063245  0.818560  1
  O  O12  1  0.098576  0.436842  0.175010  1
  O  O13  1  0.901691  0.564307  0.822650  1
  O  O14  1  0.575853  0.309167  0.066635  1
  O  O15  1  0.420039  0.690055  0.930173  1
  O  O16  1  0.991680  0.320900  0.609230  1
  O  O17  1  0.021330  0.696157  0.388508  1
  O  O18  1  0.413887  0.176876  0.402568  1
  O  O19  1  0.584213  0.817188  0.598384  1
  O  O20  1  0.500458  0.614257  0.332492  1
  O  O21  1  0.488976  0.383133  0.682257  1
  O  O22  1  0.932375  0.099974  0.302760  1
  O  O23  1  0.072449  0.896496  0.698332  1
