# generated using pymatgen
data_Ta4Al4V3Pd
_symmetry_space_group_name_H-M   'P 1'
_cell_length_a   5.00745808
_cell_length_b   5.00597012
_cell_length_c   8.49228300
_cell_angle_alpha   90.00000000
_cell_angle_beta   90.00000000
_cell_angle_gamma   61.40250778
_symmetry_Int_Tables_number   1
_chemical_formula_structural   Ta4Al4V3Pd
_chemical_formula_sum   'Ta4 Al4 V3 Pd1'
_cell_volume   186.90739776
_cell_formula_units_Z   1
loop_
 _symmetry_equiv_pos_site_id
 _symmetry_equiv_pos_as_xyz
  1  'x, y, z'
loop_
 _atom_site_type_symbol
 _atom_site_label
 _atom_site_symmetry_multiplicity
 _atom_site_fract_x
 _atom_site_fract_y
 _atom_site_fract_z
 _atom_site_occupancy
  Ta  Ta0  1  0.336298  0.336391  0.552073  1
  Ta  Ta1  1  0.661148  0.661147  0.433891  1
  Ta  Ta2  1  0.661148  0.661147  0.066109  1
  Ta  Ta3  1  0.336298  0.336391  0.947927  1
  Al  Al4  1  0.996092  0.995901  0.498535  1
  Al  Al5  1  0.996092  0.995901  0.001465  1
  Al  Al6  1  0.834873  0.348833  0.750000  1
  Al  Al7  1  0.348857  0.834863  0.750000  1
  V  V8  1  0.169178  0.651558  0.250000  1
  V  V9  1  0.651462  0.169234  0.250000  1
  V  V10  1  0.170564  0.170681  0.250000  1
  Pd  Pd11  1  0.837991  0.837953  0.750000  1
