# generated using pymatgen
data_Pr(Ho3Se4)2
_symmetry_space_group_name_H-M   'P 1'
_cell_length_a   8.15081304
_cell_length_b   8.15002214
_cell_length_c   8.15081300
_cell_angle_alpha   119.99678488
_cell_angle_beta   89.99428505
_cell_angle_gamma   119.99678814
_symmetry_Int_Tables_number   1
_chemical_formula_structural   Pr(Ho3Se4)2
_chemical_formula_sum   'Pr1 Ho6 Se8'
_cell_volume   382.92126120
_cell_formula_units_Z   1
loop_
 _symmetry_equiv_pos_site_id
 _symmetry_equiv_pos_as_xyz
  1  'x, y, z'
loop_
 _atom_site_type_symbol
 _atom_site_label
 _atom_site_symmetry_multiplicity
 _atom_site_fract_x
 _atom_site_fract_y
 _atom_site_fract_z
 _atom_site_occupancy
  Pr  Pr0  1  0.749993  0.000000  0.250008  1
  Ho  Ho1  1  0.249993  0.999999  0.249992  1
  Ho  Ho2  1  0.249993  0.499986  0.249992  1
  Ho  Ho3  1  0.250002  0.500001  0.750001  1
  Ho  Ho4  1  0.250004  0.000000  0.749997  1
  Ho  Ho5  1  0.750008  0.000001  0.750007  1
  Ho  Ho6  1  0.750008  0.500013  0.750007  1
  Se  Se7  1  0.005672  0.000000  0.994328  1
  Se  Se8  1  0.494329  0.000000  0.505671  1
  Se  Se9  1  0.003869  0.996345  0.503869  1
  Se  Se10  1  0.003869  0.511392  0.503869  1
  Se  Se11  1  0.502160  0.500001  0.497843  1
  Se  Se12  1  0.997840  0.500001  0.002162  1
  Se  Se13  1  0.496132  0.488610  0.996131  1
  Se  Se14  1  0.496132  0.003654  0.996131  1
