# generated using pymatgen
data_ErHf2Sc(Al3Ir)6
_symmetry_space_group_name_H-M   'P 1'
_cell_length_a   7.48278800
_cell_length_b   7.47720812
_cell_length_c   9.29982100
_cell_angle_alpha   90.00000000
_cell_angle_beta   90.00000000
_cell_angle_gamma   119.65937078
_symmetry_Int_Tables_number   1
_chemical_formula_structural   ErHf2Sc(Al3Ir)6
_chemical_formula_sum   'Er1 Hf2 Sc1 Al18 Ir6'
_cell_volume   452.15631057
_cell_formula_units_Z   1
loop_
 _symmetry_equiv_pos_site_id
 _symmetry_equiv_pos_as_xyz
  1  'x, y, z'
loop_
 _atom_site_type_symbol
 _atom_site_label
 _atom_site_symmetry_multiplicity
 _atom_site_fract_x
 _atom_site_fract_y
 _atom_site_fract_z
 _atom_site_occupancy
  Er  Er0  1  0.328852  0.006697  0.249999  1
  Hf  Hf1  1  0.995087  0.672649  0.749999  1
  Hf  Hf2  1  0.004299  0.326562  0.250000  1
  Sc  Sc3  1  0.672297  0.993897  0.750000  1
  Al  Al4  1  0.123368  0.123300  0.750000  1
  Al  Al5  1  0.871897  0.874489  0.250000  1
  Al  Al6  1  0.996727  0.334629  0.579698  1
  Al  Al7  1  0.000045  0.662718  0.424383  1
  Al  Al8  1  0.000044  0.662718  0.075617  1
  Al  Al9  1  0.335814  0.998231  0.917761  1
  Al  Al10  1  0.996728  0.334628  0.920301  1
  Al  Al11  1  0.666985  0.001194  0.075595  1
  Al  Al12  1  0.666986  0.001195  0.424405  1
  Al  Al13  1  0.335814  0.998230  0.582239  1
  Al  Al14  1  0.331456  0.333799  0.054956  1
  Al  Al15  1  0.669042  0.669040  0.940081  1
  Al  Al16  1  0.669043  0.669041  0.559919  1
  Al  Al17  1  0.331455  0.333799  0.445044  1
  Al  Al18  1  0.337544  0.552789  0.750000  1
  Al  Al19  1  0.664797  0.451887  0.250000  1
  Al  Al20  1  0.556629  0.342620  0.750000  1
  Al  Al21  1  0.445138  0.656070  0.249999  1
  Ir  Ir22  1  0.673059  0.327947  0.499465  1
  Ir  Ir23  1  0.326693  0.672155  0.500729  1
  Ir  Ir24  1  0.326698  0.672154  0.999273  1
  Ir  Ir25  1  0.673057  0.327945  0.000534  1
  Ir  Ir26  1  0.000225  0.999810  0.500011  1
  Ir  Ir27  1  0.000223  0.999809  0.999989  1
