# generated using pymatgen
data_TmMg2Al3Si2Pt
_symmetry_space_group_name_H-M   'P 1'
_cell_length_a   6.70816415
_cell_length_b   6.70816408
_cell_length_c   4.12357600
_cell_angle_alpha   90.00000000
_cell_angle_beta   90.00000000
_cell_angle_gamma   120.24811392
_symmetry_Int_Tables_number   1
_chemical_formula_structural   TmMg2Al3Si2Pt
_chemical_formula_sum   'Tm1 Mg2 Al3 Si2 Pt1'
_cell_volume   160.29528512
_cell_formula_units_Z   1
loop_
 _symmetry_equiv_pos_site_id
 _symmetry_equiv_pos_as_xyz
  1  'x, y, z'
loop_
 _atom_site_type_symbol
 _atom_site_label
 _atom_site_symmetry_multiplicity
 _atom_site_fract_x
 _atom_site_fract_y
 _atom_site_fract_z
 _atom_site_occupancy
  Tm  Tm0  1  0.575442  0.575443  0.000000  1
  Mg  Mg1  1  0.413215  0.998896  0.000000  1
  Mg  Mg2  1  0.998896  0.413215  0.000000  1
  Al  Al3  1  0.757620  0.000484  0.500000  1
  Al  Al4  1  0.240248  0.240249  0.500000  1
  Al  Al5  1  0.000484  0.757620  0.500000  1
  Si  Si6  1  0.672787  0.332727  0.500000  1
  Si  Si7  1  0.332727  0.672788  0.500000  1
  Pt  Pt8  1  0.008577  0.008577  0.000000  1
