# generated using pymatgen
data_Sm7Y(SiBr6)2
_symmetry_space_group_name_H-M   'P 1'
_cell_length_a   4.14261000
_cell_length_b   13.49611728
_cell_length_c   14.30077382
_cell_angle_alpha   90.34318331
_cell_angle_beta   90.00000000
_cell_angle_gamma   90.00000000
_symmetry_Int_Tables_number   1
_chemical_formula_structural   Sm7Y(SiBr6)2
_chemical_formula_sum   'Sm7 Y1 Si2 Br12'
_cell_volume   799.52977223
_cell_formula_units_Z   1
loop_
 _symmetry_equiv_pos_site_id
 _symmetry_equiv_pos_as_xyz
  1  'x, y, z'
loop_
 _atom_site_type_symbol
 _atom_site_label
 _atom_site_symmetry_multiplicity
 _atom_site_fract_x
 _atom_site_fract_y
 _atom_site_fract_z
 _atom_site_occupancy
  Sm  Sm0  1  0.500000  0.118570  0.341075  1
  Sm  Sm1  1  0.500000  0.882093  0.659425  1
  Sm  Sm2  1  0.500000  0.618122  0.158879  1
  Sm  Sm3  1  0.000000  0.120115  0.580206  1
  Sm  Sm4  1  0.000000  0.881545  0.421196  1
  Sm  Sm5  1  0.000000  0.618353  0.920765  1
  Sm  Sm6  1  0.000000  0.380762  0.078099  1
  Y  Y7  1  0.500000  0.382202  0.841277  1
  Si  Si8  1  0.500000  0.001006  0.500684  1
  Si  Si9  1  0.500000  0.499078  0.998742  1
  Br  Br10  1  0.500000  0.243188  0.161667  1
  Br  Br11  1  0.500000  0.755716  0.837090  1
  Br  Br12  1  0.500000  0.743131  0.337448  1
  Br  Br13  1  0.500000  0.258002  0.666642  1
  Br  Br14  1  0.000000  0.255717  0.412449  1
  Br  Br15  1  0.000000  0.744887  0.588050  1
  Br  Br16  1  0.000000  0.754853  0.088403  1
  Br  Br17  1  0.000000  0.248254  0.906523  1
  Br  Br18  1  0.000000  0.000908  0.243387  1
  Br  Br19  1  0.000000  0.999348  0.757320  1
  Br  Br20  1  0.000000  0.501254  0.256018  1
  Br  Br21  1  0.000000  0.492896  0.744657  1
