# generated using pymatgen
data_Tm12Si11Ru
_symmetry_space_group_name_H-M   'P 1'
_cell_length_a   3.76100700
_cell_length_b   5.58614055
_cell_length_c   23.51665200
_cell_angle_alpha   82.55146117
_cell_angle_beta   90.00000000
_cell_angle_gamma   90.00000000
_symmetry_Int_Tables_number   1
_chemical_formula_structural   Tm12Si11Ru
_chemical_formula_sum   'Tm12 Si11 Ru1'
_cell_volume   489.90428109
_cell_formula_units_Z   1
loop_
 _symmetry_equiv_pos_site_id
 _symmetry_equiv_pos_as_xyz
  1  'x, y, z'
loop_
 _atom_site_type_symbol
 _atom_site_label
 _atom_site_symmetry_multiplicity
 _atom_site_fract_x
 _atom_site_fract_y
 _atom_site_fract_z
 _atom_site_occupancy
  Tm  Tm0  1  0.750000  0.349562  0.063677  1
  Tm  Tm1  1  0.250000  0.658188  0.938936  1
  Tm  Tm2  1  0.750000  0.524255  0.224690  1
  Tm  Tm3  1  0.250000  0.467533  0.773046  1
  Tm  Tm4  1  0.750000  0.166167  0.394218  1
  Tm  Tm5  1  0.250000  0.826793  0.606745  1
  Tm  Tm6  1  0.750000  0.351533  0.560001  1
  Tm  Tm7  1  0.250000  0.642160  0.440722  1
  Tm  Tm8  1  0.750000  0.992487  0.726184  1
  Tm  Tm9  1  0.250000  0.997378  0.273896  1
  Tm  Tm10  1  0.750000  0.169254  0.892011  1
  Tm  Tm11  1  0.250000  0.830517  0.107129  1
  Si  Si12  1  0.750000  0.872308  0.011679  1
  Si  Si13  1  0.250000  0.147071  0.986163  1
  Si  Si14  1  0.750000  0.055044  0.178574  1
  Si  Si15  1  0.250000  0.958580  0.820202  1
  Si  Si16  1  0.750000  0.706433  0.346781  1
  Si  Si17  1  0.250000  0.285651  0.653413  1
  Si  Si18  1  0.750000  0.859445  0.512707  1
  Si  Si19  1  0.250000  0.136140  0.487812  1
  Si  Si20  1  0.750000  0.534103  0.679284  1
  Si  Si21  1  0.250000  0.459949  0.321676  1
  Si  Si22  1  0.750000  0.678903  0.845310  1
  Ru  Ru23  1  0.250000  0.330545  0.155143  1
