# generated using pymatgen
data_HoEr5Mn10(Co2P3)4
_symmetry_space_group_name_H-M   'P 1'
_cell_length_a   3.63720000
_cell_length_b   10.76828600
_cell_length_c   12.32192000
_cell_angle_alpha   90.00000000
_cell_angle_beta   90.00000000
_cell_angle_gamma   90.00000000
_symmetry_Int_Tables_number   1
_chemical_formula_structural   HoEr5Mn10(Co2P3)4
_chemical_formula_sum   'Ho1 Er5 Mn10 Co8 P12'
_cell_volume   482.60536873
_cell_formula_units_Z   1
loop_
 _symmetry_equiv_pos_site_id
 _symmetry_equiv_pos_as_xyz
  1  'x, y, z'
loop_
 _atom_site_type_symbol
 _atom_site_label
 _atom_site_symmetry_multiplicity
 _atom_site_fract_x
 _atom_site_fract_y
 _atom_site_fract_z
 _atom_site_occupancy
  Ho  Ho0  1  0.500000  0.000000  0.468062  1
  Er  Er1  1  0.000000  0.500000  0.531878  1
  Er  Er2  1  0.500000  0.822257  0.200696  1
  Er  Er3  1  0.500000  0.177743  0.200696  1
  Er  Er4  1  0.000000  0.677754  0.799247  1
  Er  Er5  1  0.000000  0.322246  0.799247  1
  Mn  Mn6  1  0.500000  0.297880  0.431006  1
  Mn  Mn7  1  0.500000  0.702120  0.431006  1
  Mn  Mn8  1  0.000000  0.202350  0.569125  1
  Mn  Mn9  1  0.000000  0.797650  0.569125  1
  Mn  Mn10  1  0.500000  0.882158  0.707456  1
  Mn  Mn11  1  0.500000  0.117842  0.707456  1
  Mn  Mn12  1  0.000000  0.617835  0.292632  1
  Mn  Mn13  1  0.000000  0.382165  0.292632  1
  Mn  Mn14  1  0.500000  0.500000  0.159303  1
  Mn  Mn15  1  0.000000  0.000000  0.840670  1
  Co  Co16  1  0.000000  0.500000  0.989726  1
  Co  Co17  1  0.500000  0.000000  0.010250  1
  Co  Co18  1  0.500000  0.333284  0.995629  1
  Co  Co19  1  0.500000  0.666716  0.995629  1
  Co  Co20  1  0.000000  0.166716  0.004345  1
  Co  Co21  1  0.000000  0.833284  0.004345  1
  Co  Co22  1  0.500000  0.500000  0.710142  1
  Co  Co23  1  0.000000  0.000000  0.289623  1
  P  P24  1  0.500000  0.317905  0.621420  1
  P  P25  1  0.500000  0.682095  0.621420  1
  P  P26  1  0.000000  0.182321  0.378495  1
  P  P27  1  0.000000  0.817679  0.378495  1
  P  P28  1  0.500000  0.500000  0.886934  1
  P  P29  1  0.000000  0.000000  0.113042  1
  P  P30  1  0.500000  0.844576  0.892943  1
  P  P31  1  0.500000  0.155424  0.892943  1
  P  P32  1  0.000000  0.655443  0.107041  1
  P  P33  1  0.000000  0.344557  0.107041  1
  P  P34  1  0.500000  0.500000  0.356593  1
  P  P35  1  0.000000  0.000000  0.643708  1
