# generated using pymatgen
data_Li4CaYIn2
_symmetry_space_group_name_H-M   'P 1'
_cell_length_a   6.97365100
_cell_length_b   4.92152000
_cell_length_c   9.85521400
_cell_angle_alpha   89.99973822
_cell_angle_beta   89.99973483
_cell_angle_gamma   89.99998014
_symmetry_Int_Tables_number   1
_chemical_formula_structural   Li4CaYIn2
_chemical_formula_sum   'Li8 Ca2 Y2 In4'
_cell_volume   338.24043376
_cell_formula_units_Z   2
loop_
 _symmetry_equiv_pos_site_id
 _symmetry_equiv_pos_as_xyz
  1  'x, y, z'
loop_
 _atom_site_type_symbol
 _atom_site_label
 _atom_site_symmetry_multiplicity
 _atom_site_fract_x
 _atom_site_fract_y
 _atom_site_fract_z
 _atom_site_occupancy
  Li  Li0  1  0.002427  0.750000  0.126103  1
  Li  Li1  1  0.497561  0.750000  0.126114  1
  Li  Li2  1  0.997561  0.249999  0.373885  1
  Li  Li3  1  0.502428  0.250000  0.373896  1
  Li  Li4  1  0.500795  0.750000  0.629564  1
  Li  Li5  1  0.999215  0.750000  0.629573  1
  Li  Li6  1  0.499216  0.250000  0.870428  1
  Li  Li7  1  0.000795  0.250000  0.870436  1
  Ca  Ca8  1  0.750008  0.250000  0.620745  1
  Ca  Ca9  1  0.250009  0.750000  0.879255  1
  Y  Y10  1  0.749991  0.250000  0.123133  1
  Y  Y11  1  0.249991  0.750000  0.376867  1
  In  In12  1  0.250000  0.250000  0.133239  1
  In  In13  1  0.749999  0.750000  0.366761  1
  In  In14  1  0.250000  0.249994  0.616782  1
  In  In15  1  0.750004  0.750000  0.883217  1
