# generated using pymatgen
data_ScMn7Nb3Al
_symmetry_space_group_name_H-M   'P 1'
_cell_length_a   4.84463900
_cell_length_b   4.84463850
_cell_length_c   8.04989600
_cell_angle_alpha   90.00000000
_cell_angle_beta   90.00000000
_cell_angle_gamma   120.00002391
_symmetry_Int_Tables_number   1
_chemical_formula_structural   ScMn7Nb3Al
_chemical_formula_sum   'Sc1 Mn7 Nb3 Al1'
_cell_volume   163.62271458
_cell_formula_units_Z   1
loop_
 _symmetry_equiv_pos_site_id
 _symmetry_equiv_pos_as_xyz
  1  'x, y, z'
loop_
 _atom_site_type_symbol
 _atom_site_label
 _atom_site_symmetry_multiplicity
 _atom_site_fract_x
 _atom_site_fract_y
 _atom_site_fract_z
 _atom_site_occupancy
  Sc  Sc0  1  0.333333  0.666667  0.438179  1
  Mn  Mn1  1  0.172050  0.344101  0.746739  1
  Mn  Mn2  1  0.827950  0.172050  0.253452  1
  Mn  Mn3  1  0.344101  0.172050  0.253452  1
  Mn  Mn4  1  0.655899  0.827950  0.746739  1
  Mn  Mn5  1  0.000000  0.000000  0.501143  1
  Mn  Mn6  1  0.827950  0.655899  0.253452  1
  Mn  Mn7  1  0.172050  0.827950  0.746739  1
  Nb  Nb8  1  0.666667  0.333333  0.929464  1
  Nb  Nb9  1  0.666667  0.333333  0.560031  1
  Nb  Nb10  1  0.333333  0.666667  0.071208  1
  Al  Al11  1  0.000000  0.000000  0.999401  1
