# generated using pymatgen
data_Tb9Ho3InCuNi4
_symmetry_space_group_name_H-M   'P 1'
_cell_length_a   8.34256367
_cell_length_b   8.34826227
_cell_length_c   8.34256325
_cell_angle_alpha   112.28090536
_cell_angle_beta   109.33200700
_cell_angle_gamma   106.81928498
_symmetry_Int_Tables_number   1
_chemical_formula_structural   Tb9Ho3InCuNi4
_chemical_formula_sum   'Tb9 Ho3 In1 Cu1 Ni4'
_cell_volume   446.40636443
_cell_formula_units_Z   1
loop_
 _symmetry_equiv_pos_site_id
 _symmetry_equiv_pos_as_xyz
  1  'x, y, z'
loop_
 _atom_site_type_symbol
 _atom_site_label
 _atom_site_symmetry_multiplicity
 _atom_site_fract_x
 _atom_site_fract_y
 _atom_site_fract_z
 _atom_site_occupancy
  Tb  Tb0  1  0.413331  0.218845  0.193706  1
  Tb  Tb1  1  0.587130  0.780739  0.806888  1
  Tb  Tb2  1  0.025139  0.218845  0.805514  1
  Tb  Tb3  1  0.973850  0.780739  0.193609  1
  Tb  Tb4  1  0.180801  0.293153  0.474730  1
  Tb  Tb5  1  0.819603  0.706197  0.525176  1
  Tb  Tb6  1  0.181022  0.706197  0.886594  1
  Tb  Tb7  1  0.818422  0.293153  0.112352  1
  Tb  Tb8  1  0.323654  0.631126  0.307474  1
  Ho  Ho9  1  0.676319  0.368100  0.691778  1
  Ho  Ho10  1  0.324250  0.016704  0.692454  1
  Ho  Ho11  1  0.675896  0.984253  0.308357  1
  In  In12  1  0.500387  0.499722  0.999336  1
  Cu  Cu13  1  0.000075  0.998934  0.998857  1
  Ni  Ni14  1  0.360435  0.001710  0.361736  1
  Ni  Ni15  1  0.639975  0.001710  0.641275  1
  Ni  Ni16  1  0.125112  0.625688  0.500577  1
  Ni  Ni17  1  0.874599  0.374186  0.499587  1
