# generated using pymatgen
data_Li3Pr3Ag2Ru
_symmetry_space_group_name_H-M   'P 1'
_cell_length_a   7.66270100
_cell_length_b   7.66270149
_cell_length_c   4.10815000
_cell_angle_alpha   90.00000000
_cell_angle_beta   90.00000000
_cell_angle_gamma   120.00000222
_symmetry_Int_Tables_number   1
_chemical_formula_structural   Li3Pr3Ag2Ru
_chemical_formula_sum   'Li3 Pr3 Ag2 Ru1'
_cell_volume   208.90108773
_cell_formula_units_Z   1
loop_
 _symmetry_equiv_pos_site_id
 _symmetry_equiv_pos_as_xyz
  1  'x, y, z'
loop_
 _atom_site_type_symbol
 _atom_site_label
 _atom_site_symmetry_multiplicity
 _atom_site_fract_x
 _atom_site_fract_y
 _atom_site_fract_z
 _atom_site_occupancy
  Li  Li0  1  0.763178  0.759329  0.000000  1
  Li  Li1  1  0.240671  0.003849  0.000000  1
  Li  Li2  1  0.996151  0.236822  0.000000  1
  Pr  Pr3  1  0.431651  0.405944  0.500000  1
  Pr  Pr4  1  0.594056  0.025708  0.500000  1
  Pr  Pr5  1  0.974292  0.568349  0.500000  1
  Ag  Ag6  1  0.333333  0.666667  0.000000  1
  Ag  Ag7  1  0.000000  0.000000  0.500000  1
  Ru  Ru8  1  0.666667  0.333333  0.000000  1
