# generated using pymatgen
data_Tm8In2OsPt
_symmetry_space_group_name_H-M   'P 1'
_cell_length_a   9.56968698
_cell_length_b   9.56969259
_cell_length_c   9.59274824
_cell_angle_alpha   59.85630498
_cell_angle_beta   59.85634577
_cell_angle_gamma   59.66493095
_symmetry_Int_Tables_number   1
_chemical_formula_structural   Tm8In2OsPt
_chemical_formula_sum   'Tm16 In4 Os2 Pt2'
_cell_volume   618.25857672
_cell_formula_units_Z   2
loop_
 _symmetry_equiv_pos_site_id
 _symmetry_equiv_pos_as_xyz
  1  'x, y, z'
loop_
 _atom_site_type_symbol
 _atom_site_label
 _atom_site_symmetry_multiplicity
 _atom_site_fract_x
 _atom_site_fract_y
 _atom_site_fract_z
 _atom_site_occupancy
  Tm  Tm0  1  0.348620  0.348619  0.352128  1
  Tm  Tm1  1  0.350981  0.350980  0.946224  1
  Tm  Tm2  1  0.348001  0.952499  0.352067  1
  Tm  Tm3  1  0.952501  0.348001  0.352065  1
  Tm  Tm4  1  0.813260  0.188134  0.191567  1
  Tm  Tm5  1  0.188552  0.813551  0.804508  1
  Tm  Tm6  1  0.188135  0.813261  0.191567  1
  Tm  Tm7  1  0.813549  0.188554  0.804507  1
  Tm  Tm8  1  0.189874  0.189876  0.808922  1
  Tm  Tm9  1  0.807273  0.807271  0.190977  1
  Tm  Tm10  1  0.939106  0.555562  0.565905  1
  Tm  Tm11  1  0.554702  0.940127  0.941876  1
  Tm  Tm12  1  0.555560  0.939107  0.565906  1
  Tm  Tm13  1  0.940127  0.554701  0.941877  1
  Tm  Tm14  1  0.562615  0.562615  0.938141  1
  Tm  Tm15  1  0.943805  0.943807  0.557574  1
  In  In16  1  0.583874  0.583875  0.583776  1
  In  In17  1  0.581652  0.581652  0.251778  1
  In  In18  1  0.583651  0.249355  0.582891  1
  In  In19  1  0.249355  0.583652  0.582891  1
  Os  Os20  1  0.143567  0.143567  0.138460  1
  Os  Os21  1  0.142602  0.142602  0.575315  1
  Pt  Pt22  1  0.142757  0.575882  0.139540  1
  Pt  Pt23  1  0.575883  0.142753  0.139541  1
