# generated using pymatgen
data_Er20Cd5InRu2
_symmetry_space_group_name_H-M   'P 1'
_cell_length_a   9.54078733
_cell_length_b   9.54078760
_cell_length_c   9.75550400
_cell_angle_alpha   90.00000000
_cell_angle_beta   90.00000000
_cell_angle_gamma   120.03029273
_symmetry_Int_Tables_number   1
_chemical_formula_structural   Er20Cd5InRu2
_chemical_formula_sum   'Er20 Cd5 In1 Ru2'
_cell_volume   768.80488964
_cell_formula_units_Z   1
loop_
 _symmetry_equiv_pos_site_id
 _symmetry_equiv_pos_as_xyz
  1  'x, y, z'
loop_
 _atom_site_type_symbol
 _atom_site_label
 _atom_site_symmetry_multiplicity
 _atom_site_fract_x
 _atom_site_fract_y
 _atom_site_fract_z
 _atom_site_occupancy
  Er  Er0  1  0.002707  0.997293  0.501933  1
  Er  Er1  1  0.002707  0.997293  0.998067  1
  Er  Er2  1  0.210482  0.789518  0.439774  1
  Er  Er3  1  0.207574  0.418820  0.439582  1
  Er  Er4  1  0.581180  0.792426  0.439582  1
  Er  Er5  1  0.790815  0.209185  0.558384  1
  Er  Er6  1  0.788574  0.579054  0.560277  1
  Er  Er7  1  0.420946  0.211426  0.560277  1
  Er  Er8  1  0.790815  0.209185  0.941616  1
  Er  Er9  1  0.788574  0.579054  0.939723  1
  Er  Er10  1  0.420946  0.211426  0.939723  1
  Er  Er11  1  0.210482  0.789518  0.060226  1
  Er  Er12  1  0.207574  0.418820  0.060418  1
  Er  Er13  1  0.581180  0.792426  0.060418  1
  Er  Er14  1  0.537297  0.462703  0.250000  1
  Er  Er15  1  0.537271  0.083683  0.250000  1
  Er  Er16  1  0.916317  0.462729  0.250000  1
  Er  Er17  1  0.457368  0.542632  0.750000  1
  Er  Er18  1  0.460686  0.920535  0.750000  1
  Er  Er19  1  0.079465  0.539314  0.750000  1
  Cd  Cd20  1  0.886827  0.771445  0.250000  1
  Cd  Cd21  1  0.228555  0.113173  0.250000  1
  Cd  Cd22  1  0.116044  0.883956  0.750000  1
  Cd  Cd23  1  0.114001  0.227848  0.750000  1
  Cd  Cd24  1  0.772152  0.885999  0.750000  1
  In  In25  1  0.885407  0.114593  0.250000  1
  Ru  Ru26  1  0.335124  0.664876  0.250000  1
  Ru  Ru27  1  0.668931  0.331069  0.750000  1
