# generated using pymatgen
data_TbLu2Ga2Co9B4
_symmetry_space_group_name_H-M   'P 1'
_cell_length_a   5.11072700
_cell_length_b   5.11106365
_cell_length_c   9.53963100
_cell_angle_alpha   89.99968492
_cell_angle_beta   90.00064142
_cell_angle_gamma   119.99780178
_symmetry_Int_Tables_number   1
_chemical_formula_structural   TbLu2Ga2Co9B4
_chemical_formula_sum   'Tb1 Lu2 Ga2 Co9 B4'
_cell_volume   215.80713505
_cell_formula_units_Z   1
loop_
 _symmetry_equiv_pos_site_id
 _symmetry_equiv_pos_as_xyz
  1  'x, y, z'
loop_
 _atom_site_type_symbol
 _atom_site_label
 _atom_site_symmetry_multiplicity
 _atom_site_fract_x
 _atom_site_fract_y
 _atom_site_fract_z
 _atom_site_occupancy
  Tb  Tb0  1  0.999992  0.000000  0.999979  1
  Lu  Lu1  1  0.999989  0.000000  0.339802  1
  Lu  Lu2  1  0.999989  0.000000  0.660153  1
  Ga  Ga3  1  0.333380  0.666772  0.000018  1
  Ga  Ga4  1  0.666607  0.333228  0.000018  1
  Co  Co5  1  0.499991  0.000000  0.499995  1
  Co  Co6  1  0.499996  0.499997  0.500009  1
  Co  Co7  1  0.999998  0.500003  0.500009  1
  Co  Co8  1  0.499996  0.000000  0.207396  1
  Co  Co9  1  0.499988  0.499999  0.207394  1
  Co  Co10  1  0.999989  0.500001  0.207394  1
  Co  Co11  1  0.499994  0.000000  0.792610  1
  Co  Co12  1  0.499997  0.499998  0.792619  1
  Co  Co13  1  0.999999  0.500002  0.792619  1
  B  B14  1  0.333319  0.666654  0.349153  1
  B  B15  1  0.666665  0.333346  0.349153  1
  B  B16  1  0.666648  0.333288  0.650840  1
  B  B17  1  0.333359  0.666712  0.650840  1
