# generated using pymatgen
data_Mn3Se2(BrO3)2
_symmetry_space_group_name_H-M   'P 1'
_cell_length_a   5.91397201
_cell_length_b   5.91398758
_cell_length_c   7.43030700
_cell_angle_alpha   112.49640252
_cell_angle_beta   112.49685296
_cell_angle_gamma   69.80434876
_symmetry_Int_Tables_number   1
_chemical_formula_structural   Mn3Se2(BrO3)2
_chemical_formula_sum   'Mn3 Se2 Br2 O6'
_cell_volume   215.72761729
_cell_formula_units_Z   1
loop_
 _symmetry_equiv_pos_site_id
 _symmetry_equiv_pos_as_xyz
  1  'x, y, z'
loop_
 _atom_site_type_symbol
 _atom_site_label
 _atom_site_symmetry_multiplicity
 _atom_site_fract_x
 _atom_site_fract_y
 _atom_site_fract_z
 _atom_site_occupancy
  Mn  Mn0  1  0.530971  0.530993  0.289114  1
  Mn  Mn1  1  0.000006  0.999976  0.499973  1
  Mn  Mn2  1  0.469024  0.469018  0.710919  1
  Se  Se3  1  0.145710  0.145726  0.227950  1
  Se  Se4  1  0.854290  0.854284  0.772046  1
  Br  Br5  1  0.712258  0.712259  0.110276  1
  Br  Br6  1  0.287739  0.287740  0.889729  1
  O  O7  1  0.895972  0.265688  0.334373  1
  O  O8  1  0.265685  0.895983  0.334372  1
  O  O9  1  0.345468  0.345475  0.378196  1
  O  O10  1  0.654528  0.654528  0.621812  1
  O  O11  1  0.734322  0.104017  0.665622  1
  O  O12  1  0.104027  0.734313  0.665622  1
