# generated using pymatgen
data_UTi2ZnPt12
_symmetry_space_group_name_H-M   'P 1'
_cell_length_a   5.66216200
_cell_length_b   5.66216325
_cell_length_c   9.23556500
_cell_angle_alpha   90.00000000
_cell_angle_beta   90.00000000
_cell_angle_gamma   120.00000437
_symmetry_Int_Tables_number   1
_chemical_formula_structural   UTi2ZnPt12
_chemical_formula_sum   'U1 Ti2 Zn1 Pt12'
_cell_volume   256.42405245
_cell_formula_units_Z   1
loop_
 _symmetry_equiv_pos_site_id
 _symmetry_equiv_pos_as_xyz
  1  'x, y, z'
loop_
 _atom_site_type_symbol
 _atom_site_label
 _atom_site_symmetry_multiplicity
 _atom_site_fract_x
 _atom_site_fract_y
 _atom_site_fract_z
 _atom_site_occupancy
  U  U0  1  0.000000  0.000000  0.495670  1
  Ti  Ti1  1  0.000000  0.000000  0.001276  1
  Ti  Ti2  1  0.666667  0.333333  0.756215  1
  Zn  Zn3  1  0.333333  0.666667  0.247236  1
  Pt  Pt4  1  0.501510  0.498490  0.504473  1
  Pt  Pt5  1  0.501510  0.003019  0.504473  1
  Pt  Pt6  1  0.996981  0.498490  0.504473  1
  Pt  Pt7  1  0.501944  0.498056  0.996441  1
  Pt  Pt8  1  0.501944  0.003888  0.996441  1
  Pt  Pt9  1  0.996112  0.498056  0.996441  1
  Pt  Pt10  1  0.832838  0.665676  0.245348  1
  Pt  Pt11  1  0.334324  0.167162  0.245348  1
  Pt  Pt12  1  0.832838  0.167162  0.245348  1
  Pt  Pt13  1  0.166410  0.332818  0.753607  1
  Pt  Pt14  1  0.667182  0.833590  0.753607  1
  Pt  Pt15  1  0.166410  0.833590  0.753607  1
