# generated using pymatgen
data_Dy2YCoSn3Rh2
_symmetry_space_group_name_H-M   'P 1'
_cell_length_a   7.48153586
_cell_length_b   7.48153596
_cell_length_c   3.84921300
_cell_angle_alpha   90.00000000
_cell_angle_beta   90.00000000
_cell_angle_gamma   120.13061971
_symmetry_Int_Tables_number   1
_chemical_formula_structural   Dy2YCoSn3Rh2
_chemical_formula_sum   'Dy2 Y1 Co1 Sn3 Rh2'
_cell_volume   186.34209594
_cell_formula_units_Z   1
loop_
 _symmetry_equiv_pos_site_id
 _symmetry_equiv_pos_as_xyz
  1  'x, y, z'
loop_
 _atom_site_type_symbol
 _atom_site_label
 _atom_site_symmetry_multiplicity
 _atom_site_fract_x
 _atom_site_fract_y
 _atom_site_fract_z
 _atom_site_occupancy
  Dy  Dy0  1  0.594112  0.000006  0.500000  1
  Dy  Dy1  1  0.000006  0.594112  0.500000  1
  Y  Y2  1  0.405359  0.405359  0.500000  1
  Co  Co3  1  0.999501  0.999501  0.500000  1
  Sn  Sn4  1  0.749109  0.749109  0.000000  1
  Sn  Sn5  1  0.250854  0.999982  0.000000  1
  Sn  Sn6  1  0.999982  0.250854  0.000000  1
  Rh  Rh7  1  0.667881  0.333196  0.000000  1
  Rh  Rh8  1  0.333196  0.667881  0.000000  1
