# generated using pymatgen
data_CaHo5(CdHg2)6
_symmetry_space_group_name_H-M   'P 1'
_cell_length_a   5.21576772
_cell_length_b   6.93069600
_cell_length_c   15.71071235
_cell_angle_alpha   90.00000000
_cell_angle_beta   90.08395038
_cell_angle_gamma   90.00000000
_symmetry_Int_Tables_number   1
_chemical_formula_structural   CaHo5(CdHg2)6
_chemical_formula_sum   'Ca1 Ho5 Cd6 Hg12'
_cell_volume   567.92436751
_cell_formula_units_Z   1
loop_
 _symmetry_equiv_pos_site_id
 _symmetry_equiv_pos_as_xyz
  1  'x, y, z'
loop_
 _atom_site_type_symbol
 _atom_site_label
 _atom_site_symmetry_multiplicity
 _atom_site_fract_x
 _atom_site_fract_y
 _atom_site_fract_z
 _atom_site_occupancy
  Ca  Ca0  1  0.500191  0.000000  0.833340  1
  Ho  Ho1  1  0.999947  0.500001  0.001206  1
  Ho  Ho2  1  0.499821  0.000000  0.166532  1
  Ho  Ho3  1  0.999820  0.500001  0.333373  1
  Ho  Ho4  1  0.500034  0.000000  0.500170  1
  Ho  Ho5  1  0.000170  0.500001  0.665392  1
  Cd  Cd6  1  0.000001  0.000000  0.999538  1
  Cd  Cd7  1  0.499857  0.500001  0.169969  1
  Cd  Cd8  1  0.999793  0.000000  0.333325  1
  Cd  Cd9  1  0.499973  0.500001  0.496748  1
  Cd  Cd10  1  0.000122  0.000000  0.667106  1
  Cd  Cd11  1  0.500232  0.500001  0.833296  1
  Hg  Hg12  1  0.499973  0.252609  0.002274  1
  Hg  Hg13  1  0.499973  0.747391  0.002274  1
  Hg  Hg14  1  0.999854  0.251571  0.167431  1
  Hg  Hg15  1  0.999854  0.748429  0.167431  1
  Hg  Hg16  1  0.499838  0.248621  0.333326  1
  Hg  Hg17  1  0.499838  0.751378  0.333326  1
  Hg  Hg18  1  0.999996  0.251562  0.499206  1
  Hg  Hg19  1  0.999996  0.748437  0.499206  1
  Hg  Hg20  1  0.500162  0.252516  0.664427  1
  Hg  Hg21  1  0.500162  0.747483  0.664427  1
  Hg  Hg22  1  0.000193  0.256102  0.833340  1
  Hg  Hg23  1  0.000193  0.743898  0.833340  1
