# generated using pymatgen
data_AcDy(PdO2)4
_symmetry_space_group_name_H-M   'P 1'
_cell_length_a   6.60923463
_cell_length_b   6.60923382
_cell_length_c   6.60923400
_cell_angle_alpha   126.92824865
_cell_angle_beta   126.92825423
_cell_angle_gamma   78.36776725
_symmetry_Int_Tables_number   1
_chemical_formula_structural   AcDy(PdO2)4
_chemical_formula_sum   'Ac1 Dy1 Pd4 O8'
_cell_volume   178.66044299
_cell_formula_units_Z   1
loop_
 _symmetry_equiv_pos_site_id
 _symmetry_equiv_pos_as_xyz
  1  'x, y, z'
loop_
 _atom_site_type_symbol
 _atom_site_label
 _atom_site_symmetry_multiplicity
 _atom_site_fract_x
 _atom_site_fract_y
 _atom_site_fract_z
 _atom_site_occupancy
  Ac  Ac0  1  0.000000  0.000000  0.000000  1
  Dy  Dy1  1  0.750000  0.250000  0.500000  1
  Pd  Pd2  1  0.381558  0.621214  0.253525  1
  Pd  Pd3  1  0.871967  0.618442  0.239656  1
  Pd  Pd4  1  0.378786  0.632311  0.760344  1
  Pd  Pd5  1  0.367689  0.128033  0.746475  1
  O  O6  1  0.595365  0.967506  0.968307  1
  O  O7  1  0.419667  0.855946  0.168967  1
  O  O8  1  0.686980  0.250699  0.831033  1
  O  O9  1  0.999198  0.627057  0.031693  1
  O  O10  1  0.144054  0.313020  0.563720  1
  O  O11  1  0.372943  0.404635  0.372142  1
  O  O12  1  0.749301  0.580333  0.436280  1
  O  O13  1  0.032494  0.000802  0.627858  1
