# generated using pymatgen
data_Nd2Ho2ReB12Os
_symmetry_space_group_name_H-M   'P 1'
_cell_length_a   3.71337800
_cell_length_b   9.23965112
_cell_length_c   11.69214413
_cell_angle_alpha   90.12765493
_cell_angle_beta   90.00000000
_cell_angle_gamma   90.00000000
_symmetry_Int_Tables_number   1
_chemical_formula_structural   Nd2Ho2ReB12Os
_chemical_formula_sum   'Nd4 Ho4 Re2 B24 Os2'
_cell_volume   401.16017840
_cell_formula_units_Z   2
loop_
 _symmetry_equiv_pos_site_id
 _symmetry_equiv_pos_as_xyz
  1  'x, y, z'
loop_
 _atom_site_type_symbol
 _atom_site_label
 _atom_site_symmetry_multiplicity
 _atom_site_fract_x
 _atom_site_fract_y
 _atom_site_fract_z
 _atom_site_occupancy
  Nd  Nd0  1  0.000000  0.321202  0.412939  1
  Nd  Nd1  1  0.000000  0.678798  0.587061  1
  Nd  Nd2  1  0.000000  0.823990  0.085173  1
  Nd  Nd3  1  0.000000  0.176010  0.914827  1
  Ho  Ho4  1  0.000000  0.943625  0.370368  1
  Ho  Ho5  1  0.000000  0.056375  0.629632  1
  Ho  Ho6  1  0.000000  0.442393  0.129326  1
  Ho  Ho7  1  0.000000  0.557607  0.870674  1
  Re  Re8  1  0.000000  0.139340  0.180818  1
  Re  Re9  1  0.000000  0.860660  0.819182  1
  B  B10  1  0.500000  0.555509  0.430487  1
  B  B11  1  0.500000  0.444491  0.569513  1
  B  B12  1  0.500000  0.054732  0.069302  1
  B  B13  1  0.500000  0.945268  0.930698  1
  B  B14  1  0.500000  0.749432  0.416619  1
  B  B15  1  0.500000  0.250568  0.583381  1
  B  B16  1  0.500000  0.249383  0.083399  1
  B  B17  1  0.500000  0.750617  0.916601  1
  B  B18  1  0.500000  0.789932  0.267006  1
  B  B19  1  0.500000  0.210068  0.732994  1
  B  B20  1  0.500000  0.290700  0.233500  1
  B  B21  1  0.500000  0.709300  0.766500  1
  B  B22  1  0.500000  0.629789  0.186951  1
  B  B23  1  0.500000  0.370211  0.813049  1
  B  B24  1  0.500000  0.130242  0.313882  1
  B  B25  1  0.500000  0.869758  0.686118  1
  B  B26  1  0.500000  0.984428  0.213800  1
  B  B27  1  0.500000  0.015572  0.786200  1
  B  B28  1  0.500000  0.484665  0.286826  1
  B  B29  1  0.500000  0.515335  0.713174  1
  B  B30  1  0.500000  0.599059  0.027447  1
  B  B31  1  0.500000  0.400941  0.972553  1
  B  B32  1  0.500000  0.100009  0.472575  1
  B  B33  1  0.500000  0.899991  0.527425  1
  Os  Os34  1  0.000000  0.638631  0.320128  1
  Os  Os35  1  0.000000  0.361369  0.679872  1
