# generated using pymatgen
data_SrCaHf(SiO3)4
_symmetry_space_group_name_H-M   'P 1'
_cell_length_a   13.93672400
_cell_length_b   5.42568161
_cell_length_c   7.48927643
_cell_angle_alpha   71.59885358
_cell_angle_beta   90.00000000
_cell_angle_gamma   90.00000000
_symmetry_Int_Tables_number   1
_chemical_formula_structural   SrCaHf(SiO3)4
_chemical_formula_sum   'Sr2 Ca2 Hf2 Si8 O24'
_cell_volume   537.35518251
_cell_formula_units_Z   2
loop_
 _symmetry_equiv_pos_site_id
 _symmetry_equiv_pos_as_xyz
  1  'x, y, z'
loop_
 _atom_site_type_symbol
 _atom_site_label
 _atom_site_symmetry_multiplicity
 _atom_site_fract_x
 _atom_site_fract_y
 _atom_site_fract_z
 _atom_site_occupancy
  Sr  Sr0  1  0.000000  0.000000  0.500000  1
  Sr  Sr1  1  0.500000  0.000000  0.500000  1
  Ca  Ca2  1  0.250000  0.179331  0.176125  1
  Ca  Ca3  1  0.750000  0.820669  0.823875  1
  Hf  Hf4  1  0.500000  0.000000  0.000000  1
  Hf  Hf5  1  0.000000  0.000000  0.000000  1
  Si  Si6  1  0.641744  0.417403  0.621263  1
  Si  Si7  1  0.863413  0.437167  0.180861  1
  Si  Si8  1  0.858256  0.417403  0.621263  1
  Si  Si9  1  0.136587  0.562833  0.819139  1
  Si  Si10  1  0.141744  0.582597  0.378737  1
  Si  Si11  1  0.636587  0.437167  0.180861  1
  Si  Si12  1  0.363413  0.562833  0.819139  1
  Si  Si13  1  0.358256  0.582597  0.378737  1
  O  O14  1  0.070526  0.791078  0.850535  1
  O  O15  1  0.861830  0.704609  0.634674  1
  O  O16  1  0.885938  0.733012  0.050210  1
  O  O17  1  0.122997  0.598143  0.593385  1
  O  O18  1  0.933851  0.204647  0.748921  1
  O  O19  1  0.750000  0.281544  0.686084  1
  O  O20  1  0.877003  0.401857  0.406615  1
  O  O21  1  0.250000  0.718456  0.313916  1
  O  O22  1  0.361830  0.295391  0.365326  1
  O  O23  1  0.750000  0.391945  0.132042  1
  O  O24  1  0.250000  0.608055  0.867958  1
  O  O25  1  0.622997  0.401857  0.406615  1
  O  O26  1  0.114062  0.266988  0.949790  1
  O  O27  1  0.429474  0.791078  0.850535  1
  O  O28  1  0.066149  0.795353  0.251079  1
  O  O29  1  0.929474  0.208922  0.149465  1
  O  O30  1  0.566149  0.204647  0.748921  1
  O  O31  1  0.614062  0.733012  0.050210  1
  O  O32  1  0.638170  0.704609  0.634674  1
  O  O33  1  0.377003  0.598143  0.593385  1
  O  O34  1  0.138170  0.295391  0.365326  1
  O  O35  1  0.433851  0.795353  0.251079  1
  O  O36  1  0.385938  0.266988  0.949790  1
  O  O37  1  0.570526  0.208922  0.149465  1
