# generated using pymatgen
data_Ti6TlHg
_symmetry_space_group_name_H-M   'P 1'
_cell_length_a   5.23162000
_cell_length_b   5.23162000
_cell_length_c   5.23162000
_cell_angle_alpha   90.00000000
_cell_angle_beta   90.00000000
_cell_angle_gamma   90.00000000
_symmetry_Int_Tables_number   1
_chemical_formula_structural   Ti6TlHg
_chemical_formula_sum   'Ti6 Tl1 Hg1'
_cell_volume   143.18864328
_cell_formula_units_Z   1
loop_
 _symmetry_equiv_pos_site_id
 _symmetry_equiv_pos_as_xyz
  1  'x, y, z'
loop_
 _atom_site_type_symbol
 _atom_site_label
 _atom_site_symmetry_multiplicity
 _atom_site_fract_x
 _atom_site_fract_y
 _atom_site_fract_z
 _atom_site_occupancy
  Ti  Ti0  1  0.500000  0.247992  0.000000  1
  Ti  Ti1  1  0.500000  0.752008  0.000000  1
  Ti  Ti2  1  0.247992  0.000000  0.500000  1
  Ti  Ti3  1  0.752008  0.000000  0.500000  1
  Ti  Ti4  1  0.000000  0.500000  0.247992  1
  Ti  Ti5  1  0.000000  0.500000  0.752008  1
  Tl  Tl6  1  0.500000  0.500000  0.500000  1
  Hg  Hg7  1  0.000000  0.000000  0.000000  1
