# generated using pymatgen
data_Tb16MgIn3Ir3Ru
_symmetry_space_group_name_H-M   'P 1'
_cell_length_a   9.68718517
_cell_length_b   9.70803053
_cell_length_c   9.70803000
_cell_angle_alpha   59.99999500
_cell_angle_beta   59.92878681
_cell_angle_gamma   59.92878897
_symmetry_Int_Tables_number   1
_chemical_formula_structural   Tb16MgIn3Ir3Ru
_chemical_formula_sum   'Tb16 Mg1 In3 Ir3 Ru1'
_cell_volume   644.87646716
_cell_formula_units_Z   1
loop_
 _symmetry_equiv_pos_site_id
 _symmetry_equiv_pos_as_xyz
  1  'x, y, z'
loop_
 _atom_site_type_symbol
 _atom_site_label
 _atom_site_symmetry_multiplicity
 _atom_site_fract_x
 _atom_site_fract_y
 _atom_site_fract_z
 _atom_site_occupancy
  Tb  Tb0  1  0.599094  0.597172  0.597172  1
  Tb  Tb1  1  0.599094  0.597172  0.206563  1
  Tb  Tb2  1  0.599094  0.206563  0.597172  1
  Tb  Tb3  1  0.201306  0.599565  0.599565  1
  Tb  Tb4  1  0.056771  0.441279  0.441279  1
  Tb  Tb5  1  0.438965  0.060855  0.060855  1
  Tb  Tb6  1  0.438965  0.060855  0.439325  1
  Tb  Tb7  1  0.056771  0.441279  0.060671  1
  Tb  Tb8  1  0.438965  0.439325  0.060855  1
  Tb  Tb9  1  0.056771  0.060671  0.441279  1
  Tb  Tb10  1  0.188507  0.811994  0.811994  1
  Tb  Tb11  1  0.812685  0.189016  0.189016  1
  Tb  Tb12  1  0.812685  0.189016  0.809284  1
  Tb  Tb13  1  0.188507  0.811994  0.187506  1
  Tb  Tb14  1  0.812685  0.809284  0.189016  1
  Tb  Tb15  1  0.188507  0.187506  0.811994  1
  Mg  Mg16  1  0.520801  0.826399  0.826399  1
  In  In17  1  0.831875  0.832812  0.832812  1
  In  In18  1  0.831875  0.832812  0.502500  1
  In  In19  1  0.831875  0.502500  0.832812  1
  Ir  Ir20  1  0.389457  0.391686  0.391686  1
  Ir  Ir21  1  0.389457  0.391686  0.827170  1
  Ir  Ir22  1  0.389457  0.827170  0.391686  1
  Ru  Ru23  1  0.825831  0.391390  0.391390  1
