# generated using pymatgen
data_DyHo15(TmSn4)4
_symmetry_space_group_name_H-M   'P 1'
_cell_length_a   7.98667229
_cell_length_b   8.11736061
_cell_length_c   15.36799417
_cell_angle_alpha   90.00208695
_cell_angle_beta   89.94903062
_cell_angle_gamma   89.96841496
_symmetry_Int_Tables_number   1
_chemical_formula_structural   DyHo15(TmSn4)4
_chemical_formula_sum   'Dy1 Ho15 Tm4 Sn16'
_cell_volume   996.31725873
_cell_formula_units_Z   1
loop_
 _symmetry_equiv_pos_site_id
 _symmetry_equiv_pos_as_xyz
  1  'x, y, z'
loop_
 _atom_site_type_symbol
 _atom_site_label
 _atom_site_symmetry_multiplicity
 _atom_site_fract_x
 _atom_site_fract_y
 _atom_site_fract_z
 _atom_site_occupancy
  Dy  Dy0  1  0.021270  0.179513  0.903038  1
  Ho  Ho1  1  0.368115  0.836641  0.877451  1
  Ho  Ho2  1  0.868373  0.663413  0.622295  1
  Ho  Ho3  1  0.631580  0.163267  0.377527  1
  Ho  Ho4  1  0.132039  0.336869  0.122614  1
  Ho  Ho5  1  0.632080  0.163299  0.122577  1
  Ho  Ho6  1  0.131631  0.336715  0.377541  1
  Ho  Ho7  1  0.368466  0.836601  0.622386  1
  Ho  Ho8  1  0.868239  0.663277  0.877504  1
  Ho  Ho9  1  0.521944  0.320818  0.902827  1
  Ho  Ho10  1  0.022209  0.179388  0.597326  1
  Ho  Ho11  1  0.477917  0.679296  0.402784  1
  Ho  Ho12  1  0.978215  0.820455  0.097203  1
  Ho  Ho13  1  0.478153  0.679409  0.097186  1
  Ho  Ho14  1  0.977919  0.820697  0.402809  1
  Ho  Ho15  1  0.522084  0.320773  0.597030  1
  Tm  Tm16  1  0.198725  0.503373  0.749832  1
  Tm  Tm17  1  0.698544  0.996572  0.749785  1
  Tm  Tm18  1  0.801330  0.496672  0.250079  1
  Tm  Tm19  1  0.301389  0.003282  0.250087  1
  Sn  Sn20  1  0.292927  0.035536  0.042142  1
  Sn  Sn21  1  0.792145  0.464073  0.458199  1
  Sn  Sn22  1  0.707921  0.964353  0.541704  1
  Sn  Sn23  1  0.207927  0.536445  0.958387  1
  Sn  Sn24  1  0.706746  0.963253  0.958444  1
  Sn  Sn25  1  0.207833  0.535868  0.541687  1
  Sn  Sn26  1  0.292139  0.035850  0.458240  1
  Sn  Sn27  1  0.792400  0.464031  0.041754  1
  Sn  Sn28  1  0.565021  0.618341  0.749940  1
  Sn  Sn29  1  0.064995  0.881395  0.749935  1
  Sn  Sn30  1  0.435089  0.381690  0.250052  1
  Sn  Sn31  1  0.935110  0.118427  0.250077  1
  Sn  Sn32  1  0.331462  0.149030  0.749896  1
  Sn  Sn33  1  0.830631  0.351326  0.749640  1
  Sn  Sn34  1  0.668741  0.850917  0.249993  1
  Sn  Sn35  1  0.168692  0.649133  0.250031  1
