# generated using pymatgen
data_Nd2CuPd3O8
_symmetry_space_group_name_H-M   'P 1'
_cell_length_a   6.65124515
_cell_length_b   6.42325899
_cell_length_c   6.60089727
_cell_angle_alpha   124.32001593
_cell_angle_beta   128.25489552
_cell_angle_gamma   78.85783633
_symmetry_Int_Tables_number   1
_chemical_formula_structural   Nd2CuPd3O8
_chemical_formula_sum   'Nd2 Cu1 Pd3 O8'
_cell_volume   177.53724503
_cell_formula_units_Z   1
loop_
 _symmetry_equiv_pos_site_id
 _symmetry_equiv_pos_as_xyz
  1  'x, y, z'
loop_
 _atom_site_type_symbol
 _atom_site_label
 _atom_site_symmetry_multiplicity
 _atom_site_fract_x
 _atom_site_fract_y
 _atom_site_fract_z
 _atom_site_occupancy
  Nd  Nd0  1  0.002455  0.999502  0.004977  1
  Nd  Nd1  1  0.747545  0.250498  0.495023  1
  Cu  Cu2  1  0.375000  0.125000  0.750000  1
  Pd  Pd3  1  0.375000  0.625000  0.250000  1
  Pd  Pd4  1  0.875000  0.625000  0.250000  1
  Pd  Pd5  1  0.375000  0.625000  0.750000  1
  O  O6  1  0.144505  0.592886  0.839623  1
  O  O7  1  0.727362  0.282106  0.118100  1
  O  O8  1  0.605495  0.657114  0.660377  1
  O  O9  1  0.022638  0.967894  0.381900  1
  O  O10  1  0.349511  0.002336  0.940380  1
  O  O11  1  0.043810  0.400335  0.049904  1
  O  O12  1  0.706190  0.849665  0.450096  1
  O  O13  1  0.400489  0.247664  0.559620  1
