# generated using pymatgen
data_Tb2CeThCu24
_symmetry_space_group_name_H-M   'P 1'
_cell_length_a   5.05129500
_cell_length_b   8.01082688
_cell_length_c   10.02103043
_cell_angle_alpha   89.96050527
_cell_angle_beta   90.00000000
_cell_angle_gamma   90.00000000
_symmetry_Int_Tables_number   1
_chemical_formula_structural   Tb2CeThCu24
_chemical_formula_sum   'Tb2 Ce1 Th1 Cu24'
_cell_volume   405.50139872
_cell_formula_units_Z   1
loop_
 _symmetry_equiv_pos_site_id
 _symmetry_equiv_pos_as_xyz
  1  'x, y, z'
loop_
 _atom_site_type_symbol
 _atom_site_label
 _atom_site_symmetry_multiplicity
 _atom_site_fract_x
 _atom_site_fract_y
 _atom_site_fract_z
 _atom_site_occupancy
  Tb  Tb0  1  0.750000  0.741901  0.434915  1
  Tb  Tb1  1  0.750000  0.241678  0.065001  1
  Ce  Ce2  1  0.250000  0.259573  0.564899  1
  Th  Th3  1  0.250000  0.759366  0.935046  1
  Cu  Cu4  1  0.506242  0.564143  0.192819  1
  Cu  Cu5  1  0.005752  0.434970  0.808666  1
  Cu  Cu6  1  0.993150  0.064454  0.308129  1
  Cu  Cu7  1  0.494554  0.935703  0.690327  1
  Cu  Cu8  1  0.750000  0.354310  0.355341  1
  Cu  Cu9  1  0.250000  0.646296  0.642693  1
  Cu  Cu10  1  0.750000  0.854144  0.144174  1
  Cu  Cu11  1  0.250000  0.145671  0.856864  1
  Cu  Cu12  1  0.750000  0.683070  0.742991  1
  Cu  Cu13  1  0.250000  0.316134  0.256219  1
  Cu  Cu14  1  0.750000  0.183694  0.756222  1
  Cu  Cu15  1  0.250000  0.816489  0.244590  1
  Cu  Cu16  1  0.750000  0.940759  0.905546  1
  Cu  Cu17  1  0.250000  0.064561  0.095703  1
  Cu  Cu18  1  0.750000  0.439014  0.593417  1
  Cu  Cu19  1  0.250000  0.562802  0.405496  1
  Cu  Cu20  1  0.750000  0.595404  0.985108  1
  Cu  Cu21  1  0.250000  0.397783  0.017609  1
  Cu  Cu22  1  0.750000  0.099133  0.515834  1
  Cu  Cu23  1  0.250000  0.899678  0.482450  1
  Cu  Cu24  1  0.506850  0.064454  0.308129  1
  Cu  Cu25  1  0.005446  0.935703  0.690327  1
  Cu  Cu26  1  0.993758  0.564143  0.192819  1
  Cu  Cu27  1  0.494248  0.434970  0.808666  1
