# generated using pymatgen
data_Pr10PPb6
_symmetry_space_group_name_H-M   'P 1'
_cell_length_a   6.89775900
_cell_length_b   9.52232319
_cell_length_c   9.52228400
_cell_angle_alpha   120.00014178
_cell_angle_beta   90.00019105
_cell_angle_gamma   89.99960964
_symmetry_Int_Tables_number   1
_chemical_formula_structural   Pr10PPb6
_chemical_formula_sum   'Pr10 P1 Pb6'
_cell_volume   541.65415017
_cell_formula_units_Z   1
loop_
 _symmetry_equiv_pos_site_id
 _symmetry_equiv_pos_as_xyz
  1  'x, y, z'
loop_
 _atom_site_type_symbol
 _atom_site_label
 _atom_site_symmetry_multiplicity
 _atom_site_fract_x
 _atom_site_fract_y
 _atom_site_fract_z
 _atom_site_occupancy
  Pr  Pr0  1  0.499954  0.334118  0.667891  1
  Pr  Pr1  1  0.499954  0.666226  0.332109  1
  Pr  Pr2  1  0.999606  0.666142  0.331792  1
  Pr  Pr3  1  0.999606  0.334350  0.668208  1
  Pr  Pr4  1  0.743898  0.243570  0.000000  1
  Pr  Pr5  1  0.744284  0.755453  0.755702  1
  Pr  Pr6  1  0.744284  0.999751  0.244298  1
  Pr  Pr7  1  0.256474  0.755640  0.000000  1
  Pr  Pr8  1  0.256119  0.245167  0.245462  1
  Pr  Pr9  1  0.256119  0.999705  0.754538  1
  P  P10  1  0.499310  0.999697  0.000000  1
  Pb  Pb11  1  0.750602  0.605385  0.000000  1
  Pb  Pb12  1  0.751083  0.394615  0.394153  1
  Pb  Pb13  1  0.751083  0.000463  0.605847  1
  Pb  Pb14  1  0.248286  0.393654  0.000000  1
  Pb  Pb15  1  0.249671  0.605712  0.605360  1
  Pb  Pb16  1  0.249671  0.000354  0.394640  1
