# generated using pymatgen
data_Y8Lu12HgBi11
_symmetry_space_group_name_H-M   'P 1'
_cell_length_a   8.15990502
_cell_length_b   9.38676900
_cell_length_c   12.00428005
_cell_angle_alpha   90.00000000
_cell_angle_beta   90.27746574
_cell_angle_gamma   90.00000000
_symmetry_Int_Tables_number   1
_chemical_formula_structural   Y8Lu12HgBi11
_chemical_formula_sum   'Y8 Lu12 Hg1 Bi11'
_cell_volume   919.45877086
_cell_formula_units_Z   1
loop_
 _symmetry_equiv_pos_site_id
 _symmetry_equiv_pos_as_xyz
  1  'x, y, z'
loop_
 _atom_site_type_symbol
 _atom_site_label
 _atom_site_symmetry_multiplicity
 _atom_site_fract_x
 _atom_site_fract_y
 _atom_site_fract_z
 _atom_site_occupancy
  Y  Y0  1  0.190032  0.750000  0.719029  1
  Y  Y1  1  0.680841  0.750000  0.785689  1
  Y  Y2  1  0.810919  0.250000  0.282939  1
  Y  Y3  1  0.313230  0.250000  0.218473  1
  Y  Y4  1  0.351998  0.750000  0.211361  1
  Y  Y5  1  0.848829  0.750000  0.286606  1
  Y  Y6  1  0.652803  0.250000  0.783732  1
  Y  Y7  1  0.151583  0.250000  0.715345  1
  Lu  Lu8  1  0.032933  0.750000  0.991275  1
  Lu  Lu9  1  0.520902  0.750000  0.509271  1
  Lu  Lu10  1  0.980773  0.250000  0.009717  1
  Lu  Lu11  1  0.478221  0.250000  0.490374  1
  Lu  Lu12  1  0.309564  0.446590  0.940211  1
  Lu  Lu13  1  0.809303  0.067176  0.558326  1
  Lu  Lu14  1  0.686238  0.928989  0.055655  1
  Lu  Lu15  1  0.189862  0.567112  0.439999  1
  Lu  Lu16  1  0.686238  0.571011  0.055655  1
  Lu  Lu17  1  0.189862  0.932888  0.439999  1
  Lu  Lu18  1  0.309564  0.053410  0.940211  1
  Lu  Lu19  1  0.809303  0.432824  0.558326  1
  Hg  Hg20  1  0.403623  0.750000  0.959912  1
  Bi  Bi21  1  0.437740  0.003811  0.672012  1
  Bi  Bi22  1  0.938140  0.497019  0.826942  1
  Bi  Bi23  1  0.562365  0.503792  0.328261  1
  Bi  Bi24  1  0.060130  0.996834  0.174070  1
  Bi  Bi25  1  0.562365  0.996208  0.328261  1
  Bi  Bi26  1  0.060130  0.503166  0.174070  1
  Bi  Bi27  1  0.437740  0.496189  0.672012  1
  Bi  Bi28  1  0.938140  0.002981  0.826942  1
  Bi  Bi29  1  0.900942  0.750000  0.546202  1
  Bi  Bi30  1  0.596785  0.250000  0.042919  1
  Bi  Bi31  1  0.098900  0.250000  0.456202  1
