# generated using pymatgen
data_SmLuFe5Co3B8
_symmetry_space_group_name_H-M   'P 1'
_cell_length_a   6.93951960
_cell_length_b   6.94893931
_cell_length_c   3.81312927
_cell_angle_alpha   90.04067968
_cell_angle_beta   90.06215653
_cell_angle_gamma   90.13933496
_symmetry_Int_Tables_number   1
_chemical_formula_structural   SmLuFe5Co3B8
_chemical_formula_sum   'Sm1 Lu1 Fe5 Co3 B8'
_cell_volume   183.87716720
_cell_formula_units_Z   1
loop_
 _symmetry_equiv_pos_site_id
 _symmetry_equiv_pos_as_xyz
  1  'x, y, z'
loop_
 _atom_site_type_symbol
 _atom_site_label
 _atom_site_symmetry_multiplicity
 _atom_site_fract_x
 _atom_site_fract_y
 _atom_site_fract_z
 _atom_site_occupancy
  Sm  Sm0  1  0.501287  0.499024  0.502532  1
  Lu  Lu1  1  0.000110  0.001090  0.002973  1
  Fe  Fe2  1  0.383349  0.129793  0.892254  1
  Fe  Fe3  1  0.617086  0.869232  0.891297  1
  Fe  Fe4  1  0.366115  0.885041  0.392283  1
  Fe  Fe5  1  0.634704  0.114231  0.391911  1
  Fe  Fe6  1  0.115580  0.365074  0.609018  1
  Co  Co7  1  0.884652  0.640342  0.608613  1
  Co  Co8  1  0.133000  0.619141  0.109202  1
  Co  Co9  1  0.864993  0.383525  0.109406  1
  B  B10  1  0.801125  0.667426  0.102232  1
  B  B11  1  0.197204  0.331417  0.104815  1
  B  B12  1  0.841573  0.288824  0.605379  1
  B  B13  1  0.164109  0.702836  0.605867  1
  B  B14  1  0.701703  0.837050  0.391015  1
  B  B15  1  0.294596  0.164000  0.393406  1
  B  B16  1  0.667743  0.193982  0.893790  1
  B  B17  1  0.331067  0.807971  0.894010  1
