# generated using pymatgen
data_Tl8Ru8O27
_symmetry_space_group_name_H-M   'P 1'
_cell_length_a   7.37423800
_cell_length_b   7.37423800
_cell_length_c   10.44277200
_cell_angle_alpha   90.00000000
_cell_angle_beta   90.00000000
_cell_angle_gamma   90.00000000
_symmetry_Int_Tables_number   1
_chemical_formula_structural   Tl8Ru8O27
_chemical_formula_sum   'Tl8 Ru8 O27'
_cell_volume   567.87153034
_cell_formula_units_Z   1
loop_
 _symmetry_equiv_pos_site_id
 _symmetry_equiv_pos_as_xyz
  1  'x, y, z'
loop_
 _atom_site_type_symbol
 _atom_site_label
 _atom_site_symmetry_multiplicity
 _atom_site_fract_x
 _atom_site_fract_y
 _atom_site_fract_z
 _atom_site_occupancy
  Tl  Tl0  1  0.249560  0.500000  0.626981  1
  Tl  Tl1  1  0.750440  0.500000  0.626981  1
  Tl  Tl2  1  0.000000  0.759747  0.879845  1
  Tl  Tl3  1  0.000000  0.240253  0.879845  1
  Tl  Tl4  1  0.759747  0.000000  0.120155  1
  Tl  Tl5  1  0.240253  0.000000  0.120155  1
  Tl  Tl6  1  0.500000  0.249560  0.373019  1
  Tl  Tl7  1  0.500000  0.750440  0.373019  1
  Ru  Ru8  1  0.250226  0.000000  0.624211  1
  Ru  Ru9  1  0.749774  0.000000  0.624211  1
  Ru  Ru10  1  0.500000  0.750754  0.874380  1
  Ru  Ru11  1  0.500000  0.249246  0.874380  1
  Ru  Ru12  1  0.750754  0.500000  0.125620  1
  Ru  Ru13  1  0.249246  0.500000  0.125620  1
  Ru  Ru14  1  0.000000  0.749774  0.375789  1
  Ru  Ru15  1  0.000000  0.250226  0.375789  1
  O  O16  1  0.000000  0.000000  0.676645  1
  O  O17  1  0.000000  0.500000  0.746340  1
  O  O18  1  0.690854  0.196022  0.746777  1
  O  O19  1  0.309146  0.803978  0.746777  1
  O  O20  1  0.309146  0.196022  0.746777  1
  O  O21  1  0.690854  0.803978  0.746777  1
  O  O22  1  0.500000  0.500000  0.794964  1
  O  O23  1  0.500000  0.000000  0.932825  1
  O  O24  1  0.686643  0.313357  0.000000  1
  O  O25  1  0.313357  0.313357  0.000000  1
  O  O26  1  0.313357  0.686643  0.000000  1
  O  O27  1  0.686643  0.686643  0.000000  1
  O  O28  1  0.000000  0.500000  0.067175  1
  O  O29  1  0.500000  0.500000  0.205036  1
  O  O30  1  0.500000  0.000000  0.253660  1
  O  O31  1  0.803978  0.690854  0.253223  1
  O  O32  1  0.196022  0.309146  0.253223  1
  O  O33  1  0.803978  0.309146  0.253223  1
  O  O34  1  0.196022  0.690854  0.253223  1
  O  O35  1  0.000000  0.000000  0.323355  1
  O  O36  1  0.000000  0.500000  0.450497  1
  O  O37  1  0.500000  0.500000  0.500000  1
  O  O38  1  0.202028  0.202028  0.500000  1
  O  O39  1  0.202028  0.797972  0.500000  1
  O  O40  1  0.797972  0.202028  0.500000  1
  O  O41  1  0.797972  0.797972  0.500000  1
  O  O42  1  0.500000  0.000000  0.549503  1
