# generated using pymatgen
data_MnFe(Sb6Au)2
_symmetry_space_group_name_H-M   'P 1'
_cell_length_a   8.14302824
_cell_length_b   8.14408935
_cell_length_c   9.46144934
_cell_angle_alpha   55.05453842
_cell_angle_beta   55.01319223
_cell_angle_gamma   70.29749250
_symmetry_Int_Tables_number   1
_chemical_formula_structural   MnFe(Sb6Au)2
_chemical_formula_sum   'Mn1 Fe1 Sb12 Au2'
_cell_volume   421.34503845
_cell_formula_units_Z   1
loop_
 _symmetry_equiv_pos_site_id
 _symmetry_equiv_pos_as_xyz
  1  'x, y, z'
loop_
 _atom_site_type_symbol
 _atom_site_label
 _atom_site_symmetry_multiplicity
 _atom_site_fract_x
 _atom_site_fract_y
 _atom_site_fract_z
 _atom_site_occupancy
  Mn  Mn0  1  0.500000  0.000000  0.500000  1
  Fe  Fe1  1  0.000000  0.500000  0.500000  1
  Sb  Sb2  1  0.678689  0.678363  0.480830  1
  Sb  Sb3  1  0.321311  0.321637  0.519170  1
  Sb  Sb4  1  0.640835  0.641549  0.210048  1
  Sb  Sb5  1  0.359165  0.358451  0.789952  1
  Sb  Sb6  1  0.171839  0.860542  0.641363  1
  Sb  Sb7  1  0.828161  0.139458  0.358637  1
  Sb  Sb8  1  0.859692  0.173621  0.641804  1
  Sb  Sb9  1  0.140308  0.826379  0.358196  1
  Sb  Sb10  1  0.814911  0.493404  0.829218  1
  Sb  Sb11  1  0.185089  0.506596  0.170782  1
  Sb  Sb12  1  0.506331  0.186916  0.169970  1
  Sb  Sb13  1  0.493669  0.813084  0.830030  1
  Au  Au14  1  0.000000  0.500000  0.000000  1
  Au  Au15  1  0.500000  0.000000  0.000000  1
