# generated using pymatgen
data_UMn3InPt11
_symmetry_space_group_name_H-M   'P 1'
_cell_length_a   4.07332100
_cell_length_b   5.65976056
_cell_length_c   11.34459563
_cell_angle_alpha   88.30387830
_cell_angle_beta   90.00000000
_cell_angle_gamma   90.00000000
_symmetry_Int_Tables_number   1
_chemical_formula_structural   UMn3InPt11
_chemical_formula_sum   'U1 Mn3 In1 Pt11'
_cell_volume   261.42396302
_cell_formula_units_Z   1
loop_
 _symmetry_equiv_pos_site_id
 _symmetry_equiv_pos_as_xyz
  1  'x, y, z'
loop_
 _atom_site_type_symbol
 _atom_site_label
 _atom_site_symmetry_multiplicity
 _atom_site_fract_x
 _atom_site_fract_y
 _atom_site_fract_z
 _atom_site_occupancy
  U  U0  1  0.500000  0.755024  0.376736  1
  Mn  Mn1  1  0.500000  0.722097  0.864281  1
  Mn  Mn2  1  0.500000  0.279033  0.127976  1
  Mn  Mn3  1  0.500000  0.245228  0.633269  1
  In  In4  1  0.000000  0.999068  0.996157  1
  Pt  Pt5  1  0.000000  0.014354  0.245365  1
  Pt  Pt6  1  0.000000  0.988155  0.752501  1
  Pt  Pt7  1  0.000000  0.499403  0.998140  1
  Pt  Pt8  1  0.000000  0.496800  0.502910  1
  Pt  Pt9  1  0.000000  0.511049  0.248604  1
  Pt  Pt10  1  0.000000  0.488848  0.751946  1
  Pt  Pt11  1  0.500000  0.253077  0.375671  1
  Pt  Pt12  1  0.500000  0.240080  0.878220  1
  Pt  Pt13  1  0.500000  0.761393  0.118617  1
  Pt  Pt14  1  0.500000  0.746608  0.627218  1
  Pt  Pt15  1  0.000000  0.999782  0.502389  1
