# generated using pymatgen
data_Cs2Ir3O5F7
_symmetry_space_group_name_H-M   'P 1'
_cell_length_a   8.57934700
_cell_length_b   8.51686126
_cell_length_c   10.09884393
_cell_angle_alpha   107.64891807
_cell_angle_beta   90.00000000
_cell_angle_gamma   120.24299852
_symmetry_Int_Tables_number   1
_chemical_formula_structural   Cs2Ir3O5F7
_chemical_formula_sum   'Cs4 Ir6 O10 F14'
_cell_volume   596.93410706
_cell_formula_units_Z   2
loop_
 _symmetry_equiv_pos_site_id
 _symmetry_equiv_pos_as_xyz
  1  'x, y, z'
loop_
 _atom_site_type_symbol
 _atom_site_label
 _atom_site_symmetry_multiplicity
 _atom_site_fract_x
 _atom_site_fract_y
 _atom_site_fract_z
 _atom_site_occupancy
  Cs  Cs0  1  0.824974  0.567842  0.143003  1
  Cs  Cs1  1  0.257132  0.432158  0.356996  1
  Cs  Cs2  1  0.742869  0.567842  0.643004  1
  Cs  Cs3  1  0.175026  0.432158  0.856996  1
  Ir  Ir4  1  0.788170  0.998201  0.049923  1
  Ir  Ir5  1  0.436117  0.000000  0.250000  1
  Ir  Ir6  1  0.789970  0.001798  0.450077  1
  Ir  Ir7  1  0.210030  0.998202  0.549924  1
  Ir  Ir8  1  0.563883  0.000000  0.750000  1
  Ir  Ir9  1  0.211830  0.001799  0.950076  1
  O  O10  1  0.000000  0.000000  0.000000  1
  O  O11  1  0.258491  0.999238  0.132556  1
  O  O12  1  0.584719  0.999904  0.109919  1
  O  O13  1  0.584814  0.000096  0.390082  1
  O  O14  1  0.259253  0.000761  0.367444  1
  O  O15  1  0.000000  0.000000  0.500000  1
  O  O16  1  0.740747  0.999238  0.632556  1
  O  O17  1  0.415186  0.999904  0.609918  1
  O  O18  1  0.415281  0.000097  0.890082  1
  O  O19  1  0.741509  0.000762  0.867444  1
  F  F20  1  0.352812  0.288051  0.020742  1
  F  F21  1  0.937454  0.285841  0.127656  1
  F  F22  1  0.291906  0.713812  0.177152  1
  F  F23  1  0.869881  0.000000  0.250000  1
  F  F24  1  0.578094  0.286188  0.322848  1
  F  F25  1  0.651612  0.714159  0.372343  1
  F  F26  1  0.064762  0.711950  0.479258  1
  F  F27  1  0.935238  0.288050  0.520743  1
  F  F28  1  0.348388  0.285841  0.627657  1
  F  F29  1  0.421906  0.713812  0.677152  1
  F  F30  1  0.130119  0.000000  0.750000  1
  F  F31  1  0.708094  0.286188  0.822848  1
  F  F32  1  0.062546  0.714159  0.872344  1
  F  F33  1  0.647188  0.711949  0.979257  1
