# generated using pymatgen
data_HoEr(Bi3O7)2
_symmetry_space_group_name_H-M   'P 1'
_cell_length_a   6.64815510
_cell_length_b   6.85537364
_cell_length_c   7.84190819
_cell_angle_alpha   106.68834490
_cell_angle_beta   89.39248278
_cell_angle_gamma   99.31732942
_symmetry_Int_Tables_number   1
_chemical_formula_structural   HoEr(Bi3O7)2
_chemical_formula_sum   'Ho1 Er1 Bi6 O14'
_cell_volume   337.58598729
_cell_formula_units_Z   1
loop_
 _symmetry_equiv_pos_site_id
 _symmetry_equiv_pos_as_xyz
  1  'x, y, z'
loop_
 _atom_site_type_symbol
 _atom_site_label
 _atom_site_symmetry_multiplicity
 _atom_site_fract_x
 _atom_site_fract_y
 _atom_site_fract_z
 _atom_site_occupancy
  Ho  Ho0  1  0.461276  0.003738  0.249405  1
  Er  Er1  1  0.538637  0.996128  0.750570  1
  Bi  Bi2  1  0.000032  0.999994  0.500069  1
  Bi  Bi3  1  0.000113  0.000026  0.999725  1
  Bi  Bi4  1  0.260925  0.517389  0.878868  1
  Bi  Bi5  1  0.739398  0.482200  0.121001  1
  Bi  Bi6  1  0.722773  0.464021  0.609622  1
  Bi  Bi7  1  0.277285  0.536367  0.391050  1
  O  O8  1  0.464732  0.659919  0.184327  1
  O  O9  1  0.535071  0.338644  0.815242  1
  O  O10  1  0.304642  0.944436  0.952006  1
  O  O11  1  0.695232  0.055835  0.046345  1
  O  O12  1  0.298171  0.919931  0.513450  1
  O  O13  1  0.701689  0.080167  0.488061  1
  O  O14  1  0.530507  0.349285  0.351879  1
  O  O15  1  0.470174  0.651913  0.648757  1
  O  O16  1  0.915893  0.674658  0.959906  1
  O  O17  1  0.084203  0.325336  0.039881  1
  O  O18  1  0.096323  0.325127  0.623999  1
  O  O19  1  0.903966  0.674881  0.375952  1
  O  O20  1  0.875217  0.933083  0.732846  1
  O  O21  1  0.123741  0.066923  0.267039  1
