# generated using pymatgen
data_Tb5Pr3(CdCo)2
_symmetry_space_group_name_H-M   'P 1'
_cell_length_a   9.70556985
_cell_length_b   9.70557031
_cell_length_c   9.70557100
_cell_angle_alpha   60.00000105
_cell_angle_beta   59.99999947
_cell_angle_gamma   59.99999925
_symmetry_Int_Tables_number   1
_chemical_formula_structural   Tb5Pr3(CdCo)2
_chemical_formula_sum   'Tb10 Pr6 Cd4 Co4'
_cell_volume   646.46972581
_cell_formula_units_Z   2
loop_
 _symmetry_equiv_pos_site_id
 _symmetry_equiv_pos_as_xyz
  1  'x, y, z'
loop_
 _atom_site_type_symbol
 _atom_site_label
 _atom_site_symmetry_multiplicity
 _atom_site_fract_x
 _atom_site_fract_y
 _atom_site_fract_z
 _atom_site_occupancy
  Tb  Tb0  1  0.595388  0.595388  0.595388  1
  Tb  Tb1  1  0.595388  0.595388  0.213837  1
  Tb  Tb2  1  0.595388  0.213837  0.595388  1
  Tb  Tb3  1  0.213837  0.595388  0.595388  1
  Tb  Tb4  1  0.063474  0.436526  0.436526  1
  Tb  Tb5  1  0.436526  0.063474  0.063474  1
  Tb  Tb6  1  0.436526  0.063474  0.436526  1
  Tb  Tb7  1  0.063474  0.436526  0.063474  1
  Tb  Tb8  1  0.436526  0.436526  0.063474  1
  Tb  Tb9  1  0.063474  0.063474  0.436526  1
  Pr  Pr10  1  0.191349  0.808651  0.808651  1
  Pr  Pr11  1  0.808651  0.191349  0.191349  1
  Pr  Pr12  1  0.808651  0.191349  0.808651  1
  Pr  Pr13  1  0.191349  0.808651  0.191349  1
  Pr  Pr14  1  0.808651  0.808651  0.191349  1
  Pr  Pr15  1  0.191349  0.191349  0.808651  1
  Cd  Cd16  1  0.829047  0.829047  0.829047  1
  Cd  Cd17  1  0.829047  0.829047  0.512861  1
  Cd  Cd18  1  0.829047  0.512861  0.829047  1
  Cd  Cd19  1  0.512861  0.829047  0.829047  1
  Co  Co20  1  0.390823  0.390823  0.390823  1
  Co  Co21  1  0.390823  0.390823  0.827532  1
  Co  Co22  1  0.390823  0.827532  0.390823  1
  Co  Co23  1  0.827532  0.390823  0.390823  1
