# generated using pymatgen
data_K5TmO4
_symmetry_space_group_name_H-M   'P 1'
_cell_length_a   6.31705200
_cell_length_b   8.24817500
_cell_length_c   8.66530500
_cell_angle_alpha   90.00000000
_cell_angle_beta   90.00000000
_cell_angle_gamma   90.00000000
_symmetry_Int_Tables_number   1
_chemical_formula_structural   K5TmO4
_chemical_formula_sum   'K10 Tm2 O8'
_cell_volume   451.49835481
_cell_formula_units_Z   2
loop_
 _symmetry_equiv_pos_site_id
 _symmetry_equiv_pos_as_xyz
  1  'x, y, z'
loop_
 _atom_site_type_symbol
 _atom_site_label
 _atom_site_symmetry_multiplicity
 _atom_site_fract_x
 _atom_site_fract_y
 _atom_site_fract_z
 _atom_site_occupancy
  K  K0  1  0.257771  0.763476  0.810693  1
  K  K1  1  0.257771  0.236524  0.810693  1
  K  K2  1  0.817445  0.500000  0.000000  1
  K  K3  1  0.257771  0.763476  0.189307  1
  K  K4  1  0.257771  0.236524  0.189307  1
  K  K5  1  0.742229  0.736524  0.310693  1
  K  K6  1  0.742229  0.263476  0.310693  1
  K  K7  1  0.182555  0.000000  0.500000  1
  K  K8  1  0.742229  0.736524  0.689307  1
  K  K9  1  0.742229  0.263476  0.689307  1
  Tm  Tm10  1  0.781312  0.000000  0.000000  1
  Tm  Tm11  1  0.218688  0.500000  0.500000  1
  O  O12  1  0.964529  0.000000  0.791699  1
  O  O13  1  0.601541  0.781175  0.000000  1
  O  O14  1  0.601541  0.218825  0.000000  1
  O  O15  1  0.964529  0.000000  0.208301  1
  O  O16  1  0.035471  0.500000  0.291699  1
  O  O17  1  0.398459  0.718825  0.500000  1
  O  O18  1  0.398459  0.281175  0.500000  1
  O  O19  1  0.035471  0.500000  0.708301  1
