# generated using pymatgen
data_Tb18ErLuSn16
_symmetry_space_group_name_H-M   'P 1'
_cell_length_a   8.05273900
_cell_length_b   8.20856026
_cell_length_c   15.52315100
_cell_angle_alpha   90.00000000
_cell_angle_beta   90.00000000
_cell_angle_gamma   89.91800619
_symmetry_Int_Tables_number   1
_chemical_formula_structural   Tb18ErLuSn16
_chemical_formula_sum   'Tb18 Er1 Lu1 Sn16'
_cell_volume   1026.10085933
_cell_formula_units_Z   1
loop_
 _symmetry_equiv_pos_site_id
 _symmetry_equiv_pos_as_xyz
  1  'x, y, z'
loop_
 _atom_site_type_symbol
 _atom_site_label
 _atom_site_symmetry_multiplicity
 _atom_site_fract_x
 _atom_site_fract_y
 _atom_site_fract_z
 _atom_site_occupancy
  Tb  Tb0  1  0.367119  0.835619  0.878147  1
  Tb  Tb1  1  0.868182  0.663617  0.621810  1
  Tb  Tb2  1  0.632652  0.164205  0.378223  1
  Tb  Tb3  1  0.132246  0.336098  0.121410  1
  Tb  Tb4  1  0.632652  0.164205  0.121777  1
  Tb  Tb5  1  0.132246  0.336098  0.378590  1
  Tb  Tb6  1  0.367119  0.835619  0.621853  1
  Tb  Tb7  1  0.868182  0.663617  0.878190  1
  Tb  Tb8  1  0.519779  0.320308  0.902127  1
  Tb  Tb9  1  0.020439  0.180339  0.597875  1
  Tb  Tb10  1  0.480115  0.679889  0.402287  1
  Tb  Tb11  1  0.979726  0.819944  0.097888  1
  Tb  Tb12  1  0.480115  0.679889  0.097713  1
  Tb  Tb13  1  0.979726  0.819944  0.402112  1
  Tb  Tb14  1  0.519779  0.320308  0.597873  1
  Tb  Tb15  1  0.020439  0.180339  0.902125  1
  Tb  Tb16  1  0.698390  0.997972  0.750000  1
  Tb  Tb17  1  0.301460  0.002217  0.250000  1
  Er  Er18  1  0.801018  0.497806  0.250000  1
  Lu  Lu19  1  0.199142  0.502529  0.750000  1
  Sn  Sn20  1  0.292388  0.034740  0.041795  1
  Sn  Sn21  1  0.792288  0.464954  0.457856  1
  Sn  Sn22  1  0.707677  0.965147  0.542012  1
  Sn  Sn23  1  0.207636  0.534615  0.957052  1
  Sn  Sn24  1  0.707677  0.965147  0.957988  1
  Sn  Sn25  1  0.207636  0.534615  0.542948  1
  Sn  Sn26  1  0.292388  0.034740  0.458205  1
  Sn  Sn27  1  0.792288  0.464954  0.042144  1
  Sn  Sn28  1  0.563870  0.617686  0.750000  1
  Sn  Sn29  1  0.066086  0.880539  0.750000  1
  Sn  Sn30  1  0.434841  0.381673  0.250000  1
  Sn  Sn31  1  0.934370  0.119123  0.250000  1
  Sn  Sn32  1  0.327847  0.148543  0.750000  1
  Sn  Sn33  1  0.828865  0.354466  0.750000  1
  Sn  Sn34  1  0.671815  0.852768  0.250000  1
  Sn  Sn35  1  0.171802  0.645728  0.250000  1
