# generated using pymatgen
data_Dy5Ho15(SnPb)8
_symmetry_space_group_name_H-M   'P 1'
_cell_length_a   8.08993713
_cell_length_b   8.20518238
_cell_length_c   15.51631551
_cell_angle_alpha   89.97734883
_cell_angle_beta   90.00244705
_cell_angle_gamma   89.97609045
_symmetry_Int_Tables_number   1
_chemical_formula_structural   Dy5Ho15(SnPb)8
_chemical_formula_sum   'Dy5 Ho15 Sn8 Pb8'
_cell_volume   1029.96369186
_cell_formula_units_Z   1
loop_
 _symmetry_equiv_pos_site_id
 _symmetry_equiv_pos_as_xyz
  1  'x, y, z'
loop_
 _atom_site_type_symbol
 _atom_site_label
 _atom_site_symmetry_multiplicity
 _atom_site_fract_x
 _atom_site_fract_y
 _atom_site_fract_z
 _atom_site_occupancy
  Dy  Dy0  1  0.975199  0.822130  0.101054  1
  Dy  Dy1  1  0.475253  0.677683  0.100794  1
  Dy  Dy2  1  0.974983  0.822300  0.399075  1
  Dy  Dy3  1  0.524848  0.322265  0.600868  1
  Dy  Dy4  1  0.024507  0.177913  0.899168  1
  Ho  Ho5  1  0.368910  0.838558  0.875739  1
  Ho  Ho6  1  0.869304  0.661307  0.624182  1
  Ho  Ho7  1  0.630693  0.161364  0.375865  1
  Ho  Ho8  1  0.130883  0.338612  0.124235  1
  Ho  Ho9  1  0.630768  0.161496  0.124280  1
  Ho  Ho10  1  0.130393  0.338579  0.375859  1
  Ho  Ho11  1  0.369453  0.838591  0.624173  1
  Ho  Ho12  1  0.869044  0.661346  0.875715  1
  Ho  Ho13  1  0.525399  0.322408  0.898636  1
  Ho  Ho14  1  0.025694  0.177515  0.601471  1
  Ho  Ho15  1  0.474334  0.677557  0.398676  1
  Ho  Ho16  1  0.199618  0.503252  0.749895  1
  Ho  Ho17  1  0.699567  0.996743  0.750000  1
  Ho  Ho18  1  0.800270  0.496757  0.250074  1
  Ho  Ho19  1  0.300471  0.003319  0.250147  1
  Sn  Sn20  1  0.565073  0.620320  0.749955  1
  Sn  Sn21  1  0.065091  0.879489  0.749997  1
  Sn  Sn22  1  0.435135  0.379743  0.250067  1
  Sn  Sn23  1  0.935049  0.120410  0.250077  1
  Sn  Sn24  1  0.332605  0.149280  0.750178  1
  Sn  Sn25  1  0.832723  0.350641  0.749921  1
  Sn  Sn26  1  0.667194  0.850722  0.250083  1
  Sn  Sn27  1  0.167679  0.649160  0.249975  1
  Pb  Pb28  1  0.290077  0.037581  0.040987  1
  Pb  Pb29  1  0.789153  0.463152  0.458860  1
  Pb  Pb30  1  0.710815  0.963049  0.541272  1
  Pb  Pb31  1  0.210359  0.536963  0.958904  1
  Pb  Pb32  1  0.709533  0.962421  0.959178  1
  Pb  Pb33  1  0.210035  0.537556  0.540717  1
  Pb  Pb34  1  0.289848  0.037788  0.459207  1
  Pb  Pb35  1  0.790043  0.462031  0.040717  1
