# generated using pymatgen
data_Dy5Y11Cd4Ir3Os
_symmetry_space_group_name_H-M   'P 1'
_cell_length_a   9.69916758
_cell_length_b   9.71134795
_cell_length_c   9.71143449
_cell_angle_alpha   59.49353557
_cell_angle_beta   59.52377599
_cell_angle_gamma   59.52426487
_symmetry_Int_Tables_number   1
_chemical_formula_structural   Dy5Y11Cd4Ir3Os
_chemical_formula_sum   'Dy5 Y11 Cd4 Ir3 Os1'
_cell_volume   639.66755312
_cell_formula_units_Z   1
loop_
 _symmetry_equiv_pos_site_id
 _symmetry_equiv_pos_as_xyz
  1  'x, y, z'
loop_
 _atom_site_type_symbol
 _atom_site_label
 _atom_site_symmetry_multiplicity
 _atom_site_fract_x
 _atom_site_fract_y
 _atom_site_fract_z
 _atom_site_occupancy
  Dy  Dy0  1  0.349193  0.349089  0.349088  1
  Dy  Dy1  1  0.348510  0.347940  0.958156  1
  Dy  Dy2  1  0.348513  0.958157  0.347937  1
  Dy  Dy3  1  0.957679  0.348468  0.348463  1
  Dy  Dy4  1  0.811502  0.188886  0.188886  1
  Y  Y5  1  0.187644  0.809245  0.809246  1
  Y  Y6  1  0.189073  0.811065  0.189135  1
  Y  Y7  1  0.809386  0.187587  0.809068  1
  Y  Y8  1  0.189076  0.189131  0.811066  1
  Y  Y9  1  0.809386  0.809068  0.187589  1
  Y  Y10  1  0.938724  0.561290  0.561293  1
  Y  Y11  1  0.557999  0.938916  0.938916  1
  Y  Y12  1  0.561342  0.939172  0.560942  1
  Y  Y13  1  0.938912  0.557492  0.939117  1
  Y  Y14  1  0.561345  0.560943  0.939170  1
  Y  Y15  1  0.938912  0.939119  0.557492  1
  Cd  Cd16  1  0.579493  0.579706  0.579705  1
  Cd  Cd17  1  0.580239  0.580529  0.257043  1
  Cd  Cd18  1  0.580239  0.257042  0.580531  1
  Cd  Cd19  1  0.257153  0.580305  0.580307  1
  Ir  Ir20  1  0.144290  0.143981  0.575487  1
  Ir  Ir21  1  0.144293  0.575486  0.143979  1
  Ir  Ir22  1  0.576637  0.144474  0.144472  1
  Os  Os23  1  0.140462  0.142912  0.142913  1
