# generated using pymatgen
data_Ce2(Al3Co)3
_symmetry_space_group_name_H-M   'P 1'
_cell_length_a   7.46030288
_cell_length_b   7.46030274
_cell_length_c   9.26058400
_cell_angle_alpha   90.00000000
_cell_angle_beta   90.00000000
_cell_angle_gamma   119.33317316
_symmetry_Int_Tables_number   1
_chemical_formula_structural   Ce2(Al3Co)3
_chemical_formula_sum   'Ce4 Al18 Co6'
_cell_volume   449.32550255
_cell_formula_units_Z   2
loop_
 _symmetry_equiv_pos_site_id
 _symmetry_equiv_pos_as_xyz
  1  'x, y, z'
loop_
 _atom_site_type_symbol
 _atom_site_label
 _atom_site_symmetry_multiplicity
 _atom_site_fract_x
 _atom_site_fract_y
 _atom_site_fract_z
 _atom_site_occupancy
  Ce  Ce0  1  0.993749  0.671466  0.250000  1
  Ce  Ce1  1  0.006251  0.328534  0.750000  1
  Ce  Ce2  1  0.671466  0.993749  0.250000  1
  Ce  Ce3  1  0.328534  0.006251  0.750000  1
  Al  Al4  1  0.126962  0.126962  0.250000  1
  Al  Al5  1  0.873038  0.873038  0.750000  1
  Al  Al6  1  0.333574  0.333574  0.542813  1
  Al  Al7  1  0.666426  0.666426  0.042813  1
  Al  Al8  1  0.333574  0.333574  0.957187  1
  Al  Al9  1  0.666426  0.666426  0.457187  1
  Al  Al10  1  0.340931  0.552510  0.250000  1
  Al  Al11  1  0.659069  0.447490  0.750000  1
  Al  Al12  1  0.552510  0.340931  0.250000  1
  Al  Al13  1  0.447490  0.659069  0.750000  1
  Al  Al14  1  0.999405  0.335185  0.072590  1
  Al  Al15  1  0.000595  0.664815  0.572590  1
  Al  Al16  1  0.335185  0.999405  0.427410  1
  Al  Al17  1  0.664815  0.000595  0.927410  1
  Al  Al18  1  0.000595  0.664815  0.927410  1
  Al  Al19  1  0.999405  0.335185  0.427410  1
  Al  Al20  1  0.664815  0.000595  0.572590  1
  Al  Al21  1  0.335185  0.999405  0.072590  1
  Co  Co22  1  0.000000  0.000000  0.000000  1
  Co  Co23  1  0.000000  0.000000  0.500000  1
  Co  Co24  1  0.671528  0.328472  0.000000  1
  Co  Co25  1  0.328472  0.671528  0.500000  1
  Co  Co26  1  0.328472  0.671528  0.000000  1
  Co  Co27  1  0.671528  0.328472  0.500000  1
