# generated using pymatgen
data_Ho10Zn3CuSb2
_symmetry_space_group_name_H-M   'P 1'
_cell_length_a   8.50904937
_cell_length_b   8.50905100
_cell_length_c   8.53924869
_cell_angle_alpha   123.79853313
_cell_angle_beta   123.79854982
_cell_angle_gamma   83.30998480
_symmetry_Int_Tables_number   1
_chemical_formula_structural   Ho10Zn3CuSb2
_chemical_formula_sum   'Ho10 Zn3 Cu1 Sb2'
_cell_volume   409.95148242
_cell_formula_units_Z   1
loop_
 _symmetry_equiv_pos_site_id
 _symmetry_equiv_pos_as_xyz
  1  'x, y, z'
loop_
 _atom_site_type_symbol
 _atom_site_label
 _atom_site_symmetry_multiplicity
 _atom_site_fract_x
 _atom_site_fract_y
 _atom_site_fract_z
 _atom_site_occupancy
  Ho  Ho0  1  0.999917  0.999599  0.999516  1
  Ho  Ho1  1  0.500401  0.500083  0.000484  1
  Ho  Ho2  1  0.792145  0.299019  0.803293  1
  Ho  Ho3  1  0.200981  0.707855  0.196707  1
  Ho  Ho4  1  0.488853  0.995726  0.196707  1
  Ho  Ho5  1  0.302437  0.482971  0.500000  1
  Ho  Ho6  1  0.017029  0.197563  0.500000  1
  Ho  Ho7  1  0.504274  0.011147  0.803293  1
  Ho  Ho8  1  0.703127  0.510424  0.500000  1
  Ho  Ho9  1  0.989576  0.796873  0.500000  1
  Zn  Zn10  1  0.139128  0.638033  0.777163  1
  Zn  Zn11  1  0.861967  0.360872  0.222837  1
  Zn  Zn12  1  0.635768  0.864232  0.500000  1
  Cu  Cu13  1  0.368087  0.131913  0.500000  1
  Sb  Sb14  1  0.248154  0.251846  0.000000  1
  Sb  Sb15  1  0.748154  0.751846  0.000000  1
