# generated using pymatgen
data_Y3Tm2In2Sb
_symmetry_space_group_name_H-M   'P 1'
_cell_length_a   6.51204000
_cell_length_b   8.90607422
_cell_length_c   8.93499400
_cell_angle_alpha   119.89298870
_cell_angle_beta   89.99891779
_cell_angle_gamma   90.00217985
_symmetry_Int_Tables_number   1
_chemical_formula_structural   Y3Tm2In2Sb
_chemical_formula_sum   'Y6 Tm4 In4 Sb2'
_cell_volume   449.25773609
_cell_formula_units_Z   2
loop_
 _symmetry_equiv_pos_site_id
 _symmetry_equiv_pos_as_xyz
  1  'x, y, z'
loop_
 _atom_site_type_symbol
 _atom_site_label
 _atom_site_symmetry_multiplicity
 _atom_site_fract_x
 _atom_site_fract_y
 _atom_site_fract_z
 _atom_site_occupancy
  Y  Y0  1  0.750041  0.237581  0.000000  1
  Y  Y1  1  0.749960  0.760945  0.761483  1
  Y  Y2  1  0.749960  0.999464  0.238517  1
  Y  Y3  1  0.249918  0.761507  0.000000  1
  Y  Y4  1  0.250024  0.241038  0.236147  1
  Y  Y5  1  0.250024  0.004891  0.763853  1
  Tm  Tm6  1  0.503964  0.331279  0.665376  1
  Tm  Tm7  1  0.503964  0.665903  0.334624  1
  Tm  Tm8  1  0.996103  0.665906  0.334637  1
  Tm  Tm9  1  0.996103  0.331267  0.665363  1
  In  In10  1  0.749938  0.598262  0.000000  1
  In  In11  1  0.749949  0.395615  0.397289  1
  In  In12  1  0.749949  0.998326  0.602711  1
  In  In13  1  0.250011  0.404637  0.000000  1
  Sb  Sb14  1  0.250044  0.604136  0.604894  1
  Sb  Sb15  1  0.250044  0.999243  0.395106  1
