# generated using pymatgen
data_Ho6Tm2TlIn2PbAu8
_symmetry_space_group_name_H-M   'P 1'
_cell_length_a   8.02084700
_cell_length_b   8.01907853
_cell_length_c   7.30275200
_cell_angle_alpha   90.00000000
_cell_angle_beta   90.00000000
_cell_angle_gamma   89.79261786
_symmetry_Int_Tables_number   1
_chemical_formula_structural   Ho6Tm2TlIn2PbAu8
_chemical_formula_sum   'Ho6 Tm2 Tl1 In2 Pb1 Au8'
_cell_volume   469.70848557
_cell_formula_units_Z   1
loop_
 _symmetry_equiv_pos_site_id
 _symmetry_equiv_pos_as_xyz
  1  'x, y, z'
loop_
 _atom_site_type_symbol
 _atom_site_label
 _atom_site_symmetry_multiplicity
 _atom_site_fract_x
 _atom_site_fract_y
 _atom_site_fract_z
 _atom_site_occupancy
  Ho  Ho0  1  0.843363  0.158714  0.501359  1
  Ho  Ho1  1  0.156637  0.841286  0.501359  1
  Ho  Ho2  1  0.341129  0.343127  0.998725  1
  Ho  Ho3  1  0.658871  0.656873  0.998725  1
  Ho  Ho4  1  0.682183  0.680426  0.501137  1
  Ho  Ho5  1  0.317817  0.319574  0.501137  1
  Tm  Tm6  1  0.179881  0.818158  0.998824  1
  Tm  Tm7  1  0.820119  0.181842  0.998824  1
  Tl  Tl8  1  0.000000  0.500000  0.750210  1
  In  In9  1  0.500000  0.000000  0.750465  1
  In  In10  1  0.000000  0.500000  0.249931  1
  Pb  Pb11  1  0.500000  0.000000  0.249322  1
  Au  Au12  1  0.632911  0.376303  0.272767  1
  Au  Au13  1  0.367089  0.623697  0.272767  1
  Au  Au14  1  0.130291  0.125047  0.775304  1
  Au  Au15  1  0.869709  0.874953  0.775304  1
  Au  Au16  1  0.374073  0.631069  0.727680  1
  Au  Au17  1  0.625927  0.368931  0.727680  1
  Au  Au18  1  0.877285  0.867905  0.224239  1
  Au  Au19  1  0.122715  0.132095  0.224239  1
