# generated using pymatgen
data_Er4LuPt4
_symmetry_space_group_name_H-M   'P 1'
_cell_length_a   7.38291300
_cell_length_b   7.50182100
_cell_length_c   14.69837600
_cell_angle_alpha   90.00000000
_cell_angle_beta   90.00000000
_cell_angle_gamma   90.00000000
_symmetry_Int_Tables_number   1
_chemical_formula_structural   Er4LuPt4
_chemical_formula_sum   'Er16 Lu4 Pt16'
_cell_volume   814.07384352
_cell_formula_units_Z   4
loop_
 _symmetry_equiv_pos_site_id
 _symmetry_equiv_pos_as_xyz
  1  'x, y, z'
loop_
 _atom_site_type_symbol
 _atom_site_label
 _atom_site_symmetry_multiplicity
 _atom_site_fract_x
 _atom_site_fract_y
 _atom_site_fract_z
 _atom_site_occupancy
  Er  Er0  1  0.631714  0.168474  0.620679  1
  Er  Er1  1  0.131714  0.331526  0.879321  1
  Er  Er2  1  0.368286  0.831526  0.120679  1
  Er  Er3  1  0.868286  0.668474  0.379321  1
  Er  Er4  1  0.368286  0.831526  0.379321  1
  Er  Er5  1  0.868286  0.668474  0.120679  1
  Er  Er6  1  0.631714  0.168474  0.879321  1
  Er  Er7  1  0.131714  0.331526  0.620679  1
  Er  Er8  1  0.475639  0.673124  0.597384  1
  Er  Er9  1  0.975639  0.826876  0.902616  1
  Er  Er10  1  0.524361  0.326876  0.097384  1
  Er  Er11  1  0.024361  0.173124  0.402616  1
  Er  Er12  1  0.524361  0.326876  0.402616  1
  Er  Er13  1  0.024361  0.173124  0.097384  1
  Er  Er14  1  0.475639  0.673124  0.902616  1
  Er  Er15  1  0.975639  0.826876  0.597384  1
  Lu  Lu16  1  0.794873  0.510086  0.750000  1
  Lu  Lu17  1  0.294873  0.989914  0.750000  1
  Lu  Lu18  1  0.205127  0.489914  0.250000  1
  Lu  Lu19  1  0.705127  0.010086  0.250000  1
  Pt  Pt20  1  0.702366  0.976605  0.456036  1
  Pt  Pt21  1  0.202366  0.523395  0.043964  1
  Pt  Pt22  1  0.297634  0.023395  0.956036  1
  Pt  Pt23  1  0.797634  0.476605  0.543964  1
  Pt  Pt24  1  0.297634  0.023395  0.543964  1
  Pt  Pt25  1  0.797634  0.476605  0.956036  1
  Pt  Pt26  1  0.702366  0.976605  0.043964  1
  Pt  Pt27  1  0.202366  0.523395  0.456036  1
  Pt  Pt28  1  0.428578  0.383507  0.750000  1
  Pt  Pt29  1  0.928578  0.116493  0.750000  1
  Pt  Pt30  1  0.571422  0.616493  0.250000  1
  Pt  Pt31  1  0.071422  0.883507  0.250000  1
  Pt  Pt32  1  0.656321  0.856892  0.750000  1
  Pt  Pt33  1  0.156321  0.643108  0.750000  1
  Pt  Pt34  1  0.343679  0.143108  0.250000  1
  Pt  Pt35  1  0.843679  0.356892  0.250000  1
