# generated using pymatgen
data_Er12Fe2Ni3Pb
_symmetry_space_group_name_H-M   'P 1'
_cell_length_a   8.25837763
_cell_length_b   8.25837797
_cell_length_c   8.25837800
_cell_angle_alpha   109.59336570
_cell_angle_beta   110.57849837
_cell_angle_gamma   108.25020371
_symmetry_Int_Tables_number   1
_chemical_formula_structural   Er12Fe2Ni3Pb
_chemical_formula_sum   'Er12 Fe2 Ni3 Pb1'
_cell_volume   433.39305761
_cell_formula_units_Z   1
loop_
 _symmetry_equiv_pos_site_id
 _symmetry_equiv_pos_as_xyz
  1  'x, y, z'
loop_
 _atom_site_type_symbol
 _atom_site_label
 _atom_site_symmetry_multiplicity
 _atom_site_fract_x
 _atom_site_fract_y
 _atom_site_fract_z
 _atom_site_occupancy
  Er  Er0  1  0.289490  0.182020  0.471510  1
  Er  Er1  1  0.710510  0.817980  0.528490  1
  Er  Er2  1  0.289490  0.817980  0.107470  1
  Er  Er3  1  0.710510  0.182020  0.892530  1
  Er  Er4  1  0.621529  0.315817  0.305712  1
  Er  Er5  1  0.378471  0.684183  0.694288  1
  Er  Er6  1  0.010106  0.315817  0.694288  1
  Er  Er7  1  0.989894  0.684183  0.305712  1
  Er  Er8  1  0.213301  0.408531  0.195230  1
  Er  Er9  1  0.786699  0.591469  0.804770  1
  Er  Er10  1  0.213301  0.018070  0.804770  1
  Er  Er11  1  0.786699  0.981930  0.195230  1
  Fe  Fe12  1  0.389758  0.889758  0.500000  1
  Fe  Fe13  1  0.610242  0.110242  0.500000  1
  Ni  Ni14  1  0.000000  0.368390  0.368390  1
  Ni  Ni15  1  0.000000  0.631610  0.631610  1
  Ni  Ni16  1  0.000000  0.000000  0.000000  1
  Pb  Pb17  1  0.500000  0.500000  0.000000  1
