# generated using pymatgen
data_Pr8AlSi11Ni4
_symmetry_space_group_name_H-M   'P 1'
_cell_length_a   8.29710402
_cell_length_b   8.29710391
_cell_length_c   8.64818300
_cell_angle_alpha   89.99588431
_cell_angle_beta   90.00411569
_cell_angle_gamma   119.98493923
_symmetry_Int_Tables_number   1
_chemical_formula_structural   Pr8AlSi11Ni4
_chemical_formula_sum   'Pr8 Al1 Si11 Ni4'
_cell_volume   515.67307349
_cell_formula_units_Z   1
loop_
 _symmetry_equiv_pos_site_id
 _symmetry_equiv_pos_as_xyz
  1  'x, y, z'
loop_
 _atom_site_type_symbol
 _atom_site_label
 _atom_site_symmetry_multiplicity
 _atom_site_fract_x
 _atom_site_fract_y
 _atom_site_fract_z
 _atom_site_occupancy
  Pr  Pr0  1  0.499597  0.500403  0.750652  1
  Pr  Pr1  1  0.500040  0.499960  0.249426  1
  Pr  Pr2  1  0.001544  0.502695  0.749381  1
  Pr  Pr3  1  0.001193  0.502658  0.250680  1
  Pr  Pr4  1  0.497305  0.998456  0.749381  1
  Pr  Pr5  1  0.497342  0.998807  0.250680  1
  Pr  Pr6  1  0.001992  0.998008  0.748620  1
  Pr  Pr7  1  0.002036  0.997964  0.251344  1
  Al  Al8  1  0.828951  0.171049  0.000450  1
  Si  Si9  1  0.171412  0.828588  0.999516  1
  Si  Si10  1  0.343258  0.171868  0.000427  1
  Si  Si11  1  0.170669  0.829331  0.500425  1
  Si  Si12  1  0.656669  0.824805  0.999691  1
  Si  Si13  1  0.828978  0.171022  0.499400  1
  Si  Si14  1  0.828132  0.656742  0.000427  1
  Si  Si15  1  0.658083  0.829209  0.500416  1
  Si  Si16  1  0.175195  0.343331  0.999691  1
  Si  Si17  1  0.342531  0.172043  0.499608  1
  Si  Si18  1  0.170791  0.341917  0.500416  1
  Si  Si19  1  0.827957  0.657469  0.499608  1
  Ni  Ni20  1  0.662945  0.337055  0.998479  1
  Ni  Ni21  1  0.333448  0.666552  0.001047  1
  Ni  Ni22  1  0.333351  0.666649  0.499246  1
  Ni  Ni23  1  0.666584  0.333416  0.500986  1
