# generated using pymatgen
data_Nd2Y3Pb4
_symmetry_space_group_name_H-M   'P 1'
_cell_length_a   8.34324000
_cell_length_b   8.39109500
_cell_length_c   15.90549800
_cell_angle_alpha   90.00000000
_cell_angle_beta   90.00000000
_cell_angle_gamma   90.00000000
_symmetry_Int_Tables_number   1
_chemical_formula_structural   Nd2Y3Pb4
_chemical_formula_sum   'Nd8 Y12 Pb16'
_cell_volume   1113.52672826
_cell_formula_units_Z   4
loop_
 _symmetry_equiv_pos_site_id
 _symmetry_equiv_pos_as_xyz
  1  'x, y, z'
loop_
 _atom_site_type_symbol
 _atom_site_label
 _atom_site_symmetry_multiplicity
 _atom_site_fract_x
 _atom_site_fract_y
 _atom_site_fract_z
 _atom_site_occupancy
  Nd  Nd0  1  0.022370  0.177411  0.096991  1
  Nd  Nd1  1  0.522370  0.322589  0.403009  1
  Nd  Nd2  1  0.477630  0.677411  0.903009  1
  Nd  Nd3  1  0.977630  0.822589  0.596991  1
  Nd  Nd4  1  0.977630  0.822589  0.903009  1
  Nd  Nd5  1  0.477630  0.677411  0.596991  1
  Nd  Nd6  1  0.522370  0.322589  0.096991  1
  Nd  Nd7  1  0.022370  0.177411  0.403009  1
  Y  Y8  1  0.863595  0.658056  0.122786  1
  Y  Y9  1  0.363595  0.841944  0.377214  1
  Y  Y10  1  0.636405  0.158056  0.877214  1
  Y  Y11  1  0.136405  0.341944  0.622786  1
  Y  Y12  1  0.136405  0.341944  0.877214  1
  Y  Y13  1  0.636405  0.158056  0.622786  1
  Y  Y14  1  0.363595  0.841944  0.122786  1
  Y  Y15  1  0.863595  0.658056  0.377214  1
  Y  Y16  1  0.698258  0.995443  0.250000  1
  Y  Y17  1  0.198258  0.504557  0.250000  1
  Y  Y18  1  0.801742  0.495443  0.750000  1
  Y  Y19  1  0.301742  0.004557  0.750000  1
  Pb  Pb20  1  0.059043  0.871508  0.250000  1
  Pb  Pb21  1  0.559043  0.628492  0.250000  1
  Pb  Pb22  1  0.440957  0.371508  0.750000  1
  Pb  Pb23  1  0.940957  0.128492  0.750000  1
  Pb  Pb24  1  0.834023  0.349474  0.250000  1
  Pb  Pb25  1  0.334023  0.150526  0.250000  1
  Pb  Pb26  1  0.665977  0.849474  0.750000  1
  Pb  Pb27  1  0.165977  0.650526  0.750000  1
  Pb  Pb28  1  0.796854  0.459211  0.956650  1
  Pb  Pb29  1  0.296854  0.040789  0.543350  1
  Pb  Pb30  1  0.703146  0.959211  0.043350  1
  Pb  Pb31  1  0.203146  0.540789  0.456650  1
  Pb  Pb32  1  0.203146  0.540789  0.043350  1
  Pb  Pb33  1  0.703146  0.959211  0.456650  1
  Pb  Pb34  1  0.296854  0.040789  0.956650  1
  Pb  Pb35  1  0.796854  0.459211  0.543350  1
