# generated using pymatgen
data_Ca5Nd10Y5Sn16
_symmetry_space_group_name_H-M   'P 1'
_cell_length_a   8.06504076
_cell_length_b   8.46993506
_cell_length_c   15.97367700
_cell_angle_alpha   90.15690525
_cell_angle_beta   89.62389308
_cell_angle_gamma   90.01628382
_symmetry_Int_Tables_number   1
_chemical_formula_structural   Ca5Nd10Y5Sn16
_chemical_formula_sum   'Ca5 Nd10 Y5 Sn16'
_cell_volume   1091.14017080
_cell_formula_units_Z   1
loop_
 _symmetry_equiv_pos_site_id
 _symmetry_equiv_pos_as_xyz
  1  'x, y, z'
loop_
 _atom_site_type_symbol
 _atom_site_label
 _atom_site_symmetry_multiplicity
 _atom_site_fract_x
 _atom_site_fract_y
 _atom_site_fract_z
 _atom_site_occupancy
  Ca  Ca0  1  0.333894  0.830614  0.877618  1
  Ca  Ca1  1  0.170239  0.499313  0.749951  1
  Ca  Ca2  1  0.668939  0.004191  0.749886  1
  Ca  Ca3  1  0.828889  0.502674  0.251512  1
  Ca  Ca4  1  0.328608  0.995989  0.250388  1
  Nd  Nd5  1  0.343346  0.827485  0.622015  1
  Nd  Nd6  1  0.838646  0.674308  0.876639  1
  Nd  Nd7  1  0.494528  0.317923  0.905213  1
  Nd  Nd8  1  0.998413  0.181944  0.593795  1
  Nd  Nd9  1  0.505257  0.682229  0.403308  1
  Nd  Nd10  1  0.005704  0.817266  0.097458  1
  Nd  Nd11  1  0.503887  0.679184  0.096966  1
  Nd  Nd12  1  0.003748  0.820592  0.403175  1
  Nd  Nd13  1  0.496224  0.315938  0.593964  1
  Nd  Nd14  1  0.994460  0.183487  0.904489  1
  Y  Y15  1  0.840213  0.671708  0.622710  1
  Y  Y16  1  0.658909  0.170024  0.375238  1
  Y  Y17  1  0.163394  0.327446  0.126076  1
  Y  Y18  1  0.662759  0.170881  0.126391  1
  Y  Y19  1  0.159294  0.328628  0.374099  1
  Sn  Sn20  1  0.327679  0.038940  0.041375  1
  Sn  Sn21  1  0.820982  0.459504  0.462975  1
  Sn  Sn22  1  0.687340  0.961409  0.535007  1
  Sn  Sn23  1  0.175283  0.533006  0.964486  1
  Sn  Sn24  1  0.673469  0.965397  0.965236  1
  Sn  Sn25  1  0.175568  0.537055  0.534590  1
  Sn  Sn26  1  0.318944  0.042884  0.460777  1
  Sn  Sn27  1  0.824899  0.458202  0.040172  1
  Sn  Sn28  1  0.539894  0.605610  0.747902  1
  Sn  Sn29  1  0.036858  0.892636  0.748204  1
  Sn  Sn30  1  0.462064  0.385152  0.250180  1
  Sn  Sn31  1  0.961441  0.114433  0.250388  1
  Sn  Sn32  1  0.295974  0.142422  0.749216  1
  Sn  Sn33  1  0.798199  0.362853  0.748688  1
  Sn  Sn34  1  0.701074  0.863450  0.249812  1
  Sn  Sn35  1  0.200978  0.635224  0.250099  1
