# generated using pymatgen
data_HoTmNiIr3
_symmetry_space_group_name_H-M   'P 1'
_cell_length_a   5.16184220
_cell_length_b   5.16184418
_cell_length_c   5.16184291
_cell_angle_alpha   62.62962625
_cell_angle_beta   62.62961651
_cell_angle_gamma   62.62962416
_symmetry_Int_Tables_number   1
_chemical_formula_structural   HoTmNiIr3
_chemical_formula_sum   'Ho1 Tm1 Ni1 Ir3'
_cell_volume   102.94579070
_cell_formula_units_Z   1
loop_
 _symmetry_equiv_pos_site_id
 _symmetry_equiv_pos_as_xyz
  1  'x, y, z'
loop_
 _atom_site_type_symbol
 _atom_site_label
 _atom_site_symmetry_multiplicity
 _atom_site_fract_x
 _atom_site_fract_y
 _atom_site_fract_z
 _atom_site_occupancy
  Ho  Ho0  1  0.999118  0.999118  0.999118  1
  Tm  Tm1  1  0.251162  0.251162  0.251162  1
  Ni  Ni2  1  0.624910  0.624910  0.624910  1
  Ir  Ir3  1  0.624829  0.624829  0.125150  1
  Ir  Ir4  1  0.624829  0.125150  0.624829  1
  Ir  Ir5  1  0.125150  0.624829  0.624829  1
