# generated using pymatgen
data_Ti6GaSn5Ru12
_symmetry_space_group_name_H-M   'P 1'
_cell_length_a   4.43699600
_cell_length_b   6.27660800
_cell_length_c   13.29184100
_cell_angle_alpha   90.00000000
_cell_angle_beta   89.99971571
_cell_angle_gamma   90.00000000
_symmetry_Int_Tables_number   1
_chemical_formula_structural   Ti6GaSn5Ru12
_chemical_formula_sum   'Ti6 Ga1 Sn5 Ru12'
_cell_volume   370.16826273
_cell_formula_units_Z   1
loop_
 _symmetry_equiv_pos_site_id
 _symmetry_equiv_pos_as_xyz
  1  'x, y, z'
loop_
 _atom_site_type_symbol
 _atom_site_label
 _atom_site_symmetry_multiplicity
 _atom_site_fract_x
 _atom_site_fract_y
 _atom_site_fract_z
 _atom_site_occupancy
  Ti  Ti0  1  0.999986  0.500000  0.995127  1
  Ti  Ti1  1  0.499847  0.000000  0.164162  1
  Ti  Ti2  1  0.999866  0.500000  0.333324  1
  Ti  Ti3  1  0.500008  0.000000  0.502493  1
  Ti  Ti4  1  0.000165  0.500000  0.671575  1
  Ti  Ti5  1  0.500164  0.000000  0.833335  1
  Ga  Ga6  1  0.500193  0.500000  0.833321  1
  Sn  Sn7  1  0.999986  0.000000  0.998245  1
  Sn  Sn8  1  0.499802  0.500000  0.165196  1
  Sn  Sn9  1  0.999909  0.000000  0.333375  1
  Sn  Sn10  1  0.500008  0.500000  0.501487  1
  Sn  Sn11  1  0.000167  0.000000  0.668402  1
  Ru  Ru12  1  0.499984  0.253231  0.996777  1
  Ru  Ru13  1  0.499984  0.746769  0.996777  1
  Ru  Ru14  1  0.999832  0.249244  0.166246  1
  Ru  Ru15  1  0.999832  0.750756  0.166246  1
  Ru  Ru16  1  0.499832  0.250213  0.333323  1
  Ru  Ru17  1  0.499832  0.749787  0.333323  1
  Ru  Ru18  1  0.999994  0.249290  0.500433  1
  Ru  Ru19  1  0.999994  0.750710  0.500433  1
  Ru  Ru20  1  0.500159  0.253136  0.669847  1
  Ru  Ru21  1  0.500159  0.746864  0.669847  1
  Ru  Ru22  1  0.000151  0.257391  0.833355  1
  Ru  Ru23  1  0.000151  0.742609  0.833355  1
