# generated using pymatgen
data_Na2Dy3P12Ir4Rh15
_symmetry_space_group_name_H-M   'P 1'
_cell_length_a   12.62135600
_cell_length_b   12.69989876
_cell_length_c   3.93512000
_cell_angle_alpha   90.00000000
_cell_angle_beta   90.00000000
_cell_angle_gamma   119.79562779
_symmetry_Int_Tables_number   1
_chemical_formula_structural   Na2Dy3P12Ir4Rh15
_chemical_formula_sum   'Na2 Dy3 P12 Ir4 Rh15'
_cell_volume   547.37579721
_cell_formula_units_Z   1
loop_
 _symmetry_equiv_pos_site_id
 _symmetry_equiv_pos_as_xyz
  1  'x, y, z'
loop_
 _atom_site_type_symbol
 _atom_site_label
 _atom_site_symmetry_multiplicity
 _atom_site_fract_x
 _atom_site_fract_y
 _atom_site_fract_z
 _atom_site_occupancy
  Na  Na0  1  0.000487  0.815888  0.000000  1
  Na  Na1  1  0.184599  0.184112  0.000000  1
  Dy  Dy2  1  0.334070  0.667010  0.500000  1
  Dy  Dy3  1  0.667062  0.332990  0.500000  1
  Dy  Dy4  1  0.817881  0.000000  0.000000  1
  P  P5  1  0.999821  0.635191  0.500000  1
  P  P6  1  0.364630  0.364809  0.500000  1
  P  P7  1  0.637288  0.000000  0.500000  1
  P  P8  1  0.517882  0.685615  0.000000  1
  P  P9  1  0.311991  0.831590  0.000000  1
  P  P10  1  0.167846  0.481527  0.000000  1
  P  P11  1  0.480400  0.168410  0.000000  1
  P  P12  1  0.686319  0.518473  0.000000  1
  P  P13  1  0.832267  0.314385  0.000000  1
  P  P14  1  0.002765  0.180949  0.500000  1
  P  P15  1  0.821816  0.819051  0.500000  1
  P  P16  1  0.178951  0.000000  0.500000  1
  Ir  Ir17  1  0.999667  0.281954  0.000000  1
  Ir  Ir18  1  0.717713  0.718046  0.000000  1
  Ir  Ir19  1  0.282755  0.000000  0.000000  1
  Ir  Ir20  1  0.996600  0.000000  0.500000  1
  Rh  Rh21  1  0.508730  0.867671  0.000000  1
  Rh  Rh22  1  0.130638  0.640497  0.000000  1
  Rh  Rh23  1  0.358961  0.490797  0.000000  1
  Rh  Rh24  1  0.490142  0.359503  0.000000  1
  Rh  Rh25  1  0.868165  0.509203  0.000000  1
  Rh  Rh26  1  0.641060  0.132329  0.000000  1
  Rh  Rh27  1  0.997827  0.453377  0.500000  1
  Rh  Rh28  1  0.544450  0.546623  0.500000  1
  Rh  Rh29  1  0.455077  0.000000  0.500000  1
  Rh  Rh30  1  0.624821  0.805346  0.500000  1
  Rh  Rh31  1  0.195068  0.818082  0.500000  1
  Rh  Rh32  1  0.181918  0.378046  0.500000  1
  Rh  Rh33  1  0.376988  0.181918  0.500000  1
  Rh  Rh34  1  0.803871  0.621954  0.500000  1
  Rh  Rh35  1  0.819474  0.194654  0.500000  1
