# generated using pymatgen
data_ZnGaNi9Mo
_symmetry_space_group_name_H-M   'P 1'
_cell_length_a   3.59898500
_cell_length_b   3.59898500
_cell_length_c   10.70611500
_cell_angle_alpha   90.00000000
_cell_angle_beta   90.00000000
_cell_angle_gamma   90.00000000
_symmetry_Int_Tables_number   1
_chemical_formula_structural   ZnGaNi9Mo
_chemical_formula_sum   'Zn1 Ga1 Ni9 Mo1'
_cell_volume   138.67302114
_cell_formula_units_Z   1
loop_
 _symmetry_equiv_pos_site_id
 _symmetry_equiv_pos_as_xyz
  1  'x, y, z'
loop_
 _atom_site_type_symbol
 _atom_site_label
 _atom_site_symmetry_multiplicity
 _atom_site_fract_x
 _atom_site_fract_y
 _atom_site_fract_z
 _atom_site_occupancy
  Zn  Zn0  1  0.000000  0.000000  0.336618  1
  Ga  Ga1  1  0.000000  0.000000  0.660598  1
  Ni  Ni2  1  0.500000  0.500000  0.999285  1
  Ni  Ni3  1  0.500000  0.500000  0.334529  1
  Ni  Ni4  1  0.500000  0.500000  0.667040  1
  Ni  Ni5  1  0.500000  0.000000  0.166188  1
  Ni  Ni6  1  0.500000  0.000000  0.500331  1
  Ni  Ni7  1  0.500000  0.000000  0.833663  1
  Ni  Ni8  1  0.000000  0.500000  0.166188  1
  Ni  Ni9  1  0.000000  0.500000  0.500331  1
  Ni  Ni10  1  0.000000  0.500000  0.833663  1
  Mo  Mo11  1  0.000000  0.000000  0.001566  1
