# generated using pymatgen
data_LaDyTmTaO7
_symmetry_space_group_name_H-M   'P 1'
_cell_length_a   6.50549131
_cell_length_b   6.50549159
_cell_length_c   7.60163500
_cell_angle_alpha   90.00000000
_cell_angle_beta   90.00000000
_cell_angle_gamma   109.79249381
_symmetry_Int_Tables_number   1
_chemical_formula_structural   LaDyTmTaO7
_chemical_formula_sum   'La2 Dy2 Tm2 Ta2 O14'
_cell_volume   302.70688899
_cell_formula_units_Z   2
loop_
 _symmetry_equiv_pos_site_id
 _symmetry_equiv_pos_as_xyz
  1  'x, y, z'
loop_
 _atom_site_type_symbol
 _atom_site_label
 _atom_site_symmetry_multiplicity
 _atom_site_fract_x
 _atom_site_fract_y
 _atom_site_fract_z
 _atom_site_occupancy
  La  La0  1  0.999667  0.000333  0.000000  1
  La  La1  1  0.999667  0.000333  0.500000  1
  Dy  Dy2  1  0.054006  0.515223  0.250000  1
  Dy  Dy3  1  0.484777  0.945994  0.750000  1
  Tm  Tm4  1  0.513864  0.047311  0.250000  1
  Tm  Tm5  1  0.952689  0.486136  0.750000  1
  Ta  Ta6  1  0.501076  0.498924  0.000000  1
  Ta  Ta7  1  0.501076  0.498924  0.500000  1
  O  O8  1  0.874502  0.160825  0.250000  1
  O  O9  1  0.839175  0.125498  0.750000  1
  O  O10  1  0.821135  0.559237  0.031528  1
  O  O11  1  0.821135  0.559237  0.468472  1
  O  O12  1  0.440763  0.178865  0.968472  1
  O  O13  1  0.440763  0.178865  0.531528  1
  O  O14  1  0.575630  0.578902  0.750000  1
  O  O15  1  0.421098  0.424370  0.250000  1
  O  O16  1  0.557669  0.818643  0.037831  1
  O  O17  1  0.181357  0.442331  0.537831  1
  O  O18  1  0.557669  0.818643  0.462169  1
  O  O19  1  0.181357  0.442331  0.962169  1
  O  O20  1  0.119002  0.838075  0.750000  1
  O  O21  1  0.161925  0.880998  0.250000  1
