# generated using pymatgen
data_Ba2FeCuSeO3
_symmetry_space_group_name_H-M   'P 1'
_cell_length_a   4.09783000
_cell_length_b   4.09783000
_cell_length_c   16.91677500
_cell_angle_alpha   90.00000000
_cell_angle_beta   90.00000000
_cell_angle_gamma   90.00000000
_symmetry_Int_Tables_number   1
_chemical_formula_structural   Ba2FeCuSeO3
_chemical_formula_sum   'Ba4 Fe2 Cu2 Se2 O6'
_cell_volume   284.07005032
_cell_formula_units_Z   2
loop_
 _symmetry_equiv_pos_site_id
 _symmetry_equiv_pos_as_xyz
  1  'x, y, z'
loop_
 _atom_site_type_symbol
 _atom_site_label
 _atom_site_symmetry_multiplicity
 _atom_site_fract_x
 _atom_site_fract_y
 _atom_site_fract_z
 _atom_site_occupancy
  Ba  Ba0  1  0.749999  0.749999  0.184532  1
  Ba  Ba1  1  0.749999  0.749999  0.411548  1
  Ba  Ba2  1  0.250000  0.250000  0.588452  1
  Ba  Ba3  1  0.250000  0.250000  0.815468  1
  Fe  Fe4  1  0.250000  0.250000  0.311781  1
  Fe  Fe5  1  0.749999  0.749999  0.688219  1
  Cu  Cu6  1  0.749999  0.250000  0.000000  1
  Cu  Cu7  1  0.250000  0.749999  0.000000  1
  Se  Se8  1  0.250000  0.250000  0.086418  1
  Se  Se9  1  0.749999  0.749999  0.913582  1
  O  O10  1  0.749999  0.250000  0.291759  1
  O  O11  1  0.250000  0.749999  0.291759  1
  O  O12  1  0.250000  0.250000  0.425040  1
  O  O13  1  0.749999  0.749999  0.574960  1
  O  O14  1  0.749999  0.250000  0.708241  1
  O  O15  1  0.250000  0.749999  0.708241  1
