# generated using pymatgen
data_Yb3Zn(Pt2O7)2
_symmetry_space_group_name_H-M   'P 1'
_cell_length_a   7.26120439
_cell_length_b   7.13986462
_cell_length_c   7.26120500
_cell_angle_alpha   59.43620217
_cell_angle_beta   59.99999267
_cell_angle_gamma   59.43620467
_symmetry_Int_Tables_number   1
_chemical_formula_structural   Yb3Zn(Pt2O7)2
_chemical_formula_sum   'Yb3 Zn1 Pt4 O14'
_cell_volume   263.89933902
_cell_formula_units_Z   1
loop_
 _symmetry_equiv_pos_site_id
 _symmetry_equiv_pos_as_xyz
  1  'x, y, z'
loop_
 _atom_site_type_symbol
 _atom_site_label
 _atom_site_symmetry_multiplicity
 _atom_site_fract_x
 _atom_site_fract_y
 _atom_site_fract_z
 _atom_site_occupancy
  Yb  Yb0  1  0.125000  0.125000  0.125000  1
  Yb  Yb1  1  0.625000  0.125000  0.125000  1
  Yb  Yb2  1  0.125000  0.125000  0.625000  1
  Zn  Zn3  1  0.125000  0.625000  0.125000  1
  Pt  Pt4  1  0.625000  0.625000  0.625000  1
  Pt  Pt5  1  0.125000  0.625000  0.625000  1
  Pt  Pt6  1  0.625000  0.625000  0.125000  1
  Pt  Pt7  1  0.625000  0.125000  0.625000  1
  O  O8  1  0.015607  0.953179  0.015607  1
  O  O9  1  0.234393  0.296821  0.234393  1
  O  O10  1  0.548860  0.542843  0.954148  1
  O  O11  1  0.289792  0.285923  0.712143  1
  O  O12  1  0.954148  0.542843  0.954148  1
  O  O13  1  0.954148  0.542843  0.548860  1
  O  O14  1  0.537857  0.964077  0.960208  1
  O  O15  1  0.537857  0.964077  0.537857  1
  O  O16  1  0.960208  0.964077  0.537857  1
  O  O17  1  0.712143  0.285923  0.289792  1
  O  O18  1  0.295852  0.707157  0.701140  1
  O  O19  1  0.701140  0.707157  0.295852  1
  O  O20  1  0.712143  0.285923  0.712143  1
  O  O21  1  0.295852  0.707157  0.295852  1
