# generated using pymatgen
data_Sr2DyErF10
_symmetry_space_group_name_H-M   'P 1'
_cell_length_a   8.20402999
_cell_length_b   8.20403067
_cell_length_c   5.77827855
_cell_angle_alpha   88.98744886
_cell_angle_beta   88.98745738
_cell_angle_gamma   149.40185448
_symmetry_Int_Tables_number   1
_chemical_formula_structural   Sr2DyErF10
_chemical_formula_sum   'Sr2 Dy1 Er1 F10'
_cell_volume   197.51776069
_cell_formula_units_Z   1
loop_
 _symmetry_equiv_pos_site_id
 _symmetry_equiv_pos_as_xyz
  1  'x, y, z'
loop_
 _atom_site_type_symbol
 _atom_site_label
 _atom_site_symmetry_multiplicity
 _atom_site_fract_x
 _atom_site_fract_y
 _atom_site_fract_z
 _atom_site_occupancy
  Sr  Sr0  1  0.323778  0.676222  0.750000  1
  Sr  Sr1  1  0.676658  0.323342  0.250000  1
  Dy  Dy2  1  0.074854  0.925146  0.750000  1
  Er  Er3  1  0.924440  0.075560  0.250000  1
  F  F4  1  0.731024  0.809055  0.598875  1
  F  F5  1  0.807815  0.732571  0.103458  1
  F  F6  1  0.804245  0.180048  0.006025  1
  F  F7  1  0.621497  0.378503  0.750000  1
  F  F8  1  0.819952  0.195755  0.493975  1
  F  F9  1  0.181344  0.803501  0.503518  1
  F  F10  1  0.379520  0.620480  0.250000  1
  F  F11  1  0.196499  0.818656  0.996482  1
  F  F12  1  0.190945  0.268976  0.901125  1
  F  F13  1  0.267429  0.192185  0.396542  1
