# generated using pymatgen
data_PrPaSn5Rh3
_symmetry_space_group_name_H-M   'P 1'
_cell_length_a   13.64107302
_cell_length_b   13.64107277
_cell_length_c   7.25217100
_cell_angle_alpha   90.00000000
_cell_angle_beta   90.00000000
_cell_angle_gamma   160.94328436
_symmetry_Int_Tables_number   1
_chemical_formula_structural   PrPaSn5Rh3
_chemical_formula_sum   'Pr2 Pa2 Sn10 Rh6'
_cell_volume   440.60915952
_cell_formula_units_Z   2
loop_
 _symmetry_equiv_pos_site_id
 _symmetry_equiv_pos_as_xyz
  1  'x, y, z'
loop_
 _atom_site_type_symbol
 _atom_site_label
 _atom_site_symmetry_multiplicity
 _atom_site_fract_x
 _atom_site_fract_y
 _atom_site_fract_z
 _atom_site_occupancy
  Pr  Pr0  1  0.171984  0.828016  0.750050  1
  Pr  Pr1  1  0.828016  0.171984  0.250050  1
  Pa  Pa2  1  0.475609  0.524391  0.734809  1
  Pa  Pa3  1  0.524391  0.475609  0.234809  1
  Sn  Sn4  1  0.878890  0.121110  0.737108  1
  Sn  Sn5  1  0.121110  0.878890  0.237108  1
  Sn  Sn6  1  0.702854  0.297146  0.047830  1
  Sn  Sn7  1  0.297146  0.702854  0.547830  1
  Sn  Sn8  1  0.596313  0.403687  0.610769  1
  Sn  Sn9  1  0.403687  0.596313  0.110769  1
  Sn  Sn10  1  0.951860  0.048140  0.396160  1
  Sn  Sn11  1  0.048140  0.951860  0.896160  1
  Sn  Sn12  1  0.288278  0.711722  0.973899  1
  Sn  Sn13  1  0.711722  0.288278  0.473899  1
  Rh  Rh14  1  0.049203  0.950797  0.511856  1
  Rh  Rh15  1  0.950797  0.049203  0.011856  1
  Rh  Rh16  1  0.777624  0.222376  0.764975  1
  Rh  Rh17  1  0.222376  0.777624  0.264975  1
  Rh  Rh18  1  0.399928  0.600072  0.500544  1
  Rh  Rh19  1  0.600072  0.399928  0.000544  1
