# generated using pymatgen
data_Tb10GaBi5
_symmetry_space_group_name_H-M   'P 1'
_cell_length_a   9.13281883
_cell_length_b   9.13281827
_cell_length_c   6.44347900
_cell_angle_alpha   90.00000000
_cell_angle_beta   90.00000000
_cell_angle_gamma   119.77359384
_symmetry_Int_Tables_number   1
_chemical_formula_structural   Tb10GaBi5
_chemical_formula_sum   'Tb10 Ga1 Bi5'
_cell_volume   466.49500830
_cell_formula_units_Z   1
loop_
 _symmetry_equiv_pos_site_id
 _symmetry_equiv_pos_as_xyz
  1  'x, y, z'
loop_
 _atom_site_type_symbol
 _atom_site_label
 _atom_site_symmetry_multiplicity
 _atom_site_fract_x
 _atom_site_fract_y
 _atom_site_fract_z
 _atom_site_occupancy
  Tb  Tb0  1  0.657790  0.335689  0.996578  1
  Tb  Tb1  1  0.335689  0.657790  0.996578  1
  Tb  Tb2  1  0.335689  0.657790  0.503422  1
  Tb  Tb3  1  0.657790  0.335689  0.503422  1
  Tb  Tb4  1  0.749199  0.749199  0.750000  1
  Tb  Tb5  1  0.244906  0.014710  0.750000  1
  Tb  Tb6  1  0.014710  0.244906  0.750000  1
  Tb  Tb7  1  0.242629  0.242629  0.250000  1
  Tb  Tb8  1  0.758631  0.000584  0.250000  1
  Tb  Tb9  1  0.000584  0.758631  0.250000  1
  Ga  Ga10  1  0.392692  0.392692  0.750000  1
  Bi  Bi11  1  0.611968  0.002855  0.750000  1
  Bi  Bi12  1  0.002855  0.611968  0.750000  1
  Bi  Bi13  1  0.609068  0.609068  0.250000  1
  Bi  Bi14  1  0.390409  0.995392  0.250000  1
  Bi  Bi15  1  0.995392  0.390409  0.250000  1
