# generated using pymatgen
data_K(RhSe2)4
_symmetry_space_group_name_H-M   'P 1'
_cell_length_a   3.81067661
_cell_length_b   8.31863372
_cell_length_c   9.45850651
_cell_angle_alpha   80.41745398
_cell_angle_beta   78.37870742
_cell_angle_gamma   76.75916682
_symmetry_Int_Tables_number   1
_chemical_formula_structural   K(RhSe2)4
_chemical_formula_sum   'K1 Rh4 Se8'
_cell_volume   283.59161994
_cell_formula_units_Z   1
loop_
 _symmetry_equiv_pos_site_id
 _symmetry_equiv_pos_as_xyz
  1  'x, y, z'
loop_
 _atom_site_type_symbol
 _atom_site_label
 _atom_site_symmetry_multiplicity
 _atom_site_fract_x
 _atom_site_fract_y
 _atom_site_fract_z
 _atom_site_occupancy
  K  K0  1  0.499632  0.000075  0.000659  1
  Rh  Rh1  1  0.634072  0.196420  0.535436  1
  Rh  Rh2  1  0.838492  0.502815  0.820199  1
  Rh  Rh3  1  0.161852  0.496643  0.179653  1
  Rh  Rh4  1  0.365820  0.804060  0.464298  1
  Se  Se5  1  0.456370  0.320394  0.766867  1
  Se  Se6  1  0.543922  0.679040  0.233115  1
  Se  Se7  1  0.897739  0.634940  0.569582  1
  Se  Se8  1  0.101630  0.366006  0.430734  1
  Se  Se9  1  0.212183  0.656297  0.919336  1
  Se  Se10  1  0.788347  0.342592  0.080714  1
  Se  Se11  1  0.827894  0.989616  0.354597  1
  Se  Se12  1  0.172044  0.011102  0.644810  1
