# generated using pymatgen
data_K3Li2ZrP3
_symmetry_space_group_name_H-M   'P 1'
_cell_length_a   10.20105806
_cell_length_b   10.20105863
_cell_length_c   14.76781400
_cell_angle_alpha   90.00000000
_cell_angle_beta   90.00000000
_cell_angle_gamma   143.16164996
_symmetry_Int_Tables_number   1
_chemical_formula_structural   K3Li2ZrP3
_chemical_formula_sum   'K12 Li8 Zr4 P12'
_cell_volume   921.38027111
_cell_formula_units_Z   4
loop_
 _symmetry_equiv_pos_site_id
 _symmetry_equiv_pos_as_xyz
  1  'x, y, z'
loop_
 _atom_site_type_symbol
 _atom_site_label
 _atom_site_symmetry_multiplicity
 _atom_site_fract_x
 _atom_site_fract_y
 _atom_site_fract_z
 _atom_site_occupancy
  K  K0  1  0.605385  0.951281  0.825102  1
  K  K1  1  0.290491  0.290491  0.318153  1
  K  K2  1  0.209509  0.209509  0.818153  1
  K  K3  1  0.709509  0.709509  0.681847  1
  K  K4  1  0.451281  0.105385  0.674898  1
  K  K5  1  0.894615  0.548719  0.325102  1
  K  K6  1  0.048719  0.394615  0.174898  1
  K  K7  1  0.394615  0.048719  0.174898  1
  K  K8  1  0.548719  0.894615  0.325102  1
  K  K9  1  0.105385  0.451281  0.674898  1
  K  K10  1  0.951281  0.605385  0.825102  1
  K  K11  1  0.790491  0.790491  0.181847  1
  Li  Li12  1  0.083387  0.916613  0.000000  1
  Li  Li13  1  0.583387  0.416613  0.500000  1
  Li  Li14  1  0.916613  0.083387  0.000000  1
  Li  Li15  1  0.751906  0.248094  0.000000  1
  Li  Li16  1  0.748094  0.251906  0.500000  1
  Li  Li17  1  0.248094  0.751906  0.000000  1
  Li  Li18  1  0.251906  0.748094  0.500000  1
  Li  Li19  1  0.416613  0.583387  0.500000  1
  Zr  Zr20  1  0.088325  0.911675  0.500000  1
  Zr  Zr21  1  0.411675  0.588325  0.000000  1
  Zr  Zr22  1  0.911675  0.088325  0.500000  1
  Zr  Zr23  1  0.588325  0.411675  0.000000  1
  P  P24  1  0.072207  0.398027  0.407376  1
  P  P25  1  0.898027  0.572207  0.092624  1
  P  P26  1  0.427793  0.101973  0.907376  1
  P  P27  1  0.601973  0.927793  0.592624  1
  P  P28  1  0.927793  0.601973  0.592624  1
  P  P29  1  0.101973  0.427793  0.907376  1
  P  P30  1  0.572207  0.898027  0.092624  1
  P  P31  1  0.398027  0.072207  0.407376  1
  P  P32  1  0.226539  0.226539  0.587929  1
  P  P33  1  0.726539  0.726539  0.912071  1
  P  P34  1  0.273461  0.273461  0.087929  1
  P  P35  1  0.773461  0.773461  0.412071  1
