# generated using pymatgen
data_La2YEr3Ta2O14
_symmetry_space_group_name_H-M   'P 1'
_cell_length_a   6.50827119
_cell_length_b   6.50982659
_cell_length_c   7.62742600
_cell_angle_alpha   90.00000000
_cell_angle_beta   90.00000000
_cell_angle_gamma   109.05271790
_symmetry_Int_Tables_number   1
_chemical_formula_structural   La2YEr3Ta2O14
_chemical_formula_sum   'La2 Y1 Er3 Ta2 O14'
_cell_volume   305.45365935
_cell_formula_units_Z   1
loop_
 _symmetry_equiv_pos_site_id
 _symmetry_equiv_pos_as_xyz
  1  'x, y, z'
loop_
 _atom_site_type_symbol
 _atom_site_label
 _atom_site_symmetry_multiplicity
 _atom_site_fract_x
 _atom_site_fract_y
 _atom_site_fract_z
 _atom_site_occupancy
  La  La0  1  0.500279  0.500067  0.499614  1
  La  La1  1  0.500279  0.500067  0.000386  1
  Y  Y2  1  0.999292  0.466807  0.750000  1
  Er  Er3  1  0.532289  0.001480  0.750000  1
  Er  Er4  1  0.001548  0.532533  0.250000  1
  Er  Er5  1  0.467665  0.998388  0.250000  1
  Ta  Ta6  1  0.999964  0.000039  0.499533  1
  Ta  Ta7  1  0.999964  0.000039  0.000467  1
  O  O8  1  0.680260  0.934338  0.467305  1
  O  O9  1  0.933246  0.680910  0.530875  1
  O  O10  1  0.680260  0.934338  0.032695  1
  O  O11  1  0.933246  0.680910  0.969125  1
  O  O12  1  0.319514  0.065725  0.532703  1
  O  O13  1  0.066271  0.319372  0.466118  1
  O  O14  1  0.319514  0.065725  0.967297  1
  O  O15  1  0.066271  0.319372  0.033882  1
  O  O16  1  0.936544  0.062304  0.750000  1
  O  O17  1  0.063647  0.936854  0.250000  1
  O  O18  1  0.363976  0.640132  0.750000  1
  O  O19  1  0.638948  0.361035  0.250000  1
  O  O20  1  0.642913  0.353606  0.750000  1
  O  O21  1  0.354112  0.645961  0.250000  1
