# generated using pymatgen
data_K4Sb4PdPt
_symmetry_space_group_name_H-M   'P 1'
_cell_length_a   8.21819790
_cell_length_b   8.21819741
_cell_length_c   6.48806237
_cell_angle_alpha   89.73764438
_cell_angle_beta   90.26235968
_cell_angle_gamma   129.81597152
_symmetry_Int_Tables_number   1
_chemical_formula_structural   K4Sb4PdPt
_chemical_formula_sum   'K4 Sb4 Pd1 Pt1'
_cell_volume   336.57608601
_cell_formula_units_Z   1
loop_
 _symmetry_equiv_pos_site_id
 _symmetry_equiv_pos_as_xyz
  1  'x, y, z'
loop_
 _atom_site_type_symbol
 _atom_site_label
 _atom_site_symmetry_multiplicity
 _atom_site_fract_x
 _atom_site_fract_y
 _atom_site_fract_z
 _atom_site_occupancy
  K  K0  1  0.594560  0.405440  0.751470  1
  K  K1  1  0.405440  0.594560  0.248530  1
  K  K2  1  0.194658  0.805342  0.752527  1
  K  K3  1  0.805342  0.194658  0.247473  1
  Sb  Sb4  1  0.685709  0.900170  0.749925  1
  Sb  Sb5  1  0.900170  0.685709  0.250075  1
  Sb  Sb6  1  0.314291  0.099830  0.250075  1
  Sb  Sb7  1  0.099830  0.314291  0.749925  1
  Pd  Pd8  1  0.000000  0.000000  0.500000  1
  Pt  Pt9  1  0.000000  0.000000  0.000000  1
