# generated using pymatgen
data_KPr3Te4
_symmetry_space_group_name_H-M   'P 1'
_cell_length_a   4.54773900
_cell_length_b   4.54774005
_cell_length_c   15.97293000
_cell_angle_alpha   90.00000000
_cell_angle_beta   90.00000000
_cell_angle_gamma   119.99998512
_symmetry_Int_Tables_number   1
_chemical_formula_structural   KPr3Te4
_chemical_formula_sum   'K1 Pr3 Te4'
_cell_volume   286.09248447
_cell_formula_units_Z   1
loop_
 _symmetry_equiv_pos_site_id
 _symmetry_equiv_pos_as_xyz
  1  'x, y, z'
loop_
 _atom_site_type_symbol
 _atom_site_label
 _atom_site_symmetry_multiplicity
 _atom_site_fract_x
 _atom_site_fract_y
 _atom_site_fract_z
 _atom_site_occupancy
  K  K0  1  0.666667  0.333333  0.750000  1
  Pr  Pr1  1  0.333333  0.666667  0.250000  1
  Pr  Pr2  1  0.000000  0.000000  0.015456  1
  Pr  Pr3  1  0.000000  0.000000  0.484544  1
  Te  Te4  1  0.333333  0.666667  0.598558  1
  Te  Te5  1  0.666667  0.333333  0.131263  1
  Te  Te6  1  0.666667  0.333333  0.368737  1
  Te  Te7  1  0.333333  0.666667  0.901442  1
