# generated using pymatgen
data_PW2Br9
_symmetry_space_group_name_H-M   'P 1'
_cell_length_a   8.69330095
_cell_length_b   10.88729600
_cell_length_c   9.93251917
_cell_angle_alpha   90.00000000
_cell_angle_beta   112.52408884
_cell_angle_gamma   90.00000000
_symmetry_Int_Tables_number   1
_chemical_formula_structural   PW2Br9
_chemical_formula_sum   'P2 W4 Br18'
_cell_volume   868.36803124
_cell_formula_units_Z   2
loop_
 _symmetry_equiv_pos_site_id
 _symmetry_equiv_pos_as_xyz
  1  'x, y, z'
loop_
 _atom_site_type_symbol
 _atom_site_label
 _atom_site_symmetry_multiplicity
 _atom_site_fract_x
 _atom_site_fract_y
 _atom_site_fract_z
 _atom_site_occupancy
  P  P0  1  0.823061  0.250000  0.158171  1
  P  P1  1  0.176938  0.750000  0.841829  1
  W  W2  1  0.826890  0.115671  0.340398  1
  W  W3  1  0.826890  0.384328  0.340398  1
  W  W4  1  0.173110  0.615671  0.659602  1
  W  W5  1  0.173110  0.884329  0.659602  1
  Br  Br6  1  0.393173  0.750000  0.055870  1
  Br  Br7  1  0.032475  0.250000  0.079705  1
  Br  Br8  1  0.814302  0.949231  0.165241  1
  Br  Br9  1  0.814302  0.550769  0.165241  1
  Br  Br10  1  0.532041  0.095169  0.293279  1
  Br  Br11  1  0.532041  0.404831  0.293279  1
  Br  Br12  1  0.137046  0.750000  0.437521  1
  Br  Br13  1  0.144170  0.083584  0.460669  1
  Br  Br14  1  0.144170  0.416415  0.460669  1
  Br  Br15  1  0.855829  0.583584  0.539330  1
  Br  Br16  1  0.855829  0.916416  0.539330  1
  Br  Br17  1  0.862954  0.250000  0.562479  1
  Br  Br18  1  0.467959  0.595168  0.706721  1
  Br  Br19  1  0.467959  0.904832  0.706721  1
  Br  Br20  1  0.185698  0.449231  0.834759  1
  Br  Br21  1  0.185698  0.050770  0.834759  1
  Br  Br22  1  0.967524  0.750000  0.920295  1
  Br  Br23  1  0.606827  0.250000  0.944130  1
