# generated using pymatgen
data_CsCrH5
_symmetry_space_group_name_H-M   'P 1'
_cell_length_a   11.33143900
_cell_length_b   7.42910500
_cell_length_c   4.40868200
_cell_angle_alpha   90.00000000
_cell_angle_beta   90.00000000
_cell_angle_gamma   90.00000000
_symmetry_Int_Tables_number   1
_chemical_formula_structural   CsCrH5
_chemical_formula_sum   'Cs4 Cr4 H20'
_cell_volume   371.13365261
_cell_formula_units_Z   4
loop_
 _symmetry_equiv_pos_site_id
 _symmetry_equiv_pos_as_xyz
  1  'x, y, z'
loop_
 _atom_site_type_symbol
 _atom_site_label
 _atom_site_symmetry_multiplicity
 _atom_site_fract_x
 _atom_site_fract_y
 _atom_site_fract_z
 _atom_site_occupancy
  Cs  Cs0  1  0.671584  0.074776  0.339644  1
  Cs  Cs1  1  0.171584  0.425223  0.339644  1
  Cs  Cs2  1  0.828416  0.574776  0.839644  1
  Cs  Cs3  1  0.328416  0.925224  0.839644  1
  Cr  Cr4  1  0.515394  0.559452  0.308801  1
  Cr  Cr5  1  0.015394  0.940548  0.308801  1
  Cr  Cr6  1  0.984606  0.059451  0.808800  1
  Cr  Cr7  1  0.484606  0.440549  0.808800  1
  H  H8  1  0.364346  0.323823  0.827229  1
  H  H9  1  0.864346  0.176177  0.827229  1
  H  H10  1  0.981943  0.728582  0.330147  1
  H  H11  1  0.481943  0.771417  0.330147  1
  H  H12  1  0.596052  0.415934  0.060598  1
  H  H13  1  0.096051  0.084066  0.060598  1
  H  H14  1  0.392051  0.537596  0.059400  1
  H  H15  1  0.892051  0.962405  0.059400  1
  H  H16  1  0.961820  0.145436  0.441180  1
  H  H17  1  0.461820  0.354565  0.441180  1
  H  H18  1  0.135654  0.823823  0.327228  1
  H  H19  1  0.635654  0.676176  0.327228  1
  H  H20  1  0.518058  0.228582  0.830149  1
  H  H21  1  0.018058  0.271417  0.830149  1
  H  H22  1  0.903949  0.915933  0.560598  1
  H  H23  1  0.403949  0.584067  0.560598  1
  H  H24  1  0.107949  0.037595  0.559400  1
  H  H25  1  0.607949  0.462405  0.559400  1
  H  H26  1  0.538180  0.645436  0.941182  1
  H  H27  1  0.038180  0.854565  0.941182  1
