# generated using pymatgen
data_MnCr9(B2P)2
_symmetry_space_group_name_H-M   'P 1'
_cell_length_a   6.48142665
_cell_length_b   6.48142681
_cell_length_c   6.48142603
_cell_angle_alpha   129.45373099
_cell_angle_beta   129.45373507
_cell_angle_gamma   74.28158432
_symmetry_Int_Tables_number   1
_chemical_formula_structural   MnCr9(B2P)2
_chemical_formula_sum   'Mn1 Cr9 B4 P2'
_cell_volume   158.24697487
_cell_formula_units_Z   1
loop_
 _symmetry_equiv_pos_site_id
 _symmetry_equiv_pos_as_xyz
  1  'x, y, z'
loop_
 _atom_site_type_symbol
 _atom_site_label
 _atom_site_symmetry_multiplicity
 _atom_site_fract_x
 _atom_site_fract_y
 _atom_site_fract_z
 _atom_site_occupancy
  Mn  Mn0  1  0.000000  0.000000  0.000000  1
  Cr  Cr1  1  0.192041  0.692520  0.162590  1
  Cr  Cr2  1  0.470070  0.970550  0.162590  1
  Cr  Cr3  1  0.500000  0.500000  0.000000  1
  Cr  Cr4  1  0.529930  0.029450  0.837410  1
  Cr  Cr5  1  0.029450  0.192041  0.499521  1
  Cr  Cr6  1  0.692520  0.529930  0.500479  1
  Cr  Cr7  1  0.970550  0.807959  0.500479  1
  Cr  Cr8  1  0.307480  0.470070  0.499521  1
  Cr  Cr9  1  0.807959  0.307480  0.837410  1
  B  B10  1  0.882175  0.380842  0.263016  1
  B  B11  1  0.380842  0.117825  0.498668  1
  B  B12  1  0.619158  0.882175  0.501332  1
  B  B13  1  0.117825  0.619158  0.736984  1
  P  P14  1  0.750091  0.750091  0.000000  1
  P  P15  1  0.249909  0.249909  0.000000  1
