# generated using pymatgen
data_TaNbMo2(PO4)6
_symmetry_space_group_name_H-M   'P 1'
_cell_length_a   8.77951057
_cell_length_b   8.77945334
_cell_length_c   9.07433853
_cell_angle_alpha   89.64988770
_cell_angle_beta   61.06484697
_cell_angle_gamma   119.59795679
_symmetry_Int_Tables_number   1
_chemical_formula_structural   TaNbMo2(PO4)6
_chemical_formula_sum   'Ta1 Nb1 Mo2 P6 O24'
_cell_volume   503.89715929
_cell_formula_units_Z   1
loop_
 _symmetry_equiv_pos_site_id
 _symmetry_equiv_pos_as_xyz
  1  'x, y, z'
loop_
 _atom_site_type_symbol
 _atom_site_label
 _atom_site_symmetry_multiplicity
 _atom_site_fract_x
 _atom_site_fract_y
 _atom_site_fract_z
 _atom_site_occupancy
  Ta  Ta0  1  0.785686  0.642764  0.572893  1
  Nb  Nb1  1  0.782779  0.140559  0.075983  1
  Mo  Mo2  1  0.208210  0.354924  0.433928  1
  Mo  Mo3  1  0.213053  0.858062  0.930996  1
  P  P4  1  0.282085  0.032364  0.251697  1
  P  P5  1  0.717615  0.748628  0.248286  1
  P  P6  1  0.285501  0.251908  0.751657  1
  P  P7  1  0.715389  0.966244  0.749759  1
  P  P8  1  0.003348  0.536237  0.747520  1
  P  P9  1  0.995531  0.463506  0.252444  1
  O  O10  1  0.486263  0.061960  0.224027  1
  O  O11  1  0.865019  0.362693  0.912752  1
  O  O12  1  0.893235  0.136570  0.585936  1
  O  O13  1  0.847608  0.550305  0.719550  1
  O  O14  1  0.125390  0.625845  0.085508  1
  O  O15  1  0.090531  0.854680  0.414484  1
  O  O16  1  0.146247  0.441119  0.274195  1
  O  O17  1  0.137993  0.712267  0.771078  1
  O  O18  1  0.148960  0.514181  0.579042  1
  O  O19  1  0.283396  0.203181  0.285561  1
  O  O20  1  0.285914  0.014507  0.084220  1
  O  O21  1  0.712599  0.922428  0.225177  1
  O  O22  1  0.523638  0.578124  0.275368  1
  O  O23  1  0.274828  0.272673  0.590363  1
  O  O24  1  0.851596  0.492492  0.418026  1
  O  O25  1  0.088531  0.222806  0.921005  1
  O  O26  1  0.913550  0.784948  0.075829  1
  O  O27  1  0.505641  0.915077  0.781757  1
  O  O28  1  0.735508  0.732973  0.409586  1
  O  O29  1  0.485251  0.433929  0.719346  1
  O  O30  1  0.305408  0.091105  0.771738  1
  O  O31  1  0.723646  0.996836  0.915184  1
  O  O32  1  0.731205  0.798098  0.717038  1
  O  O33  1  0.848845  0.286010  0.228065  1
