# generated using pymatgen
data_Pr4Nd2IrBr10
_symmetry_space_group_name_H-M   'P 1'
_cell_length_a   7.69913497
_cell_length_b   9.64330369
_cell_length_c   9.60247267
_cell_angle_alpha   108.10078942
_cell_angle_beta   96.66556866
_cell_angle_gamma   105.56344095
_symmetry_Int_Tables_number   1
_chemical_formula_structural   Pr4Nd2IrBr10
_chemical_formula_sum   'Pr4 Nd2 Ir1 Br10'
_cell_volume   637.13530898
_cell_formula_units_Z   1
loop_
 _symmetry_equiv_pos_site_id
 _symmetry_equiv_pos_as_xyz
  1  'x, y, z'
loop_
 _atom_site_type_symbol
 _atom_site_label
 _atom_site_symmetry_multiplicity
 _atom_site_fract_x
 _atom_site_fract_y
 _atom_site_fract_z
 _atom_site_occupancy
  Pr  Pr0  1  0.636177  0.864561  0.815241  1
  Pr  Pr1  1  0.363823  0.135439  0.184759  1
  Pr  Pr2  1  0.129436  0.050891  0.757352  1
  Pr  Pr3  1  0.870564  0.949109  0.242648  1
  Nd  Nd4  1  0.968618  0.302079  0.099033  1
  Nd  Nd5  1  0.031382  0.697921  0.900967  1
  Ir  Ir6  1  0.000000  0.000000  0.000000  1
  Br  Br7  1  0.548755  0.177078  0.919954  1
  Br  Br8  1  0.451245  0.822922  0.080046  1
  Br  Br9  1  0.755450  0.919397  0.545725  1
  Br  Br10  1  0.244550  0.080603  0.454275  1
  Br  Br11  1  0.085315  0.368979  0.833856  1
  Br  Br12  1  0.914685  0.631021  0.166144  1
  Br  Br13  1  0.211504  0.746912  0.652375  1
  Br  Br14  1  0.788496  0.253088  0.347625  1
  Br  Br15  1  0.651435  0.550119  0.729416  1
  Br  Br16  1  0.348565  0.449881  0.270584  1
