# generated using pymatgen
data_Lu2Sc3Si4
_symmetry_space_group_name_H-M   'P 1'
_cell_length_a   7.02623400
_cell_length_b   7.32276100
_cell_length_c   13.86361700
_cell_angle_alpha   90.00000000
_cell_angle_beta   90.00000000
_cell_angle_gamma   90.00000000
_symmetry_Int_Tables_number   1
_chemical_formula_structural   Lu2Sc3Si4
_chemical_formula_sum   'Lu8 Sc12 Si16'
_cell_volume   713.30295168
_cell_formula_units_Z   4
loop_
 _symmetry_equiv_pos_site_id
 _symmetry_equiv_pos_as_xyz
  1  'x, y, z'
loop_
 _atom_site_type_symbol
 _atom_site_label
 _atom_site_symmetry_multiplicity
 _atom_site_fract_x
 _atom_site_fract_y
 _atom_site_fract_z
 _atom_site_occupancy
  Lu  Lu0  1  0.011932  0.175970  0.096502  1
  Lu  Lu1  1  0.988068  0.824030  0.903498  1
  Lu  Lu2  1  0.488068  0.675970  0.903498  1
  Lu  Lu3  1  0.988068  0.824030  0.596502  1
  Lu  Lu4  1  0.511932  0.324030  0.096502  1
  Lu  Lu5  1  0.011932  0.175970  0.403498  1
  Lu  Lu6  1  0.511932  0.324030  0.403498  1
  Lu  Lu7  1  0.488068  0.675970  0.596502  1
  Sc  Sc8  1  0.161011  0.504913  0.750000  1
  Sc  Sc9  1  0.838989  0.495087  0.250000  1
  Sc  Sc10  1  0.338989  0.004913  0.250000  1
  Sc  Sc11  1  0.661011  0.995087  0.750000  1
  Sc  Sc12  1  0.330507  0.177507  0.625021  1
  Sc  Sc13  1  0.669493  0.822493  0.374979  1
  Sc  Sc14  1  0.169493  0.677507  0.374979  1
  Sc  Sc15  1  0.669493  0.822493  0.125021  1
  Sc  Sc16  1  0.830507  0.322493  0.625021  1
  Sc  Sc17  1  0.330507  0.177507  0.874979  1
  Sc  Sc18  1  0.830507  0.322493  0.874979  1
  Sc  Sc19  1  0.169493  0.677507  0.125021  1
  Si  Si20  1  0.032437  0.113756  0.750000  1
  Si  Si21  1  0.967563  0.886244  0.250000  1
  Si  Si22  1  0.467563  0.613756  0.250000  1
  Si  Si23  1  0.532437  0.386244  0.750000  1
  Si  Si24  1  0.285095  0.870536  0.750000  1
  Si  Si25  1  0.714905  0.129464  0.250000  1
  Si  Si26  1  0.214905  0.370536  0.250000  1
  Si  Si27  1  0.785095  0.629464  0.750000  1
  Si  Si28  1  0.159647  0.465772  0.539322  1
  Si  Si29  1  0.840353  0.534228  0.460678  1
  Si  Si30  1  0.340353  0.965772  0.460678  1
  Si  Si31  1  0.840353  0.534228  0.039322  1
  Si  Si32  1  0.659647  0.034228  0.539322  1
  Si  Si33  1  0.159647  0.465772  0.960678  1
  Si  Si34  1  0.659647  0.034228  0.960678  1
  Si  Si35  1  0.340353  0.965772  0.039322  1
