# generated using pymatgen
data_Er6Lu14Bi11Sb
_symmetry_space_group_name_H-M   'P 1'
_cell_length_a   8.11881832
_cell_length_b   9.37490200
_cell_length_c   11.81108100
_cell_angle_alpha   90.00000000
_cell_angle_beta   90.01615383
_cell_angle_gamma   90.00000000
_symmetry_Int_Tables_number   1
_chemical_formula_structural   Er6Lu14Bi11Sb
_chemical_formula_sum   'Er6 Lu14 Bi11 Sb1'
_cell_volume   898.97826217
_cell_formula_units_Z   1
loop_
 _symmetry_equiv_pos_site_id
 _symmetry_equiv_pos_as_xyz
  1  'x, y, z'
loop_
 _atom_site_type_symbol
 _atom_site_label
 _atom_site_symmetry_multiplicity
 _atom_site_fract_x
 _atom_site_fract_y
 _atom_site_fract_z
 _atom_site_occupancy
  Er  Er0  1  0.145638  0.750000  0.781704  1
  Er  Er1  1  0.854260  0.250000  0.217836  1
  Er  Er2  1  0.189484  0.250000  0.779846  1
  Er  Er3  1  0.812247  0.750000  0.217842  1
  Er  Er4  1  0.313469  0.750000  0.282569  1
  Er  Er5  1  0.681743  0.250000  0.714554  1
  Lu  Lu6  1  0.026552  0.250000  0.510981  1
  Lu  Lu7  1  0.977990  0.750000  0.489616  1
  Lu  Lu8  1  0.476402  0.750000  0.011083  1
  Lu  Lu9  1  0.524304  0.250000  0.988725  1
  Lu  Lu10  1  0.355166  0.250000  0.285227  1
  Lu  Lu11  1  0.646380  0.750000  0.718011  1
  Lu  Lu12  1  0.193043  0.067100  0.060251  1
  Lu  Lu13  1  0.807104  0.933404  0.940206  1
  Lu  Lu14  1  0.308690  0.937170  0.559261  1
  Lu  Lu15  1  0.807104  0.566596  0.940206  1
  Lu  Lu16  1  0.689733  0.069145  0.442138  1
  Lu  Lu17  1  0.193043  0.432900  0.060251  1
  Lu  Lu18  1  0.689733  0.430855  0.442138  1
  Lu  Lu19  1  0.308690  0.562830  0.559261  1
  Bi  Bi20  1  0.597277  0.750000  0.458231  1
  Bi  Bi21  1  0.096136  0.750000  0.042905  1
  Bi  Bi22  1  0.904924  0.250000  0.955887  1
  Bi  Bi23  1  0.066190  0.003737  0.326265  1
  Bi  Bi24  1  0.932985  0.996654  0.673876  1
  Bi  Bi25  1  0.434018  0.995372  0.825785  1
  Bi  Bi26  1  0.932985  0.503346  0.673876  1
  Bi  Bi27  1  0.565986  0.004595  0.174423  1
  Bi  Bi28  1  0.066190  0.496263  0.326265  1
  Bi  Bi29  1  0.565986  0.495405  0.174423  1
  Bi  Bi30  1  0.434018  0.504628  0.825785  1
  Sb  Sb31  1  0.402534  0.250000  0.540574  1
