# generated using pymatgen
data_LaEu3(SiPt)4
_symmetry_space_group_name_H-M   'P 1'
_cell_length_a   6.45297633
_cell_length_b   6.45297561
_cell_length_c   6.45297612
_cell_angle_alpha   89.97402282
_cell_angle_beta   89.97402771
_cell_angle_gamma   90.02598164
_symmetry_Int_Tables_number   1
_chemical_formula_structural   LaEu3(SiPt)4
_chemical_formula_sum   'La1 Eu3 Si4 Pt4'
_cell_volume   268.70764292
_cell_formula_units_Z   1
loop_
 _symmetry_equiv_pos_site_id
 _symmetry_equiv_pos_as_xyz
  1  'x, y, z'
loop_
 _atom_site_type_symbol
 _atom_site_label
 _atom_site_symmetry_multiplicity
 _atom_site_fract_x
 _atom_site_fract_y
 _atom_site_fract_z
 _atom_site_occupancy
  La  La0  1  0.382658  0.882658  0.617342  1
  Eu  Eu1  1  0.881241  0.617410  0.379656  1
  Eu  Eu2  1  0.620344  0.381241  0.882590  1
  Eu  Eu3  1  0.117410  0.120344  0.118759  1
  Si  Si4  1  0.669640  0.169640  0.330360  1
  Si  Si5  1  0.169232  0.330510  0.670440  1
  Si  Si6  1  0.329560  0.669232  0.169490  1
  Si  Si7  1  0.830510  0.829560  0.830768  1
  Pt  Pt8  1  0.081712  0.581712  0.918288  1
  Pt  Pt9  1  0.579999  0.918297  0.080607  1
  Pt  Pt10  1  0.919393  0.079999  0.581703  1
  Pt  Pt11  1  0.418297  0.419393  0.420001  1
