# generated using pymatgen
data_HfSc2Ni7Pt2
_symmetry_space_group_name_H-M   'P 1'
_cell_length_a   3.83663400
_cell_length_b   3.83663400
_cell_length_c   11.17948300
_cell_angle_alpha   90.00000000
_cell_angle_beta   90.00000000
_cell_angle_gamma   90.00000000
_symmetry_Int_Tables_number   1
_chemical_formula_structural   HfSc2Ni7Pt2
_chemical_formula_sum   'Hf1 Sc2 Ni7 Pt2'
_cell_volume   164.55931171
_cell_formula_units_Z   1
loop_
 _symmetry_equiv_pos_site_id
 _symmetry_equiv_pos_as_xyz
  1  'x, y, z'
loop_
 _atom_site_type_symbol
 _atom_site_label
 _atom_site_symmetry_multiplicity
 _atom_site_fract_x
 _atom_site_fract_y
 _atom_site_fract_z
 _atom_site_occupancy
  Hf  Hf0  1  0.000000  0.000000  0.000000  1
  Sc  Sc1  1  0.000000  0.000000  0.331305  1
  Sc  Sc2  1  0.000000  0.000000  0.668695  1
  Ni  Ni3  1  0.500000  0.500000  0.000000  1
  Ni  Ni4  1  0.500000  0.000000  0.159125  1
  Ni  Ni5  1  0.500000  0.000000  0.500000  1
  Ni  Ni6  1  0.500000  0.000000  0.840875  1
  Ni  Ni7  1  0.000000  0.500000  0.159125  1
  Ni  Ni8  1  0.000000  0.500000  0.500000  1
  Ni  Ni9  1  0.000000  0.500000  0.840875  1
  Pt  Pt10  1  0.500000  0.500000  0.328913  1
  Pt  Pt11  1  0.500000  0.500000  0.671087  1
