# generated using pymatgen
data_HoTm13Lu6(CoSb2)4
_symmetry_space_group_name_H-M   'P 1'
_cell_length_a   7.72047044
_cell_length_b   8.72464426
_cell_length_c   12.02701153
_cell_angle_alpha   89.97191492
_cell_angle_beta   90.00963536
_cell_angle_gamma   90.00139189
_symmetry_Int_Tables_number   1
_chemical_formula_structural   HoTm13Lu6(CoSb2)4
_chemical_formula_sum   'Ho1 Tm13 Lu6 Co4 Sb8'
_cell_volume   810.11964103
_cell_formula_units_Z   1
loop_
 _symmetry_equiv_pos_site_id
 _symmetry_equiv_pos_as_xyz
  1  'x, y, z'
loop_
 _atom_site_type_symbol
 _atom_site_label
 _atom_site_symmetry_multiplicity
 _atom_site_fract_x
 _atom_site_fract_y
 _atom_site_fract_z
 _atom_site_occupancy
  Ho  Ho0  1  0.877209  0.749793  0.807713  1
  Tm  Tm1  1  0.156561  0.749844  0.204173  1
  Tm  Tm2  1  0.656567  0.250154  0.295894  1
  Tm  Tm3  1  0.843555  0.250053  0.795644  1
  Tm  Tm4  1  0.343844  0.749952  0.704163  1
  Tm  Tm5  1  0.449331  0.749878  0.997826  1
  Tm  Tm6  1  0.949494  0.250119  0.502010  1
  Tm  Tm7  1  0.549795  0.250203  0.002195  1
  Tm  Tm8  1  0.050285  0.749782  0.497882  1
  Tm  Tm9  1  0.622173  0.749913  0.308722  1
  Tm  Tm10  1  0.122274  0.250089  0.191467  1
  Tm  Tm11  1  0.378121  0.250187  0.691299  1
  Tm  Tm12  1  0.823759  0.963178  0.065772  1
  Tm  Tm13  1  0.323668  0.037258  0.434623  1
  Lu  Lu14  1  0.175601  0.461778  0.935007  1
  Lu  Lu15  1  0.675183  0.537381  0.565142  1
  Lu  Lu16  1  0.175855  0.038188  0.934925  1
  Lu  Lu17  1  0.675481  0.962677  0.565220  1
  Lu  Lu18  1  0.824756  0.536875  0.065669  1
  Lu  Lu19  1  0.324692  0.462692  0.434750  1
  Co  Co20  1  0.432158  0.749701  0.490771  1
  Co  Co21  1  0.932093  0.250301  0.009324  1
  Co  Co22  1  0.568784  0.250357  0.509292  1
  Co  Co23  1  0.069019  0.749643  0.990899  1
  Sb  Sb24  1  0.931214  0.991511  0.327545  1
  Sb  Sb25  1  0.431204  0.008427  0.172484  1
  Sb  Sb26  1  0.069353  0.491084  0.672192  1
  Sb  Sb27  1  0.567765  0.507914  0.827580  1
  Sb  Sb28  1  0.069425  0.008914  0.672214  1
  Sb  Sb29  1  0.567841  0.992086  0.827570  1
  Sb  Sb30  1  0.931474  0.508444  0.327545  1
  Sb  Sb31  1  0.431464  0.491623  0.172488  1
