# generated using pymatgen
data_TmU3(NbN2)4
_symmetry_space_group_name_H-M   'P 1'
_cell_length_a   3.25933600
_cell_length_b   5.68543869
_cell_length_c   10.93145126
_cell_angle_alpha   90.11198375
_cell_angle_beta   90.00000000
_cell_angle_gamma   90.00000000
_symmetry_Int_Tables_number   1
_chemical_formula_structural   TmU3(NbN2)4
_chemical_formula_sum   'Tm1 U3 Nb4 N8'
_cell_volume   202.56765831
_cell_formula_units_Z   1
loop_
 _symmetry_equiv_pos_site_id
 _symmetry_equiv_pos_as_xyz
  1  'x, y, z'
loop_
 _atom_site_type_symbol
 _atom_site_label
 _atom_site_symmetry_multiplicity
 _atom_site_fract_x
 _atom_site_fract_y
 _atom_site_fract_z
 _atom_site_occupancy
  Tm  Tm0  1  0.250000  0.577644  0.855041  1
  U  U1  1  0.750000  0.425352  0.139726  1
  U  U2  1  0.750000  0.923517  0.355795  1
  U  U3  1  0.250000  0.078967  0.645983  1
  Nb  Nb4  1  0.250000  0.922368  0.098827  1
  Nb  Nb5  1  0.750000  0.073189  0.903349  1
  Nb  Nb6  1  0.750000  0.577122  0.601178  1
  Nb  Nb7  1  0.250000  0.424290  0.400450  1
  N  N8  1  0.250000  0.659351  0.244695  1
  N  N9  1  0.750000  0.335756  0.753762  1
  N  N10  1  0.750000  0.843654  0.744019  1
  N  N11  1  0.250000  0.159913  0.255435  1
  N  N12  1  0.250000  0.766606  0.504617  1
  N  N13  1  0.750000  0.233052  0.496795  1
  N  N14  1  0.750000  0.730333  0.002373  1
  N  N15  1  0.250000  0.268884  0.997954  1
