# generated using pymatgen
data_Tm4Co4HgI
_symmetry_space_group_name_H-M   'P 1'
_cell_length_a   3.88452500
_cell_length_b   3.88452533
_cell_length_c   16.39189200
_cell_angle_alpha   90.00000000
_cell_angle_beta   90.00000000
_cell_angle_gamma   119.99998868
_symmetry_Int_Tables_number   1
_chemical_formula_structural   Tm4Co4HgI
_chemical_formula_sum   'Tm4 Co4 Hg1 I1'
_cell_volume   214.20797893
_cell_formula_units_Z   1
loop_
 _symmetry_equiv_pos_site_id
 _symmetry_equiv_pos_as_xyz
  1  'x, y, z'
loop_
 _atom_site_type_symbol
 _atom_site_label
 _atom_site_symmetry_multiplicity
 _atom_site_fract_x
 _atom_site_fract_y
 _atom_site_fract_z
 _atom_site_occupancy
  Tm  Tm0  1  0.000000  0.000000  0.113703  1
  Tm  Tm1  1  0.000000  0.000000  0.898832  1
  Tm  Tm2  1  0.000000  0.000000  0.601168  1
  Tm  Tm3  1  0.000000  0.000000  0.386297  1
  Co  Co4  1  0.333333  0.666667  0.498010  1
  Co  Co5  1  0.666667  0.333333  0.496702  1
  Co  Co6  1  0.666667  0.333333  0.003298  1
  Co  Co7  1  0.333333  0.666667  0.001990  1
  Hg  Hg8  1  0.333333  0.666667  0.250000  1
  I  I9  1  0.666667  0.333333  0.750000  1
