# generated using pymatgen
data_KLi(AsPd)2
_symmetry_space_group_name_H-M   'P 1'
_cell_length_a   4.32642600
_cell_length_b   4.32642615
_cell_length_c   7.83261100
_cell_angle_alpha   90.00000000
_cell_angle_beta   90.00000000
_cell_angle_gamma   119.99999883
_symmetry_Int_Tables_number   1
_chemical_formula_structural   KLi(AsPd)2
_chemical_formula_sum   'K1 Li1 As2 Pd2'
_cell_volume   126.96843603
_cell_formula_units_Z   1
loop_
 _symmetry_equiv_pos_site_id
 _symmetry_equiv_pos_as_xyz
  1  'x, y, z'
loop_
 _atom_site_type_symbol
 _atom_site_label
 _atom_site_symmetry_multiplicity
 _atom_site_fract_x
 _atom_site_fract_y
 _atom_site_fract_z
 _atom_site_occupancy
  K  K0  1  0.000000  0.000000  0.000000  1
  Li  Li1  1  0.000000  0.000000  0.500000  1
  As  As2  1  0.333333  0.666667  0.691035  1
  As  As3  1  0.666667  0.333333  0.308965  1
  Pd  Pd4  1  0.333333  0.666667  0.363127  1
  Pd  Pd5  1  0.666667  0.333333  0.636873  1
