# generated using pymatgen
data_Y2TmZr(Al3Rh)6
_symmetry_space_group_name_H-M   'P 1'
_cell_length_a   7.53316077
_cell_length_b   7.51847710
_cell_length_c   9.41093700
_cell_angle_alpha   90.00000000
_cell_angle_beta   90.00000000
_cell_angle_gamma   119.47480321
_symmetry_Int_Tables_number   1
_chemical_formula_structural   Y2TmZr(Al3Rh)6
_chemical_formula_sum   'Y2 Tm1 Zr1 Al18 Rh6'
_cell_volume   464.02861185
_cell_formula_units_Z   1
loop_
 _symmetry_equiv_pos_site_id
 _symmetry_equiv_pos_as_xyz
  1  'x, y, z'
loop_
 _atom_site_type_symbol
 _atom_site_label
 _atom_site_symmetry_multiplicity
 _atom_site_fract_x
 _atom_site_fract_y
 _atom_site_fract_z
 _atom_site_occupancy
  Y  Y0  1  0.006114  0.327328  0.750000  1
  Y  Y1  1  0.328443  0.006529  0.750000  1
  Tm  Tm2  1  0.672339  0.995876  0.250000  1
  Zr  Zr3  1  0.996255  0.672179  0.250000  1
  Al  Al4  1  0.123824  0.121520  0.250000  1
  Al  Al5  1  0.870436  0.869275  0.750000  1
  Al  Al6  1  0.999603  0.338351  0.080655  1
  Al  Al7  1  0.999164  0.664811  0.929482  1
  Al  Al8  1  0.999164  0.664811  0.570518  1
  Al  Al9  1  0.332663  0.997369  0.419273  1
  Al  Al10  1  0.999603  0.338351  0.419345  1
  Al  Al11  1  0.664290  0.998038  0.573819  1
  Al  Al12  1  0.664290  0.998038  0.926181  1
  Al  Al13  1  0.332663  0.997369  0.080727  1
  Al  Al14  1  0.334025  0.334100  0.546641  1
  Al  Al15  1  0.669848  0.667889  0.443190  1
  Al  Al16  1  0.669848  0.667889  0.056810  1
  Al  Al17  1  0.334025  0.334100  0.953359  1
  Al  Al18  1  0.336614  0.552459  0.250000  1
  Al  Al19  1  0.660714  0.451079  0.750000  1
  Al  Al20  1  0.557322  0.344100  0.250000  1
  Al  Al21  1  0.449777  0.659066  0.750000  1
  Rh  Rh22  1  0.672842  0.328319  0.001829  1
  Rh  Rh23  1  0.328168  0.672879  0.002320  1
  Rh  Rh24  1  0.328168  0.672879  0.497680  1
  Rh  Rh25  1  0.672842  0.328319  0.498171  1
  Rh  Rh26  1  0.998479  0.998538  0.002106  1
  Rh  Rh27  1  0.998479  0.998538  0.497894  1
