# generated using pymatgen
data_Ca3ThPa6O20
_symmetry_space_group_name_H-M   'P 1'
_cell_length_a   10.14224410
_cell_length_b   10.14224539
_cell_length_c   6.66213700
_cell_angle_alpha   83.58831373
_cell_angle_beta   83.58831291
_cell_angle_gamma   141.39897292
_symmetry_Int_Tables_number   1
_chemical_formula_structural   Ca3ThPa6O20
_chemical_formula_sum   'Ca3 Th1 Pa6 O20'
_cell_volume   402.41292661
_cell_formula_units_Z   1
loop_
 _symmetry_equiv_pos_site_id
 _symmetry_equiv_pos_as_xyz
  1  'x, y, z'
loop_
 _atom_site_type_symbol
 _atom_site_label
 _atom_site_symmetry_multiplicity
 _atom_site_fract_x
 _atom_site_fract_y
 _atom_site_fract_z
 _atom_site_occupancy
  Ca  Ca0  1  0.500000  0.500000  0.000000  1
  Ca  Ca1  1  0.202503  0.797497  0.500000  1
  Ca  Ca2  1  0.797497  0.202503  0.500000  1
  Th  Th3  1  0.000000  0.000000  0.500000  1
  Pa  Pa4  1  0.899990  0.100010  0.000000  1
  Pa  Pa5  1  0.398671  0.601329  0.500000  1
  Pa  Pa6  1  0.100010  0.899990  0.000000  1
  Pa  Pa7  1  0.698602  0.301398  0.000000  1
  Pa  Pa8  1  0.601329  0.398671  0.500000  1
  Pa  Pa9  1  0.301398  0.698602  0.000000  1
  O  O10  1  0.266105  0.469525  0.876405  1
  O  O11  1  0.886114  0.886114  0.879280  1
  O  O12  1  0.767167  0.967369  0.363624  1
  O  O13  1  0.032631  0.232833  0.636376  1
  O  O14  1  0.469525  0.266105  0.876405  1
  O  O15  1  0.379044  0.379044  0.386727  1
  O  O16  1  0.620956  0.620956  0.613273  1
  O  O17  1  0.067587  0.668889  0.895652  1
  O  O18  1  0.530475  0.733895  0.123595  1
  O  O19  1  0.967369  0.767167  0.363624  1
  O  O20  1  0.232833  0.032631  0.636376  1
  O  O21  1  0.668889  0.067587  0.895652  1
  O  O22  1  0.113886  0.113886  0.120720  1
  O  O23  1  0.582972  0.194457  0.355989  1
  O  O24  1  0.805543  0.417028  0.644011  1
  O  O25  1  0.417028  0.805543  0.644011  1
  O  O26  1  0.733895  0.530475  0.123595  1
  O  O27  1  0.194457  0.582972  0.355989  1
  O  O28  1  0.331111  0.932413  0.104348  1
  O  O29  1  0.932413  0.331111  0.104348  1
