# generated using pymatgen
data_Yb3Se3O10
_symmetry_space_group_name_H-M   'P 1'
_cell_length_a   5.47044700
_cell_length_b   8.42538151
_cell_length_c   11.11809819
_cell_angle_alpha   71.47711609
_cell_angle_beta   90.00000000
_cell_angle_gamma   90.00000000
_symmetry_Int_Tables_number   1
_chemical_formula_structural   Yb3Se3O10
_chemical_formula_sum   'Yb6 Se6 O20'
_cell_volume   485.89385024
_cell_formula_units_Z   2
loop_
 _symmetry_equiv_pos_site_id
 _symmetry_equiv_pos_as_xyz
  1  'x, y, z'
loop_
 _atom_site_type_symbol
 _atom_site_label
 _atom_site_symmetry_multiplicity
 _atom_site_fract_x
 _atom_site_fract_y
 _atom_site_fract_z
 _atom_site_occupancy
  Yb  Yb0  1  0.728650  0.005553  0.868072  1
  Yb  Yb1  1  0.228650  0.994447  0.131928  1
  Yb  Yb2  1  0.771061  0.967792  0.388595  1
  Yb  Yb3  1  0.271061  0.032208  0.611405  1
  Yb  Yb4  1  0.247456  0.334981  0.798143  1
  Yb  Yb5  1  0.747456  0.665019  0.201857  1
  Se  Se6  1  0.746164  0.243934  0.042960  1
  Se  Se7  1  0.246164  0.756066  0.957040  1
  Se  Se8  1  0.746585  0.269588  0.580140  1
  Se  Se9  1  0.246585  0.730412  0.419860  1
  Se  Se10  1  0.743118  0.657179  0.714865  1
  Se  Se11  1  0.243118  0.342821  0.285135  1
  O  O12  1  0.825272  0.078809  0.174206  1
  O  O13  1  0.325272  0.921191  0.825794  1
  O  O14  1  0.658533  0.113028  0.520570  1
  O  O15  1  0.158533  0.886972  0.479430  1
  O  O16  1  0.978123  0.176436  0.686949  1
  O  O17  1  0.478123  0.823564  0.313051  1
  O  O18  1  0.502145  0.164281  0.977849  1
  O  O19  1  0.002145  0.835719  0.022151  1
  O  O20  1  0.974906  0.205481  0.947625  1
  O  O21  1  0.474906  0.794519  0.052375  1
  O  O22  1  0.511773  0.229712  0.691241  1
  O  O23  1  0.011773  0.770288  0.308759  1
  O  O24  1  0.970834  0.535629  0.695322  1
  O  O25  1  0.470834  0.464371  0.304678  1
  O  O26  1  0.528974  0.539732  0.810358  1
  O  O27  1  0.028974  0.460268  0.189642  1
  O  O28  1  0.618714  0.757581  0.573711  1
  O  O29  1  0.118714  0.242419  0.426289  1
  O  O30  1  0.854230  0.798675  0.777347  1
  O  O31  1  0.354230  0.201325  0.222653  1
