# generated using pymatgen
data_Tm5B4P8Ir19
_symmetry_space_group_name_H-M   'P 1'
_cell_length_a   12.40172961
_cell_length_b   12.37001040
_cell_length_c   3.95026100
_cell_angle_alpha   90.00000000
_cell_angle_beta   90.00000000
_cell_angle_gamma   119.68444101
_symmetry_Int_Tables_number   1
_chemical_formula_structural   Tm5B4P8Ir19
_chemical_formula_sum   'Tm5 B4 P8 Ir19'
_cell_volume   526.47886759
_cell_formula_units_Z   1
loop_
 _symmetry_equiv_pos_site_id
 _symmetry_equiv_pos_as_xyz
  1  'x, y, z'
loop_
 _atom_site_type_symbol
 _atom_site_label
 _atom_site_symmetry_multiplicity
 _atom_site_fract_x
 _atom_site_fract_y
 _atom_site_fract_z
 _atom_site_occupancy
  Tm  Tm0  1  0.332838  0.666512  0.500000  1
  Tm  Tm1  1  0.675369  0.331243  0.500000  1
  Tm  Tm2  1  0.181830  0.187374  0.000000  1
  Tm  Tm3  1  0.814922  0.002564  0.000000  1
  Tm  Tm4  1  0.002319  0.816390  0.000000  1
  B  B5  1  0.305652  0.816158  0.000000  1
  B  B6  1  0.178409  0.487367  0.000000  1
  B  B7  1  0.510289  0.692224  0.000000  1
  B  B8  1  0.824083  0.304017  0.000000  1
  P  P9  1  0.486499  0.173528  0.000000  1
  P  P10  1  0.692421  0.513958  0.000000  1
  P  P11  1  0.358390  0.363681  0.500000  1
  P  P12  1  0.640092  0.000611  0.500000  1
  P  P13  1  0.005686  0.640061  0.500000  1
  P  P14  1  0.817213  0.820519  0.500000  1
  P  P15  1  0.179605  0.998208  0.500000  1
  P  P16  1  0.002037  0.185440  0.500000  1
  Ir  Ir17  1  0.199215  0.817449  0.500000  1
  Ir  Ir18  1  0.181911  0.381967  0.500000  1
  Ir  Ir19  1  0.619310  0.803696  0.500000  1
  Ir  Ir20  1  0.821521  0.200402  0.500000  1
  Ir  Ir21  1  0.375103  0.181251  0.500000  1
  Ir  Ir22  1  0.807706  0.623904  0.500000  1
  Ir  Ir23  1  0.135955  0.637492  0.000000  1
  Ir  Ir24  1  0.359850  0.501061  0.000000  1
  Ir  Ir25  1  0.497026  0.858959  0.000000  1
  Ir  Ir26  1  0.643765  0.131340  0.000000  1
  Ir  Ir27  1  0.491249  0.363173  0.000000  1
  Ir  Ir28  1  0.868877  0.497674  0.000000  1
  Ir  Ir29  1  0.539211  0.548620  0.500000  1
  Ir  Ir30  1  0.453787  0.994773  0.500000  1
  Ir  Ir31  1  0.003037  0.455659  0.500000  1
  Ir  Ir32  1  0.701604  0.707737  0.000000  1
  Ir  Ir33  1  0.291917  0.993731  0.000000  1
  Ir  Ir34  1  0.001965  0.300171  0.000000  1
  Ir  Ir35  1  0.999336  0.001088  0.500000  1
