# generated using pymatgen
data_CeSb3F18
_symmetry_space_group_name_H-M   'P 1'
_cell_length_a   9.73042800
_cell_length_b   9.73042814
_cell_length_c   8.87579500
_cell_angle_alpha   90.00000000
_cell_angle_beta   90.00000000
_cell_angle_gamma   119.99999952
_symmetry_Int_Tables_number   1
_chemical_formula_structural   CeSb3F18
_chemical_formula_sum   'Ce2 Sb6 F36'
_cell_volume   727.78280408
_cell_formula_units_Z   2
loop_
 _symmetry_equiv_pos_site_id
 _symmetry_equiv_pos_as_xyz
  1  'x, y, z'
loop_
 _atom_site_type_symbol
 _atom_site_label
 _atom_site_symmetry_multiplicity
 _atom_site_fract_x
 _atom_site_fract_y
 _atom_site_fract_z
 _atom_site_occupancy
  Ce  Ce0  1  0.333333  0.666667  0.576170  1
  Ce  Ce1  1  0.666667  0.333333  0.423830  1
  Sb  Sb2  1  0.981119  0.342988  0.769275  1
  Sb  Sb3  1  0.361869  0.018881  0.769275  1
  Sb  Sb4  1  0.657012  0.638131  0.769275  1
  Sb  Sb5  1  0.018881  0.657012  0.230725  1
  Sb  Sb6  1  0.638131  0.981119  0.230725  1
  Sb  Sb7  1  0.342988  0.361869  0.230725  1
  F  F8  1  0.479028  0.866811  0.393284  1
  F  F9  1  0.387783  0.520972  0.393284  1
  F  F10  1  0.133189  0.612217  0.393284  1
  F  F11  1  0.520972  0.133189  0.606716  1
  F  F12  1  0.612217  0.479028  0.606716  1
  F  F13  1  0.866811  0.387783  0.606716  1
  F  F14  1  0.106109  0.311142  0.910778  1
  F  F15  1  0.205033  0.893891  0.910778  1
  F  F16  1  0.688858  0.794967  0.910778  1
  F  F17  1  0.893891  0.688858  0.089222  1
  F  F18  1  0.794967  0.106109  0.089222  1
  F  F19  1  0.311142  0.205033  0.089222  1
  F  F20  1  0.854546  0.375697  0.908084  1
  F  F21  1  0.521153  0.145454  0.908084  1
  F  F22  1  0.624303  0.478847  0.908084  1
  F  F23  1  0.145454  0.624303  0.091916  1
  F  F24  1  0.478847  0.854546  0.091916  1
  F  F25  1  0.375697  0.521153  0.091916  1
  F  F26  1  0.239908  0.872430  0.605867  1
  F  F27  1  0.632521  0.760092  0.605867  1
  F  F28  1  0.127570  0.367479  0.605867  1
  F  F29  1  0.760092  0.127570  0.394133  1
  F  F30  1  0.367479  0.239908  0.394133  1
  F  F31  1  0.872430  0.632521  0.394133  1
  F  F32  1  0.843577  0.125769  0.730328  1
  F  F33  1  0.282192  0.156423  0.730328  1
  F  F34  1  0.874231  0.717808  0.730328  1
  F  F35  1  0.156423  0.874231  0.269672  1
  F  F36  1  0.717808  0.843577  0.269672  1
  F  F37  1  0.125769  0.282192  0.269672  1
  F  F38  1  0.127279  0.575889  0.765900  1
  F  F39  1  0.448610  0.872721  0.765900  1
  F  F40  1  0.424111  0.551390  0.765900  1
  F  F41  1  0.872721  0.424111  0.234100  1
  F  F42  1  0.551390  0.127279  0.234100  1
  F  F43  1  0.575889  0.448610  0.234100  1
