# generated using pymatgen
data_Ho10Hg5Pt4Pb3
_symmetry_space_group_name_H-M   'P 1'
_cell_length_a   3.57183400
_cell_length_b   8.08244421
_cell_length_c   18.24729600
_cell_angle_alpha   90.23016359
_cell_angle_beta   90.00000000
_cell_angle_gamma   90.00000000
_symmetry_Int_Tables_number   1
_chemical_formula_structural   Ho10Hg5Pt4Pb3
_chemical_formula_sum   'Ho10 Hg5 Pt4 Pb3'
_cell_volume   526.77965751
_cell_formula_units_Z   1
loop_
 _symmetry_equiv_pos_site_id
 _symmetry_equiv_pos_as_xyz
  1  'x, y, z'
loop_
 _atom_site_type_symbol
 _atom_site_label
 _atom_site_symmetry_multiplicity
 _atom_site_fract_x
 _atom_site_fract_y
 _atom_site_fract_z
 _atom_site_occupancy
  Ho  Ho0  1  0.000000  0.105482  0.413584  1
  Ho  Ho1  1  0.000000  0.893549  0.584968  1
  Ho  Ho2  1  0.000000  0.397621  0.916377  1
  Ho  Ho3  1  0.000000  0.613692  0.086544  1
  Ho  Ho4  1  0.000000  0.233139  0.213080  1
  Ho  Ho5  1  0.000000  0.754684  0.783684  1
  Ho  Ho6  1  0.000000  0.252587  0.718006  1
  Ho  Ho7  1  0.000000  0.749541  0.277619  1
  Ho  Ho8  1  0.000000  0.003376  0.006562  1
  Ho  Ho9  1  0.000000  0.498918  0.499398  1
  Hg  Hg10  1  0.500000  0.920575  0.143299  1
  Hg  Hg11  1  0.500000  0.293018  0.062963  1
  Hg  Hg12  1  0.500000  0.711913  0.939683  1
  Hg  Hg13  1  0.500000  0.208194  0.561632  1
  Hg  Hg14  1  0.500000  0.790283  0.437251  1
  Pt  Pt15  1  0.500000  0.027365  0.301204  1
  Pt  Pt16  1  0.500000  0.971709  0.697294  1
  Pt  Pt17  1  0.500000  0.473209  0.803507  1
  Pt  Pt18  1  0.500000  0.522548  0.197099  1
  Pb  Pb19  1  0.500000  0.423543  0.353305  1
  Pb  Pb20  1  0.500000  0.577314  0.646262  1
  Pb  Pb21  1  0.500000  0.077740  0.856680  1
