# generated using pymatgen
data_Ho19Lu(IrPt2)4
_symmetry_space_group_name_H-M   'P 1'
_cell_length_a   11.01865100
_cell_length_b   11.01865100
_cell_length_c   6.29969900
_cell_angle_alpha   90.00000000
_cell_angle_beta   90.00000000
_cell_angle_gamma   90.00000000
_symmetry_Int_Tables_number   1
_chemical_formula_structural   Ho19Lu(IrPt2)4
_chemical_formula_sum   'Ho19 Lu1 Ir4 Pt8'
_cell_volume   764.85067551
_cell_formula_units_Z   1
loop_
 _symmetry_equiv_pos_site_id
 _symmetry_equiv_pos_as_xyz
  1  'x, y, z'
loop_
 _atom_site_type_symbol
 _atom_site_label
 _atom_site_symmetry_multiplicity
 _atom_site_fract_x
 _atom_site_fract_y
 _atom_site_fract_z
 _atom_site_occupancy
  Ho  Ho0  1  0.294215  0.087390  0.374700  1
  Ho  Ho1  1  0.294401  0.912531  0.874536  1
  Ho  Ho2  1  0.705599  0.087469  0.874536  1
  Ho  Ho3  1  0.705785  0.912610  0.374700  1
  Ho  Ho4  1  0.587470  0.794524  0.874549  1
  Ho  Ho5  1  0.587473  0.205451  0.374441  1
  Ho  Ho6  1  0.412527  0.794549  0.374441  1
  Ho  Ho7  1  0.412530  0.205476  0.874549  1
  Ho  Ho8  1  0.205451  0.412527  0.625559  1
  Ho  Ho9  1  0.205476  0.587470  0.125451  1
  Ho  Ho10  1  0.794524  0.412530  0.125451  1
  Ho  Ho11  1  0.794549  0.587473  0.625559  1
  Ho  Ho12  1  0.912531  0.705599  0.125464  1
  Ho  Ho13  1  0.912610  0.294215  0.625300  1
  Ho  Ho14  1  0.087390  0.705785  0.625300  1
  Ho  Ho15  1  0.087469  0.294401  0.125464  1
  Ho  Ho16  1  0.000000  0.000000  0.000000  1
  Ho  Ho17  1  0.500000  0.500000  0.000000  1
  Ho  Ho18  1  0.500000  0.500000  0.500000  1
  Lu  Lu19  1  0.000000  0.000000  0.500000  1
  Ir  Ir20  1  0.500000  0.000000  0.120757  1
  Ir  Ir21  1  0.500000  0.000000  0.620548  1
  Ir  Ir22  1  0.000000  0.500000  0.879243  1
  Ir  Ir23  1  0.000000  0.500000  0.379452  1
  Pt  Pt24  1  0.846808  0.153271  0.250909  1
  Pt  Pt25  1  0.846729  0.846808  0.749091  1
  Pt  Pt26  1  0.153271  0.153192  0.749091  1
  Pt  Pt27  1  0.153192  0.846729  0.250909  1
  Pt  Pt28  1  0.653730  0.346237  0.749903  1
  Pt  Pt29  1  0.653763  0.653730  0.250097  1
  Pt  Pt30  1  0.346237  0.346270  0.250097  1
  Pt  Pt31  1  0.346270  0.653763  0.749903  1
