# generated using pymatgen
data_Tm6NbCo17(SiP2)4
_symmetry_space_group_name_H-M   'P 1'
_cell_length_a   3.69711400
_cell_length_b   10.59741100
_cell_length_c   12.27690500
_cell_angle_alpha   90.00000000
_cell_angle_beta   90.00000000
_cell_angle_gamma   90.00000000
_symmetry_Int_Tables_number   1
_chemical_formula_structural   Tm6NbCo17(SiP2)4
_chemical_formula_sum   'Tm6 Nb1 Co17 Si4 P8'
_cell_volume   481.00713151
_cell_formula_units_Z   1
loop_
 _symmetry_equiv_pos_site_id
 _symmetry_equiv_pos_as_xyz
  1  'x, y, z'
loop_
 _atom_site_type_symbol
 _atom_site_label
 _atom_site_symmetry_multiplicity
 _atom_site_fract_x
 _atom_site_fract_y
 _atom_site_fract_z
 _atom_site_occupancy
  Tm  Tm0  1  0.000000  0.500000  0.527150  1
  Tm  Tm1  1  0.500000  0.000000  0.473691  1
  Tm  Tm2  1  0.500000  0.819119  0.206415  1
  Tm  Tm3  1  0.500000  0.180881  0.206415  1
  Tm  Tm4  1  0.000000  0.681491  0.799104  1
  Tm  Tm5  1  0.000000  0.318509  0.799104  1
  Nb  Nb6  1  0.500000  0.500000  0.153960  1
  Co  Co7  1  0.000000  0.000000  0.834525  1
  Co  Co8  1  0.500000  0.500000  0.703215  1
  Co  Co9  1  0.000000  0.000000  0.300311  1
  Co  Co10  1  0.000000  0.500000  0.984960  1
  Co  Co11  1  0.500000  0.000000  0.026427  1
  Co  Co12  1  0.500000  0.329558  0.990650  1
  Co  Co13  1  0.500000  0.670442  0.990650  1
  Co  Co14  1  0.000000  0.162293  0.008284  1
  Co  Co15  1  0.000000  0.837707  0.008284  1
  Co  Co16  1  0.500000  0.294389  0.429021  1
  Co  Co17  1  0.500000  0.705611  0.429021  1
  Co  Co18  1  0.000000  0.196193  0.566398  1
  Co  Co19  1  0.000000  0.803807  0.566398  1
  Co  Co20  1  0.500000  0.883651  0.703447  1
  Co  Co21  1  0.500000  0.116349  0.703447  1
  Co  Co22  1  0.000000  0.622527  0.294918  1
  Co  Co23  1  0.000000  0.377473  0.294918  1
  Si  Si24  1  0.500000  0.308070  0.616677  1
  Si  Si25  1  0.500000  0.691930  0.616677  1
  Si  Si26  1  0.500000  0.859126  0.889989  1
  Si  Si27  1  0.500000  0.140874  0.889989  1
  P  P28  1  0.500000  0.500000  0.882383  1
  P  P29  1  0.000000  0.000000  0.121317  1
  P  P30  1  0.500000  0.500000  0.355574  1
  P  P31  1  0.000000  0.000000  0.652491  1
  P  P32  1  0.000000  0.189424  0.384522  1
  P  P33  1  0.000000  0.810576  0.384522  1
  P  P34  1  0.000000  0.661657  0.102573  1
  P  P35  1  0.000000  0.338343  0.102573  1
