# generated using pymatgen
data_YbHf7(Si4Ru3)4
_symmetry_space_group_name_H-M   'P 1'
_cell_length_a   9.92416442
_cell_length_b   9.93364753
_cell_length_c   13.35515252
_cell_angle_alpha   53.91539261
_cell_angle_beta   53.82925232
_cell_angle_gamma   31.30215080
_symmetry_Int_Tables_number   1
_chemical_formula_structural   YbHf7(Si4Ru3)4
_chemical_formula_sum   'Yb1 Hf7 Si16 Ru12'
_cell_volume   540.82133130
_cell_formula_units_Z   1
loop_
 _symmetry_equiv_pos_site_id
 _symmetry_equiv_pos_as_xyz
  1  'x, y, z'
loop_
 _atom_site_type_symbol
 _atom_site_label
 _atom_site_symmetry_multiplicity
 _atom_site_fract_x
 _atom_site_fract_y
 _atom_site_fract_z
 _atom_site_occupancy
  Yb  Yb0  1  0.301274  0.562268  0.639471  1
  Hf  Hf1  1  0.444499  0.702740  0.853308  1
  Hf  Hf2  1  0.711180  0.439149  0.349636  1
  Hf  Hf3  1  0.553897  0.296509  0.150242  1
  Hf  Hf4  1  0.037076  0.295216  0.636735  1
  Hf  Hf5  1  0.705896  0.960467  0.863685  1
  Hf  Hf6  1  0.963011  0.705256  0.362528  1
  Hf  Hf7  1  0.294834  0.038787  0.135976  1
  Si  Si8  1  0.872336  0.126305  0.249615  1
  Si  Si9  1  0.123113  0.877512  0.750758  1
  Si  Si10  1  0.381198  0.614225  0.251096  1
  Si  Si11  1  0.622065  0.380013  0.751686  1
  Si  Si12  1  0.970271  0.255822  0.894871  1
  Si  Si13  1  0.744726  0.025119  0.607971  1
  Si  Si14  1  0.027609  0.745235  0.107531  1
  Si  Si15  1  0.250726  0.976883  0.391076  1
  Si  Si16  1  0.574604  0.082480  0.066159  1
  Si  Si17  1  0.911783  0.430178  0.436086  1
  Si  Si18  1  0.424855  0.919436  0.933740  1
  Si  Si19  1  0.085246  0.570631  0.565447  1
  Si  Si20  1  0.387814  0.142160  0.396969  1
  Si  Si21  1  0.857797  0.612162  0.103348  1
  Si  Si22  1  0.613749  0.855130  0.603562  1
  Si  Si23  1  0.144830  0.388082  0.894557  1
  Ru  Ru24  1  0.647813  0.827155  0.281491  1
  Ru  Ru25  1  0.171824  0.351696  0.218971  1
  Ru  Ru26  1  0.757135  0.485092  0.070500  1
  Ru  Ru27  1  0.827173  0.647641  0.782997  1
  Ru  Ru28  1  0.899703  0.144371  0.583881  1
  Ru  Ru29  1  0.862522  0.095050  0.917692  1
  Ru  Ru30  1  0.096637  0.863444  0.410764  1
  Ru  Ru31  1  0.139683  0.903899  0.083061  1
  Ru  Ru32  1  0.242866  0.514794  0.931927  1
  Ru  Ru33  1  0.481307  0.764855  0.569269  1
  Ru  Ru34  1  0.520738  0.233723  0.433584  1
  Ru  Ru35  1  0.348210  0.166516  0.719810  1
