# generated using pymatgen
data_CsAc(BH4)3
_symmetry_space_group_name_H-M   'P 1'
_cell_length_a   6.12431600
_cell_length_b   8.65043700
_cell_length_c   8.30231000
_cell_angle_alpha   90.00000000
_cell_angle_beta   90.00000000
_cell_angle_gamma   90.00000000
_symmetry_Int_Tables_number   1
_chemical_formula_structural   CsAc(BH4)3
_chemical_formula_sum   'Cs2 Ac2 B6 H24'
_cell_volume   439.83985993
_cell_formula_units_Z   2
loop_
 _symmetry_equiv_pos_site_id
 _symmetry_equiv_pos_as_xyz
  1  'x, y, z'
loop_
 _atom_site_type_symbol
 _atom_site_label
 _atom_site_symmetry_multiplicity
 _atom_site_fract_x
 _atom_site_fract_y
 _atom_site_fract_z
 _atom_site_occupancy
  Cs  Cs0  1  0.470291  0.500000  0.000000  1
  Cs  Cs1  1  0.529709  0.000000  0.500000  1
  Ac  Ac2  1  0.955604  0.500000  0.500000  1
  Ac  Ac3  1  0.044396  0.000000  0.000000  1
  B  B4  1  0.970942  0.721374  0.781278  1
  B  B5  1  0.970942  0.278626  0.218722  1
  B  B6  1  0.029058  0.221374  0.718722  1
  B  B7  1  0.029058  0.778626  0.281278  1
  B  B8  1  0.535226  0.000000  0.000000  1
  B  B9  1  0.464774  0.500000  0.500000  1
  H  H10  1  0.962611  0.579921  0.797716  1
  H  H11  1  0.962611  0.420079  0.202284  1
  H  H12  1  0.037389  0.079921  0.702284  1
  H  H13  1  0.037389  0.920079  0.297716  1
  H  H14  1  0.944642  0.762554  0.640576  1
  H  H15  1  0.944642  0.237446  0.359424  1
  H  H16  1  0.055358  0.262554  0.859424  1
  H  H17  1  0.055358  0.737446  0.140576  1
  H  H18  1  0.824882  0.779474  0.863697  1
  H  H19  1  0.824882  0.220526  0.136303  1
  H  H20  1  0.175118  0.279474  0.636303  1
  H  H21  1  0.175118  0.720526  0.363697  1
  H  H22  1  0.152938  0.766522  0.827068  1
  H  H23  1  0.152938  0.233478  0.172932  1
  H  H24  1  0.847062  0.266522  0.672932  1
  H  H25  1  0.847062  0.733478  0.327068  1
  H  H26  1  0.656488  0.933603  0.099645  1
  H  H27  1  0.656488  0.066397  0.900355  1
  H  H28  1  0.343512  0.433603  0.400355  1
  H  H29  1  0.343512  0.566397  0.599645  1
  H  H30  1  0.423673  0.902962  0.928849  1
  H  H31  1  0.423673  0.097038  0.071151  1
  H  H32  1  0.576327  0.402962  0.571151  1
  H  H33  1  0.576327  0.597038  0.428849  1
