# generated using pymatgen
data_Yb2DyHo5(B6Ru)4
_symmetry_space_group_name_H-M   'P 1'
_cell_length_a   3.64977900
_cell_length_b   9.13626455
_cell_length_c   11.52666400
_cell_angle_alpha   89.81753458
_cell_angle_beta   90.00000000
_cell_angle_gamma   90.00000000
_symmetry_Int_Tables_number   1
_chemical_formula_structural   Yb2DyHo5(B6Ru)4
_chemical_formula_sum   'Yb2 Dy1 Ho5 B24 Ru4'
_cell_volume   384.35865596
_cell_formula_units_Z   1
loop_
 _symmetry_equiv_pos_site_id
 _symmetry_equiv_pos_as_xyz
  1  'x, y, z'
loop_
 _atom_site_type_symbol
 _atom_site_label
 _atom_site_symmetry_multiplicity
 _atom_site_fract_x
 _atom_site_fract_y
 _atom_site_fract_z
 _atom_site_occupancy
  Yb  Yb0  1  0.000000  0.325105  0.414920  1
  Yb  Yb1  1  0.000000  0.674881  0.585101  1
  Dy  Dy2  1  0.000000  0.822530  0.086107  1
  Ho  Ho3  1  0.000000  0.177543  0.913888  1
  Ho  Ho4  1  0.000000  0.941708  0.369757  1
  Ho  Ho5  1  0.000000  0.058341  0.630273  1
  Ho  Ho6  1  0.000000  0.442439  0.131041  1
  Ho  Ho7  1  0.000000  0.557433  0.868906  1
  B  B8  1  0.500000  0.554114  0.432507  1
  B  B9  1  0.500000  0.445836  0.567536  1
  B  B10  1  0.500000  0.053864  0.066744  1
  B  B11  1  0.500000  0.946419  0.933093  1
  B  B12  1  0.500000  0.747769  0.417998  1
  B  B13  1  0.500000  0.252231  0.582063  1
  B  B14  1  0.500000  0.248171  0.081146  1
  B  B15  1  0.500000  0.751847  0.918604  1
  B  B16  1  0.500000  0.790837  0.264856  1
  B  B17  1  0.500000  0.209049  0.735331  1
  B  B18  1  0.500000  0.289857  0.234441  1
  B  B19  1  0.500000  0.710164  0.765506  1
  B  B20  1  0.500000  0.631268  0.185349  1
  B  B21  1  0.500000  0.368543  0.814781  1
  B  B22  1  0.500000  0.130774  0.313985  1
  B  B23  1  0.500000  0.869299  0.686018  1
  B  B24  1  0.500000  0.983375  0.211571  1
  B  B25  1  0.500000  0.016913  0.788492  1
  B  B26  1  0.500000  0.483942  0.288397  1
  B  B27  1  0.500000  0.515976  0.711622  1
  B  B28  1  0.500000  0.603529  0.028474  1
  B  B29  1  0.500000  0.396138  0.971428  1
  B  B30  1  0.500000  0.099752  0.472391  1
  B  B31  1  0.500000  0.900276  0.527636  1
  Ru  Ru32  1  0.000000  0.639794  0.319143  1
  Ru  Ru33  1  0.000000  0.360093  0.680982  1
  Ru  Ru34  1  0.000000  0.136988  0.178089  1
  Ru  Ru35  1  0.000000  0.863206  0.821824  1
