# generated using pymatgen
data_Th3BiC2
_symmetry_space_group_name_H-M   'P 1'
_cell_length_a   3.79416400
_cell_length_b   3.79416451
_cell_length_c   22.61647000
_cell_angle_alpha   90.00000000
_cell_angle_beta   90.00000000
_cell_angle_gamma   119.99999555
_symmetry_Int_Tables_number   1
_chemical_formula_structural   Th3BiC2
_chemical_formula_sum   'Th6 Bi2 C4'
_cell_volume   281.96014712
_cell_formula_units_Z   2
loop_
 _symmetry_equiv_pos_site_id
 _symmetry_equiv_pos_as_xyz
  1  'x, y, z'
loop_
 _atom_site_type_symbol
 _atom_site_label
 _atom_site_symmetry_multiplicity
 _atom_site_fract_x
 _atom_site_fract_y
 _atom_site_fract_z
 _atom_site_occupancy
  Th  Th0  1  0.000000  0.000000  0.000000  1
  Th  Th1  1  0.333333  0.666667  0.130629  1
  Th  Th2  1  0.333333  0.666667  0.369371  1
  Th  Th3  1  0.000000  0.000000  0.500000  1
  Th  Th4  1  0.666667  0.333335  0.630629  1
  Th  Th5  1  0.666667  0.333335  0.869371  1
  Bi  Bi6  1  0.000000  0.000000  0.250000  1
  Bi  Bi7  1  0.000000  0.000000  0.750000  1
  C  C8  1  0.666667  0.333335  0.074195  1
  C  C9  1  0.666667  0.333335  0.425805  1
  C  C10  1  0.333333  0.666667  0.574195  1
  C  C11  1  0.333333  0.666667  0.925805  1
