# generated using pymatgen
data_Y2Si2As5Rh12
_symmetry_space_group_name_H-M   'P 1'
_cell_length_a   9.91884057
_cell_length_b   9.94963570
_cell_length_c   3.90236750
_cell_angle_alpha   89.96587006
_cell_angle_beta   90.18091522
_cell_angle_gamma   120.16624572
_symmetry_Int_Tables_number   1
_chemical_formula_structural   Y2Si2As5Rh12
_chemical_formula_sum   'Y2 Si2 As5 Rh12'
_cell_volume   332.96184240
_cell_formula_units_Z   1
loop_
 _symmetry_equiv_pos_site_id
 _symmetry_equiv_pos_as_xyz
  1  'x, y, z'
loop_
 _atom_site_type_symbol
 _atom_site_label
 _atom_site_symmetry_multiplicity
 _atom_site_fract_x
 _atom_site_fract_y
 _atom_site_fract_z
 _atom_site_occupancy
  Y  Y0  1  0.330082  0.667697  0.751584  1
  Y  Y1  1  0.666781  0.330898  0.247714  1
  Si  Si2  1  0.288684  0.886666  0.247670  1
  Si  Si3  1  0.114449  0.404647  0.248776  1
  As  As4  1  0.999845  0.999243  0.523023  1
  As  As5  1  0.403180  0.285670  0.749062  1
  As  As6  1  0.713771  0.119711  0.751672  1
  As  As7  1  0.884988  0.594249  0.749507  1
  As  As8  1  0.592415  0.710793  0.248999  1
  Rh  Rh9  1  0.441714  0.058260  0.748422  1
  Rh  Rh10  1  0.946013  0.385418  0.748860  1
  Rh  Rh11  1  0.618168  0.550367  0.749485  1
  Rh  Rh12  1  0.549102  0.934112  0.250091  1
  Rh  Rh13  1  0.070536  0.621355  0.247607  1
  Rh  Rh14  1  0.375188  0.446129  0.248339  1
  Rh  Rh15  1  0.146163  0.267076  0.749915  1
  Rh  Rh16  1  0.733478  0.885374  0.753667  1
  Rh  Rh17  1  0.121774  0.851436  0.747702  1
  Rh  Rh18  1  0.853371  0.738185  0.244955  1
  Rh  Rh19  1  0.261433  0.112239  0.243517  1
  Rh  Rh20  1  0.888867  0.150475  0.249433  1
