# generated using pymatgen
data_Nd21Cr8Bi7C12
_symmetry_space_group_name_H-M   'P 1'
_cell_length_a   11.66350607
_cell_length_b   11.66348676
_cell_length_c   11.66424800
_cell_angle_alpha   60.00289501
_cell_angle_beta   60.00274559
_cell_angle_gamma   60.00071501
_symmetry_Int_Tables_number   1
_chemical_formula_structural   Nd21Cr8Bi7C12
_chemical_formula_sum   'Nd21 Cr8 Bi7 C12'
_cell_volume   1122.07045320
_cell_formula_units_Z   1
loop_
 _symmetry_equiv_pos_site_id
 _symmetry_equiv_pos_as_xyz
  1  'x, y, z'
loop_
 _atom_site_type_symbol
 _atom_site_label
 _atom_site_symmetry_multiplicity
 _atom_site_fract_x
 _atom_site_fract_y
 _atom_site_fract_z
 _atom_site_occupancy
  Nd  Nd0  1  0.999969  0.999960  0.657706  1
  Nd  Nd1  1  0.999986  0.657738  0.342286  1
  Nd  Nd2  1  0.635834  0.635805  0.635579  1
  Nd  Nd3  1  0.000046  0.342301  0.657606  1
  Nd  Nd4  1  0.657703  0.000027  0.000022  1
  Nd  Nd5  1  0.364223  0.364186  0.907371  1
  Nd  Nd6  1  0.635926  0.092630  0.635689  1
  Nd  Nd7  1  0.657728  0.999992  0.342277  1
  Nd  Nd8  1  0.999941  0.999934  0.342387  1
  Nd  Nd9  1  0.907324  0.364218  0.364231  1
  Nd  Nd10  1  0.000022  0.657715  0.000002  1
  Nd  Nd11  1  0.364224  0.907330  0.364227  1
  Nd  Nd12  1  0.657640  0.342164  0.000089  1
  Nd  Nd13  1  0.000054  0.342267  0.000039  1
  Nd  Nd14  1  0.635798  0.635787  0.092791  1
  Nd  Nd15  1  0.364226  0.364212  0.364226  1
  Nd  Nd16  1  0.342168  0.657666  0.000071  1
  Nd  Nd17  1  0.342255  0.000049  0.000046  1
  Nd  Nd18  1  0.092621  0.635924  0.635690  1
  Nd  Nd19  1  0.342282  0.000041  0.657627  1
  Nd  Nd20  1  0.499969  0.499982  0.500017  1
  Cr  Cr21  1  0.196986  0.409199  0.196903  1
  Cr  Cr22  1  0.803085  0.590769  0.803070  1
  Cr  Cr23  1  0.196962  0.196980  0.196938  1
  Cr  Cr24  1  0.803087  0.803084  0.590750  1
  Cr  Cr25  1  0.196977  0.196978  0.409131  1
  Cr  Cr26  1  0.590745  0.803102  0.803091  1
  Cr  Cr27  1  0.803097  0.803086  0.803099  1
  Cr  Cr28  1  0.409193  0.196967  0.196937  1
  Bi  Bi29  1  0.290054  0.290058  0.709937  1
  Bi  Bi30  1  0.290066  0.709951  0.290031  1
  Bi  Bi31  1  0.290069  0.709942  0.709931  1
  Bi  Bi32  1  0.709960  0.290058  0.290026  1
  Bi  Bi33  1  0.000008  0.999988  0.999998  1
  Bi  Bi34  1  0.709953  0.290062  0.709935  1
  Bi  Bi35  1  0.709957  0.709952  0.290033  1
  C  C36  1  0.394528  0.394509  0.105478  1
  C  C37  1  0.394624  0.105424  0.394501  1
  C  C38  1  0.605465  0.894531  0.894640  1
  C  C39  1  0.394579  0.105459  0.105494  1
  C  C40  1  0.894519  0.894522  0.605494  1
  C  C41  1  0.894518  0.605463  0.605395  1
  C  C42  1  0.605353  0.605351  0.894655  1
  C  C43  1  0.894539  0.605446  0.894662  1
  C  C44  1  0.105427  0.394637  0.394484  1
  C  C45  1  0.605458  0.894536  0.605368  1
  C  C46  1  0.105407  0.105412  0.394585  1
  C  C47  1  0.105444  0.394605  0.105456  1
