# generated using pymatgen
data_Tm7ScHg4
_symmetry_space_group_name_H-M   'P 1'
_cell_length_a   5.01731800
_cell_length_b   6.93710903
_cell_length_c   9.05734299
_cell_angle_alpha   89.80610148
_cell_angle_beta   90.00000000
_cell_angle_gamma   90.00000000
_symmetry_Int_Tables_number   1
_chemical_formula_structural   Tm7ScHg4
_chemical_formula_sum   'Tm7 Sc1 Hg4'
_cell_volume   315.24519494
_cell_formula_units_Z   1
loop_
 _symmetry_equiv_pos_site_id
 _symmetry_equiv_pos_as_xyz
  1  'x, y, z'
loop_
 _atom_site_type_symbol
 _atom_site_label
 _atom_site_symmetry_multiplicity
 _atom_site_fract_x
 _atom_site_fract_y
 _atom_site_fract_z
 _atom_site_occupancy
  Tm  Tm0  1  0.250000  0.485018  0.190715  1
  Tm  Tm1  1  0.750000  0.521337  0.807314  1
  Tm  Tm2  1  0.250000  0.982448  0.303311  1
  Tm  Tm3  1  0.750000  0.015949  0.699508  1
  Tm  Tm4  1  0.750000  0.671312  0.425840  1
  Tm  Tm5  1  0.250000  0.332283  0.573035  1
  Tm  Tm6  1  0.750000  0.165714  0.072176  1
  Sc  Sc7  1  0.250000  0.831139  0.927888  1
  Hg  Hg8  1  0.250000  0.254743  0.896413  1
  Hg  Hg9  1  0.750000  0.737740  0.097747  1
  Hg  Hg10  1  0.250000  0.766854  0.609397  1
  Hg  Hg11  1  0.750000  0.235464  0.396654  1
