# generated using pymatgen
data_Zn2NF
_symmetry_space_group_name_H-M   'P 1'
_cell_length_a   5.59136700
_cell_length_b   6.02557600
_cell_length_c   6.68144600
_cell_angle_alpha   90.00000000
_cell_angle_beta   90.00000000
_cell_angle_gamma   90.00000000
_symmetry_Int_Tables_number   1
_chemical_formula_structural   Zn2NF
_chemical_formula_sum   'Zn8 N4 F4'
_cell_volume   225.10597893
_cell_formula_units_Z   4
loop_
 _symmetry_equiv_pos_site_id
 _symmetry_equiv_pos_as_xyz
  1  'x, y, z'
loop_
 _atom_site_type_symbol
 _atom_site_label
 _atom_site_symmetry_multiplicity
 _atom_site_fract_x
 _atom_site_fract_y
 _atom_site_fract_z
 _atom_site_occupancy
  Zn  Zn0  1  0.827694  0.413915  0.350442  1
  Zn  Zn1  1  0.327694  0.586085  0.649558  1
  Zn  Zn2  1  0.327694  0.086085  0.850442  1
  Zn  Zn3  1  0.827694  0.913915  0.149558  1
  Zn  Zn4  1  0.731615  0.457550  0.919180  1
  Zn  Zn5  1  0.231615  0.542450  0.080820  1
  Zn  Zn6  1  0.231615  0.042450  0.419180  1
  Zn  Zn7  1  0.731615  0.957550  0.580820  1
  N  N8  1  0.902022  0.605253  0.127540  1
  N  N9  1  0.402022  0.394747  0.872460  1
  N  N10  1  0.402022  0.894747  0.627540  1
  N  N11  1  0.902022  0.105253  0.372460  1
  F  F12  1  0.394550  0.416998  0.374666  1
  F  F13  1  0.894550  0.583002  0.625334  1
  F  F14  1  0.894550  0.083002  0.874666  1
  F  F15  1  0.394550  0.916998  0.125334  1
