# generated using pymatgen
data_Pr9Y(Ga2Pb)2
_symmetry_space_group_name_H-M   'P 1'
_cell_length_a   8.56220100
_cell_length_b   8.56220100
_cell_length_c   13.15009700
_cell_angle_alpha   90.00000000
_cell_angle_beta   90.00000000
_cell_angle_gamma   90.00000000
_symmetry_Int_Tables_number   1
_chemical_formula_structural   Pr9Y(Ga2Pb)2
_chemical_formula_sum   'Pr18 Y2 Ga8 Pb4'
_cell_volume   964.05052163
_cell_formula_units_Z   2
loop_
 _symmetry_equiv_pos_site_id
 _symmetry_equiv_pos_as_xyz
  1  'x, y, z'
loop_
 _atom_site_type_symbol
 _atom_site_label
 _atom_site_symmetry_multiplicity
 _atom_site_fract_x
 _atom_site_fract_y
 _atom_site_fract_z
 _atom_site_occupancy
  Pr  Pr0  1  0.847672  0.838505  0.893066  1
  Pr  Pr1  1  0.159136  0.155282  0.604764  1
  Pr  Pr2  1  0.844718  0.159136  0.395236  1
  Pr  Pr3  1  0.155282  0.840864  0.395236  1
  Pr  Pr4  1  0.340864  0.344718  0.395236  1
  Pr  Pr5  1  0.838505  0.152328  0.106934  1
  Pr  Pr6  1  0.338505  0.652328  0.893066  1
  Pr  Pr7  1  0.161495  0.847672  0.106934  1
  Pr  Pr8  1  0.500000  0.000000  0.767923  1
  Pr  Pr9  1  0.000000  0.500000  0.232077  1
  Pr  Pr10  1  0.344718  0.659136  0.604764  1
  Pr  Pr11  1  0.652328  0.661495  0.106934  1
  Pr  Pr12  1  0.655282  0.340864  0.604764  1
  Pr  Pr13  1  0.840864  0.844718  0.604764  1
  Pr  Pr14  1  0.661495  0.347672  0.893066  1
  Pr  Pr15  1  0.152328  0.161495  0.893066  1
  Pr  Pr16  1  0.659136  0.655282  0.395236  1
  Pr  Pr17  1  0.347672  0.338505  0.106934  1
  Y  Y18  1  0.000000  0.500000  0.737187  1
  Y  Y19  1  0.500000  0.000000  0.262813  1
  Ga  Ga20  1  0.643482  0.353610  0.252050  1
  Ga  Ga21  1  0.356518  0.646390  0.252050  1
  Ga  Ga22  1  0.146390  0.143482  0.252050  1
  Ga  Ga23  1  0.353610  0.356518  0.747950  1
  Ga  Ga24  1  0.143482  0.853610  0.747950  1
  Ga  Ga25  1  0.853610  0.856518  0.252050  1
  Ga  Ga26  1  0.646390  0.643482  0.747950  1
  Ga  Ga27  1  0.856518  0.146390  0.747950  1
  Pb  Pb28  1  0.000000  0.500000  0.986541  1
  Pb  Pb29  1  0.500000  0.000000  0.013459  1
  Pb  Pb30  1  0.500000  0.000000  0.504956  1
  Pb  Pb31  1  0.000000  0.500000  0.495044  1
