# generated using pymatgen
data_Er5W2C7
_symmetry_space_group_name_H-M   'P 1'
_cell_length_a   3.39137800
_cell_length_b   8.06825741
_cell_length_c   8.35880786
_cell_angle_alpha   61.14332856
_cell_angle_beta   90.00000000
_cell_angle_gamma   90.00000000
_symmetry_Int_Tables_number   1
_chemical_formula_structural   Er5W2C7
_chemical_formula_sum   'Er5 W2 C7'
_cell_volume   200.31800146
_cell_formula_units_Z   1
loop_
 _symmetry_equiv_pos_site_id
 _symmetry_equiv_pos_as_xyz
  1  'x, y, z'
loop_
 _atom_site_type_symbol
 _atom_site_label
 _atom_site_symmetry_multiplicity
 _atom_site_fract_x
 _atom_site_fract_y
 _atom_site_fract_z
 _atom_site_occupancy
  Er  Er0  1  0.000000  0.500000  0.000000  1
  Er  Er1  1  0.500001  0.075137  0.257587  1
  Er  Er2  1  0.500001  0.667276  0.257587  1
  Er  Er3  1  0.500001  0.332724  0.742413  1
  Er  Er4  1  0.500001  0.924863  0.742413  1
  W  W5  1  0.000000  0.286714  0.426571  1
  W  W6  1  0.000000  0.713287  0.573428  1
  C  C7  1  0.000000  0.000000  0.000000  1
  C  C8  1  0.000000  0.167986  0.000000  1
  C  C9  1  0.000000  0.832014  0.000000  1
  C  C10  1  0.500001  0.375976  0.248049  1
  C  C11  1  0.000000  0.000001  0.500000  1
  C  C12  1  0.000000  0.500000  0.500000  1
  C  C13  1  0.500001  0.624025  0.751950  1
