# generated using pymatgen
data_TbSmHo2(ReN3)4
_symmetry_space_group_name_H-M   'P 1'
_cell_length_a   7.37164702
_cell_length_b   7.37164638
_cell_length_c   6.27486976
_cell_angle_alpha   73.73181505
_cell_angle_beta   73.73182033
_cell_angle_gamma   82.83208337
_symmetry_Int_Tables_number   1
_chemical_formula_structural   TbSmHo2(ReN3)4
_chemical_formula_sum   'Tb1 Sm1 Ho2 Re4 N12'
_cell_volume   313.82823338
_cell_formula_units_Z   1
loop_
 _symmetry_equiv_pos_site_id
 _symmetry_equiv_pos_as_xyz
  1  'x, y, z'
loop_
 _atom_site_type_symbol
 _atom_site_label
 _atom_site_symmetry_multiplicity
 _atom_site_fract_x
 _atom_site_fract_y
 _atom_site_fract_z
 _atom_site_occupancy
  Tb  Tb0  1  0.293584  0.706416  0.750000  1
  Sm  Sm1  1  0.704092  0.295908  0.250000  1
  Ho  Ho2  1  0.908305  0.091695  0.750000  1
  Ho  Ho3  1  0.092932  0.907068  0.250000  1
  Re  Re4  1  0.620161  0.797313  0.271103  1
  Re  Re5  1  0.202687  0.379839  0.228897  1
  Re  Re6  1  0.378362  0.202700  0.730133  1
  Re  Re7  1  0.797300  0.621638  0.769867  1
  N  N8  1  0.342526  0.357976  0.933255  1
  N  N9  1  0.007779  0.217624  0.343049  1
  N  N10  1  0.782376  0.992221  0.156951  1
  N  N11  1  0.219962  0.003715  0.843062  1
  N  N12  1  0.656579  0.645057  0.063420  1
  N  N13  1  0.874606  0.373328  0.837288  1
  N  N14  1  0.126946  0.628122  0.156362  1
  N  N15  1  0.996285  0.780038  0.656938  1
  N  N16  1  0.371878  0.873054  0.343638  1
  N  N17  1  0.642024  0.657474  0.566745  1
  N  N18  1  0.626672  0.125394  0.662712  1
  N  N19  1  0.354943  0.343421  0.436580  1
