# generated using pymatgen
data_Tm16MgCo3NiAg3
_symmetry_space_group_name_H-M   'P 1'
_cell_length_a   9.32195173
_cell_length_b   9.32132712
_cell_length_c   9.32132716
_cell_angle_alpha   60.07212104
_cell_angle_beta   60.05430098
_cell_angle_gamma   60.05430282
_symmetry_Int_Tables_number   1
_chemical_formula_structural   Tm16MgCo3NiAg3
_chemical_formula_sum   'Tm16 Mg1 Co3 Ni1 Ag3'
_cell_volume   573.50850927
_cell_formula_units_Z   1
loop_
 _symmetry_equiv_pos_site_id
 _symmetry_equiv_pos_as_xyz
  1  'x, y, z'
loop_
 _atom_site_type_symbol
 _atom_site_label
 _atom_site_symmetry_multiplicity
 _atom_site_fract_x
 _atom_site_fract_y
 _atom_site_fract_z
 _atom_site_occupancy
  Tm  Tm0  1  0.346481  0.345292  0.345292  1
  Tm  Tm1  1  0.347841  0.346806  0.961399  1
  Tm  Tm2  1  0.347841  0.961399  0.346806  1
  Tm  Tm3  1  0.951101  0.350505  0.350505  1
  Tm  Tm4  1  0.805989  0.189959  0.189959  1
  Tm  Tm5  1  0.185317  0.813831  0.813831  1
  Tm  Tm6  1  0.186305  0.810128  0.187601  1
  Tm  Tm7  1  0.809938  0.188935  0.811919  1
  Tm  Tm8  1  0.186305  0.187601  0.810128  1
  Tm  Tm9  1  0.809938  0.811919  0.188935  1
  Tm  Tm10  1  0.935049  0.563220  0.563220  1
  Tm  Tm11  1  0.564248  0.936209  0.936209  1
  Tm  Tm12  1  0.562294  0.937035  0.563790  1
  Tm  Tm13  1  0.933988  0.565361  0.937910  1
  Tm  Tm14  1  0.562294  0.563790  0.937035  1
  Tm  Tm15  1  0.933988  0.937910  0.565361  1
  Mg  Mg16  1  0.286938  0.571110  0.571110  1
  Co  Co17  1  0.138796  0.142954  0.575406  1
  Co  Co18  1  0.138796  0.575406  0.142954  1
  Co  Co19  1  0.575045  0.141596  0.141596  1
  Ni  Ni20  1  0.139305  0.142897  0.142897  1
  Ag  Ag21  1  0.584084  0.583302  0.583302  1
  Ag  Ag22  1  0.584063  0.583095  0.249737  1
  Ag  Ag23  1  0.584063  0.249737  0.583095  1
