# generated using pymatgen
data_Ce3OsI3
_symmetry_space_group_name_H-M   'P 1'
_cell_length_a   10.71084114
_cell_length_b   10.71084091
_cell_length_c   10.71084100
_cell_angle_alpha   109.47121892
_cell_angle_beta   109.47121849
_cell_angle_gamma   109.47122322
_symmetry_Int_Tables_number   1
_chemical_formula_structural   Ce3OsI3
_chemical_formula_sum   'Ce12 Os4 I12'
_cell_volume   945.90786131
_cell_formula_units_Z   4
loop_
 _symmetry_equiv_pos_site_id
 _symmetry_equiv_pos_as_xyz
  1  'x, y, z'
loop_
 _atom_site_type_symbol
 _atom_site_label
 _atom_site_symmetry_multiplicity
 _atom_site_fract_x
 _atom_site_fract_y
 _atom_site_fract_z
 _atom_site_occupancy
  Ce  Ce0  1  0.454531  0.477266  0.227266  1
  Ce  Ce1  1  0.750000  0.227266  0.272734  1
  Ce  Ce2  1  0.750000  0.022734  0.477266  1
  Ce  Ce3  1  0.227266  0.454531  0.477266  1
  Ce  Ce4  1  0.272734  0.750000  0.227266  1
  Ce  Ce5  1  0.045469  0.272734  0.022734  1
  Ce  Ce6  1  0.022734  0.045469  0.272734  1
  Ce  Ce7  1  0.477266  0.750000  0.022734  1
  Ce  Ce8  1  0.477266  0.227266  0.454531  1
  Ce  Ce9  1  0.022734  0.477266  0.750000  1
  Ce  Ce10  1  0.272734  0.022734  0.045469  1
  Ce  Ce11  1  0.227266  0.272734  0.750000  1
  Os  Os12  1  0.250000  0.250000  0.250000  1
  Os  Os13  1  0.500000  0.000000  0.250000  1
  Os  Os14  1  0.000000  0.250000  0.500000  1
  Os  Os15  1  0.250000  0.500000  0.000000  1
  I  I16  1  0.250000  0.759482  0.740518  1
  I  I17  1  0.518964  0.509482  0.759482  1
  I  I18  1  0.981036  0.740518  0.990518  1
  I  I19  1  0.740518  0.250000  0.759482  1
  I  I20  1  0.990518  0.981036  0.740518  1
  I  I21  1  0.250000  0.990518  0.509482  1
  I  I22  1  0.759482  0.518964  0.509482  1
  I  I23  1  0.509482  0.250000  0.990518  1
  I  I24  1  0.759482  0.740518  0.250000  1
  I  I25  1  0.740518  0.990518  0.981036  1
  I  I26  1  0.990518  0.509482  0.250000  1
  I  I27  1  0.509482  0.759482  0.518964  1
