# generated using pymatgen
data_YbBi3Pd4
_symmetry_space_group_name_H-M   'P 1'
_cell_length_a   10.80697700
_cell_length_b   5.69370519
_cell_length_c   5.68188076
_cell_angle_alpha   79.92760890
_cell_angle_beta   90.00000000
_cell_angle_gamma   90.00000000
_symmetry_Int_Tables_number   1
_chemical_formula_structural   YbBi3Pd4
_chemical_formula_sum   'Yb2 Bi6 Pd8'
_cell_volume   344.22758222
_cell_formula_units_Z   2
loop_
 _symmetry_equiv_pos_site_id
 _symmetry_equiv_pos_as_xyz
  1  'x, y, z'
loop_
 _atom_site_type_symbol
 _atom_site_label
 _atom_site_symmetry_multiplicity
 _atom_site_fract_x
 _atom_site_fract_y
 _atom_site_fract_z
 _atom_site_occupancy
  Yb  Yb0  1  0.284761  0.111312  0.845567  1
  Yb  Yb1  1  0.784761  0.888688  0.154433  1
  Bi  Bi2  1  0.293261  0.639192  0.402535  1
  Bi  Bi3  1  0.793261  0.360808  0.597465  1
  Bi  Bi4  1  0.505632  0.106539  0.340694  1
  Bi  Bi5  1  0.005632  0.893461  0.659306  1
  Bi  Bi6  1  0.504122  0.651913  0.905373  1
  Bi  Bi7  1  0.004122  0.348087  0.094627  1
  Pd  Pd8  1  0.562239  0.162649  0.829388  1
  Pd  Pd9  1  0.062239  0.837351  0.170612  1
  Pd  Pd10  1  0.563928  0.587623  0.417492  1
  Pd  Pd11  1  0.063928  0.412377  0.582508  1
  Pd  Pd12  1  0.738052  0.848082  0.664614  1
  Pd  Pd13  1  0.238052  0.151918  0.335386  1
  Pd  Pd14  1  0.733106  0.408871  0.089388  1
  Pd  Pd15  1  0.233106  0.591129  0.910612  1
