# generated using pymatgen
data_Y4HfPd13Au2
_symmetry_space_group_name_H-M   'P 1'
_cell_length_a   4.16618500
_cell_length_b   4.12541300
_cell_length_c   20.51672500
_cell_angle_alpha   90.00000000
_cell_angle_beta   90.00000000
_cell_angle_gamma   90.00000000
_symmetry_Int_Tables_number   1
_chemical_formula_structural   Y4HfPd13Au2
_chemical_formula_sum   'Y4 Hf1 Pd13 Au2'
_cell_volume   352.62574855
_cell_formula_units_Z   1
loop_
 _symmetry_equiv_pos_site_id
 _symmetry_equiv_pos_as_xyz
  1  'x, y, z'
loop_
 _atom_site_type_symbol
 _atom_site_label
 _atom_site_symmetry_multiplicity
 _atom_site_fract_x
 _atom_site_fract_y
 _atom_site_fract_z
 _atom_site_occupancy
  Y  Y0  1  0.000000  0.000000  0.196223  1
  Y  Y1  1  0.000000  0.000000  0.396312  1
  Y  Y2  1  0.000000  0.000000  0.606336  1
  Y  Y3  1  0.000000  0.000000  0.802760  1
  Hf  Hf4  1  0.000000  0.000000  0.997740  1
  Pd  Pd5  1  0.500000  0.500000  0.000759  1
  Pd  Pd6  1  0.500000  0.500000  0.396509  1
  Pd  Pd7  1  0.500000  0.500000  0.602242  1
  Pd  Pd8  1  0.500000  0.500000  0.805387  1
  Pd  Pd9  1  0.500000  0.000000  0.093403  1
  Pd  Pd10  1  0.500000  0.000000  0.296136  1
  Pd  Pd11  1  0.500000  0.000000  0.703673  1
  Pd  Pd12  1  0.500000  0.000000  0.907345  1
  Pd  Pd13  1  0.000000  0.500000  0.093101  1
  Pd  Pd14  1  0.000000  0.500000  0.296106  1
  Pd  Pd15  1  0.000000  0.500000  0.499627  1
  Pd  Pd16  1  0.000000  0.500000  0.703810  1
  Pd  Pd17  1  0.000000  0.500000  0.907508  1
  Au  Au18  1  0.500000  0.500000  0.194769  1
  Au  Au19  1  0.500000  0.000000  0.500252  1
