# generated using pymatgen
data_Yb3Ho5(ZrIr3)2
_symmetry_space_group_name_H-M   'P 1'
_cell_length_a   10.82300469
_cell_length_b   10.79060400
_cell_length_c   6.27284253
_cell_angle_alpha   90.00000000
_cell_angle_beta   90.13715105
_cell_angle_gamma   90.00000000
_symmetry_Int_Tables_number   1
_chemical_formula_structural   Yb3Ho5(ZrIr3)2
_chemical_formula_sum   'Yb6 Ho10 Zr4 Ir12'
_cell_volume   732.58284167
_cell_formula_units_Z   2
loop_
 _symmetry_equiv_pos_site_id
 _symmetry_equiv_pos_as_xyz
  1  'x, y, z'
loop_
 _atom_site_type_symbol
 _atom_site_label
 _atom_site_symmetry_multiplicity
 _atom_site_fract_x
 _atom_site_fract_y
 _atom_site_fract_z
 _atom_site_occupancy
  Yb  Yb0  1  0.291250  0.087505  0.368862  1
  Yb  Yb1  1  0.291250  0.912495  0.868862  1
  Yb  Yb2  1  0.711261  0.080755  0.870156  1
  Yb  Yb3  1  0.711261  0.919245  0.370156  1
  Yb  Yb4  1  0.584753  0.792150  0.867723  1
  Yb  Yb5  1  0.584753  0.207850  0.367723  1
  Ho  Ho6  1  0.415715  0.795547  0.372105  1
  Ho  Ho7  1  0.415715  0.204453  0.872105  1
  Ho  Ho8  1  0.210755  0.413741  0.632340  1
  Ho  Ho9  1  0.210755  0.586259  0.132340  1
  Ho  Ho10  1  0.787241  0.415201  0.132460  1
  Ho  Ho11  1  0.787241  0.584799  0.632460  1
  Ho  Ho12  1  0.914113  0.711715  0.135499  1
  Ho  Ho13  1  0.914113  0.288285  0.635499  1
  Ho  Ho14  1  0.085425  0.710313  0.632692  1
  Ho  Ho15  1  0.085425  0.289687  0.132692  1
  Zr  Zr16  1  0.003321  0.000590  0.495760  1
  Zr  Zr17  1  0.003321  0.999410  0.995760  1
  Zr  Zr18  1  0.498500  0.503298  0.993171  1
  Zr  Zr19  1  0.498500  0.496702  0.493171  1
  Ir  Ir20  1  0.867265  0.149621  0.247638  1
  Ir  Ir21  1  0.867265  0.850379  0.747638  1
  Ir  Ir22  1  0.140499  0.151371  0.751794  1
  Ir  Ir23  1  0.140499  0.848629  0.251794  1
  Ir  Ir24  1  0.643449  0.360030  0.754419  1
  Ir  Ir25  1  0.643449  0.639970  0.254419  1
  Ir  Ir26  1  0.350102  0.362435  0.236788  1
  Ir  Ir27  1  0.350102  0.637565  0.736788  1
  Ir  Ir28  1  0.498149  0.000201  0.120011  1
  Ir  Ir29  1  0.498149  0.999799  0.620011  1
  Ir  Ir30  1  0.998202  0.500355  0.888582  1
  Ir  Ir31  1  0.998202  0.499645  0.388582  1
