# generated using pymatgen
data_Hf9Ta3CrCo
_symmetry_space_group_name_H-M   'P 1'
_cell_length_a   8.89016700
_cell_length_b   8.89016635
_cell_length_c   8.19054400
_cell_angle_alpha   90.00000000
_cell_angle_beta   90.00000000
_cell_angle_gamma   119.99999871
_symmetry_Int_Tables_number   1
_chemical_formula_structural   Hf9Ta3CrCo
_chemical_formula_sum   'Hf18 Ta6 Cr2 Co2'
_cell_volume   560.61303503
_cell_formula_units_Z   2
loop_
 _symmetry_equiv_pos_site_id
 _symmetry_equiv_pos_as_xyz
  1  'x, y, z'
loop_
 _atom_site_type_symbol
 _atom_site_label
 _atom_site_symmetry_multiplicity
 _atom_site_fract_x
 _atom_site_fract_y
 _atom_site_fract_z
 _atom_site_occupancy
  Hf  Hf0  1  0.202099  0.797901  0.438942  1
  Hf  Hf1  1  0.202099  0.404199  0.438942  1
  Hf  Hf2  1  0.595801  0.797901  0.438942  1
  Hf  Hf3  1  0.797901  0.202099  0.561058  1
  Hf  Hf4  1  0.797901  0.595801  0.561058  1
  Hf  Hf5  1  0.404199  0.202099  0.561058  1
  Hf  Hf6  1  0.797901  0.202099  0.938942  1
  Hf  Hf7  1  0.797901  0.595801  0.938942  1
  Hf  Hf8  1  0.404199  0.202099  0.938942  1
  Hf  Hf9  1  0.202099  0.797901  0.061058  1
  Hf  Hf10  1  0.202099  0.404199  0.061058  1
  Hf  Hf11  1  0.595801  0.797901  0.061058  1
  Hf  Hf12  1  0.540779  0.459221  0.250000  1
  Hf  Hf13  1  0.540779  0.081560  0.250000  1
  Hf  Hf14  1  0.918440  0.459221  0.250000  1
  Hf  Hf15  1  0.459221  0.540779  0.750000  1
  Hf  Hf16  1  0.459221  0.918440  0.750000  1
  Hf  Hf17  1  0.081560  0.540779  0.750000  1
  Ta  Ta18  1  0.890026  0.109974  0.250000  1
  Ta  Ta19  1  0.890026  0.780053  0.250000  1
  Ta  Ta20  1  0.219947  0.109974  0.250000  1
  Ta  Ta21  1  0.109974  0.890026  0.750000  1
  Ta  Ta22  1  0.109974  0.219947  0.750000  1
  Ta  Ta23  1  0.780053  0.890026  0.750000  1
  Cr  Cr24  1  0.000000  0.000000  0.500000  1
  Cr  Cr25  1  0.000000  0.000000  0.000000  1
  Co  Co26  1  0.333333  0.666667  0.250000  1
  Co  Co27  1  0.666667  0.333333  0.750000  1
