# generated using pymatgen
data_Y12Ni4SnRh
_symmetry_space_group_name_H-M   'P 1'
_cell_length_a   8.35188990
_cell_length_b   8.35187484
_cell_length_c   8.35188952
_cell_angle_alpha   107.11456873
_cell_angle_beta   109.77681768
_cell_angle_gamma   111.55292894
_symmetry_Int_Tables_number   1
_chemical_formula_structural   Y12Ni4SnRh
_chemical_formula_sum   'Y12 Ni4 Sn1 Rh1'
_cell_volume   447.78916341
_cell_formula_units_Z   1
loop_
 _symmetry_equiv_pos_site_id
 _symmetry_equiv_pos_as_xyz
  1  'x, y, z'
loop_
 _atom_site_type_symbol
 _atom_site_label
 _atom_site_symmetry_multiplicity
 _atom_site_fract_x
 _atom_site_fract_y
 _atom_site_fract_z
 _atom_site_occupancy
  Y  Y0  1  0.479022  0.296062  0.182961  1
  Y  Y1  1  0.113101  0.296062  0.817039  1
  Y  Y2  1  0.886899  0.703938  0.182961  1
  Y  Y3  1  0.520978  0.703938  0.817039  1
  Y  Y4  1  0.304747  0.625907  0.321160  1
  Y  Y5  1  0.304746  0.983587  0.678840  1
  Y  Y6  1  0.695253  0.374093  0.678840  1
  Y  Y7  1  0.695254  0.016413  0.321160  1
  Y  Y8  1  0.191708  0.212154  0.403863  1
  Y  Y9  1  0.808292  0.787846  0.596137  1
  Y  Y10  1  0.191709  0.787846  0.979553  1
  Y  Y11  1  0.808291  0.212154  0.020447  1
  Ni  Ni12  1  0.500000  0.623862  0.123862  1
  Ni  Ni13  1  0.500000  0.376138  0.876138  1
  Ni  Ni14  1  0.366152  0.000000  0.366152  1
  Ni  Ni15  1  0.633848  0.000000  0.633848  1
  Sn  Sn16  1  0.000000  0.500000  0.500000  1
  Rh  Rh17  1  0.000000  0.000000  0.000000  1
