# generated using pymatgen
data_Yb2(ThRu)3
_symmetry_space_group_name_H-M   'P 1'
_cell_length_a   8.31799200
_cell_length_b   8.31799340
_cell_length_c   6.29916400
_cell_angle_alpha   90.00000000
_cell_angle_beta   90.00000000
_cell_angle_gamma   119.99999442
_symmetry_Int_Tables_number   1
_chemical_formula_structural   Yb2(ThRu)3
_chemical_formula_sum   'Yb4 Th6 Ru6'
_cell_volume   377.44236211
_cell_formula_units_Z   2
loop_
 _symmetry_equiv_pos_site_id
 _symmetry_equiv_pos_as_xyz
  1  'x, y, z'
loop_
 _atom_site_type_symbol
 _atom_site_label
 _atom_site_symmetry_multiplicity
 _atom_site_fract_x
 _atom_site_fract_y
 _atom_site_fract_z
 _atom_site_occupancy
  Yb  Yb0  1  0.333333  0.666667  0.000000  1
  Yb  Yb1  1  0.666667  0.333333  0.000000  1
  Yb  Yb2  1  0.666667  0.333333  0.500000  1
  Yb  Yb3  1  0.333333  0.666667  0.500000  1
  Th  Th4  1  0.252190  0.000000  0.250000  1
  Th  Th5  1  0.747810  0.000000  0.750000  1
  Th  Th6  1  0.000000  0.252190  0.250000  1
  Th  Th7  1  0.000000  0.747810  0.750000  1
  Th  Th8  1  0.747810  0.747810  0.250000  1
  Th  Th9  1  0.252190  0.252190  0.750000  1
  Ru  Ru10  1  0.631107  0.000000  0.250000  1
  Ru  Ru11  1  0.368893  0.000000  0.750000  1
  Ru  Ru12  1  0.000000  0.631107  0.250000  1
  Ru  Ru13  1  0.000000  0.368893  0.750000  1
  Ru  Ru14  1  0.368893  0.368893  0.250000  1
  Ru  Ru15  1  0.631107  0.631107  0.750000  1
