# generated using pymatgen
data_Nd3ErSe3O4
_symmetry_space_group_name_H-M   'P 1'
_cell_length_a   6.75753714
_cell_length_b   6.75753836
_cell_length_c   8.40468100
_cell_angle_alpha   90.00000000
_cell_angle_beta   90.00000000
_cell_angle_gamma   145.70156726
_symmetry_Int_Tables_number   1
_chemical_formula_structural   Nd3ErSe3O4
_chemical_formula_sum   'Nd3 Er1 Se3 O4'
_cell_volume   216.26925105
_cell_formula_units_Z   1
loop_
 _symmetry_equiv_pos_site_id
 _symmetry_equiv_pos_as_xyz
  1  'x, y, z'
loop_
 _atom_site_type_symbol
 _atom_site_label
 _atom_site_symmetry_multiplicity
 _atom_site_fract_x
 _atom_site_fract_y
 _atom_site_fract_z
 _atom_site_occupancy
  Nd  Nd0  1  0.316722  0.683278  0.240786  1
  Nd  Nd1  1  0.316722  0.683278  0.759214  1
  Nd  Nd2  1  0.000075  0.999925  0.000000  1
  Er  Er3  1  0.978650  0.021350  0.500000  1
  Se  Se4  1  0.640167  0.359833  0.350290  1
  Se  Se5  1  0.687299  0.312701  0.000000  1
  Se  Se6  1  0.640167  0.359833  0.649710  1
  O  O7  1  0.914236  0.085764  0.747839  1
  O  O8  1  0.410999  0.589001  0.000000  1
  O  O9  1  0.390911  0.609089  0.500000  1
  O  O10  1  0.914236  0.085764  0.252161  1
