# generated using pymatgen
data_NdPa(Ni3P2)2
_symmetry_space_group_name_H-M   'P 1'
_cell_length_a   3.84365900
_cell_length_b   10.54016595
_cell_length_c   12.42067123
_cell_angle_alpha   90.17218276
_cell_angle_beta   90.00000000
_cell_angle_gamma   90.00000000
_symmetry_Int_Tables_number   1
_chemical_formula_structural   NdPa(Ni3P2)2
_chemical_formula_sum   'Nd3 Pa3 Ni18 P12'
_cell_volume   503.19394380
_cell_formula_units_Z   3
loop_
 _symmetry_equiv_pos_site_id
 _symmetry_equiv_pos_as_xyz
  1  'x, y, z'
loop_
 _atom_site_type_symbol
 _atom_site_label
 _atom_site_symmetry_multiplicity
 _atom_site_fract_x
 _atom_site_fract_y
 _atom_site_fract_z
 _atom_site_occupancy
  Nd  Nd0  1  0.000000  0.500768  0.518425  1
  Nd  Nd1  1  0.500000  0.999632  0.480598  1
  Nd  Nd2  1  0.000000  0.314047  0.795832  1
  Pa  Pa3  1  0.500000  0.815366  0.205822  1
  Pa  Pa4  1  0.500000  0.184087  0.205022  1
  Pa  Pa5  1  0.000000  0.684922  0.794131  1
  Ni  Ni6  1  0.500000  0.497693  0.155669  1
  Ni  Ni7  1  0.000000  0.000238  0.842992  1
  Ni  Ni8  1  0.500000  0.506710  0.703216  1
  Ni  Ni9  1  0.000000  0.999784  0.296532  1
  Ni  Ni10  1  0.000000  0.501273  0.983624  1
  Ni  Ni11  1  0.500000  0.998268  0.020828  1
  Ni  Ni12  1  0.500000  0.329572  0.997153  1
  Ni  Ni13  1  0.500000  0.670249  0.999024  1
  Ni  Ni14  1  0.000000  0.166197  0.005390  1
  Ni  Ni15  1  0.000000  0.830901  0.001690  1
  Ni  Ni16  1  0.500000  0.301934  0.422610  1
  Ni  Ni17  1  0.500000  0.697907  0.421613  1
  Ni  Ni18  1  0.000000  0.198532  0.573127  1
  Ni  Ni19  1  0.000000  0.804124  0.577922  1
  Ni  Ni20  1  0.500000  0.878118  0.712292  1
  Ni  Ni21  1  0.500000  0.118688  0.711207  1
  Ni  Ni22  1  0.000000  0.621322  0.287376  1
  Ni  Ni23  1  0.000000  0.377619  0.287443  1
  P  P24  1  0.500000  0.502540  0.881896  1
  P  P25  1  0.000000  0.998747  0.120340  1
  P  P26  1  0.500000  0.499233  0.336696  1
  P  P27  1  0.000000  0.003153  0.662317  1
  P  P28  1  0.500000  0.311685  0.612480  1
  P  P29  1  0.500000  0.691832  0.611248  1
  P  P30  1  0.000000  0.189398  0.387040  1
  P  P31  1  0.000000  0.810428  0.387797  1
  P  P32  1  0.500000  0.848153  0.894684  1
  P  P33  1  0.500000  0.146782  0.895484  1
  P  P34  1  0.000000  0.652143  0.105620  1
  P  P35  1  0.000000  0.347957  0.104859  1
