# generated using pymatgen
data_Ta8V2Si5Ge
_symmetry_space_group_name_H-M   'P 1'
_cell_length_a   7.52583202
_cell_length_b   7.52583178
_cell_length_c   7.52583109
_cell_angle_alpha   129.20553764
_cell_angle_beta   129.20553633
_cell_angle_gamma   74.68007908
_symmetry_Int_Tables_number   1
_chemical_formula_structural   Ta8V2Si5Ge
_chemical_formula_sum   'Ta8 V2 Si5 Ge1'
_cell_volume   249.35189294
_cell_formula_units_Z   1
loop_
 _symmetry_equiv_pos_site_id
 _symmetry_equiv_pos_as_xyz
  1  'x, y, z'
loop_
 _atom_site_type_symbol
 _atom_site_label
 _atom_site_symmetry_multiplicity
 _atom_site_fract_x
 _atom_site_fract_y
 _atom_site_fract_z
 _atom_site_occupancy
  Ta  Ta0  1  0.018356  0.512947  0.829811  1
  Ta  Ta1  1  0.683136  0.188545  0.170189  1
  Ta  Ta2  1  0.512947  0.683136  0.494591  1
  Ta  Ta3  1  0.188545  0.018356  0.505409  1
  Ta  Ta4  1  0.987053  0.481644  0.170189  1
  Ta  Ta5  1  0.311455  0.816864  0.829811  1
  Ta  Ta6  1  0.481644  0.311455  0.494591  1
  Ta  Ta7  1  0.816864  0.987053  0.505409  1
  V  V8  1  0.001496  0.001496  0.000000  1
  V  V9  1  0.498504  0.498504  0.000000  1
  Si  Si10  1  0.250000  0.250000  0.000000  1
  Si  Si11  1  0.633634  0.133634  0.767267  1
  Si  Si12  1  0.366366  0.866366  0.232733  1
  Si  Si13  1  0.133634  0.366366  0.500000  1
  Si  Si14  1  0.866366  0.633634  0.500000  1
  Ge  Ge15  1  0.750000  0.750000  0.000000  1
