# generated using pymatgen
data_SrCuP2PbO8
_symmetry_space_group_name_H-M   'P 1'
_cell_length_a   6.39444806
_cell_length_b   6.39444674
_cell_length_c   6.72912091
_cell_angle_alpha   75.48330473
_cell_angle_beta   75.48330487
_cell_angle_gamma   47.42615793
_symmetry_Int_Tables_number   1
_chemical_formula_structural   SrCuP2PbO8
_chemical_formula_sum   'Sr1 Cu1 P2 Pb1 O8'
_cell_volume   194.87827549
_cell_formula_units_Z   1
loop_
 _symmetry_equiv_pos_site_id
 _symmetry_equiv_pos_as_xyz
  1  'x, y, z'
loop_
 _atom_site_type_symbol
 _atom_site_label
 _atom_site_symmetry_multiplicity
 _atom_site_fract_x
 _atom_site_fract_y
 _atom_site_fract_z
 _atom_site_occupancy
  Sr  Sr0  1  0.829519  0.829519  0.218301  1
  Cu  Cu1  1  0.500055  0.500055  0.499344  1
  P  P2  1  0.142697  0.142697  0.290950  1
  P  P3  1  0.858513  0.858513  0.707372  1
  Pb  Pb4  1  0.165482  0.165482  0.788349  1
  O  O5  1  0.115458  0.629475  0.560640  1
  O  O6  1  0.375720  0.882688  0.434372  1
  O  O7  1  0.882688  0.375720  0.434372  1
  O  O8  1  0.629475  0.115458  0.560640  1
  O  O9  1  0.271319  0.271319  0.149936  1
  O  O10  1  0.947970  0.947970  0.837153  1
  O  O11  1  0.050921  0.050921  0.165505  1
  O  O12  1  0.730184  0.730184  0.853068  1
