# generated using pymatgen
data_Tb2Ho10GaCo4Sn
_symmetry_space_group_name_H-M   'P 1'
_cell_length_a   8.31307622
_cell_length_b   8.33627897
_cell_length_c   8.33624584
_cell_angle_alpha   112.28651635
_cell_angle_beta   109.11620048
_cell_angle_gamma   107.15709331
_symmetry_Int_Tables_number   1
_chemical_formula_structural   Tb2Ho10GaCo4Sn
_chemical_formula_sum   'Tb2 Ho10 Ga1 Co4 Sn1'
_cell_volume   443.22948950
_cell_formula_units_Z   1
loop_
 _symmetry_equiv_pos_site_id
 _symmetry_equiv_pos_as_xyz
  1  'x, y, z'
loop_
 _atom_site_type_symbol
 _atom_site_label
 _atom_site_symmetry_multiplicity
 _atom_site_fract_x
 _atom_site_fract_y
 _atom_site_fract_z
 _atom_site_occupancy
  Tb  Tb0  1  0.968072  0.267073  0.700988  1
  Tb  Tb1  1  0.031928  0.732927  0.299012  1
  Ho  Ho2  1  0.673519  0.859758  0.184090  1
  Ho  Ho3  1  0.326491  0.510579  0.186215  1
  Ho  Ho4  1  0.326481  0.140242  0.815910  1
  Ho  Ho5  1  0.673509  0.489421  0.813785  1
  Ho  Ho6  1  0.565313  0.266289  0.299020  1
  Ho  Ho7  1  0.434687  0.733711  0.700980  1
  Ho  Ho8  1  0.180026  0.781789  0.960736  1
  Ho  Ho9  1  0.819964  0.780705  0.601766  1
  Ho  Ho10  1  0.180036  0.219295  0.398234  1
  Ho  Ho11  1  0.819974  0.218211  0.039264  1
  Ga  Ga12  1  0.000000  0.500000  0.500000  1
  Co  Co13  1  0.115555  0.114176  0.001385  1
  Co  Co14  1  0.884445  0.885824  0.998615  1
  Co  Co15  1  0.660775  0.499411  0.161364  1
  Co  Co16  1  0.339225  0.500589  0.838636  1
  Sn  Sn17  1  0.500000  0.000000  0.500000  1
