# generated using pymatgen
data_Y5Tm11MgCo4Ag3
_symmetry_space_group_name_H-M   'P 1'
_cell_length_a   9.37425046
_cell_length_b   9.37274072
_cell_length_c   9.37273997
_cell_angle_alpha   59.94721161
_cell_angle_beta   59.90173215
_cell_angle_gamma   59.90173079
_symmetry_Int_Tables_number   1
_chemical_formula_structural   Y5Tm11MgCo4Ag3
_chemical_formula_sum   'Y5 Tm11 Mg1 Co4 Ag3'
_cell_volume   581.21258921
_cell_formula_units_Z   1
loop_
 _symmetry_equiv_pos_site_id
 _symmetry_equiv_pos_as_xyz
  1  'x, y, z'
loop_
 _atom_site_type_symbol
 _atom_site_label
 _atom_site_symmetry_multiplicity
 _atom_site_fract_x
 _atom_site_fract_y
 _atom_site_fract_z
 _atom_site_occupancy
  Y  Y0  1  0.560711  0.938732  0.938732  1
  Y  Y1  1  0.562184  0.937705  0.561851  1
  Y  Y2  1  0.936959  0.561084  0.939391  1
  Y  Y3  1  0.562184  0.561851  0.937705  1
  Y  Y4  1  0.936959  0.939391  0.561084  1
  Tm  Tm5  1  0.345035  0.345487  0.345487  1
  Tm  Tm6  1  0.345593  0.345571  0.964206  1
  Tm  Tm7  1  0.345593  0.964206  0.345571  1
  Tm  Tm8  1  0.953161  0.349262  0.349262  1
  Tm  Tm9  1  0.810387  0.188518  0.188518  1
  Tm  Tm10  1  0.184847  0.814720  0.814720  1
  Tm  Tm11  1  0.184418  0.813919  0.186716  1
  Tm  Tm12  1  0.811019  0.188935  0.812188  1
  Tm  Tm13  1  0.184418  0.186716  0.813919  1
  Tm  Tm14  1  0.811019  0.812188  0.188935  1
  Tm  Tm15  1  0.937107  0.560401  0.560401  1
  Mg  Mg16  1  0.288444  0.570440  0.570440  1
  Co  Co17  1  0.138393  0.142580  0.142580  1
  Co  Co18  1  0.137915  0.143785  0.576280  1
  Co  Co19  1  0.137915  0.576280  0.143785  1
  Co  Co20  1  0.575980  0.141321  0.141321  1
  Ag  Ag21  1  0.584371  0.581383  0.581383  1
  Ag  Ag22  1  0.582692  0.581624  0.253900  1
  Ag  Ag23  1  0.582692  0.253900  0.581624  1
