# generated using pymatgen
data_Y4SiTc6Ge7
_symmetry_space_group_name_H-M   'P 1'
_cell_length_a   6.94300523
_cell_length_b   6.92642728
_cell_length_c   6.93302631
_cell_angle_alpha   69.55833463
_cell_angle_beta   90.07368281
_cell_angle_gamma   90.28222122
_symmetry_Int_Tables_number   1
_chemical_formula_structural   Y4SiTc6Ge7
_chemical_formula_sum   'Y4 Si1 Tc6 Ge7'
_cell_volume   312.41148713
_cell_formula_units_Z   1
loop_
 _symmetry_equiv_pos_site_id
 _symmetry_equiv_pos_as_xyz
  1  'x, y, z'
loop_
 _atom_site_type_symbol
 _atom_site_label
 _atom_site_symmetry_multiplicity
 _atom_site_fract_x
 _atom_site_fract_y
 _atom_site_fract_z
 _atom_site_occupancy
  Y  Y0  1  0.170994  0.945721  0.190977  1
  Y  Y1  1  0.330584  0.449919  0.190013  1
  Y  Y2  1  0.831469  0.053605  0.806473  1
  Y  Y3  1  0.667846  0.554739  0.809641  1
  Si  Si4  1  0.449112  0.874131  0.896627  1
  Tc  Tc5  1  0.854138  0.243266  0.238788  1
  Tc  Tc6  1  0.351963  0.247139  0.761160  1
  Tc  Tc7  1  0.155183  0.763248  0.768585  1
  Tc  Tc8  1  0.639618  0.741772  0.231049  1
  Tc  Tc9  1  0.502595  0.994406  0.506466  1
  Tc  Tc10  1  0.997592  0.502881  0.501009  1
  Ge  Ge11  1  0.553391  0.128130  0.102830  1
  Ge  Ge12  1  0.351376  0.633562  0.518449  1
  Ge  Ge13  1  0.852409  0.862717  0.483899  1
  Ge  Ge14  1  0.055593  0.373264  0.895030  1
  Ge  Ge15  1  0.146058  0.135760  0.509461  1
  Ge  Ge16  1  0.644856  0.363450  0.486024  1
  Ge  Ge17  1  0.945222  0.632289  0.103520  1
