# generated using pymatgen
data_Tb3DyAl4OsPt3
_symmetry_space_group_name_H-M   'P 1'
_cell_length_a   4.36917700
_cell_length_b   6.87430813
_cell_length_c   7.89911146
_cell_angle_alpha   89.94462563
_cell_angle_beta   90.00000000
_cell_angle_gamma   90.00000000
_symmetry_Int_Tables_number   1
_chemical_formula_structural   Tb3DyAl4OsPt3
_chemical_formula_sum   'Tb3 Dy1 Al4 Os1 Pt3'
_cell_volume   237.25024657
_cell_formula_units_Z   1
loop_
 _symmetry_equiv_pos_site_id
 _symmetry_equiv_pos_as_xyz
  1  'x, y, z'
loop_
 _atom_site_type_symbol
 _atom_site_label
 _atom_site_symmetry_multiplicity
 _atom_site_fract_x
 _atom_site_fract_y
 _atom_site_fract_z
 _atom_site_occupancy
  Tb  Tb0  1  0.250000  0.469818  0.180872  1
  Tb  Tb1  1  0.750000  0.534446  0.814851  1
  Tb  Tb2  1  0.250000  0.966445  0.322595  1
  Dy  Dy3  1  0.750000  0.022760  0.678524  1
  Al  Al4  1  0.250000  0.856338  0.935909  1
  Al  Al5  1  0.750000  0.141651  0.060952  1
  Al  Al6  1  0.750000  0.645021  0.441306  1
  Al  Al7  1  0.250000  0.361100  0.562912  1
  Os  Os8  1  0.250000  0.732964  0.621042  1
  Pt  Pt9  1  0.750000  0.270451  0.379198  1
  Pt  Pt10  1  0.750000  0.770718  0.120318  1
  Pt  Pt11  1  0.250000  0.228289  0.881520  1
