# generated using pymatgen
data_YbEu3Mn(Si2Pt)5
_symmetry_space_group_name_H-M   'P 1'
_cell_length_a   8.25606223
_cell_length_b   8.23935471
_cell_length_c   8.23862158
_cell_angle_alpha   138.30538443
_cell_angle_beta   104.72784555
_cell_angle_gamma   89.87811511
_symmetry_Int_Tables_number   1
_chemical_formula_structural   YbEu3Mn(Si2Pt)5
_chemical_formula_sum   'Yb1 Eu3 Mn1 Si10 Pt5'
_cell_volume   344.83899182
_cell_formula_units_Z   1
loop_
 _symmetry_equiv_pos_site_id
 _symmetry_equiv_pos_as_xyz
  1  'x, y, z'
loop_
 _atom_site_type_symbol
 _atom_site_label
 _atom_site_symmetry_multiplicity
 _atom_site_fract_x
 _atom_site_fract_y
 _atom_site_fract_z
 _atom_site_occupancy
  Yb  Yb0  1  0.101911  0.873510  0.235963  1
  Eu  Eu1  1  0.898062  0.133113  0.770155  1
  Eu  Eu2  1  0.637510  0.367308  0.265011  1
  Eu  Eu3  1  0.362452  0.626620  0.729630  1
  Mn  Mn4  1  0.499262  0.748443  0.249277  1
  Si  Si5  1  0.000784  0.749510  0.749313  1
  Si  Si6  1  0.000682  0.251329  0.250969  1
  Si  Si7  1  0.274923  0.025587  0.749972  1
  Si  Si8  1  0.725286  0.473852  0.749749  1
  Si  Si9  1  0.722692  0.973578  0.251154  1
  Si  Si10  1  0.277286  0.527580  0.250030  1
  Si  Si11  1  0.753121  0.622943  0.166003  1
  Si  Si12  1  0.246243  0.415141  0.871033  1
  Si  Si13  1  0.454171  0.083350  0.331748  1
  Si  Si14  1  0.544147  0.877162  0.629919  1
  Pt  Pt15  1  0.498257  0.249468  0.749119  1
  Pt  Pt16  1  0.025966  0.640336  0.385262  1
  Pt  Pt17  1  0.976529  0.361776  0.613748  1
  Pt  Pt18  1  0.250833  0.137325  0.113854  1
  Pt  Pt19  1  0.749881  0.862069  0.888090  1
