# generated using pymatgen
data_Er3Tm5CdAgPt2
_symmetry_space_group_name_H-M   'P 1'
_cell_length_a   9.51336737
_cell_length_b   9.51336705
_cell_length_c   9.50675300
_cell_angle_alpha   60.02299212
_cell_angle_beta   60.02299323
_cell_angle_gamma   59.95282554
_symmetry_Int_Tables_number   1
_chemical_formula_structural   Er3Tm5CdAgPt2
_chemical_formula_sum   'Er6 Tm10 Cd2 Ag2 Pt4'
_cell_volume   608.38906053
_cell_formula_units_Z   2
loop_
 _symmetry_equiv_pos_site_id
 _symmetry_equiv_pos_as_xyz
  1  'x, y, z'
loop_
 _atom_site_type_symbol
 _atom_site_label
 _atom_site_symmetry_multiplicity
 _atom_site_fract_x
 _atom_site_fract_y
 _atom_site_fract_z
 _atom_site_occupancy
  Er  Er0  1  0.932402  0.564013  0.565878  1
  Er  Er1  1  0.564013  0.932402  0.937707  1
  Er  Er2  1  0.564013  0.932402  0.565878  1
  Er  Er3  1  0.932402  0.564013  0.937707  1
  Er  Er4  1  0.564300  0.564300  0.935700  1
  Er  Er5  1  0.935099  0.935099  0.564901  1
  Tm  Tm6  1  0.352997  0.352997  0.351787  1
  Tm  Tm7  1  0.352997  0.352997  0.942220  1
  Tm  Tm8  1  0.356433  0.936059  0.353755  1
  Tm  Tm9  1  0.936059  0.356433  0.353755  1
  Tm  Tm10  1  0.810474  0.189975  0.190386  1
  Tm  Tm11  1  0.189975  0.810474  0.809165  1
  Tm  Tm12  1  0.189975  0.810474  0.190386  1
  Tm  Tm13  1  0.810474  0.189975  0.809165  1
  Tm  Tm14  1  0.190158  0.190158  0.809842  1
  Tm  Tm15  1  0.810687  0.810687  0.189313  1
  Cd  Cd16  1  0.581419  0.256505  0.581039  1
  Cd  Cd17  1  0.256505  0.581419  0.581039  1
  Ag  Ag18  1  0.584560  0.584560  0.583523  1
  Ag  Ag19  1  0.584560  0.584560  0.247358  1
  Pt  Pt20  1  0.143746  0.143746  0.144715  1
  Pt  Pt21  1  0.143746  0.143746  0.567792  1
  Pt  Pt22  1  0.142689  0.570320  0.143495  1
  Pt  Pt23  1  0.570320  0.142689  0.143495  1
