# generated using pymatgen
data_Dy4Lu4Cr(FeB8)3
_symmetry_space_group_name_H-M   'P 1'
_cell_length_a   3.51419300
_cell_length_b   9.03951698
_cell_length_c   11.42857575
_cell_angle_alpha   90.09291242
_cell_angle_beta   90.00000000
_cell_angle_gamma   90.00000000
_symmetry_Int_Tables_number   1
_chemical_formula_structural   Dy4Lu4Cr(FeB8)3
_chemical_formula_sum   'Dy4 Lu4 Cr1 Fe3 B24'
_cell_volume   363.04660030
_cell_formula_units_Z   1
loop_
 _symmetry_equiv_pos_site_id
 _symmetry_equiv_pos_as_xyz
  1  'x, y, z'
loop_
 _atom_site_type_symbol
 _atom_site_label
 _atom_site_symmetry_multiplicity
 _atom_site_fract_x
 _atom_site_fract_y
 _atom_site_fract_z
 _atom_site_occupancy
  Dy  Dy0  1  0.000000  0.823665  0.085882  1
  Dy  Dy1  1  0.000000  0.176233  0.914825  1
  Dy  Dy2  1  0.000000  0.323451  0.413737  1
  Dy  Dy3  1  0.000000  0.675757  0.585001  1
  Lu  Lu4  1  0.000000  0.444692  0.129365  1
  Lu  Lu5  1  0.000000  0.557859  0.869293  1
  Lu  Lu6  1  0.000000  0.942596  0.371107  1
  Lu  Lu7  1  0.000000  0.057076  0.631071  1
  Cr  Cr8  1  0.000000  0.139268  0.180292  1
  Fe  Fe9  1  0.000000  0.859715  0.818545  1
  Fe  Fe10  1  0.000000  0.639429  0.320244  1
  Fe  Fe11  1  0.000000  0.360751  0.680684  1
  B  B12  1  0.500000  0.053289  0.067330  1
  B  B13  1  0.500000  0.944987  0.931079  1
  B  B14  1  0.500000  0.554944  0.431237  1
  B  B15  1  0.500000  0.444837  0.568510  1
  B  B16  1  0.500000  0.249369  0.081388  1
  B  B17  1  0.500000  0.752470  0.917251  1
  B  B18  1  0.500000  0.747750  0.417421  1
  B  B19  1  0.500000  0.251939  0.582671  1
  B  B20  1  0.500000  0.292785  0.234755  1
  B  B21  1  0.500000  0.709529  0.765772  1
  B  B22  1  0.500000  0.790288  0.266287  1
  B  B23  1  0.500000  0.209945  0.734320  1
  B  B24  1  0.500000  0.131194  0.314989  1
  B  B25  1  0.500000  0.868394  0.685561  1
  B  B26  1  0.500000  0.631379  0.186280  1
  B  B27  1  0.500000  0.369007  0.814359  1
  B  B28  1  0.500000  0.485600  0.287735  1
  B  B29  1  0.500000  0.514355  0.712030  1
  B  B30  1  0.500000  0.982375  0.212811  1
  B  B31  1  0.500000  0.013969  0.787715  1
  B  B32  1  0.500000  0.102936  0.472851  1
  B  B33  1  0.500000  0.896588  0.528769  1
  B  B34  1  0.500000  0.603767  0.027916  1
  B  B35  1  0.500000  0.397812  0.970919  1
