# generated using pymatgen
data_Lu2Nb3P7Rh9
_symmetry_space_group_name_H-M   'P 1'
_cell_length_a   3.90039700
_cell_length_b   9.62462197
_cell_length_c   9.62426722
_cell_angle_alpha   119.99413332
_cell_angle_beta   90.00118307
_cell_angle_gamma   89.99956332
_symmetry_Int_Tables_number   1
_chemical_formula_structural   Lu2Nb3P7Rh9
_chemical_formula_sum   'Lu2 Nb3 P7 Rh9'
_cell_volume   312.90785814
_cell_formula_units_Z   1
loop_
 _symmetry_equiv_pos_site_id
 _symmetry_equiv_pos_as_xyz
  1  'x, y, z'
loop_
 _atom_site_type_symbol
 _atom_site_label
 _atom_site_symmetry_multiplicity
 _atom_site_fract_x
 _atom_site_fract_y
 _atom_site_fract_z
 _atom_site_occupancy
  Lu  Lu0  1  0.261201  0.666711  0.333458  1
  Lu  Lu1  1  0.762087  0.333315  0.666590  1
  Nb  Nb2  1  0.762114  0.095259  0.873247  1
  Nb  Nb3  1  0.762105  0.126810  0.221984  1
  Nb  Nb4  1  0.762094  0.777863  0.904711  1
  P  P5  1  0.262353  0.999994  0.000024  1
  P  P6  1  0.761665  0.874613  0.587866  1
  P  P7  1  0.761632  0.412000  0.286589  1
  P  P8  1  0.761632  0.713344  0.125439  1
  P  P9  1  0.262259  0.118217  0.417470  1
  P  P10  1  0.262298  0.582578  0.700785  1
  P  P11  1  0.262266  0.299258  0.881836  1
  Rh  Rh12  1  0.261876  0.882862  0.163208  1
  Rh  Rh13  1  0.261878  0.836733  0.719612  1
  Rh  Rh14  1  0.261882  0.280459  0.117297  1
  Rh  Rh15  1  0.761863  0.610137  0.554148  1
  Rh  Rh16  1  0.761837  0.445796  0.055848  1
  Rh  Rh17  1  0.761852  0.944215  0.389940  1
  Rh  Rh18  1  0.261699  0.367604  0.441042  1
  Rh  Rh19  1  0.261692  0.558779  0.926529  1
  Rh  Rh20  1  0.261715  0.073456  0.632374  1
