# generated using pymatgen
data_HoAlCu2Si
_symmetry_space_group_name_H-M   'P 1'
_cell_length_a   4.01671100
_cell_length_b   4.01671100
_cell_length_c   10.14340400
_cell_angle_alpha   90.00000000
_cell_angle_beta   90.00000000
_cell_angle_gamma   90.00000000
_symmetry_Int_Tables_number   1
_chemical_formula_structural   HoAlCu2Si
_chemical_formula_sum   'Ho2 Al2 Cu4 Si2'
_cell_volume   163.65334802
_cell_formula_units_Z   2
loop_
 _symmetry_equiv_pos_site_id
 _symmetry_equiv_pos_as_xyz
  1  'x, y, z'
loop_
 _atom_site_type_symbol
 _atom_site_label
 _atom_site_symmetry_multiplicity
 _atom_site_fract_x
 _atom_site_fract_y
 _atom_site_fract_z
 _atom_site_occupancy
  Ho  Ho0  1  0.000000  0.500000  0.762988  1
  Ho  Ho1  1  0.500000  0.000000  0.237012  1
  Al  Al2  1  0.500000  0.500000  0.500000  1
  Al  Al3  1  0.000000  0.000000  0.500000  1
  Cu  Cu4  1  0.500000  0.000000  0.644392  1
  Cu  Cu5  1  0.000000  0.000000  0.000000  1
  Cu  Cu6  1  0.500000  0.500000  0.000000  1
  Cu  Cu7  1  0.000000  0.500000  0.355608  1
  Si  Si8  1  0.000000  0.500000  0.129235  1
  Si  Si9  1  0.500000  0.000000  0.870765  1
