# generated using pymatgen
data_La8Y12Si15Sn
_symmetry_space_group_name_H-M   'P 1'
_cell_length_a   7.56477700
_cell_length_b   7.94396521
_cell_length_c   14.98713500
_cell_angle_alpha   90.00000000
_cell_angle_beta   90.00000000
_cell_angle_gamma   90.11574614
_symmetry_Int_Tables_number   1
_chemical_formula_structural   La8Y12Si15Sn
_chemical_formula_sum   'La8 Y12 Si15 Sn1'
_cell_volume   900.63992835
_cell_formula_units_Z   1
loop_
 _symmetry_equiv_pos_site_id
 _symmetry_equiv_pos_as_xyz
  1  'x, y, z'
loop_
 _atom_site_type_symbol
 _atom_site_label
 _atom_site_symmetry_multiplicity
 _atom_site_fract_x
 _atom_site_fract_y
 _atom_site_fract_z
 _atom_site_occupancy
  La  La0  1  0.021201  0.179481  0.097978  1
  La  La1  1  0.979389  0.815321  0.905146  1
  La  La2  1  0.480088  0.677859  0.903530  1
  La  La3  1  0.979389  0.815321  0.594854  1
  La  La4  1  0.519922  0.320925  0.098430  1
  La  La5  1  0.021201  0.179481  0.402022  1
  La  La6  1  0.519922  0.320925  0.401570  1
  La  La7  1  0.480088  0.677859  0.596470  1
  Y  Y8  1  0.153614  0.513234  0.750000  1
  Y  Y9  1  0.845895  0.490482  0.250000  1
  Y  Y10  1  0.345878  0.011905  0.250000  1
  Y  Y11  1  0.644950  0.984407  0.750000  1
  Y  Y12  1  0.329680  0.180438  0.620291  1
  Y  Y13  1  0.679242  0.823191  0.375820  1
  Y  Y14  1  0.179724  0.678087  0.375966  1
  Y  Y15  1  0.679242  0.823191  0.124180  1
  Y  Y16  1  0.810972  0.329327  0.618899  1
  Y  Y17  1  0.329680  0.180438  0.879709  1
  Y  Y18  1  0.810972  0.329327  0.881101  1
  Y  Y19  1  0.179724  0.678087  0.124034  1
  Si  Si20  1  0.973338  0.888075  0.250000  1
  Si  Si21  1  0.472955  0.613656  0.250000  1
  Si  Si22  1  0.526047  0.386655  0.750000  1
  Si  Si23  1  0.280709  0.869483  0.750000  1
  Si  Si24  1  0.727605  0.120461  0.250000  1
  Si  Si25  1  0.226880  0.381293  0.250000  1
  Si  Si26  1  0.772027  0.619612  0.750000  1
  Si  Si27  1  0.144207  0.468123  0.538312  1
  Si  Si28  1  0.856046  0.531362  0.458357  1
  Si  Si29  1  0.356338  0.968725  0.459925  1
  Si  Si30  1  0.856046  0.531362  0.041643  1
  Si  Si31  1  0.646549  0.029842  0.538070  1
  Si  Si32  1  0.144207  0.468123  0.961688  1
  Si  Si33  1  0.646549  0.029842  0.961930  1
  Si  Si34  1  0.356338  0.968725  0.040075  1
  Sn  Sn35  1  0.023387  0.115376  0.750000  1
