# generated using pymatgen
data_Gd5(ReO6)2
_symmetry_space_group_name_H-M   'P 1'
_cell_length_a   6.93472372
_cell_length_b   6.93472312
_cell_length_c   7.68212766
_cell_angle_alpha   73.71358358
_cell_angle_beta   73.71358458
_cell_angle_gamma   48.68517848
_symmetry_Int_Tables_number   1
_chemical_formula_structural   Gd5(ReO6)2
_chemical_formula_sum   'Gd5 Re2 O12'
_cell_volume   264.00955614
_cell_formula_units_Z   1
loop_
 _symmetry_equiv_pos_site_id
 _symmetry_equiv_pos_as_xyz
  1  'x, y, z'
loop_
 _atom_site_type_symbol
 _atom_site_label
 _atom_site_symmetry_multiplicity
 _atom_site_fract_x
 _atom_site_fract_y
 _atom_site_fract_z
 _atom_site_occupancy
  Gd  Gd0  1  0.195169  0.195169  0.642786  1
  Gd  Gd1  1  0.185735  0.185735  0.174636  1
  Gd  Gd2  1  0.500000  0.500000  0.500000  1
  Gd  Gd3  1  0.804831  0.804831  0.357214  1
  Gd  Gd4  1  0.814265  0.814265  0.825364  1
  Re  Re5  1  0.713752  0.286248  0.000000  1
  Re  Re6  1  0.286248  0.713752  0.000000  1
  O  O7  1  0.412348  0.914054  0.916711  1
  O  O8  1  0.914054  0.412348  0.916711  1
  O  O9  1  0.906524  0.402131  0.425646  1
  O  O10  1  0.402131  0.906524  0.425646  1
  O  O11  1  0.502072  0.502072  0.202613  1
  O  O12  1  0.999371  0.999371  0.172664  1
  O  O13  1  0.000629  0.000629  0.827336  1
  O  O14  1  0.497928  0.497928  0.797387  1
  O  O15  1  0.085946  0.587652  0.083289  1
  O  O16  1  0.587652  0.085946  0.083289  1
  O  O17  1  0.093476  0.597869  0.574354  1
  O  O18  1  0.597869  0.093476  0.574354  1
