# generated using pymatgen
data_Eu2Zn23GaCu2
_symmetry_space_group_name_H-M   'P 1'
_cell_length_a   8.60594357
_cell_length_b   8.61773205
_cell_length_c   8.62369728
_cell_angle_alpha   59.94125424
_cell_angle_beta   60.02225829
_cell_angle_gamma   60.09109143
_symmetry_Int_Tables_number   1
_chemical_formula_structural   Eu2Zn23GaCu2
_chemical_formula_sum   'Eu2 Zn23 Ga1 Cu2'
_cell_volume   452.42611014
_cell_formula_units_Z   1
loop_
 _symmetry_equiv_pos_site_id
 _symmetry_equiv_pos_as_xyz
  1  'x, y, z'
loop_
 _atom_site_type_symbol
 _atom_site_label
 _atom_site_symmetry_multiplicity
 _atom_site_fract_x
 _atom_site_fract_y
 _atom_site_fract_z
 _atom_site_occupancy
  Eu  Eu0  1  0.249633  0.250205  0.249981  1
  Eu  Eu1  1  0.749819  0.750019  0.749795  1
  Zn  Zn2  1  0.941417  0.703245  0.296755  1
  Zn  Zn3  1  0.557398  0.798676  0.442511  1
  Zn  Zn4  1  0.202885  0.443016  0.799737  1
  Zn  Zn5  1  0.057353  0.942516  0.297876  1
  Zn  Zn6  1  0.442596  0.557443  0.798251  1
  Zn  Zn7  1  0.942090  0.297516  0.059547  1
  Zn  Zn8  1  0.442818  0.797517  0.202483  1
  Zn  Zn9  1  0.202357  0.797793  0.557923  1
  Zn  Zn10  1  0.298896  0.056723  0.943277  1
  Zn  Zn11  1  0.297745  0.702124  0.057484  1
  Zn  Zn12  1  0.702767  0.942542  0.057458  1
  Zn  Zn13  1  0.798585  0.557489  0.201324  1
  Zn  Zn14  1  0.557731  0.201885  0.798115  1
  Zn  Zn15  1  0.941530  0.054482  0.702040  1
  Zn  Zn16  1  0.798290  0.201749  0.442557  1
  Zn  Zn17  1  0.698052  0.297960  0.945518  1
  Zn  Zn18  1  0.702623  0.057983  0.297369  1
  Zn  Zn19  1  0.299153  0.940453  0.702484  1
  Zn  Zn20  1  0.558072  0.442077  0.202207  1
  Zn  Zn21  1  0.057974  0.702631  0.942017  1
  Zn  Zn22  1  0.445639  0.200263  0.556984  1
  Zn  Zn23  1  0.795514  0.443617  0.556383  1
  Zn  Zn24  1  0.203110  0.560019  0.439981  1
  Ga  Ga25  1  0.056525  0.299055  0.700945  1
  Cu  Cu26  1  0.499310  0.500045  0.499955  1
  Cu  Cu27  1  0.000121  0.000958  0.999042  1
