# generated using pymatgen
data_Cs2U3OF12
_symmetry_space_group_name_H-M   'P 1'
_cell_length_a   11.90814848
_cell_length_b   11.90814810
_cell_length_c   11.90814819
_cell_angle_alpha   41.46224396
_cell_angle_beta   41.46224623
_cell_angle_gamma   41.46224095
_symmetry_Int_Tables_number   1
_chemical_formula_structural   Cs2U3OF12
_chemical_formula_sum   'Cs4 U6 O2 F24'
_cell_volume   668.94693257
_cell_formula_units_Z   2
loop_
 _symmetry_equiv_pos_site_id
 _symmetry_equiv_pos_as_xyz
  1  'x, y, z'
loop_
 _atom_site_type_symbol
 _atom_site_label
 _atom_site_symmetry_multiplicity
 _atom_site_fract_x
 _atom_site_fract_y
 _atom_site_fract_z
 _atom_site_occupancy
  Cs  Cs0  1  0.000000  0.000000  0.000000  1
  Cs  Cs1  1  0.500000  0.500000  0.500000  1
  Cs  Cs2  1  0.136616  0.136616  0.136616  1
  Cs  Cs3  1  0.863384  0.863384  0.863384  1
  U  U4  1  0.576315  0.576315  0.030610  1
  U  U5  1  0.030610  0.576315  0.576315  1
  U  U6  1  0.576315  0.030610  0.576315  1
  U  U7  1  0.423685  0.969390  0.423685  1
  U  U8  1  0.969390  0.423685  0.423685  1
  U  U9  1  0.423685  0.423685  0.969390  1
  O  O10  1  0.283224  0.283224  0.283224  1
  O  O11  1  0.716776  0.716776  0.716776  1
  F  F12  1  0.375305  0.702166  0.702166  1
  F  F13  1  0.702166  0.375305  0.702166  1
  F  F14  1  0.702166  0.702166  0.375305  1
  F  F15  1  0.624695  0.297834  0.297834  1
  F  F16  1  0.297834  0.624695  0.297834  1
  F  F17  1  0.297834  0.297834  0.624695  1
  F  F18  1  0.089249  0.598580  0.089249  1
  F  F19  1  0.089249  0.089249  0.598580  1
  F  F20  1  0.000000  0.355850  0.644150  1
  F  F21  1  0.355850  0.644150  0.000000  1
  F  F22  1  0.644150  0.000000  0.355850  1
  F  F23  1  0.000000  0.644150  0.355850  1
  F  F24  1  0.644150  0.355850  0.000000  1
  F  F25  1  0.355850  0.000000  0.644150  1
  F  F26  1  0.077087  0.651663  0.651663  1
  F  F27  1  0.651663  0.651663  0.077087  1
  F  F28  1  0.651663  0.077087  0.651663  1
  F  F29  1  0.348337  0.922913  0.348337  1
  F  F30  1  0.922913  0.348337  0.348337  1
  F  F31  1  0.348337  0.348337  0.922913  1
  F  F32  1  0.910751  0.401420  0.910751  1
  F  F33  1  0.401420  0.910751  0.910751  1
  F  F34  1  0.910751  0.910751  0.401420  1
  F  F35  1  0.598580  0.089249  0.089249  1
