# generated using pymatgen
data_Tb4Dy(GaSb)2
_symmetry_space_group_name_H-M   'P 1'
_cell_length_a   8.68789801
_cell_length_b   8.68789634
_cell_length_c   7.96791000
_cell_angle_alpha   90.00000000
_cell_angle_beta   90.00000000
_cell_angle_gamma   125.39360425
_symmetry_Int_Tables_number   1
_chemical_formula_structural   Tb4Dy(GaSb)2
_chemical_formula_sum   'Tb8 Dy2 Ga4 Sb4'
_cell_volume   490.26841521
_cell_formula_units_Z   2
loop_
 _symmetry_equiv_pos_site_id
 _symmetry_equiv_pos_as_xyz
  1  'x, y, z'
loop_
 _atom_site_type_symbol
 _atom_site_label
 _atom_site_symmetry_multiplicity
 _atom_site_fract_x
 _atom_site_fract_y
 _atom_site_fract_z
 _atom_site_occupancy
  Tb  Tb0  1  0.038742  0.300532  0.332413  1
  Tb  Tb1  1  0.961258  0.699468  0.667587  1
  Tb  Tb2  1  0.461258  0.199468  0.832413  1
  Tb  Tb3  1  0.800532  0.538742  0.167587  1
  Tb  Tb4  1  0.538742  0.800532  0.167587  1
  Tb  Tb5  1  0.199468  0.461258  0.832413  1
  Tb  Tb6  1  0.699468  0.961258  0.667587  1
  Tb  Tb7  1  0.300532  0.038742  0.332413  1
  Dy  Dy8  1  0.000000  0.000000  0.000000  1
  Dy  Dy9  1  0.500000  0.500000  0.500000  1
  Ga  Ga10  1  0.375177  0.375177  0.124291  1
  Ga  Ga11  1  0.624823  0.624823  0.875709  1
  Ga  Ga12  1  0.124823  0.124823  0.624291  1
  Ga  Ga13  1  0.875177  0.875177  0.375709  1
  Sb  Sb14  1  0.795054  0.204946  0.000000  1
  Sb  Sb15  1  0.204946  0.795054  0.000000  1
  Sb  Sb16  1  0.704946  0.295054  0.500000  1
  Sb  Sb17  1  0.295054  0.704946  0.500000  1
