# generated using pymatgen
data_Tm3As4Rh7
_symmetry_space_group_name_H-M   'P 1'
_cell_length_a   7.85971746
_cell_length_b   7.85971692
_cell_length_c   9.28144600
_cell_angle_alpha   56.02546032
_cell_angle_beta   56.02545416
_cell_angle_gamma   29.34302048
_symmetry_Int_Tables_number   1
_chemical_formula_structural   Tm3As4Rh7
_chemical_formula_sum   'Tm3 As4 Rh7'
_cell_volume   229.34873314
_cell_formula_units_Z   1
loop_
 _symmetry_equiv_pos_site_id
 _symmetry_equiv_pos_as_xyz
  1  'x, y, z'
loop_
 _atom_site_type_symbol
 _atom_site_label
 _atom_site_symmetry_multiplicity
 _atom_site_fract_x
 _atom_site_fract_y
 _atom_site_fract_z
 _atom_site_occupancy
  Tm  Tm0  1  0.667657  0.667657  0.337534  1
  Tm  Tm1  1  0.332343  0.332343  0.662466  1
  Tm  Tm2  1  0.000000  0.000000  0.000000  1
  As  As3  1  0.333465  0.333465  0.267740  1
  As  As4  1  0.666535  0.666535  0.732260  1
  As  As5  1  0.891319  0.891319  0.830325  1
  As  As6  1  0.108681  0.108681  0.169675  1
  Rh  Rh7  1  0.301802  0.301802  0.040926  1
  Rh  Rh8  1  0.698198  0.698198  0.959074  1
  Rh  Rh9  1  0.509551  0.509551  0.720538  1
  Rh  Rh10  1  0.833698  0.833698  0.426156  1
  Rh  Rh11  1  0.490449  0.490449  0.279462  1
  Rh  Rh12  1  0.166302  0.166302  0.573844  1
  Rh  Rh13  1  0.000000  0.000000  0.500000  1
