# generated using pymatgen
data_LaHo2Er3CoBr10
_symmetry_space_group_name_H-M   'P 1'
_cell_length_a   7.40005440
_cell_length_b   9.22893869
_cell_length_c   9.22918600
_cell_angle_alpha   107.23597198
_cell_angle_beta   96.56518292
_cell_angle_gamma   105.34945915
_symmetry_Int_Tables_number   1
_chemical_formula_structural   LaHo2Er3CoBr10
_chemical_formula_sum   'La1 Ho2 Er3 Co1 Br10'
_cell_volume   567.66748255
_cell_formula_units_Z   1
loop_
 _symmetry_equiv_pos_site_id
 _symmetry_equiv_pos_as_xyz
  1  'x, y, z'
loop_
 _atom_site_type_symbol
 _atom_site_label
 _atom_site_symmetry_multiplicity
 _atom_site_fract_x
 _atom_site_fract_y
 _atom_site_fract_z
 _atom_site_occupancy
  La  La0  1  0.876995  0.951449  0.739931  1
  Ho  Ho1  1  0.031327  0.707250  0.405129  1
  Ho  Ho2  1  0.969921  0.291738  0.587899  1
  Er  Er3  1  0.118276  0.045817  0.273842  1
  Er  Er4  1  0.351184  0.130994  0.673223  1
  Er  Er5  1  0.649728  0.870694  0.326833  1
  Co  Co6  1  0.997117  0.997878  0.505091  1
  Br  Br7  1  0.444904  0.820330  0.577513  1
  Br  Br8  1  0.539910  0.173731  0.412603  1
  Br  Br9  1  0.919420  0.617116  0.662941  1
  Br  Br10  1  0.085959  0.366662  0.325195  1
  Br  Br11  1  0.264854  0.087998  0.959426  1
  Br  Br12  1  0.756620  0.920602  0.055280  1
  Br  Br13  1  0.343630  0.445718  0.769490  1
  Br  Br14  1  0.655003  0.555072  0.229696  1
  Br  Br15  1  0.772597  0.263016  0.836086  1
  Br  Br16  1  0.222553  0.753934  0.159824  1
