# generated using pymatgen
data_Ce3YTmIr3
_symmetry_space_group_name_H-M   'P 1'
_cell_length_a   11.03364200
_cell_length_b   11.11760900
_cell_length_c   6.27732000
_cell_angle_alpha   90.00000000
_cell_angle_beta   90.00000000
_cell_angle_gamma   90.00000000
_symmetry_Int_Tables_number   1
_chemical_formula_structural   Ce3YTmIr3
_chemical_formula_sum   'Ce12 Y4 Tm4 Ir12'
_cell_volume   770.02451706
_cell_formula_units_Z   4
loop_
 _symmetry_equiv_pos_site_id
 _symmetry_equiv_pos_as_xyz
  1  'x, y, z'
loop_
 _atom_site_type_symbol
 _atom_site_label
 _atom_site_symmetry_multiplicity
 _atom_site_fract_x
 _atom_site_fract_y
 _atom_site_fract_z
 _atom_site_occupancy
  Ce  Ce0  1  0.290384  0.090044  0.380645  1
  Ce  Ce1  1  0.290384  0.909956  0.880645  1
  Ce  Ce2  1  0.709616  0.090044  0.880645  1
  Ce  Ce3  1  0.709616  0.909956  0.380645  1
  Ce  Ce4  1  0.592587  0.785385  0.883782  1
  Ce  Ce5  1  0.592587  0.214615  0.383782  1
  Ce  Ce6  1  0.407413  0.785385  0.383782  1
  Ce  Ce7  1  0.407413  0.214615  0.883782  1
  Ce  Ce8  1  0.205769  0.411855  0.616524  1
  Ce  Ce9  1  0.205769  0.588145  0.116524  1
  Ce  Ce10  1  0.794231  0.411855  0.116524  1
  Ce  Ce11  1  0.794231  0.588145  0.616524  1
  Y  Y12  1  0.913908  0.714429  0.118720  1
  Y  Y13  1  0.913908  0.285571  0.618720  1
  Y  Y14  1  0.086092  0.714429  0.618720  1
  Y  Y15  1  0.086092  0.285571  0.118720  1
  Tm  Tm16  1  0.000000  0.000000  0.493270  1
  Tm  Tm17  1  0.000000  0.000000  0.993270  1
  Tm  Tm18  1  0.500000  0.500000  0.010046  1
  Tm  Tm19  1  0.500000  0.500000  0.510046  1
  Ir  Ir20  1  0.843860  0.149595  0.240690  1
  Ir  Ir21  1  0.843860  0.850405  0.740690  1
  Ir  Ir22  1  0.156140  0.149595  0.740690  1
  Ir  Ir23  1  0.156140  0.850405  0.240690  1
  Ir  Ir24  1  0.653210  0.344504  0.757234  1
  Ir  Ir25  1  0.653210  0.655496  0.257234  1
  Ir  Ir26  1  0.346790  0.344504  0.257234  1
  Ir  Ir27  1  0.346790  0.655496  0.757234  1
  Ir  Ir28  1  0.500000  0.000000  0.121816  1
  Ir  Ir29  1  0.500000  0.000000  0.621816  1
  Ir  Ir30  1  0.000000  0.500000  0.879676  1
  Ir  Ir31  1  0.000000  0.500000  0.379676  1
