# generated using pymatgen
data_Sr4Yb3Gd3Pt8
_symmetry_space_group_name_H-M   'P 1'
_cell_length_a   7.86567800
_cell_length_b   8.01492681
_cell_length_c   15.20909200
_cell_angle_alpha   90.06276502
_cell_angle_beta   90.00000000
_cell_angle_gamma   90.00000000
_symmetry_Int_Tables_number   1
_chemical_formula_structural   Sr4Yb3Gd3Pt8
_chemical_formula_sum   'Sr8 Yb6 Gd6 Pt16'
_cell_volume   958.82367893
_cell_formula_units_Z   2
loop_
 _symmetry_equiv_pos_site_id
 _symmetry_equiv_pos_as_xyz
  1  'x, y, z'
loop_
 _atom_site_type_symbol
 _atom_site_label
 _atom_site_symmetry_multiplicity
 _atom_site_fract_x
 _atom_site_fract_y
 _atom_site_fract_z
 _atom_site_occupancy
  Sr  Sr0  1  0.496068  0.324489  0.902540  1
  Sr  Sr1  1  0.996068  0.175511  0.597460  1
  Sr  Sr2  1  0.502336  0.679379  0.403338  1
  Sr  Sr3  1  0.002336  0.820621  0.096662  1
  Sr  Sr4  1  0.503245  0.677899  0.097630  1
  Sr  Sr5  1  0.003245  0.822101  0.402370  1
  Sr  Sr6  1  0.496013  0.319739  0.597749  1
  Sr  Sr7  1  0.996013  0.180261  0.902251  1
  Yb  Yb8  1  0.340065  0.831303  0.623163  1
  Yb  Yb9  1  0.840065  0.668697  0.876837  1
  Yb  Yb10  1  0.176452  0.497637  0.750073  1
  Yb  Yb11  1  0.676452  0.002363  0.749927  1
  Yb  Yb12  1  0.822623  0.505790  0.250029  1
  Yb  Yb13  1  0.322623  0.994210  0.249971  1
  Gd  Gd14  1  0.340819  0.833213  0.875481  1
  Gd  Gd15  1  0.840819  0.666787  0.624519  1
  Gd  Gd16  1  0.661467  0.167593  0.375646  1
  Gd  Gd17  1  0.161467  0.332407  0.124354  1
  Gd  Gd18  1  0.660557  0.167389  0.123358  1
  Gd  Gd19  1  0.160557  0.332611  0.376642  1
  Pt  Pt20  1  0.335462  0.044483  0.045616  1
  Pt  Pt21  1  0.835462  0.455517  0.454384  1
  Pt  Pt22  1  0.665228  0.955113  0.541092  1
  Pt  Pt23  1  0.165228  0.544887  0.958908  1
  Pt  Pt24  1  0.656484  0.962588  0.958208  1
  Pt  Pt25  1  0.156484  0.537412  0.541792  1
  Pt  Pt26  1  0.342648  0.046855  0.452475  1
  Pt  Pt27  1  0.842648  0.453145  0.047525  1
  Pt  Pt28  1  0.546726  0.635679  0.752729  1
  Pt  Pt29  1  0.046726  0.864321  0.747271  1
  Pt  Pt30  1  0.456108  0.364090  0.249352  1
  Pt  Pt31  1  0.956108  0.135910  0.250648  1
  Pt  Pt32  1  0.299348  0.115321  0.753250  1
  Pt  Pt33  1  0.799348  0.384679  0.746750  1
  Pt  Pt34  1  0.698352  0.886549  0.249766  1
  Pt  Pt35  1  0.198352  0.613451  0.250234  1
