# generated using pymatgen
data_B12SeS
_symmetry_space_group_name_H-M   'P 1'
_cell_length_a   5.39211733
_cell_length_b   5.39211769
_cell_length_c   5.39211803
_cell_angle_alpha   67.78021966
_cell_angle_beta   67.78021743
_cell_angle_gamma   67.78022604
_symmetry_Int_Tables_number   1
_chemical_formula_structural   B12SeS
_chemical_formula_sum   'B12 Se1 S1'
_cell_volume   129.19877415
_cell_formula_units_Z   1
loop_
 _symmetry_equiv_pos_site_id
 _symmetry_equiv_pos_as_xyz
  1  'x, y, z'
loop_
 _atom_site_type_symbol
 _atom_site_label
 _atom_site_symmetry_multiplicity
 _atom_site_fract_x
 _atom_site_fract_y
 _atom_site_fract_z
 _atom_site_occupancy
  B  B0  1  0.013752  0.013752  0.318924  1
  B  B1  1  0.318924  0.013752  0.013752  1
  B  B2  1  0.280358  0.815511  0.815511  1
  B  B3  1  0.815511  0.815511  0.280358  1
  B  B4  1  0.815511  0.280358  0.815511  1
  B  B5  1  0.174587  0.719790  0.174587  1
  B  B6  1  0.719790  0.174587  0.174587  1
  B  B7  1  0.174587  0.174587  0.719790  1
  B  B8  1  0.670651  0.983447  0.983447  1
  B  B9  1  0.983447  0.983447  0.670651  1
  B  B10  1  0.983447  0.670651  0.983447  1
  B  B11  1  0.013752  0.318924  0.013752  1
  Se  Se12  1  0.399358  0.399358  0.399358  1
  S  S13  1  0.636326  0.636326  0.636326  1
