# generated using pymatgen
data_Pm2Ag5
_symmetry_space_group_name_H-M   'P 1'
_cell_length_a   4.46051983
_cell_length_b   5.54418859
_cell_length_c   8.47648000
_cell_angle_alpha   90.44223339
_cell_angle_beta   121.74042894
_cell_angle_gamma   113.75559288
_symmetry_Int_Tables_number   1
_chemical_formula_structural   Pm2Ag5
_chemical_formula_sum   'Pm2 Ag5'
_cell_volume   156.53670902
_cell_formula_units_Z   1
loop_
 _symmetry_equiv_pos_site_id
 _symmetry_equiv_pos_as_xyz
  1  'x, y, z'
loop_
 _atom_site_type_symbol
 _atom_site_label
 _atom_site_symmetry_multiplicity
 _atom_site_fract_x
 _atom_site_fract_y
 _atom_site_fract_z
 _atom_site_occupancy
  Pm  Pm0  1  0.752493  0.681298  0.162542  1
  Pm  Pm1  1  0.534459  0.199929  0.684441  1
  Ag  Ag2  1  0.142842  0.939683  0.923398  1
  Ag  Ag3  1  0.008304  0.264019  0.126740  1
  Ag  Ag4  1  0.277661  0.616783  0.719679  1
  Ag  Ag5  1  0.697318  0.182633  0.356723  1
  Ag  Ag6  1  0.588818  0.698178  0.489586  1
