# generated using pymatgen
data_Nd2Eu6Si12IrPd3
_symmetry_space_group_name_H-M   'P 1'
_cell_length_a   8.31806300
_cell_length_b   8.31806373
_cell_length_c   8.59404400
_cell_angle_alpha   90.00000000
_cell_angle_beta   90.00000000
_cell_angle_gamma   119.99999312
_symmetry_Int_Tables_number   1
_chemical_formula_structural   Nd2Eu6Si12IrPd3
_chemical_formula_sum   'Nd2 Eu6 Si12 Ir1 Pd3'
_cell_volume   514.95903640
_cell_formula_units_Z   1
loop_
 _symmetry_equiv_pos_site_id
 _symmetry_equiv_pos_as_xyz
  1  'x, y, z'
loop_
 _atom_site_type_symbol
 _atom_site_label
 _atom_site_symmetry_multiplicity
 _atom_site_fract_x
 _atom_site_fract_y
 _atom_site_fract_z
 _atom_site_occupancy
  Nd  Nd0  1  0.000000  0.000000  0.749148  1
  Nd  Nd1  1  0.000000  0.000000  0.250889  1
  Eu  Eu2  1  0.501917  0.498083  0.752833  1
  Eu  Eu3  1  0.501810  0.498190  0.247067  1
  Eu  Eu4  1  0.996167  0.498083  0.752833  1
  Eu  Eu5  1  0.996380  0.498190  0.247067  1
  Eu  Eu6  1  0.501917  0.003833  0.752833  1
  Eu  Eu7  1  0.501810  0.003620  0.247067  1
  Si  Si8  1  0.832868  0.167132  0.000037  1
  Si  Si9  1  0.163933  0.836067  0.999939  1
  Si  Si10  1  0.334264  0.167132  0.000037  1
  Si  Si11  1  0.164830  0.835170  0.500174  1
  Si  Si12  1  0.672134  0.836067  0.999939  1
  Si  Si13  1  0.835914  0.164086  0.499868  1
  Si  Si14  1  0.832868  0.665736  0.000037  1
  Si  Si15  1  0.670340  0.835170  0.500174  1
  Si  Si16  1  0.163933  0.327866  0.999939  1
  Si  Si17  1  0.328171  0.164086  0.499868  1
  Si  Si18  1  0.164830  0.329660  0.500174  1
  Si  Si19  1  0.835914  0.671829  0.499868  1
  Ir  Ir20  1  0.666667  0.333333  0.999842  1
  Pd  Pd21  1  0.333333  0.666667  0.000185  1
  Pd  Pd22  1  0.333333  0.666667  0.500357  1
  Pd  Pd23  1  0.666667  0.333333  0.499825  1
