# generated using pymatgen
data_Tb8Er8Cd4NiRu3
_symmetry_space_group_name_H-M   'P 1'
_cell_length_a   9.55669450
_cell_length_b   9.59503317
_cell_length_c   9.64852400
_cell_angle_alpha   59.81540668
_cell_angle_beta   59.68162026
_cell_angle_gamma   59.58987571
_symmetry_Int_Tables_number   1
_chemical_formula_structural   Tb8Er8Cd4NiRu3
_chemical_formula_sum   'Tb8 Er8 Cd4 Ni1 Ru3'
_cell_volume   621.27455587
_cell_formula_units_Z   1
loop_
 _symmetry_equiv_pos_site_id
 _symmetry_equiv_pos_as_xyz
  1  'x, y, z'
loop_
 _atom_site_type_symbol
 _atom_site_label
 _atom_site_symmetry_multiplicity
 _atom_site_fract_x
 _atom_site_fract_y
 _atom_site_fract_z
 _atom_site_occupancy
  Tb  Tb0  1  0.187343  0.187924  0.812366  1
  Tb  Tb1  1  0.811279  0.811975  0.188373  1
  Tb  Tb2  1  0.939871  0.559626  0.559837  1
  Tb  Tb3  1  0.558070  0.938259  0.938198  1
  Tb  Tb4  1  0.558070  0.938259  0.565471  1
  Tb  Tb5  1  0.939871  0.559626  0.940666  1
  Tb  Tb6  1  0.557461  0.566058  0.938240  1
  Tb  Tb7  1  0.940587  0.940842  0.559285  1
  Er  Er8  1  0.350043  0.346050  0.344058  1
  Er  Er9  1  0.350043  0.346050  0.959849  1
  Er  Er10  1  0.349206  0.960677  0.345058  1
  Er  Er11  1  0.961050  0.345708  0.346622  1
  Er  Er12  1  0.810628  0.188363  0.188857  1
  Er  Er13  1  0.187389  0.811171  0.811808  1
  Er  Er14  1  0.187389  0.811171  0.189631  1
  Er  Er15  1  0.810628  0.188363  0.812151  1
  Cd  Cd16  1  0.579315  0.580390  0.581267  1
  Cd  Cd17  1  0.579315  0.580390  0.259028  1
  Cd  Cd18  1  0.580074  0.258752  0.580587  1
  Cd  Cd19  1  0.257913  0.580824  0.580630  1
  Ni  Ni20  1  0.575427  0.141870  0.141352  1
  Ru  Ru21  1  0.142575  0.139963  0.139310  1
  Ru  Ru22  1  0.142575  0.139963  0.578153  1
  Ru  Ru23  1  0.143876  0.577723  0.139201  1
