# generated using pymatgen
data_ZrNp(TlCl3)4
_symmetry_space_group_name_H-M   'P 1'
_cell_length_a   7.28095400
_cell_length_b   7.28095400
_cell_length_c   10.40770800
_cell_angle_alpha   90.00000000
_cell_angle_beta   90.00000000
_cell_angle_gamma   90.00000000
_symmetry_Int_Tables_number   1
_chemical_formula_structural   ZrNp(TlCl3)4
_chemical_formula_sum   'Zr1 Np1 Tl4 Cl12'
_cell_volume   551.73644670
_cell_formula_units_Z   1
loop_
 _symmetry_equiv_pos_site_id
 _symmetry_equiv_pos_as_xyz
  1  'x, y, z'
loop_
 _atom_site_type_symbol
 _atom_site_label
 _atom_site_symmetry_multiplicity
 _atom_site_fract_x
 _atom_site_fract_y
 _atom_site_fract_z
 _atom_site_occupancy
  Zr  Zr0  1  0.000000  0.000000  0.000000  1
  Np  Np1  1  0.500000  0.500000  0.500000  1
  Tl  Tl2  1  0.500000  0.000000  0.751705  1
  Tl  Tl3  1  0.500000  0.000000  0.248295  1
  Tl  Tl4  1  0.000000  0.500000  0.248295  1
  Tl  Tl5  1  0.000000  0.500000  0.751705  1
  Cl  Cl6  1  0.792831  0.272033  0.000000  1
  Cl  Cl7  1  0.207169  0.727967  0.000000  1
  Cl  Cl8  1  0.500000  0.500000  0.249757  1
  Cl  Cl9  1  0.284320  0.215379  0.500000  1
  Cl  Cl10  1  0.272033  0.207169  0.000000  1
  Cl  Cl11  1  0.784621  0.284320  0.500000  1
  Cl  Cl12  1  0.000000  0.000000  0.238882  1
  Cl  Cl13  1  0.715680  0.784621  0.500000  1
  Cl  Cl14  1  0.215379  0.715680  0.500000  1
  Cl  Cl15  1  0.500000  0.500000  0.750243  1
  Cl  Cl16  1  0.727967  0.792831  0.000000  1
  Cl  Cl17  1  0.000000  0.000000  0.761118  1
