# generated using pymatgen
data_CeSm3(CdPt2)2
_symmetry_space_group_name_H-M   'P 1'
_cell_length_a   7.80665283
_cell_length_b   7.80665283
_cell_length_c   3.82060100
_cell_angle_alpha   90.00000000
_cell_angle_beta   90.00000000
_cell_angle_gamma   90.72404665
_symmetry_Int_Tables_number   1
_chemical_formula_structural   CeSm3(CdPt2)2
_chemical_formula_sum   'Ce1 Sm3 Cd2 Pt4'
_cell_volume   232.82346052
_cell_formula_units_Z   1
loop_
 _symmetry_equiv_pos_site_id
 _symmetry_equiv_pos_as_xyz
  1  'x, y, z'
loop_
 _atom_site_type_symbol
 _atom_site_label
 _atom_site_symmetry_multiplicity
 _atom_site_fract_x
 _atom_site_fract_y
 _atom_site_fract_z
 _atom_site_occupancy
  Ce  Ce0  1  0.667916  0.167916  0.500000  1
  Sm  Sm1  1  0.169424  0.332018  0.500000  1
  Sm  Sm2  1  0.330153  0.830153  0.500000  1
  Sm  Sm3  1  0.832018  0.669424  0.500000  1
  Cd  Cd4  1  0.499977  0.501412  0.000000  1
  Cd  Cd5  1  0.001412  0.999977  0.000000  1
  Pt  Pt6  1  0.633952  0.874032  0.000000  1
  Pt  Pt7  1  0.128971  0.628971  0.000000  1
  Pt  Pt8  1  0.862146  0.362146  0.000000  1
  Pt  Pt9  1  0.374032  0.133952  0.000000  1
