# generated using pymatgen
data_Ce2NiN2
_symmetry_space_group_name_H-M   'P 1'
_cell_length_a   3.58233300
_cell_length_b   3.58352600
_cell_length_c   11.86462600
_cell_angle_alpha   90.00000000
_cell_angle_beta   90.00000000
_cell_angle_gamma   90.00000000
_symmetry_Int_Tables_number   1
_chemical_formula_structural   Ce2NiN2
_chemical_formula_sum   'Ce4 Ni2 N4'
_cell_volume   152.31075341
_cell_formula_units_Z   2
loop_
 _symmetry_equiv_pos_site_id
 _symmetry_equiv_pos_as_xyz
  1  'x, y, z'
loop_
 _atom_site_type_symbol
 _atom_site_label
 _atom_site_symmetry_multiplicity
 _atom_site_fract_x
 _atom_site_fract_y
 _atom_site_fract_z
 _atom_site_occupancy
  Ce  Ce0  1  0.750000  0.748891  0.103963  1
  Ce  Ce1  1  0.750000  0.748891  0.396037  1
  Ce  Ce2  1  0.250000  0.251109  0.896037  1
  Ce  Ce3  1  0.250000  0.251109  0.603963  1
  Ni  Ni4  1  0.750000  0.749652  0.750000  1
  Ni  Ni5  1  0.250000  0.250348  0.250000  1
  N  N6  1  0.750000  0.751874  0.591441  1
  N  N7  1  0.750000  0.751874  0.908559  1
  N  N8  1  0.250000  0.248126  0.408559  1
  N  N9  1  0.250000  0.248126  0.091441  1
