# generated using pymatgen
data_Ho6LuMoO12
_symmetry_space_group_name_H-M   'P 1'
_cell_length_a   6.62758565
_cell_length_b   6.62758558
_cell_length_c   6.62758523
_cell_angle_alpha   92.41637605
_cell_angle_beta   92.41639404
_cell_angle_gamma   92.41638918
_symmetry_Int_Tables_number   1
_chemical_formula_structural   Ho6LuMoO12
_chemical_formula_sum   'Ho6 Lu1 Mo1 O12'
_cell_volume   290.31682004
_cell_formula_units_Z   1
loop_
 _symmetry_equiv_pos_site_id
 _symmetry_equiv_pos_as_xyz
  1  'x, y, z'
loop_
 _atom_site_type_symbol
 _atom_site_label
 _atom_site_symmetry_multiplicity
 _atom_site_fract_x
 _atom_site_fract_y
 _atom_site_fract_z
 _atom_site_occupancy
  Ho  Ho0  1  0.745092  0.929868  0.438979  1
  Ho  Ho1  1  0.929868  0.438979  0.745092  1
  Ho  Ho2  1  0.438979  0.745092  0.929868  1
  Ho  Ho3  1  0.254908  0.070132  0.561021  1
  Ho  Ho4  1  0.070132  0.561021  0.254908  1
  Ho  Ho5  1  0.561021  0.254908  0.070132  1
  Lu  Lu6  1  0.000000  0.000000  0.000000  1
  Mo  Mo7  1  0.500000  0.500000  0.500000  1
  O  O8  1  0.596614  0.466140  0.811332  1
  O  O9  1  0.466140  0.811332  0.596614  1
  O  O10  1  0.811332  0.596614  0.466140  1
  O  O11  1  0.403386  0.533860  0.188668  1
  O  O12  1  0.533860  0.188668  0.403386  1
  O  O13  1  0.188668  0.403386  0.533860  1
  O  O14  1  0.069527  0.909259  0.313621  1
  O  O15  1  0.909259  0.313621  0.069527  1
  O  O16  1  0.686379  0.930473  0.090741  1
  O  O17  1  0.090741  0.686379  0.930473  1
  O  O18  1  0.930473  0.090741  0.686379  1
  O  O19  1  0.313621  0.069527  0.909259  1
