# generated using pymatgen
data_Li3Dy3InGeAs
_symmetry_space_group_name_H-M   'P 1'
_cell_length_a   7.17046600
_cell_length_b   7.17046575
_cell_length_c   4.29046800
_cell_angle_alpha   90.00000000
_cell_angle_beta   90.00000000
_cell_angle_gamma   119.99999193
_symmetry_Int_Tables_number   1
_chemical_formula_structural   Li3Dy3InGeAs
_chemical_formula_sum   'Li3 Dy3 In1 Ge1 As1'
_cell_volume   191.04253870
_cell_formula_units_Z   1
loop_
 _symmetry_equiv_pos_site_id
 _symmetry_equiv_pos_as_xyz
  1  'x, y, z'
loop_
 _atom_site_type_symbol
 _atom_site_label
 _atom_site_symmetry_multiplicity
 _atom_site_fract_x
 _atom_site_fract_y
 _atom_site_fract_z
 _atom_site_occupancy
  Li  Li0  1  0.750232  0.749668  0.500000  1
  Li  Li1  1  0.250332  0.000564  0.500000  1
  Li  Li2  1  0.999436  0.249768  0.500000  1
  Dy  Dy3  1  0.436092  0.441147  0.000000  1
  Dy  Dy4  1  0.558853  0.994945  0.000000  1
  Dy  Dy5  1  0.005055  0.563908  0.000000  1
  In  In6  1  0.000000  0.000000  0.000000  1
  Ge  Ge7  1  0.333333  0.666667  0.500000  1
  As  As8  1  0.666667  0.333333  0.500000  1
