# generated using pymatgen
data_Hf6Mo2Ir3Os
_symmetry_space_group_name_H-M   'P 1'
_cell_length_a   4.62800200
_cell_length_b   6.53904600
_cell_length_c   13.90825200
_cell_angle_alpha   90.00000000
_cell_angle_beta   90.00005355
_cell_angle_gamma   90.00000000
_symmetry_Int_Tables_number   1
_chemical_formula_structural   Hf6Mo2Ir3Os
_chemical_formula_sum   'Hf12 Mo4 Ir6 Os2'
_cell_volume   420.90150768
_cell_formula_units_Z   2
loop_
 _symmetry_equiv_pos_site_id
 _symmetry_equiv_pos_as_xyz
  1  'x, y, z'
loop_
 _atom_site_type_symbol
 _atom_site_label
 _atom_site_symmetry_multiplicity
 _atom_site_fract_x
 _atom_site_fract_y
 _atom_site_fract_z
 _atom_site_occupancy
  Hf  Hf0  1  0.500000  0.249646  0.998986  1
  Hf  Hf1  1  0.500000  0.750354  0.998986  1
  Hf  Hf2  1  0.999988  0.250355  0.167682  1
  Hf  Hf3  1  0.999988  0.749645  0.167682  1
  Hf  Hf4  1  0.499989  0.250222  0.334678  1
  Hf  Hf5  1  0.499989  0.749778  0.334678  1
  Hf  Hf6  1  0.000000  0.250477  0.500577  1
  Hf  Hf7  1  0.000000  0.749523  0.500577  1
  Hf  Hf8  1  0.500011  0.249528  0.666093  1
  Hf  Hf9  1  0.500011  0.750472  0.666093  1
  Hf  Hf10  1  0.000012  0.249780  0.831986  1
  Hf  Hf11  1  0.000012  0.750220  0.831986  1
  Mo  Mo12  1  0.999988  0.500000  0.330935  1
  Mo  Mo13  1  0.500000  0.000000  0.498942  1
  Mo  Mo14  1  0.000011  0.500000  0.667723  1
  Mo  Mo15  1  0.500012  0.000000  0.835727  1
  Ir  Ir16  1  0.000003  0.000000  0.001459  1
  Ir  Ir17  1  0.499985  0.500000  0.165208  1
  Ir  Ir18  1  0.999989  0.000000  0.331594  1
  Ir  Ir19  1  0.500000  0.500000  0.499467  1
  Ir  Ir20  1  0.000012  0.000000  0.667201  1
  Ir  Ir21  1  0.500014  0.500000  0.835071  1
  Os  Os22  1  0.000000  0.500000  0.001296  1
  Os  Os23  1  0.499986  0.000000  0.165374  1
