# generated using pymatgen
data_Pr12Nd4Mg4IrOs3
_symmetry_space_group_name_H-M   'P 1'
_cell_length_a   10.07965618
_cell_length_b   10.11817216
_cell_length_c   10.08930761
_cell_angle_alpha   59.90502858
_cell_angle_beta   59.77457677
_cell_angle_gamma   59.87574639
_symmetry_Int_Tables_number   1
_chemical_formula_structural   Pr12Nd4Mg4IrOs3
_chemical_formula_sum   'Pr12 Nd4 Mg4 Ir1 Os3'
_cell_volume   725.15303852
_cell_formula_units_Z   1
loop_
 _symmetry_equiv_pos_site_id
 _symmetry_equiv_pos_as_xyz
  1  'x, y, z'
loop_
 _atom_site_type_symbol
 _atom_site_label
 _atom_site_symmetry_multiplicity
 _atom_site_fract_x
 _atom_site_fract_y
 _atom_site_fract_z
 _atom_site_occupancy
  Pr  Pr0  1  0.812103  0.188881  0.189879  1
  Pr  Pr1  1  0.189800  0.810728  0.810320  1
  Pr  Pr2  1  0.189721  0.810260  0.189763  1
  Pr  Pr3  1  0.812751  0.189025  0.809201  1
  Pr  Pr4  1  0.189811  0.189146  0.810327  1
  Pr  Pr5  1  0.812123  0.809122  0.189879  1
  Pr  Pr6  1  0.938868  0.559683  0.559944  1
  Pr  Pr7  1  0.558255  0.940338  0.939201  1
  Pr  Pr8  1  0.559189  0.938876  0.563059  1
  Pr  Pr9  1  0.940249  0.558893  0.941956  1
  Pr  Pr10  1  0.558245  0.562203  0.939199  1
  Pr  Pr11  1  0.938861  0.941501  0.559941  1
  Nd  Nd12  1  0.342983  0.344856  0.344789  1
  Nd  Nd13  1  0.343513  0.344970  0.966561  1
  Nd  Nd14  1  0.342986  0.967385  0.344782  1
  Nd  Nd15  1  0.970121  0.343347  0.343188  1
  Mg  Mg16  1  0.577974  0.578794  0.578317  1
  Mg  Mg17  1  0.577810  0.578731  0.264724  1
  Mg  Mg18  1  0.577972  0.264907  0.578322  1
  Mg  Mg19  1  0.263508  0.579048  0.578397  1
  Ir  Ir20  1  0.580664  0.139803  0.139728  1
  Os  Os21  1  0.140874  0.138537  0.138021  1
  Os  Os22  1  0.140736  0.138393  0.582490  1
  Os  Os23  1  0.140884  0.582575  0.138013  1
