# generated using pymatgen
data_Ti3ReSi3Ru2
_symmetry_space_group_name_H-M   'P 1'
_cell_length_a   7.41989471
_cell_length_b   7.41989513
_cell_length_c   7.41989513
_cell_angle_alpha   126.85491653
_cell_angle_beta   124.84594674
_cell_angle_gamma   80.14457797
_symmetry_Int_Tables_number   1
_chemical_formula_structural   Ti3ReSi3Ru2
_chemical_formula_sum   'Ti6 Re2 Si6 Ru4'
_cell_volume   258.94094763
_cell_formula_units_Z   2
loop_
 _symmetry_equiv_pos_site_id
 _symmetry_equiv_pos_as_xyz
  1  'x, y, z'
loop_
 _atom_site_type_symbol
 _atom_site_label
 _atom_site_symmetry_multiplicity
 _atom_site_fract_x
 _atom_site_fract_y
 _atom_site_fract_z
 _atom_site_occupancy
  Ti  Ti0  1  0.244942  0.909658  0.164715  1
  Ti  Ti1  1  0.965070  0.488887  0.023815  1
  Ti  Ti2  1  0.034930  0.058745  0.523815  1
  Ti  Ti3  1  0.440958  0.484217  0.543259  1
  Ti  Ti4  1  0.755058  0.919773  0.664715  1
  Ti  Ti5  1  0.559042  0.102301  0.043259  1
  Re  Re6  1  0.500000  0.243460  0.743460  1
  Re  Re7  1  0.000000  0.243460  0.243460  1
  Si  Si8  1  0.778912  0.545005  0.266094  1
  Si  Si9  1  0.176745  0.159823  0.998422  1
  Si  Si10  1  0.661401  0.159823  0.483077  1
  Si  Si11  1  0.338599  0.821676  0.498422  1
  Si  Si12  1  0.221088  0.487182  0.766094  1
  Si  Si13  1  0.823255  0.821676  0.983077  1
  Ru  Ru14  1  0.836775  0.495595  0.589441  1
  Ru  Ru15  1  0.593847  0.752666  0.089441  1
  Ru  Ru16  1  0.406153  0.495595  0.158820  1
  Ru  Ru17  1  0.163225  0.752666  0.658820  1
