# generated using pymatgen
data_Th8Zr5Nb7Ge16
_symmetry_space_group_name_H-M   'P 1'
_cell_length_a   7.41824611
_cell_length_b   7.41621780
_cell_length_c   13.74040695
_cell_angle_alpha   90.09832775
_cell_angle_beta   89.93905822
_cell_angle_gamma   89.98629957
_symmetry_Int_Tables_number   1
_chemical_formula_structural   Th8Zr5Nb7Ge16
_chemical_formula_sum   'Th8 Zr5 Nb7 Ge16'
_cell_volume   755.93144457
_cell_formula_units_Z   1
loop_
 _symmetry_equiv_pos_site_id
 _symmetry_equiv_pos_as_xyz
  1  'x, y, z'
loop_
 _atom_site_type_symbol
 _atom_site_label
 _atom_site_symmetry_multiplicity
 _atom_site_fract_x
 _atom_site_fract_y
 _atom_site_fract_z
 _atom_site_occupancy
  Th  Th0  1  0.997465  0.339525  0.530162  1
  Th  Th1  1  0.002178  0.660334  0.032636  1
  Th  Th2  1  0.838990  0.502150  0.281243  1
  Th  Th3  1  0.160916  0.497764  0.780917  1
  Th  Th4  1  0.658018  0.003121  0.969786  1
  Th  Th5  1  0.341364  0.996192  0.468984  1
  Th  Th6  1  0.503926  0.841639  0.717885  1
  Th  Th7  1  0.497611  0.158890  0.219887  1
  Zr  Zr8  1  0.161960  0.005160  0.874771  1
  Zr  Zr9  1  0.660515  0.495796  0.876238  1
  Zr  Zr10  1  0.339732  0.504924  0.375760  1
  Zr  Zr11  1  0.995130  0.840733  0.625765  1
  Zr  Zr12  1  0.005228  0.160227  0.126081  1
  Nb  Nb13  1  0.828269  0.171781  0.747260  1
  Nb  Nb14  1  0.168616  0.830087  0.249615  1
  Nb  Nb15  1  0.669131  0.668450  0.498800  1
  Nb  Nb16  1  0.332085  0.334131  0.000284  1
  Nb  Nb17  1  0.508348  0.338250  0.624562  1
  Nb  Nb18  1  0.495168  0.661189  0.125573  1
  Nb  Nb19  1  0.837721  0.993375  0.375066  1
  Ge  Ge20  1  0.627667  0.298166  0.430863  1
  Ge  Ge21  1  0.372402  0.697150  0.932360  1
  Ge  Ge22  1  0.797642  0.872467  0.180974  1
  Ge  Ge23  1  0.203176  0.129082  0.677891  1
  Ge  Ge24  1  0.692723  0.376728  0.071988  1
  Ge  Ge25  1  0.306727  0.621915  0.571438  1
  Ge  Ge26  1  0.871765  0.803820  0.820500  1
  Ge  Ge27  1  0.122247  0.192703  0.321940  1
  Ge  Ge28  1  0.709961  0.040200  0.564788  1
  Ge  Ge29  1  0.291055  0.958515  0.068187  1
  Ge  Ge30  1  0.540394  0.789837  0.315593  1
  Ge  Ge31  1  0.464013  0.210955  0.814949  1
  Ge  Ge32  1  0.962081  0.290190  0.932135  1
  Ge  Ge33  1  0.034270  0.714743  0.431572  1
  Ge  Ge34  1  0.786255  0.534324  0.681542  1
  Ge  Ge35  1  0.215254  0.465487  0.182004  1
