# generated using pymatgen
data_Er3ZnIn3AgRh
_symmetry_space_group_name_H-M   'P 1'
_cell_length_a   7.76568700
_cell_length_b   7.76568829
_cell_length_c   3.82540900
_cell_angle_alpha   90.00000000
_cell_angle_beta   90.00000000
_cell_angle_gamma   119.99999762
_symmetry_Int_Tables_number   1
_chemical_formula_structural   Er3ZnIn3AgRh
_chemical_formula_sum   'Er3 Zn1 In3 Ag1 Rh1'
_cell_volume   199.78751904
_cell_formula_units_Z   1
loop_
 _symmetry_equiv_pos_site_id
 _symmetry_equiv_pos_as_xyz
  1  'x, y, z'
loop_
 _atom_site_type_symbol
 _atom_site_label
 _atom_site_symmetry_multiplicity
 _atom_site_fract_x
 _atom_site_fract_y
 _atom_site_fract_z
 _atom_site_occupancy
  Er  Er0  1  0.027501  0.609917  0.500000  1
  Er  Er1  1  0.390083  0.417584  0.500000  1
  Er  Er2  1  0.582416  0.972499  0.500000  1
  Zn  Zn3  1  0.000000  0.000000  0.500000  1
  In  In4  1  0.263594  0.005482  0.000000  1
  In  In5  1  0.741888  0.736406  0.000000  1
  In  In6  1  0.994518  0.258112  0.000000  1
  Ag  Ag7  1  0.666667  0.333333  0.000000  1
  Rh  Rh8  1  0.333333  0.666667  0.000000  1
