# generated using pymatgen
data_DyHo3Ga18(RuPt2)2
_symmetry_space_group_name_H-M   'P 1'
_cell_length_a   7.63883429
_cell_length_b   7.63874846
_cell_length_c   9.50577102
_cell_angle_alpha   90.00453992
_cell_angle_beta   89.99367011
_cell_angle_gamma   119.78939858
_symmetry_Int_Tables_number   1
_chemical_formula_structural   DyHo3Ga18(RuPt2)2
_chemical_formula_sum   'Dy1 Ho3 Ga18 Ru2 Pt4'
_cell_volume   481.37664012
_cell_formula_units_Z   1
loop_
 _symmetry_equiv_pos_site_id
 _symmetry_equiv_pos_as_xyz
  1  'x, y, z'
loop_
 _atom_site_type_symbol
 _atom_site_label
 _atom_site_symmetry_multiplicity
 _atom_site_fract_x
 _atom_site_fract_y
 _atom_site_fract_z
 _atom_site_occupancy
  Dy  Dy0  1  0.997809  0.673564  0.249626  1
  Ho  Ho1  1  0.326376  0.002196  0.750377  1
  Ho  Ho2  1  0.673612  0.997787  0.250186  1
  Ho  Ho3  1  0.002212  0.326366  0.749810  1
  Ga  Ga4  1  0.864437  0.864455  0.749996  1
  Ga  Ga5  1  0.135588  0.135649  0.250002  1
  Ga  Ga6  1  0.662011  0.667964  0.432146  1
  Ga  Ga7  1  0.337874  0.332056  0.932096  1
  Ga  Ga8  1  0.667837  0.662118  0.067816  1
  Ga  Ga9  1  0.332046  0.337883  0.567934  1
  Ga  Ga10  1  0.449961  0.660975  0.746752  1
  Ga  Ga11  1  0.549927  0.338950  0.246737  1
  Ga  Ga12  1  0.660967  0.449958  0.753265  1
  Ga  Ga13  1  0.339066  0.550009  0.253246  1
  Ga  Ga14  1  0.993816  0.335455  0.081930  1
  Ga  Ga15  1  0.006195  0.664405  0.582120  1
  Ga  Ga16  1  0.335728  0.993956  0.418036  1
  Ga  Ga17  1  0.664423  0.006188  0.917993  1
  Ga  Ga18  1  0.994897  0.658231  0.918371  1
  Ga  Ga19  1  0.005125  0.341686  0.418492  1
  Ga  Ga20  1  0.658210  0.994884  0.581590  1
  Ga  Ga21  1  0.341882  0.005204  0.081484  1
  Ru  Ru22  1  0.328342  0.671699  0.500056  1
  Ru  Ru23  1  0.671617  0.328300  0.999944  1
  Pt  Pt24  1  0.000327  0.999717  0.500036  1
  Pt  Pt25  1  0.999697  0.000359  0.999962  1
  Pt  Pt26  1  0.671603  0.328371  0.500027  1
  Pt  Pt27  1  0.328416  0.671615  0.999970  1
