# generated using pymatgen
data_YEr11TlCo4Os
_symmetry_space_group_name_H-M   'P 1'
_cell_length_a   8.25787460
_cell_length_b   8.25787442
_cell_length_c   8.25310329
_cell_angle_alpha   111.38883675
_cell_angle_beta   110.51873333
_cell_angle_gamma   106.57106096
_symmetry_Int_Tables_number   1
_chemical_formula_structural   YEr11TlCo4Os
_chemical_formula_sum   'Y1 Er11 Tl1 Co4 Os1'
_cell_volume   432.25076759
_cell_formula_units_Z   1
loop_
 _symmetry_equiv_pos_site_id
 _symmetry_equiv_pos_as_xyz
  1  'x, y, z'
loop_
 _atom_site_type_symbol
 _atom_site_label
 _atom_site_symmetry_multiplicity
 _atom_site_fract_x
 _atom_site_fract_y
 _atom_site_fract_z
 _atom_site_occupancy
  Y  Y0  1  0.183008  0.281236  0.464243  1
  Er  Er1  1  0.818412  0.720765  0.539177  1
  Er  Er2  1  0.181020  0.720409  0.901429  1
  Er  Er3  1  0.818402  0.279791  0.098194  1
  Er  Er4  1  0.314819  0.622015  0.307013  1
  Er  Er5  1  0.686411  0.378416  0.693637  1
  Er  Er6  1  0.315222  0.007226  0.693637  1
  Er  Er7  1  0.684997  0.992194  0.307013  1
  Er  Er8  1  0.415032  0.220164  0.194088  1
  Er  Er9  1  0.587439  0.781161  0.807167  1
  Er  Er10  1  0.026007  0.219729  0.807167  1
  Er  Er11  1  0.973924  0.779056  0.194088  1
  Tl  Tl12  1  0.499231  0.499474  0.998705  1
  Co  Co13  1  0.108625  0.612409  0.498014  1
  Co  Co14  1  0.885606  0.389389  0.498014  1
  Co  Co15  1  0.377464  0.998944  0.376409  1
  Co  Co16  1  0.623906  0.999931  0.623837  1
  Os  Os17  1  0.000477  0.997689  0.998167  1
