# generated using pymatgen
data_Er9Tm(GaTe)4
_symmetry_space_group_name_H-M   'P 1'
_cell_length_a   8.58036912
_cell_length_b   8.58036792
_cell_length_c   7.87022500
_cell_angle_alpha   90.00960231
_cell_angle_beta   90.00960898
_cell_angle_gamma   125.42035236
_symmetry_Int_Tables_number   1
_chemical_formula_structural   Er9Tm(GaTe)4
_chemical_formula_sum   'Er9 Tm1 Ga4 Te4'
_cell_volume   472.18809153
_cell_formula_units_Z   1
loop_
 _symmetry_equiv_pos_site_id
 _symmetry_equiv_pos_as_xyz
  1  'x, y, z'
loop_
 _atom_site_type_symbol
 _atom_site_label
 _atom_site_symmetry_multiplicity
 _atom_site_fract_x
 _atom_site_fract_y
 _atom_site_fract_z
 _atom_site_occupancy
  Er  Er0  1  0.539996  0.795887  0.167063  1
  Er  Er1  1  0.295577  0.039901  0.332847  1
  Er  Er2  1  0.204113  0.460004  0.832937  1
  Er  Er3  1  0.960099  0.704423  0.667153  1
  Er  Er4  1  0.704423  0.960099  0.667153  1
  Er  Er5  1  0.460004  0.204113  0.832937  1
  Er  Er6  1  0.795887  0.539996  0.167063  1
  Er  Er7  1  0.039901  0.295577  0.332847  1
  Er  Er8  1  0.500000  0.500000  0.500000  1
  Tm  Tm9  1  0.000000  0.000000  0.000000  1
  Ga  Ga10  1  0.628652  0.628652  0.872599  1
  Ga  Ga11  1  0.128166  0.128166  0.628066  1
  Ga  Ga12  1  0.871834  0.871834  0.371934  1
  Ga  Ga13  1  0.371348  0.371348  0.127401  1
  Te  Te14  1  0.294597  0.705403  0.500000  1
  Te  Te15  1  0.205170  0.794830  0.000000  1
  Te  Te16  1  0.705403  0.294597  0.500000  1
  Te  Te17  1  0.794830  0.205170  0.000000  1
