# generated using pymatgen
data_Y3AlCd2Ga2Cu
_symmetry_space_group_name_H-M   'P 1'
_cell_length_a   7.04877300
_cell_length_b   7.17168830
_cell_length_c   4.34357900
_cell_angle_alpha   90.00000000
_cell_angle_beta   90.00000000
_cell_angle_gamma   119.43464424
_symmetry_Int_Tables_number   1
_chemical_formula_structural   Y3AlCd2Ga2Cu
_chemical_formula_sum   'Y3 Al1 Cd2 Ga2 Cu1'
_cell_volume   191.23145771
_cell_formula_units_Z   1
loop_
 _symmetry_equiv_pos_site_id
 _symmetry_equiv_pos_as_xyz
  1  'x, y, z'
loop_
 _atom_site_type_symbol
 _atom_site_label
 _atom_site_symmetry_multiplicity
 _atom_site_fract_x
 _atom_site_fract_y
 _atom_site_fract_z
 _atom_site_occupancy
  Y  Y0  1  0.002580  0.413317  0.500000  1
  Y  Y1  1  0.589263  0.586683  0.500000  1
  Y  Y2  1  0.417658  0.000000  0.500000  1
  Al  Al3  1  0.764824  0.000000  0.000000  1
  Cd  Cd4  1  0.996984  0.756787  0.000000  1
  Cd  Cd5  1  0.240197  0.243213  0.000000  1
  Ga  Ga6  1  0.345941  0.678279  0.000000  1
  Ga  Ga7  1  0.667662  0.321721  0.000000  1
  Cu  Cu8  1  0.974893  0.000000  0.500000  1
