# generated using pymatgen
data_La2Nd2HgRu
_symmetry_space_group_name_H-M   'P 1'
_cell_length_a   9.96777707
_cell_length_b   9.96777723
_cell_length_c   10.01563900
_cell_angle_alpha   59.84103187
_cell_angle_beta   59.84103135
_cell_angle_gamma   60.31793446
_symmetry_Int_Tables_number   1
_chemical_formula_structural   La2Nd2HgRu
_chemical_formula_sum   'La8 Nd8 Hg4 Ru4'
_cell_volume   703.62323619
_cell_formula_units_Z   4
loop_
 _symmetry_equiv_pos_site_id
 _symmetry_equiv_pos_as_xyz
  1  'x, y, z'
loop_
 _atom_site_type_symbol
 _atom_site_label
 _atom_site_symmetry_multiplicity
 _atom_site_fract_x
 _atom_site_fract_y
 _atom_site_fract_z
 _atom_site_occupancy
  La  La0  1  0.347131  0.347131  0.349145  1
  La  La1  1  0.347131  0.347131  0.956594  1
  La  La2  1  0.349145  0.956594  0.347131  1
  La  La3  1  0.956594  0.349145  0.347131  1
  La  La4  1  0.811026  0.188974  0.188974  1
  La  La5  1  0.188974  0.811026  0.811026  1
  La  La6  1  0.188974  0.811026  0.188974  1
  La  La7  1  0.811026  0.188974  0.811026  1
  Nd  Nd8  1  0.192774  0.192774  0.807226  1
  Nd  Nd9  1  0.807226  0.807226  0.192774  1
  Nd  Nd10  1  0.937307  0.562693  0.562693  1
  Nd  Nd11  1  0.562693  0.937307  0.937307  1
  Nd  Nd12  1  0.562693  0.937307  0.562693  1
  Nd  Nd13  1  0.937307  0.562693  0.937307  1
  Nd  Nd14  1  0.561880  0.561880  0.938120  1
  Nd  Nd15  1  0.938120  0.938120  0.561880  1
  Hg  Hg16  1  0.584222  0.584222  0.582620  1
  Hg  Hg17  1  0.584222  0.584222  0.248935  1
  Hg  Hg18  1  0.582620  0.248935  0.584222  1
  Hg  Hg19  1  0.248935  0.582620  0.584222  1
  Ru  Ru20  1  0.134129  0.134129  0.143151  1
  Ru  Ru21  1  0.134129  0.134129  0.588589  1
  Ru  Ru22  1  0.143151  0.588589  0.134129  1
  Ru  Ru23  1  0.588589  0.143151  0.134129  1
