# generated using pymatgen
data_Li7Fe3(PdO6)2
_symmetry_space_group_name_H-M   'P 1'
_cell_length_a   5.17531884
_cell_length_b   5.17531920
_cell_length_c   9.87304745
_cell_angle_alpha   84.98913380
_cell_angle_beta   84.98913606
_cell_angle_gamma   119.99701818
_symmetry_Int_Tables_number   1
_chemical_formula_structural   Li7Fe3(PdO6)2
_chemical_formula_sum   'Li7 Fe3 Pd2 O12'
_cell_volume   225.49660970
_cell_formula_units_Z   1
loop_
 _symmetry_equiv_pos_site_id
 _symmetry_equiv_pos_as_xyz
  1  'x, y, z'
loop_
 _atom_site_type_symbol
 _atom_site_label
 _atom_site_symmetry_multiplicity
 _atom_site_fract_x
 _atom_site_fract_y
 _atom_site_fract_z
 _atom_site_occupancy
  Li  Li0  1  0.747996  0.747996  0.748238  1
  Li  Li1  1  0.913293  0.582733  0.251934  1
  Li  Li2  1  0.500000  0.500000  0.500000  1
  Li  Li3  1  0.417267  0.086707  0.748066  1
  Li  Li4  1  0.252004  0.252004  0.251762  1
  Li  Li5  1  0.582733  0.913293  0.251934  1
  Li  Li6  1  0.086707  0.417267  0.748066  1
  Fe  Fe7  1  0.000000  0.000000  0.000000  1
  Fe  Fe8  1  0.666978  0.333022  0.000000  1
  Fe  Fe9  1  0.333022  0.666978  0.000000  1
  Pd  Pd10  1  0.833382  0.166618  0.500000  1
  Pd  Pd11  1  0.166618  0.833382  0.500000  1
  O  O12  1  0.885958  0.885958  0.382424  1
  O  O13  1  0.807695  0.460825  0.617586  1
  O  O14  1  0.037717  0.704899  0.885103  1
  O  O15  1  0.627280  0.627280  0.116788  1
  O  O16  1  0.962283  0.295101  0.114897  1
  O  O17  1  0.539175  0.192305  0.382414  1
  O  O18  1  0.372720  0.372720  0.883212  1
  O  O19  1  0.114042  0.114042  0.617576  1
  O  O20  1  0.704899  0.037717  0.885103  1
  O  O21  1  0.460825  0.807695  0.617586  1
  O  O22  1  0.295101  0.962283  0.114897  1
  O  O23  1  0.192305  0.539175  0.382414  1
