# generated using pymatgen
data_Y4Ga18NiIr5
_symmetry_space_group_name_H-M   'P 1'
_cell_length_a   7.58122269
_cell_length_b   7.58122278
_cell_length_c   9.47730559
_cell_angle_alpha   90.18878431
_cell_angle_beta   90.18879053
_cell_angle_gamma   119.95911388
_symmetry_Int_Tables_number   1
_chemical_formula_structural   Y4Ga18NiIr5
_chemical_formula_sum   'Y4 Ga18 Ni1 Ir5'
_cell_volume   471.91457420
_cell_formula_units_Z   1
loop_
 _symmetry_equiv_pos_site_id
 _symmetry_equiv_pos_as_xyz
  1  'x, y, z'
loop_
 _atom_site_type_symbol
 _atom_site_label
 _atom_site_symmetry_multiplicity
 _atom_site_fract_x
 _atom_site_fract_y
 _atom_site_fract_z
 _atom_site_occupancy
  Y  Y0  1  0.996777  0.666461  0.750193  1
  Y  Y1  1  0.003223  0.333539  0.249807  1
  Y  Y2  1  0.666461  0.996777  0.750193  1
  Y  Y3  1  0.333539  0.003223  0.249807  1
  Ga  Ga4  1  0.121373  0.121373  0.745385  1
  Ga  Ga5  1  0.878627  0.878627  0.254615  1
  Ga  Ga6  1  0.999321  0.330265  0.579394  1
  Ga  Ga7  1  0.000679  0.669735  0.420606  1
  Ga  Ga8  1  0.000557  0.666666  0.080047  1
  Ga  Ga9  1  0.333334  0.999443  0.919953  1
  Ga  Ga10  1  0.999443  0.333334  0.919953  1
  Ga  Ga11  1  0.666666  0.000557  0.080047  1
  Ga  Ga12  1  0.669735  0.000679  0.420606  1
  Ga  Ga13  1  0.330265  0.999321  0.579394  1
  Ga  Ga14  1  0.332658  0.332658  0.064217  1
  Ga  Ga15  1  0.667342  0.667342  0.935783  1
  Ga  Ga16  1  0.671885  0.671885  0.564069  1
  Ga  Ga17  1  0.328115  0.328115  0.435931  1
  Ga  Ga18  1  0.338588  0.544995  0.749350  1
  Ga  Ga19  1  0.661412  0.455005  0.250650  1
  Ga  Ga20  1  0.544995  0.338588  0.749350  1
  Ga  Ga21  1  0.455005  0.661412  0.250650  1
  Ni  Ni22  1  0.000000  0.000000  0.500000  1
  Ir  Ir23  1  0.671734  0.328266  0.500000  1
  Ir  Ir24  1  0.328266  0.671734  0.500000  1
  Ir  Ir25  1  0.328445  0.671555  0.000000  1
  Ir  Ir26  1  0.671555  0.328445  0.000000  1
  Ir  Ir27  1  0.000000  0.000000  0.000000  1
