# generated using pymatgen
data_Zr4Al7Au
_symmetry_space_group_name_H-M   'P 1'
_cell_length_a   5.35951300
_cell_length_b   5.31232691
_cell_length_c   8.75007300
_cell_angle_alpha   90.00000000
_cell_angle_beta   90.00000000
_cell_angle_gamma   120.29425797
_symmetry_Int_Tables_number   1
_chemical_formula_structural   Zr4Al7Au
_chemical_formula_sum   'Zr4 Al7 Au1'
_cell_volume   215.10823384
_cell_formula_units_Z   1
loop_
 _symmetry_equiv_pos_site_id
 _symmetry_equiv_pos_as_xyz
  1  'x, y, z'
loop_
 _atom_site_type_symbol
 _atom_site_label
 _atom_site_symmetry_multiplicity
 _atom_site_fract_x
 _atom_site_fract_y
 _atom_site_fract_z
 _atom_site_occupancy
  Zr  Zr0  1  0.336572  0.673144  0.432039  1
  Zr  Zr1  1  0.666477  0.332953  0.937364  1
  Zr  Zr2  1  0.666477  0.332953  0.562636  1
  Zr  Zr3  1  0.336572  0.673144  0.067961  1
  Al  Al4  1  0.830121  0.172223  0.250000  1
  Al  Al5  1  0.342101  0.172223  0.250000  1
  Al  Al6  1  0.651821  0.822481  0.750000  1
  Al  Al7  1  0.001239  0.002478  0.996814  1
  Al  Al8  1  0.001239  0.002478  0.503186  1
  Al  Al9  1  0.829013  0.658027  0.250000  1
  Al  Al10  1  0.170662  0.822481  0.750000  1
  Au  Au11  1  0.167707  0.335414  0.750000  1
