# generated using pymatgen
data_Tb4Ho4Re3B24Ru
_symmetry_space_group_name_H-M   'P 1'
_cell_length_a   3.67927500
_cell_length_b   9.16755483
_cell_length_c   11.56105400
_cell_angle_alpha   90.10402249
_cell_angle_beta   90.00000000
_cell_angle_gamma   90.00000000
_symmetry_Int_Tables_number   1
_chemical_formula_structural   Tb4Ho4Re3B24Ru
_chemical_formula_sum   'Tb4 Ho4 Re3 B24 Ru1'
_cell_volume   389.95319178
_cell_formula_units_Z   1
loop_
 _symmetry_equiv_pos_site_id
 _symmetry_equiv_pos_as_xyz
  1  'x, y, z'
loop_
 _atom_site_type_symbol
 _atom_site_label
 _atom_site_symmetry_multiplicity
 _atom_site_fract_x
 _atom_site_fract_y
 _atom_site_fract_z
 _atom_site_occupancy
  Tb  Tb0  1  0.000000  0.322007  0.414190  1
  Tb  Tb1  1  0.000000  0.677265  0.587531  1
  Tb  Tb2  1  0.000000  0.824632  0.084354  1
  Tb  Tb3  1  0.000000  0.176780  0.913724  1
  Ho  Ho4  1  0.000000  0.941847  0.369612  1
  Ho  Ho5  1  0.000000  0.056388  0.629404  1
  Ho  Ho6  1  0.000000  0.443144  0.130568  1
  Ho  Ho7  1  0.000000  0.556838  0.870871  1
  Re  Re8  1  0.000000  0.361841  0.678492  1
  Re  Re9  1  0.000000  0.138634  0.179974  1
  Re  Re10  1  0.000000  0.861352  0.820493  1
  B  B11  1  0.500000  0.554235  0.432309  1
  B  B12  1  0.500000  0.446808  0.567120  1
  B  B13  1  0.500000  0.053476  0.067161  1
  B  B14  1  0.500000  0.946713  0.932560  1
  B  B15  1  0.500000  0.748641  0.418077  1
  B  B16  1  0.500000  0.250463  0.581482  1
  B  B17  1  0.500000  0.249605  0.081747  1
  B  B18  1  0.500000  0.751096  0.918411  1
  B  B19  1  0.500000  0.790798  0.265658  1
  B  B20  1  0.500000  0.208046  0.734101  1
  B  B21  1  0.500000  0.291783  0.234764  1
  B  B22  1  0.500000  0.707936  0.765946  1
  B  B23  1  0.500000  0.631229  0.185922  1
  B  B24  1  0.500000  0.369595  0.813985  1
  B  B25  1  0.500000  0.130744  0.314830  1
  B  B26  1  0.500000  0.868997  0.685615  1
  B  B27  1  0.500000  0.982712  0.212052  1
  B  B28  1  0.500000  0.017320  0.787474  1
  B  B29  1  0.500000  0.483918  0.288053  1
  B  B30  1  0.500000  0.517844  0.712234  1
  B  B31  1  0.500000  0.601222  0.028684  1
  B  B32  1  0.500000  0.399289  0.972427  1
  B  B33  1  0.500000  0.099889  0.471633  1
  B  B34  1  0.500000  0.898257  0.527889  1
  Ru  Ru35  1  0.000000  0.638659  0.320655  1
