# generated using pymatgen
data_HoHf2(Ni3P2)3
_symmetry_space_group_name_H-M   'P 1'
_cell_length_a   3.68305400
_cell_length_b   10.39506200
_cell_length_c   12.16461400
_cell_angle_alpha   90.00000000
_cell_angle_beta   90.00000000
_cell_angle_gamma   90.00000000
_symmetry_Int_Tables_number   1
_chemical_formula_structural   HoHf2(Ni3P2)3
_chemical_formula_sum   'Ho2 Hf4 Ni18 P12'
_cell_volume   465.72923774
_cell_formula_units_Z   2
loop_
 _symmetry_equiv_pos_site_id
 _symmetry_equiv_pos_as_xyz
  1  'x, y, z'
loop_
 _atom_site_type_symbol
 _atom_site_label
 _atom_site_symmetry_multiplicity
 _atom_site_fract_x
 _atom_site_fract_y
 _atom_site_fract_z
 _atom_site_occupancy
  Ho  Ho0  1  0.751298  0.000000  0.474529  1
  Ho  Ho1  1  0.251298  0.500000  0.525471  1
  Hf  Hf2  1  0.251520  0.678232  0.795314  1
  Hf  Hf3  1  0.251520  0.321768  0.795314  1
  Hf  Hf4  1  0.751520  0.821768  0.204686  1
  Hf  Hf5  1  0.751520  0.178232  0.204686  1
  Ni  Ni6  1  0.754815  0.000000  0.013640  1
  Ni  Ni7  1  0.254815  0.500000  0.986360  1
  Ni  Ni8  1  0.249713  0.199190  0.571588  1
  Ni  Ni9  1  0.249713  0.800810  0.571588  1
  Ni  Ni10  1  0.749713  0.300810  0.428412  1
  Ni  Ni11  1  0.749713  0.699190  0.428412  1
  Ni  Ni12  1  0.249307  0.625134  0.288430  1
  Ni  Ni13  1  0.249307  0.374866  0.288430  1
  Ni  Ni14  1  0.749307  0.874866  0.711570  1
  Ni  Ni15  1  0.749307  0.125134  0.711570  1
  Ni  Ni16  1  0.253562  0.169483  0.004110  1
  Ni  Ni17  1  0.253562  0.830517  0.004110  1
  Ni  Ni18  1  0.753562  0.330517  0.995890  1
  Ni  Ni19  1  0.753562  0.669483  0.995890  1
  Ni  Ni20  1  0.257130  0.000000  0.837757  1
  Ni  Ni21  1  0.757130  0.500000  0.162243  1
  Ni  Ni22  1  0.250591  0.000000  0.296536  1
  Ni  Ni23  1  0.750591  0.500000  0.703464  1
  P  P24  1  0.251115  0.185197  0.381917  1
  P  P25  1  0.251115  0.814803  0.381917  1
  P  P26  1  0.751115  0.314803  0.618083  1
  P  P27  1  0.751115  0.685197  0.618083  1
  P  P28  1  0.252744  0.000000  0.121842  1
  P  P29  1  0.752744  0.500000  0.878158  1
  P  P30  1  0.252421  0.656745  0.111508  1
  P  P31  1  0.252421  0.343255  0.111508  1
  P  P32  1  0.752421  0.843255  0.888492  1
  P  P33  1  0.752421  0.156745  0.888492  1
  P  P34  1  0.250948  0.000000  0.653328  1
  P  P35  1  0.750948  0.500000  0.346672  1
