# generated using pymatgen
data_Yb2BClO3
_symmetry_space_group_name_H-M   'P 1'
_cell_length_a   8.64509700
_cell_length_b   3.90179552
_cell_length_c   12.31483807
_cell_angle_alpha   79.33110255
_cell_angle_beta   90.00000000
_cell_angle_gamma   90.00000000
_symmetry_Int_Tables_number   1
_chemical_formula_structural   Yb2BClO3
_chemical_formula_sum   'Yb8 B4 Cl4 O12'
_cell_volume   408.21595702
_cell_formula_units_Z   4
loop_
 _symmetry_equiv_pos_site_id
 _symmetry_equiv_pos_as_xyz
  1  'x, y, z'
loop_
 _atom_site_type_symbol
 _atom_site_label
 _atom_site_symmetry_multiplicity
 _atom_site_fract_x
 _atom_site_fract_y
 _atom_site_fract_z
 _atom_site_occupancy
  Yb  Yb0  1  0.620313  0.666142  0.883132  1
  Yb  Yb1  1  0.379687  0.333858  0.116868  1
  Yb  Yb2  1  0.118129  0.702862  0.861724  1
  Yb  Yb3  1  0.879687  0.666142  0.383132  1
  Yb  Yb4  1  0.618129  0.297138  0.638276  1
  Yb  Yb5  1  0.381871  0.702862  0.361724  1
  Yb  Yb6  1  0.881871  0.297138  0.138276  1
  Yb  Yb7  1  0.120313  0.333858  0.616868  1
  B  B8  1  0.632941  0.708173  0.156018  1
  B  B9  1  0.867059  0.708173  0.656018  1
  B  B10  1  0.367059  0.291827  0.843982  1
  B  B11  1  0.132941  0.291827  0.343982  1
  Cl  Cl12  1  0.873172  0.194974  0.912380  1
  Cl  Cl13  1  0.126828  0.805026  0.087620  1
  Cl  Cl14  1  0.373172  0.805026  0.587620  1
  Cl  Cl15  1  0.626828  0.194974  0.412380  1
  O  O16  1  0.487575  0.801352  0.188628  1
  O  O17  1  0.987575  0.198648  0.311372  1
  O  O18  1  0.771498  0.775082  0.204776  1
  O  O19  1  0.638714  0.509442  0.072874  1
  O  O20  1  0.012425  0.801352  0.688628  1
  O  O21  1  0.728502  0.775082  0.704776  1
  O  O22  1  0.512425  0.198648  0.811372  1
  O  O23  1  0.271498  0.224918  0.295224  1
  O  O24  1  0.361286  0.490558  0.927126  1
  O  O25  1  0.138714  0.490558  0.427126  1
  O  O26  1  0.861286  0.509442  0.572874  1
  O  O27  1  0.228502  0.224918  0.795224  1
