# generated using pymatgen
data_HfTa2AlC2
_symmetry_space_group_name_H-M   'P 1'
_cell_length_a   3.16569800
_cell_length_b   3.16569723
_cell_length_c   19.21121000
_cell_angle_alpha   90.00000000
_cell_angle_beta   90.00000000
_cell_angle_gamma   120.00000804
_symmetry_Int_Tables_number   1
_chemical_formula_structural   HfTa2AlC2
_chemical_formula_sum   'Hf2 Ta4 Al2 C4'
_cell_volume   166.73400185
_cell_formula_units_Z   2
loop_
 _symmetry_equiv_pos_site_id
 _symmetry_equiv_pos_as_xyz
  1  'x, y, z'
loop_
 _atom_site_type_symbol
 _atom_site_label
 _atom_site_symmetry_multiplicity
 _atom_site_fract_x
 _atom_site_fract_y
 _atom_site_fract_z
 _atom_site_occupancy
  Hf  Hf0  1  0.000000  0.000000  0.500000  1
  Hf  Hf1  1  0.000000  0.000000  0.000000  1
  Ta  Ta2  1  0.333333  0.666667  0.135365  1
  Ta  Ta3  1  0.666667  0.333333  0.635365  1
  Ta  Ta4  1  0.333333  0.666667  0.364635  1
  Ta  Ta5  1  0.666667  0.333333  0.864635  1
  Al  Al6  1  0.000000  0.000000  0.250000  1
  Al  Al7  1  0.000000  0.000000  0.750000  1
  C  C8  1  0.666667  0.333333  0.426786  1
  C  C9  1  0.666667  0.333333  0.073214  1
  C  C10  1  0.333333  0.666667  0.573214  1
  C  C11  1  0.333333  0.666667  0.926786  1
