# generated using pymatgen
data_Er7Mg(IO6)4
_symmetry_space_group_name_H-M   'P 1'
_cell_length_a   5.46716396
_cell_length_b   7.69275646
_cell_length_c   11.54777600
_cell_angle_alpha   76.49260319
_cell_angle_beta   89.51861733
_cell_angle_gamma   89.72957413
_symmetry_Int_Tables_number   1
_chemical_formula_structural   Er7Mg(IO6)4
_chemical_formula_sum   'Er7 Mg1 I4 O24'
_cell_volume   472.21894818
_cell_formula_units_Z   1
loop_
 _symmetry_equiv_pos_site_id
 _symmetry_equiv_pos_as_xyz
  1  'x, y, z'
loop_
 _atom_site_type_symbol
 _atom_site_label
 _atom_site_symmetry_multiplicity
 _atom_site_fract_x
 _atom_site_fract_y
 _atom_site_fract_z
 _atom_site_occupancy
  Er  Er0  1  0.744906  0.981033  0.743011  1
  Er  Er1  1  0.251146  0.021701  0.253896  1
  Er  Er2  1  0.819120  0.803645  0.075371  1
  Er  Er3  1  0.692590  0.500665  0.751060  1
  Er  Er4  1  0.313015  0.499658  0.255428  1
  Er  Er5  1  0.175113  0.197375  0.926914  1
  Er  Er6  1  0.816662  0.224594  0.417012  1
  Mg  Mg7  1  0.213475  0.755549  0.589528  1
  I  I8  1  0.254417  0.719749  0.882059  1
  I  I9  1  0.739776  0.739581  0.385567  1
  I  I10  1  0.257598  0.260987  0.620170  1
  I  I11  1  0.734679  0.292634  0.109062  1
  O  O12  1  0.014348  0.944455  0.891411  1
  O  O13  1  0.534176  0.848057  0.929472  1
  O  O14  1  0.906696  0.960139  0.376619  1
  O  O15  1  0.463431  0.777104  0.721958  1
  O  O16  1  0.445733  0.831528  0.439718  1
  O  O17  1  0.969496  0.707149  0.760253  1
  O  O18  1  0.565560  0.814510  0.232132  1
  O  O19  1  0.875223  0.662267  0.538316  1
  O  O20  1  0.366773  0.484022  0.884506  1
  O  O21  1  0.015786  0.702936  0.281694  1
  O  O22  1  0.380970  0.487178  0.625369  1
  O  O23  1  0.837064  0.355134  0.934745  1
  O  O24  1  0.132275  0.633759  0.046798  1
  O  O25  1  0.625864  0.507186  0.385763  1
  O  O26  1  0.976653  0.290274  0.720110  1
  O  O27  1  0.610381  0.524568  0.106886  1
  O  O28  1  0.143150  0.365140  0.467765  1
  O  O29  1  0.425515  0.174287  0.772022  1
  O  O30  1  0.061734  0.286330  0.258414  1
  O  O31  1  0.545977  0.162778  0.566860  1
  O  O32  1  0.543350  0.230568  0.274698  1
  O  O33  1  0.074211  0.048515  0.605198  1
  O  O34  1  0.463197  0.164381  0.069453  1
  O  O35  1  0.009941  0.040564  0.100763  1
