# generated using pymatgen
data_YbSmSiPd14
_symmetry_space_group_name_H-M   'P 1'
_cell_length_a   8.94769200
_cell_length_b   8.94769200
_cell_length_c   7.05000500
_cell_angle_alpha   90.00000000
_cell_angle_beta   90.00000000
_cell_angle_gamma   90.00000000
_symmetry_Int_Tables_number   1
_chemical_formula_structural   YbSmSiPd14
_chemical_formula_sum   'Yb2 Sm2 Si2 Pd28'
_cell_volume   564.43180480
_cell_formula_units_Z   2
loop_
 _symmetry_equiv_pos_site_id
 _symmetry_equiv_pos_as_xyz
  1  'x, y, z'
loop_
 _atom_site_type_symbol
 _atom_site_label
 _atom_site_symmetry_multiplicity
 _atom_site_fract_x
 _atom_site_fract_y
 _atom_site_fract_z
 _atom_site_occupancy
  Yb  Yb0  1  0.000000  0.000000  0.500000  1
  Yb  Yb1  1  0.500000  0.500000  0.500000  1
  Sm  Sm2  1  0.500000  0.000000  0.939219  1
  Sm  Sm3  1  0.000000  0.500000  0.060781  1
  Si  Si4  1  0.500000  0.000000  0.447726  1
  Si  Si5  1  0.000000  0.500000  0.552274  1
  Pd  Pd6  1  0.334081  0.834081  0.616864  1
  Pd  Pd7  1  0.334081  0.165919  0.616864  1
  Pd  Pd8  1  0.665919  0.834081  0.616864  1
  Pd  Pd9  1  0.665919  0.165919  0.616864  1
  Pd  Pd10  1  0.165919  0.665919  0.383136  1
  Pd  Pd11  1  0.165919  0.334081  0.383136  1
  Pd  Pd12  1  0.834081  0.665919  0.383136  1
  Pd  Pd13  1  0.834081  0.334081  0.383136  1
  Pd  Pd14  1  0.500000  0.769172  0.258103  1
  Pd  Pd15  1  0.500000  0.230828  0.258103  1
  Pd  Pd16  1  0.269172  0.000000  0.258103  1
  Pd  Pd17  1  0.730828  0.000000  0.258103  1
  Pd  Pd18  1  0.000000  0.730828  0.741897  1
  Pd  Pd19  1  0.000000  0.269172  0.741897  1
  Pd  Pd20  1  0.230828  0.500000  0.741897  1
  Pd  Pd21  1  0.769172  0.500000  0.741897  1
  Pd  Pd22  1  0.500000  0.349407  0.853980  1
  Pd  Pd23  1  0.500000  0.650593  0.853980  1
  Pd  Pd24  1  0.849407  0.000000  0.853980  1
  Pd  Pd25  1  0.150593  0.000000  0.853980  1
  Pd  Pd26  1  0.000000  0.150593  0.146020  1
  Pd  Pd27  1  0.000000  0.849407  0.146020  1
  Pd  Pd28  1  0.650593  0.500000  0.146020  1
  Pd  Pd29  1  0.349407  0.500000  0.146020  1
  Pd  Pd30  1  0.250000  0.750000  0.000000  1
  Pd  Pd31  1  0.250000  0.250000  0.000000  1
  Pd  Pd32  1  0.750000  0.750000  0.000000  1
  Pd  Pd33  1  0.750000  0.250000  0.000000  1
