# generated using pymatgen
data_Sc4Ga20Tc5Os
_symmetry_space_group_name_H-M   'P 1'
_cell_length_a   9.09163600
_cell_length_b   9.09163600
_cell_length_c   6.00304200
_cell_angle_alpha   90.00000000
_cell_angle_beta   90.00000000
_cell_angle_gamma   90.00000000
_symmetry_Int_Tables_number   1
_chemical_formula_structural   Sc4Ga20Tc5Os
_chemical_formula_sum   'Sc4 Ga20 Tc5 Os1'
_cell_volume   496.19851610
_cell_formula_units_Z   1
loop_
 _symmetry_equiv_pos_site_id
 _symmetry_equiv_pos_as_xyz
  1  'x, y, z'
loop_
 _atom_site_type_symbol
 _atom_site_label
 _atom_site_symmetry_multiplicity
 _atom_site_fract_x
 _atom_site_fract_y
 _atom_site_fract_z
 _atom_site_occupancy
  Sc  Sc0  1  0.682451  0.181909  0.000000  1
  Sc  Sc1  1  0.317549  0.818091  0.000000  1
  Sc  Sc2  1  0.818091  0.682451  0.000000  1
  Sc  Sc3  1  0.181909  0.317549  0.000000  1
  Ga  Ga4  1  0.938546  0.208493  0.282573  1
  Ga  Ga5  1  0.708718  0.438183  0.282897  1
  Ga  Ga6  1  0.500000  0.000000  0.268519  1
  Ga  Ga7  1  0.561817  0.708718  0.717103  1
  Ga  Ga8  1  0.291282  0.561817  0.717103  1
  Ga  Ga9  1  0.791507  0.938546  0.282573  1
  Ga  Ga10  1  0.938546  0.208493  0.717427  1
  Ga  Ga11  1  0.291282  0.561817  0.282897  1
  Ga  Ga12  1  0.061454  0.791507  0.282573  1
  Ga  Ga13  1  0.708718  0.438183  0.717103  1
  Ga  Ga14  1  0.438183  0.291282  0.717103  1
  Ga  Ga15  1  0.061454  0.791507  0.717427  1
  Ga  Ga16  1  0.208493  0.061454  0.717427  1
  Ga  Ga17  1  0.791507  0.938546  0.717427  1
  Ga  Ga18  1  0.208493  0.061454  0.282573  1
  Ga  Ga19  1  0.000000  0.500000  0.731481  1
  Ga  Ga20  1  0.000000  0.500000  0.268519  1
  Ga  Ga21  1  0.561817  0.708718  0.282897  1
  Ga  Ga22  1  0.438183  0.291282  0.282897  1
  Ga  Ga23  1  0.500000  0.000000  0.731481  1
  Tc  Tc24  1  0.676863  0.178604  0.500000  1
  Tc  Tc25  1  0.821396  0.676863  0.500000  1
  Tc  Tc26  1  0.178604  0.323137  0.500000  1
  Tc  Tc27  1  0.000000  0.000000  0.000000  1
  Tc  Tc28  1  0.323137  0.821396  0.500000  1
  Os  Os29  1  0.500000  0.500000  0.000000  1
