# generated using pymatgen
data_Nd2Y8In8PdPtAu2
_symmetry_space_group_name_H-M   'P 1'
_cell_length_a   3.64525000
_cell_length_b   8.20967853
_cell_length_c   18.48346200
_cell_angle_alpha   90.05315247
_cell_angle_beta   90.00000000
_cell_angle_gamma   90.00000000
_symmetry_Int_Tables_number   1
_chemical_formula_structural   Nd2Y8In8PdPtAu2
_chemical_formula_sum   'Nd2 Y8 In8 Pd1 Pt1 Au2'
_cell_volume   553.14195774
_cell_formula_units_Z   1
loop_
 _symmetry_equiv_pos_site_id
 _symmetry_equiv_pos_as_xyz
  1  'x, y, z'
loop_
 _atom_site_type_symbol
 _atom_site_label
 _atom_site_symmetry_multiplicity
 _atom_site_fract_x
 _atom_site_fract_y
 _atom_site_fract_z
 _atom_site_occupancy
  Nd  Nd0  1  0.000000  0.000189  0.000164  1
  Nd  Nd1  1  0.000000  0.500518  0.500177  1
  Y  Y2  1  0.000000  0.124559  0.419575  1
  Y  Y3  1  0.000000  0.873740  0.580293  1
  Y  Y4  1  0.000000  0.379090  0.916977  1
  Y  Y5  1  0.000000  0.621284  0.084036  1
  Y  Y6  1  0.000000  0.249637  0.215474  1
  Y  Y7  1  0.000000  0.754839  0.784992  1
  Y  Y8  1  0.000000  0.268191  0.718183  1
  Y  Y9  1  0.000000  0.728342  0.280776  1
  In  In10  1  0.500000  0.418979  0.348738  1
  In  In11  1  0.500000  0.580076  0.652657  1
  In  In12  1  0.500000  0.083202  0.848333  1
  In  In13  1  0.500000  0.920544  0.151306  1
  In  In14  1  0.500000  0.299380  0.066880  1
  In  In15  1  0.500000  0.699667  0.932346  1
  In  In16  1  0.500000  0.201505  0.567762  1
  In  In17  1  0.500000  0.797400  0.431619  1
  Pd  Pd18  1  0.500000  0.473340  0.803884  1
  Pt  Pt19  1  0.500000  0.526549  0.196108  1
  Au  Au20  1  0.500000  0.027363  0.302805  1
  Au  Au21  1  0.500000  0.971606  0.696913  1
