# generated using pymatgen
data_Cs5RbMoP4
_symmetry_space_group_name_H-M   'P 1'
_cell_length_a   10.84293926
_cell_length_b   10.84293913
_cell_length_c   8.54306900
_cell_angle_alpha   88.65234204
_cell_angle_beta   88.65233677
_cell_angle_gamma   120.55206310
_symmetry_Int_Tables_number   1
_chemical_formula_structural   Cs5RbMoP4
_chemical_formula_sum   'Cs10 Rb2 Mo2 P8'
_cell_volume   863.98562428
_cell_formula_units_Z   2
loop_
 _symmetry_equiv_pos_site_id
 _symmetry_equiv_pos_as_xyz
  1  'x, y, z'
loop_
 _atom_site_type_symbol
 _atom_site_label
 _atom_site_symmetry_multiplicity
 _atom_site_fract_x
 _atom_site_fract_y
 _atom_site_fract_z
 _atom_site_occupancy
  Cs  Cs0  1  0.463377  0.535859  0.492687  1
  Cs  Cs1  1  0.070478  0.536350  0.499437  1
  Cs  Cs2  1  0.535859  0.463377  0.992687  1
  Cs  Cs3  1  0.536350  0.070478  0.999437  1
  Cs  Cs4  1  0.854036  0.143974  0.682431  1
  Cs  Cs5  1  0.293255  0.145871  0.696372  1
  Cs  Cs6  1  0.852942  0.707246  0.667936  1
  Cs  Cs7  1  0.143974  0.854036  0.182431  1
  Cs  Cs8  1  0.707246  0.852942  0.167936  1
  Cs  Cs9  1  0.145871  0.293255  0.196372  1
  Rb  Rb10  1  0.467206  0.935909  0.500662  1
  Rb  Rb11  1  0.935909  0.467206  0.000662  1
  Mo  Mo12  1  0.667492  0.331405  0.391927  1
  Mo  Mo13  1  0.331405  0.667492  0.891927  1
  P  P14  1  0.668949  0.332083  0.663883  1
  P  P15  1  0.332083  0.668949  0.163883  1
  P  P16  1  0.784054  0.212514  0.306011  1
  P  P17  1  0.429825  0.211486  0.316944  1
  P  P18  1  0.786273  0.569416  0.295999  1
  P  P19  1  0.212514  0.784054  0.806011  1
  P  P20  1  0.569416  0.786273  0.795999  1
  P  P21  1  0.211486  0.429825  0.816944  1
