# generated using pymatgen
data_Hf2ScAlIr2
_symmetry_space_group_name_H-M   'P 1'
_cell_length_a   8.48808008
_cell_length_b   8.49678543
_cell_length_c   8.49678546
_cell_angle_alpha   59.93223043
_cell_angle_beta   60.03388985
_cell_angle_gamma   60.03389385
_symmetry_Int_Tables_number   1
_chemical_formula_structural   Hf2ScAlIr2
_chemical_formula_sum   'Hf8 Sc4 Al4 Ir8'
_cell_volume   433.31418811
_cell_formula_units_Z   4
loop_
 _symmetry_equiv_pos_site_id
 _symmetry_equiv_pos_as_xyz
  1  'x, y, z'
loop_
 _atom_site_type_symbol
 _atom_site_label
 _atom_site_symmetry_multiplicity
 _atom_site_fract_x
 _atom_site_fract_y
 _atom_site_fract_z
 _atom_site_occupancy
  Hf  Hf0  1  0.194977  0.805023  0.805023  1
  Hf  Hf1  1  0.805023  0.194977  0.194977  1
  Hf  Hf2  1  0.443135  0.443135  0.056865  1
  Hf  Hf3  1  0.056865  0.056865  0.443135  1
  Hf  Hf4  1  0.443135  0.056865  0.443135  1
  Hf  Hf5  1  0.056865  0.443135  0.056865  1
  Hf  Hf6  1  0.055501  0.444499  0.444499  1
  Hf  Hf7  1  0.444499  0.055501  0.055501  1
  Sc  Sc8  1  0.806068  0.806068  0.193932  1
  Sc  Sc9  1  0.193932  0.193932  0.806068  1
  Sc  Sc10  1  0.806068  0.193932  0.806068  1
  Sc  Sc11  1  0.193932  0.806068  0.193932  1
  Al  Al12  1  0.126162  0.623802  0.623802  1
  Al  Al13  1  0.623802  0.126162  0.626234  1
  Al  Al14  1  0.623802  0.626234  0.126162  1
  Al  Al15  1  0.626234  0.623802  0.623802  1
  Ir  Ir16  1  0.764666  0.411097  0.411097  1
  Ir  Ir17  1  0.411097  0.764666  0.413139  1
  Ir  Ir18  1  0.411097  0.413139  0.764666  1
  Ir  Ir19  1  0.413139  0.411097  0.411097  1
  Ir  Ir20  1  0.486444  0.836282  0.836282  1
  Ir  Ir21  1  0.836282  0.486444  0.840993  1
  Ir  Ir22  1  0.836282  0.840993  0.486444  1
  Ir  Ir23  1  0.840993  0.836282  0.836282  1
