# generated using pymatgen
data_Tb5Be5P7Ir19
_symmetry_space_group_name_H-M   'P 1'
_cell_length_a   12.56899485
_cell_length_b   12.49299996
_cell_length_c   3.95233900
_cell_angle_alpha   90.00000000
_cell_angle_beta   90.00000000
_cell_angle_gamma   119.78141312
_symmetry_Int_Tables_number   1
_chemical_formula_structural   Tb5Be5P7Ir19
_chemical_formula_sum   'Tb5 Be5 P7 Ir19'
_cell_volume   538.64729929
_cell_formula_units_Z   1
loop_
 _symmetry_equiv_pos_site_id
 _symmetry_equiv_pos_as_xyz
  1  'x, y, z'
loop_
 _atom_site_type_symbol
 _atom_site_label
 _atom_site_symmetry_multiplicity
 _atom_site_fract_x
 _atom_site_fract_y
 _atom_site_fract_z
 _atom_site_occupancy
  Tb  Tb0  1  0.333745  0.665612  0.500000  1
  Tb  Tb1  1  0.664356  0.321680  0.500000  1
  Tb  Tb2  1  0.189046  0.191126  0.000000  1
  Tb  Tb3  1  0.812101  0.001719  0.000000  1
  Tb  Tb4  1  0.005932  0.816421  0.000000  1
  Be  Be5  1  0.311457  0.835424  0.000000  1
  Be  Be6  1  0.164645  0.476969  0.000000  1
  Be  Be7  1  0.523164  0.687260  0.000000  1
  Be  Be8  1  0.832275  0.307261  0.000000  1
  Be  Be9  1  0.477594  0.164928  0.000000  1
  P  P10  1  0.693247  0.515591  0.000000  1
  P  P11  1  0.367210  0.374748  0.500000  1
  P  P12  1  0.623676  0.999209  0.500000  1
  P  P13  1  0.006435  0.630071  0.500000  1
  P  P14  1  0.817185  0.819390  0.500000  1
  P  P15  1  0.185620  0.003696  0.500000  1
  P  P16  1  0.998909  0.183466  0.500000  1
  Ir  Ir17  1  0.194520  0.818385  0.500000  1
  Ir  Ir18  1  0.181456  0.377128  0.500000  1
  Ir  Ir19  1  0.624136  0.808894  0.500000  1
  Ir  Ir20  1  0.813975  0.190093  0.500000  1
  Ir  Ir21  1  0.377540  0.190036  0.500000  1
  Ir  Ir22  1  0.808476  0.622304  0.500000  1
  Ir  Ir23  1  0.125644  0.638965  0.000000  1
  Ir  Ir24  1  0.359207  0.487244  0.000000  1
  Ir  Ir25  1  0.510186  0.871122  0.000000  1
  Ir  Ir26  1  0.637665  0.124090  0.000000  1
  Ir  Ir27  1  0.497155  0.365185  0.000000  1
  Ir  Ir28  1  0.872602  0.508271  0.000000  1
  Ir  Ir29  1  0.548355  0.557444  0.500000  1
  Ir  Ir30  1  0.444083  0.002615  0.500000  1
  Ir  Ir31  1  0.996265  0.443076  0.500000  1
  Ir  Ir32  1  0.719027  0.715473  0.000000  1
  Ir  Ir33  1  0.283398  0.003339  0.000000  1
  Ir  Ir34  1  0.999232  0.281619  0.000000  1
  Ir  Ir35  1  0.000480  0.000146  0.500000  1
