# generated using pymatgen
data_Sr8VTc3O16
_symmetry_space_group_name_H-M   'P 1'
_cell_length_a   5.57084424
_cell_length_b   8.91359012
_cell_length_c   8.91359016
_cell_angle_alpha   88.06061127
_cell_angle_beta   72.25328457
_cell_angle_gamma   107.74783618
_symmetry_Int_Tables_number   1
_chemical_formula_structural   Sr8VTc3O16
_chemical_formula_sum   'Sr8 V1 Tc3 O16'
_cell_volume   397.55041003
_cell_formula_units_Z   1
loop_
 _symmetry_equiv_pos_site_id
 _symmetry_equiv_pos_as_xyz
  1  'x, y, z'
loop_
 _atom_site_type_symbol
 _atom_site_label
 _atom_site_symmetry_multiplicity
 _atom_site_fract_x
 _atom_site_fract_y
 _atom_site_fract_z
 _atom_site_occupancy
  Sr  Sr0  1  0.250171  0.399187  0.893529  1
  Sr  Sr1  1  0.999938  0.645476  0.645480  1
  Sr  Sr2  1  0.749690  0.893380  0.399347  1
  Sr  Sr3  1  0.500074  0.148930  0.148765  1
  Sr  Sr4  1  0.000061  0.354496  0.354546  1
  Sr  Sr5  1  0.749808  0.600806  0.106475  1
  Sr  Sr6  1  0.499929  0.851055  0.851250  1
  Sr  Sr7  1  0.250232  0.106572  0.600703  1
  V  V8  1  0.500121  0.500008  0.499957  1
  Tc  Tc9  1  0.253728  0.750790  0.249265  1
  Tc  Tc10  1  0.000025  0.000033  0.999982  1
  Tc  Tc11  1  0.746309  0.249253  0.750694  1
  O  O12  1  0.251384  0.587580  0.088694  1
  O  O13  1  0.999755  0.836911  0.837365  1
  O  O14  1  0.749107  0.089054  0.587161  1
  O  O15  1  0.499631  0.339959  0.340319  1
  O  O16  1  0.000281  0.163156  0.162588  1
  O  O17  1  0.748588  0.412447  0.911293  1
  O  O18  1  0.500335  0.660012  0.659692  1
  O  O19  1  0.250880  0.910917  0.412861  1
  O  O20  1  0.876588  0.125909  0.873841  1
  O  O21  1  0.614493  0.376648  0.623452  1
  O  O22  1  0.385467  0.623325  0.376535  1
  O  O23  1  0.123418  0.874104  0.126187  1
  O  O24  1  0.372926  0.124215  0.875489  1
  O  O25  1  0.122132  0.377715  0.622652  1
  O  O26  1  0.877879  0.622273  0.377348  1
  O  O27  1  0.627047  0.875787  0.124531  1
