# generated using pymatgen
data_Hf2Zr(GaPt)3
_symmetry_space_group_name_H-M   'P 1'
_cell_length_a   7.16215040
_cell_length_b   7.19516380
_cell_length_c   7.12537300
_cell_angle_alpha   90.00000000
_cell_angle_beta   90.00000000
_cell_angle_gamma   120.15261450
_symmetry_Int_Tables_number   1
_chemical_formula_structural   Hf2Zr(GaPt)3
_chemical_formula_sum   'Hf4 Zr2 Ga6 Pt6'
_cell_volume   317.50635606
_cell_formula_units_Z   2
loop_
 _symmetry_equiv_pos_site_id
 _symmetry_equiv_pos_as_xyz
  1  'x, y, z'
loop_
 _atom_site_type_symbol
 _atom_site_label
 _atom_site_symmetry_multiplicity
 _atom_site_fract_x
 _atom_site_fract_y
 _atom_site_fract_z
 _atom_site_occupancy
  Hf  Hf0  1  0.386384  0.409188  0.750000  1
  Hf  Hf1  1  0.024412  0.614840  0.750000  1
  Hf  Hf2  1  0.975588  0.590427  0.250000  1
  Hf  Hf3  1  0.613616  0.022804  0.250000  1
  Zr  Zr4  1  0.408410  0.383955  0.250000  1
  Zr  Zr5  1  0.591590  0.975544  0.750000  1
  Ga  Ga6  1  0.267914  0.000496  0.000582  1
  Ga  Ga7  1  0.267914  0.000496  0.499418  1
  Ga  Ga8  1  0.000000  0.267073  0.500000  1
  Ga  Ga9  1  0.000000  0.267073  0.000000  1
  Ga  Ga10  1  0.732086  0.732582  0.999418  1
  Ga  Ga11  1  0.732086  0.732582  0.500582  1
  Pt  Pt12  1  0.669132  0.336459  0.533971  1
  Pt  Pt13  1  0.003154  0.999261  0.750000  1
  Pt  Pt14  1  0.669132  0.336459  0.966029  1
  Pt  Pt15  1  0.330868  0.667328  0.033971  1
  Pt  Pt16  1  0.330868  0.667328  0.466029  1
  Pt  Pt17  1  0.996846  0.996107  0.250000  1
