# generated using pymatgen
data_Pr3NdY12(CdPd)4
_symmetry_space_group_name_H-M   'P 1'
_cell_length_a   9.85560438
_cell_length_b   9.83203626
_cell_length_c   9.83203800
_cell_angle_alpha   60.00000087
_cell_angle_beta   60.07907433
_cell_angle_gamma   60.07907181
_symmetry_Int_Tables_number   1
_chemical_formula_structural   Pr3NdY12(CdPd)4
_chemical_formula_sum   'Pr3 Nd1 Y12 Cd4 Pd4'
_cell_volume   674.48658746
_cell_formula_units_Z   1
loop_
 _symmetry_equiv_pos_site_id
 _symmetry_equiv_pos_as_xyz
  1  'x, y, z'
loop_
 _atom_site_type_symbol
 _atom_site_label
 _atom_site_symmetry_multiplicity
 _atom_site_fract_x
 _atom_site_fract_y
 _atom_site_fract_z
 _atom_site_occupancy
  Pr  Pr0  1  0.356531  0.357095  0.357095  1
  Pr  Pr1  1  0.356531  0.357095  0.929279  1
  Pr  Pr2  1  0.356531  0.929279  0.357095  1
  Nd  Nd3  1  0.930218  0.356594  0.356594  1
  Y  Y4  1  0.813648  0.186189  0.186189  1
  Y  Y5  1  0.186058  0.813902  0.813902  1
  Y  Y6  1  0.186058  0.813902  0.186138  1
  Y  Y7  1  0.813648  0.186189  0.813974  1
  Y  Y8  1  0.186058  0.186138  0.813902  1
  Y  Y9  1  0.813648  0.813974  0.186189  1
  Y  Y10  1  0.933216  0.566674  0.566674  1
  Y  Y11  1  0.566861  0.933073  0.933073  1
  Y  Y12  1  0.566861  0.933073  0.566992  1
  Y  Y13  1  0.933216  0.566674  0.933435  1
  Y  Y14  1  0.566861  0.566992  0.933073  1
  Y  Y15  1  0.933216  0.933435  0.566674  1
  Cd  Cd16  1  0.587063  0.583390  0.583390  1
  Cd  Cd17  1  0.587063  0.583390  0.246159  1
  Cd  Cd18  1  0.587063  0.246159  0.583390  1
  Cd  Cd19  1  0.244810  0.585063  0.585063  1
  Pd  Pd20  1  0.141526  0.144164  0.144164  1
  Pd  Pd21  1  0.141526  0.144164  0.570145  1
  Pd  Pd22  1  0.141526  0.570145  0.144164  1
  Pd  Pd23  1  0.570263  0.143246  0.143246  1
