# generated using pymatgen
data_Y8Pd13Pt11W
_symmetry_space_group_name_H-M   'P 1'
_cell_length_a   8.34823900
_cell_length_b   8.35786200
_cell_length_c   8.37018200
_cell_angle_alpha   90.00000000
_cell_angle_beta   90.00000000
_cell_angle_gamma   90.00000000
_symmetry_Int_Tables_number   1
_chemical_formula_structural   Y8Pd13Pt11W
_chemical_formula_sum   'Y8 Pd13 Pt11 W1'
_cell_volume   584.01630372
_cell_formula_units_Z   1
loop_
 _symmetry_equiv_pos_site_id
 _symmetry_equiv_pos_as_xyz
  1  'x, y, z'
loop_
 _atom_site_type_symbol
 _atom_site_label
 _atom_site_symmetry_multiplicity
 _atom_site_fract_x
 _atom_site_fract_y
 _atom_site_fract_z
 _atom_site_occupancy
  Y  Y0  1  0.251602  0.251906  0.252006  1
  Y  Y1  1  0.748420  0.748149  0.747666  1
  Y  Y2  1  0.748420  0.748149  0.252334  1
  Y  Y3  1  0.748420  0.251851  0.747666  1
  Y  Y4  1  0.251602  0.251906  0.747994  1
  Y  Y5  1  0.251602  0.748094  0.252006  1
  Y  Y6  1  0.251602  0.748094  0.747994  1
  Y  Y7  1  0.748420  0.251851  0.252334  1
  Pd  Pd8  1  0.736095  0.500000  0.000000  1
  Pd  Pd9  1  0.999936  0.263776  0.500000  1
  Pd  Pd10  1  0.500276  0.263711  0.000000  1
  Pd  Pd11  1  0.999936  0.736224  0.500000  1
  Pd  Pd12  1  0.500276  0.736289  0.000000  1
  Pd  Pd13  1  0.499978  0.000000  0.264188  1
  Pd  Pd14  1  0.264003  0.000000  0.500000  1
  Pd  Pd15  1  0.499978  0.000000  0.735812  1
  Pd  Pd16  1  0.736161  0.000000  0.500000  1
  Pd  Pd17  1  0.000005  0.500000  0.264174  1
  Pd  Pd18  1  0.000005  0.500000  0.735826  1
  Pd  Pd19  1  0.999923  0.000000  0.303284  1
  Pd  Pd20  1  0.999923  0.000000  0.696716  1
  Pt  Pt21  1  0.263781  0.500000  0.000000  1
  Pt  Pt22  1  0.253775  0.500000  0.500000  1
  Pt  Pt23  1  0.745906  0.500000  0.500000  1
  Pt  Pt24  1  0.500054  0.253849  0.500000  1
  Pt  Pt25  1  0.500054  0.746151  0.500000  1
  Pt  Pt26  1  0.499841  0.500000  0.254185  1
  Pt  Pt27  1  0.499841  0.500000  0.745815  1
  Pt  Pt28  1  0.301084  0.000000  0.000000  1
  Pt  Pt29  1  0.699161  0.000000  0.000000  1
  Pt  Pt30  1  0.999884  0.300499  0.000000  1
  Pt  Pt31  1  0.999884  0.699501  0.000000  1
  W  W32  1  0.000155  0.000000  0.000000  1
