# generated using pymatgen
data_Ta3BeNbB3Mo2
_symmetry_space_group_name_H-M   'P 1'
_cell_length_a   6.19839703
_cell_length_b   6.20186416
_cell_length_c   3.28005500
_cell_angle_alpha   90.00000000
_cell_angle_beta   90.00000000
_cell_angle_gamma   90.26943888
_symmetry_Int_Tables_number   1
_chemical_formula_structural   Ta3BeNbB3Mo2
_chemical_formula_sum   'Ta3 Be1 Nb1 B3 Mo2'
_cell_volume   126.08922170
_cell_formula_units_Z   1
loop_
 _symmetry_equiv_pos_site_id
 _symmetry_equiv_pos_as_xyz
  1  'x, y, z'
loop_
 _atom_site_type_symbol
 _atom_site_label
 _atom_site_symmetry_multiplicity
 _atom_site_fract_x
 _atom_site_fract_y
 _atom_site_fract_z
 _atom_site_occupancy
  Ta  Ta0  1  0.678766  0.178992  0.500000  1
  Ta  Ta1  1  0.327317  0.827673  0.500000  1
  Ta  Ta2  1  0.179464  0.315147  0.500000  1
  Be  Be3  1  0.111885  0.611750  0.000000  1
  Nb  Nb4  1  0.815773  0.678679  0.500000  1
  B  B5  1  0.886198  0.384587  0.000000  1
  B  B6  1  0.608801  0.892558  0.000000  1
  B  B7  1  0.391330  0.109851  0.000000  1
  Mo  Mo8  1  0.998528  0.002564  0.000000  1
  Mo  Mo9  1  0.501938  0.498200  0.000000  1
