# generated using pymatgen
data_Ba4Sr4Si3Pb
_symmetry_space_group_name_H-M   'P 1'
_cell_length_a   5.30484300
_cell_length_b   8.76565789
_cell_length_c   9.79796743
_cell_angle_alpha   90.87297845
_cell_angle_beta   90.00000000
_cell_angle_gamma   90.00000000
_symmetry_Int_Tables_number   1
_chemical_formula_structural   Ba4Sr4Si3Pb
_chemical_formula_sum   'Ba4 Sr4 Si3 Pb1'
_cell_volume   455.55690287
_cell_formula_units_Z   1
loop_
 _symmetry_equiv_pos_site_id
 _symmetry_equiv_pos_as_xyz
  1  'x, y, z'
loop_
 _atom_site_type_symbol
 _atom_site_label
 _atom_site_symmetry_multiplicity
 _atom_site_fract_x
 _atom_site_fract_y
 _atom_site_fract_z
 _atom_site_occupancy
  Ba  Ba0  1  0.250000  0.530973  0.322669  1
  Ba  Ba1  1  0.250000  0.027840  0.168718  1
  Ba  Ba2  1  0.750000  0.480523  0.680152  1
  Ba  Ba3  1  0.750000  0.967462  0.828088  1
  Sr  Sr4  1  0.250000  0.645312  0.924514  1
  Sr  Sr5  1  0.250000  0.138545  0.590717  1
  Sr  Sr6  1  0.750000  0.361215  0.064507  1
  Sr  Sr7  1  0.750000  0.843084  0.423204  1
  Si  Si8  1  0.250000  0.271663  0.896206  1
  Si  Si9  1  0.250000  0.766526  0.609225  1
  Si  Si10  1  0.750000  0.732517  0.102257  1
  Pb  Pb11  1  0.750000  0.234339  0.389744  1
