# generated using pymatgen
data_Pr4SCl6
_symmetry_space_group_name_H-M   'P 1'
_cell_length_a   4.09267900
_cell_length_b   13.32523100
_cell_length_c   13.82569800
_cell_angle_alpha   90.00000000
_cell_angle_beta   90.00000000
_cell_angle_gamma   90.00000000
_symmetry_Int_Tables_number   1
_chemical_formula_structural   Pr4SCl6
_chemical_formula_sum   'Pr8 S2 Cl12'
_cell_volume   753.99678794
_cell_formula_units_Z   2
loop_
 _symmetry_equiv_pos_site_id
 _symmetry_equiv_pos_as_xyz
  1  'x, y, z'
loop_
 _atom_site_type_symbol
 _atom_site_label
 _atom_site_symmetry_multiplicity
 _atom_site_fract_x
 _atom_site_fract_y
 _atom_site_fract_z
 _atom_site_occupancy
  Pr  Pr0  1  0.000000  0.109684  0.087034  1
  Pr  Pr1  1  0.000000  0.890316  0.912966  1
  Pr  Pr2  1  0.000000  0.609684  0.412966  1
  Pr  Pr3  1  0.000000  0.390316  0.587034  1
  Pr  Pr4  1  0.500000  0.130483  0.847095  1
  Pr  Pr5  1  0.500000  0.869517  0.152905  1
  Pr  Pr6  1  0.500000  0.630483  0.652905  1
  Pr  Pr7  1  0.500000  0.369517  0.347095  1
  S  S8  1  0.500000  0.000000  0.000000  1
  S  S9  1  0.500000  0.500000  0.500000  1
  Cl  Cl10  1  0.500000  0.267918  0.681640  1
  Cl  Cl11  1  0.500000  0.732082  0.318360  1
  Cl  Cl12  1  0.500000  0.767918  0.818360  1
  Cl  Cl13  1  0.500000  0.232082  0.181640  1
  Cl  Cl14  1  0.000000  0.255556  0.929426  1
  Cl  Cl15  1  0.000000  0.744444  0.070574  1
  Cl  Cl16  1  0.000000  0.477654  0.244615  1
  Cl  Cl17  1  0.000000  0.522346  0.755385  1
  Cl  Cl18  1  0.000000  0.977654  0.255385  1
  Cl  Cl19  1  0.000000  0.022346  0.744615  1
  Cl  Cl20  1  0.000000  0.244444  0.429426  1
  Cl  Cl21  1  0.000000  0.755556  0.570574  1
