# generated using pymatgen
data_Sr3Nd4As12Pd17
_symmetry_space_group_name_H-M   'P 1'
_cell_length_a   12.87699115
_cell_length_b   12.87699257
_cell_length_c   14.18368420
_cell_angle_alpha   68.57035796
_cell_angle_beta   68.57035568
_cell_angle_gamma   18.68094675
_symmetry_Int_Tables_number   1
_chemical_formula_structural   Sr3Nd4As12Pd17
_chemical_formula_sum   'Sr3 Nd4 As12 Pd17'
_cell_volume   699.76593691
_cell_formula_units_Z   1
loop_
 _symmetry_equiv_pos_site_id
 _symmetry_equiv_pos_as_xyz
  1  'x, y, z'
loop_
 _atom_site_type_symbol
 _atom_site_label
 _atom_site_symmetry_multiplicity
 _atom_site_fract_x
 _atom_site_fract_y
 _atom_site_fract_z
 _atom_site_occupancy
  Sr  Sr0  1  0.500000  0.500000  0.500000  1
  Sr  Sr1  1  0.367366  0.367366  0.999659  1
  Sr  Sr2  1  0.632634  0.632634  0.000341  1
  Nd  Nd3  1  0.232804  0.232804  0.314949  1
  Nd  Nd4  1  0.767196  0.767196  0.685051  1
  Nd  Nd5  1  0.419658  0.419658  0.259835  1
  Nd  Nd6  1  0.580342  0.580342  0.740165  1
  As  As7  1  0.061461  0.061461  0.924977  1
  As  As8  1  0.938539  0.938539  0.075023  1
  As  As9  1  0.886327  0.886327  0.825826  1
  As  As10  1  0.113673  0.113673  0.174174  1
  As  As11  1  0.189773  0.189773  0.618892  1
  As  As12  1  0.810227  0.810227  0.381108  1
  As  As13  1  0.364913  0.364913  0.580508  1
  As  As14  1  0.635087  0.635087  0.419492  1
  As  As15  1  0.011999  0.011999  0.672473  1
  As  As16  1  0.988001  0.988001  0.327527  1
  As  As17  1  0.233967  0.233967  0.882679  1
  As  As18  1  0.766033  0.766033  0.117321  1
  Pd  Pd19  1  0.837692  0.837692  0.195808  1
  Pd  Pd20  1  0.162308  0.162308  0.804192  1
  Pd  Pd21  1  0.023728  0.023728  0.129013  1
  Pd  Pd22  1  0.976272  0.976272  0.870987  1
  Pd  Pd23  1  0.886860  0.886860  0.458401  1
  Pd  Pd24  1  0.113140  0.113140  0.541599  1
  Pd  Pd25  1  0.500000  0.500000  0.000000  1
  Pd  Pd26  1  0.548322  0.548322  0.257037  1
  Pd  Pd27  1  0.451678  0.451678  0.742963  1
  Pd  Pd28  1  0.295473  0.295473  0.489828  1
  Pd  Pd29  1  0.704527  0.704527  0.510172  1
  Pd  Pd30  1  0.664933  0.664933  0.224376  1
  Pd  Pd31  1  0.335067  0.335067  0.775624  1
  Pd  Pd32  1  0.905072  0.905072  0.640812  1
  Pd  Pd33  1  0.094928  0.094928  0.359188  1
  Pd  Pd34  1  0.220696  0.220696  0.071997  1
  Pd  Pd35  1  0.779304  0.779304  0.928003  1
