# generated using pymatgen
data_Ca2Yb3Bi3Br
_symmetry_space_group_name_H-M   'P 1'
_cell_length_a   9.38403700
_cell_length_b   9.38403774
_cell_length_c   7.16922200
_cell_angle_alpha   90.00000000
_cell_angle_beta   90.00000000
_cell_angle_gamma   120.00000091
_symmetry_Int_Tables_number   1
_chemical_formula_structural   Ca2Yb3Bi3Br
_chemical_formula_sum   'Ca4 Yb6 Bi6 Br2'
_cell_volume   546.74159302
_cell_formula_units_Z   2
loop_
 _symmetry_equiv_pos_site_id
 _symmetry_equiv_pos_as_xyz
  1  'x, y, z'
loop_
 _atom_site_type_symbol
 _atom_site_label
 _atom_site_symmetry_multiplicity
 _atom_site_fract_x
 _atom_site_fract_y
 _atom_site_fract_z
 _atom_site_occupancy
  Ca  Ca0  1  0.333333  0.666667  0.500000  1
  Ca  Ca1  1  0.333333  0.666667  0.000000  1
  Ca  Ca2  1  0.666667  0.333333  0.500000  1
  Ca  Ca3  1  0.666667  0.333333  0.000000  1
  Yb  Yb4  1  0.740018  0.000000  0.750000  1
  Yb  Yb5  1  0.000000  0.259982  0.250000  1
  Yb  Yb6  1  0.740018  0.740018  0.250000  1
  Yb  Yb7  1  0.259982  0.000000  0.250000  1
  Yb  Yb8  1  0.259982  0.259982  0.750000  1
  Yb  Yb9  1  0.000000  0.740018  0.750000  1
  Bi  Bi10  1  0.391758  0.000000  0.750000  1
  Bi  Bi11  1  0.608242  0.000000  0.250000  1
  Bi  Bi12  1  0.000000  0.608242  0.250000  1
  Bi  Bi13  1  0.608242  0.608242  0.750000  1
  Bi  Bi14  1  0.000000  0.391758  0.750000  1
  Bi  Bi15  1  0.391758  0.391758  0.250000  1
  Br  Br16  1  0.000000  0.000000  0.500000  1
  Br  Br17  1  0.000000  0.000000  0.000000  1
