# generated using pymatgen
data_Ho3Er(NiAs)4
_symmetry_space_group_name_H-M   'P 1'
_cell_length_a   4.03962800
_cell_length_b   4.03962809
_cell_length_c   15.44890500
_cell_angle_alpha   90.00000000
_cell_angle_beta   90.00000000
_cell_angle_gamma   120.00001562
_symmetry_Int_Tables_number   1
_chemical_formula_structural   Ho3Er(NiAs)4
_chemical_formula_sum   'Ho3 Er1 Ni4 As4'
_cell_volume   218.32879786
_cell_formula_units_Z   1
loop_
 _symmetry_equiv_pos_site_id
 _symmetry_equiv_pos_as_xyz
  1  'x, y, z'
loop_
 _atom_site_type_symbol
 _atom_site_label
 _atom_site_symmetry_multiplicity
 _atom_site_fract_x
 _atom_site_fract_y
 _atom_site_fract_z
 _atom_site_occupancy
  Ho  Ho0  1  0.000000  0.000000  0.250207  1
  Ho  Ho1  1  0.000000  0.000000  0.999597  1
  Ho  Ho2  1  0.000000  0.000000  0.500419  1
  Er  Er3  1  0.000000  0.000000  0.749936  1
  Ni  Ni4  1  0.333333  0.666667  0.132492  1
  Ni  Ni5  1  0.666667  0.333333  0.864625  1
  Ni  Ni6  1  0.666667  0.333333  0.634153  1
  Ni  Ni7  1  0.333333  0.666667  0.368389  1
  As  As8  1  0.333333  0.666667  0.621003  1
  As  As9  1  0.666667  0.333333  0.379193  1
  As  As10  1  0.666667  0.333333  0.120873  1
  As  As11  1  0.333333  0.666667  0.879114  1
