# generated using pymatgen
data_Ta5Ti7Ga8(RhC)4
_symmetry_space_group_name_H-M   'P 1'
_cell_length_a   8.24275653
_cell_length_b   8.23249679
_cell_length_c   8.24137505
_cell_angle_alpha   60.01515498
_cell_angle_beta   59.88853282
_cell_angle_gamma   60.05868062
_symmetry_Int_Tables_number   1
_chemical_formula_structural   Ta5Ti7Ga8(RhC)4
_chemical_formula_sum   'Ta5 Ti7 Ga8 Rh4 C4'
_cell_volume   395.33304341
_cell_formula_units_Z   1
loop_
 _symmetry_equiv_pos_site_id
 _symmetry_equiv_pos_as_xyz
  1  'x, y, z'
loop_
 _atom_site_type_symbol
 _atom_site_label
 _atom_site_symmetry_multiplicity
 _atom_site_fract_x
 _atom_site_fract_y
 _atom_site_fract_z
 _atom_site_occupancy
  Ta  Ta0  1  0.938440  0.936497  0.562240  1
  Ta  Ta1  1  0.689733  0.312429  0.309899  1
  Ta  Ta2  1  0.310710  0.688514  0.689392  1
  Ta  Ta3  1  0.687963  0.686478  0.312193  1
  Ta  Ta4  1  0.688274  0.312516  0.687460  1
  Ti  Ti5  1  0.313059  0.687710  0.311820  1
  Ti  Ti6  1  0.563138  0.938076  0.562056  1
  Ti  Ti7  1  0.562946  0.936861  0.937695  1
  Ti  Ti8  1  0.939148  0.563480  0.561894  1
  Ti  Ti9  1  0.937631  0.563316  0.936562  1
  Ti  Ti10  1  0.311671  0.312813  0.688493  1
  Ti  Ti11  1  0.561486  0.562284  0.939236  1
  Ga  Ga12  1  0.913478  0.263770  0.910974  1
  Ga  Ga13  1  0.335095  0.334120  0.990966  1
  Ga  Ga14  1  0.994470  0.336412  0.334959  1
  Ga  Ga15  1  0.334253  0.339188  0.339525  1
  Ga  Ga16  1  0.262941  0.913648  0.912631  1
  Ga  Ga17  1  0.910660  0.911688  0.916569  1
  Ga  Ga18  1  0.912498  0.910668  0.260170  1
  Ga  Ga19  1  0.336432  0.989938  0.334264  1
  Rh  Rh20  1  0.125981  0.624847  0.123187  1
  Rh  Rh21  1  0.124172  0.123140  0.625471  1
  Rh  Rh22  1  0.623798  0.126603  0.125359  1
  Rh  Rh23  1  0.122067  0.124449  0.126977  1
  C  C24  1  0.621201  0.124617  0.626874  1
  C  C25  1  0.624258  0.627181  0.121612  1
  C  C26  1  0.127318  0.621476  0.624239  1
  C  C27  1  0.627177  0.627278  0.627282  1
