# generated using pymatgen
data_Tb8Y7Er5Sn16
_symmetry_space_group_name_H-M   'P 1'
_cell_length_a   8.03003869
_cell_length_b   8.17839327
_cell_length_c   15.46450500
_cell_angle_alpha   90.01474010
_cell_angle_beta   89.97633260
_cell_angle_gamma   90.00007615
_symmetry_Int_Tables_number   1
_chemical_formula_structural   Tb8Y7Er5Sn16
_chemical_formula_sum   'Tb8 Y7 Er5 Sn16'
_cell_volume   1015.59744555
_cell_formula_units_Z   1
loop_
 _symmetry_equiv_pos_site_id
 _symmetry_equiv_pos_as_xyz
  1  'x, y, z'
loop_
 _atom_site_type_symbol
 _atom_site_label
 _atom_site_symmetry_multiplicity
 _atom_site_fract_x
 _atom_site_fract_y
 _atom_site_fract_z
 _atom_site_occupancy
  Tb  Tb0  1  0.518746  0.321140  0.902950  1
  Tb  Tb1  1  0.018911  0.179173  0.597245  1
  Tb  Tb2  1  0.481220  0.679274  0.403093  1
  Tb  Tb3  1  0.981337  0.820338  0.096390  1
  Tb  Tb4  1  0.480955  0.679528  0.096862  1
  Tb  Tb5  1  0.981248  0.820593  0.403171  1
  Tb  Tb6  1  0.519006  0.320881  0.597203  1
  Tb  Tb7  1  0.018713  0.179454  0.903024  1
  Y  Y8  1  0.366356  0.837343  0.877699  1
  Y  Y9  1  0.866012  0.662712  0.622735  1
  Y  Y10  1  0.633695  0.163074  0.377480  1
  Y  Y11  1  0.134010  0.337057  0.122669  1
  Y  Y12  1  0.634089  0.163029  0.121906  1
  Y  Y13  1  0.134141  0.336912  0.377480  1
  Y  Y14  1  0.366140  0.836737  0.623047  1
  Er  Er15  1  0.865486  0.662388  0.876839  1
  Er  Er16  1  0.197074  0.503181  0.750216  1
  Er  Er17  1  0.697536  0.996826  0.750339  1
  Er  Er18  1  0.802531  0.497143  0.249735  1
  Er  Er19  1  0.302663  0.003025  0.249984  1
  Sn  Sn20  1  0.294537  0.037535  0.041882  1
  Sn  Sn21  1  0.794551  0.462854  0.458107  1
  Sn  Sn22  1  0.705402  0.962758  0.542043  1
  Sn  Sn23  1  0.203551  0.538061  0.958011  1
  Sn  Sn24  1  0.706572  0.960886  0.957838  1
  Sn  Sn25  1  0.205579  0.537425  0.541968  1
  Sn  Sn26  1  0.294646  0.037211  0.458236  1
  Sn  Sn27  1  0.794877  0.463408  0.040937  1
  Sn  Sn28  1  0.563101  0.618287  0.750407  1
  Sn  Sn29  1  0.062560  0.881250  0.750285  1
  Sn  Sn30  1  0.437019  0.381862  0.249921  1
  Sn  Sn31  1  0.936857  0.117990  0.249971  1
  Sn  Sn32  1  0.328431  0.148844  0.750092  1
  Sn  Sn33  1  0.828432  0.351836  0.750282  1
  Sn  Sn34  1  0.671866  0.851393  0.249979  1
  Sn  Sn35  1  0.172148  0.648590  0.249973  1
