# generated using pymatgen
data_RbPrDy2F10
_symmetry_space_group_name_H-M   'P 1'
_cell_length_a   8.46766440
_cell_length_b   8.46766039
_cell_length_c   8.32884700
_cell_angle_alpha   60.54071419
_cell_angle_beta   60.54073801
_cell_angle_gamma   58.91816371
_symmetry_Int_Tables_number   1
_chemical_formula_structural   RbPrDy2F10
_chemical_formula_sum   'Rb2 Pr2 Dy4 F20'
_cell_volume   422.05196814
_cell_formula_units_Z   2
loop_
 _symmetry_equiv_pos_site_id
 _symmetry_equiv_pos_as_xyz
  1  'x, y, z'
loop_
 _atom_site_type_symbol
 _atom_site_label
 _atom_site_symmetry_multiplicity
 _atom_site_fract_x
 _atom_site_fract_y
 _atom_site_fract_z
 _atom_site_occupancy
  Rb  Rb0  1  0.250002  0.250000  0.250000  1
  Rb  Rb1  1  0.749998  0.750000  0.750000  1
  Pr  Pr2  1  0.241273  0.241273  0.758728  1
  Pr  Pr3  1  0.758727  0.758727  0.241272  1
  Dy  Dy4  1  0.760257  0.239744  0.239743  1
  Dy  Dy5  1  0.239743  0.760256  0.760257  1
  Dy  Dy6  1  0.239744  0.760257  0.239743  1
  Dy  Dy7  1  0.760256  0.239743  0.760257  1
  F  F8  1  0.832463  0.490271  0.509728  1
  F  F9  1  0.167537  0.509729  0.490272  1
  F  F10  1  0.490270  0.832465  0.167535  1
  F  F11  1  0.509730  0.167535  0.832465  1
  F  F12  1  0.490271  0.832463  0.509728  1
  F  F13  1  0.167535  0.509730  0.832465  1
  F  F14  1  0.509729  0.167537  0.490272  1
  F  F15  1  0.832465  0.490270  0.167535  1
  F  F16  1  0.500000  0.500000  0.823897  1
  F  F17  1  0.500000  0.500000  0.176103  1
  F  F18  1  0.176102  0.823898  0.500000  1
  F  F19  1  0.823898  0.176102  0.500000  1
  F  F20  1  0.106378  0.106378  0.118845  1
  F  F21  1  0.893622  0.893622  0.881155  1
  F  F22  1  0.106380  0.106381  0.668397  1
  F  F23  1  0.118845  0.668398  0.106378  1
  F  F24  1  0.893620  0.893619  0.331603  1
  F  F25  1  0.881155  0.331602  0.893622  1
  F  F26  1  0.668399  0.118845  0.106378  1
  F  F27  1  0.331601  0.881155  0.893622  1
