# generated using pymatgen
data_Sc4TiBe4FeRh10
_symmetry_space_group_name_H-M   'P 1'
_cell_length_a   9.45239500
_cell_length_b   9.45239500
_cell_length_c   3.14030400
_cell_angle_alpha   90.00000000
_cell_angle_beta   90.00000000
_cell_angle_gamma   90.00000000
_symmetry_Int_Tables_number   1
_chemical_formula_structural   Sc4TiBe4FeRh10
_chemical_formula_sum   'Sc4 Ti1 Be4 Fe1 Rh10'
_cell_volume   280.57916340
_cell_formula_units_Z   1
loop_
 _symmetry_equiv_pos_site_id
 _symmetry_equiv_pos_as_xyz
  1  'x, y, z'
loop_
 _atom_site_type_symbol
 _atom_site_label
 _atom_site_symmetry_multiplicity
 _atom_site_fract_x
 _atom_site_fract_y
 _atom_site_fract_z
 _atom_site_occupancy
  Sc  Sc0  1  0.823002  0.326540  0.000000  1
  Sc  Sc1  1  0.326540  0.176998  0.000000  1
  Sc  Sc2  1  0.673460  0.823002  0.000000  1
  Sc  Sc3  1  0.176998  0.673460  0.000000  1
  Ti  Ti4  1  0.000000  0.000000  0.000000  1
  Be  Be5  1  0.622230  0.124794  0.000000  1
  Be  Be6  1  0.124794  0.377770  0.000000  1
  Be  Be7  1  0.875206  0.622230  0.000000  1
  Be  Be8  1  0.377770  0.875206  0.000000  1
  Fe  Fe9  1  0.500000  0.500000  0.000000  1
  Rh  Rh10  1  0.070223  0.210102  0.500000  1
  Rh  Rh11  1  0.210102  0.929777  0.500000  1
  Rh  Rh12  1  0.789898  0.070223  0.500000  1
  Rh  Rh13  1  0.929777  0.789898  0.500000  1
  Rh  Rh14  1  0.430021  0.708010  0.500000  1
  Rh  Rh15  1  0.569979  0.291990  0.500000  1
  Rh  Rh16  1  0.708010  0.569979  0.500000  1
  Rh  Rh17  1  0.291990  0.430021  0.500000  1
  Rh  Rh18  1  0.500000  0.000000  0.500000  1
  Rh  Rh19  1  0.000000  0.500000  0.500000  1
