# generated using pymatgen
data_Hf2Sc2Co3Si4Ru
_symmetry_space_group_name_H-M   'P 1'
_cell_length_a   3.97927000
_cell_length_b   6.43968133
_cell_length_c   7.02363155
_cell_angle_alpha   89.50921282
_cell_angle_beta   90.00000000
_cell_angle_gamma   90.00000000
_symmetry_Int_Tables_number   1
_chemical_formula_structural   Hf2Sc2Co3Si4Ru
_chemical_formula_sum   'Hf2 Sc2 Co3 Si4 Ru1'
_cell_volume   179.97557588
_cell_formula_units_Z   1
loop_
 _symmetry_equiv_pos_site_id
 _symmetry_equiv_pos_as_xyz
  1  'x, y, z'
loop_
 _atom_site_type_symbol
 _atom_site_label
 _atom_site_symmetry_multiplicity
 _atom_site_fract_x
 _atom_site_fract_y
 _atom_site_fract_z
 _atom_site_occupancy
  Hf  Hf0  1  0.250000  0.498276  0.201291  1
  Hf  Hf1  1  0.750000  0.499464  0.801479  1
  Sc  Sc2  1  0.250000  0.994999  0.309292  1
  Sc  Sc3  1  0.750000  0.999434  0.690010  1
  Co  Co4  1  0.250000  0.653346  0.561835  1
  Co  Co5  1  0.750000  0.842675  0.064565  1
  Co  Co6  1  0.750000  0.355081  0.431246  1
  Si  Si7  1  0.250000  0.292510  0.601504  1
  Si  Si8  1  0.250000  0.782528  0.893961  1
  Si  Si9  1  0.750000  0.712534  0.390467  1
  Si  Si10  1  0.750000  0.209563  0.118277  1
  Ru  Ru11  1  0.250000  0.159590  0.936074  1
