# generated using pymatgen
data_La3MgGaSe7
_symmetry_space_group_name_H-M   'P 1'
_cell_length_a   10.68857400
_cell_length_b   10.68938172
_cell_length_c   6.42730000
_cell_angle_alpha   90.00000000
_cell_angle_beta   90.00000000
_cell_angle_gamma   120.00227368
_symmetry_Int_Tables_number   1
_chemical_formula_structural   La3MgGaSe7
_chemical_formula_sum   'La6 Mg2 Ga2 Se14'
_cell_volume   635.94800194
_cell_formula_units_Z   2
loop_
 _symmetry_equiv_pos_site_id
 _symmetry_equiv_pos_as_xyz
  1  'x, y, z'
loop_
 _atom_site_type_symbol
 _atom_site_label
 _atom_site_symmetry_multiplicity
 _atom_site_fract_x
 _atom_site_fract_y
 _atom_site_fract_z
 _atom_site_occupancy
  La  La0  1  0.625227  0.767646  0.228924  1
  La  La1  1  0.232366  0.857543  0.229062  1
  La  La2  1  0.142482  0.374853  0.229048  1
  La  La3  1  0.767634  0.142457  0.729061  1
  La  La4  1  0.374773  0.232354  0.728925  1
  La  La5  1  0.857518  0.625147  0.729049  1
  Mg  Mg6  1  0.000373  0.000297  0.017625  1
  Mg  Mg7  1  0.999627  0.999703  0.517624  1
  Ga  Ga8  1  0.666637  0.333339  0.145182  1
  Ga  Ga9  1  0.333363  0.666661  0.645182  1
  Se  Se10  1  0.905717  0.422093  0.995187  1
  Se  Se11  1  0.577839  0.483591  0.995159  1
  Se  Se12  1  0.516318  0.094299  0.995171  1
  Se  Se13  1  0.333349  0.666687  0.018734  1
  Se  Se14  1  0.240170  0.147143  0.276161  1
  Se  Se15  1  0.906866  0.759621  0.275864  1
  Se  Se16  1  0.852768  0.093117  0.275883  1
  Se  Se17  1  0.422161  0.516409  0.495160  1
  Se  Se18  1  0.094283  0.577907  0.495188  1
  Se  Se19  1  0.483682  0.905701  0.495170  1
  Se  Se20  1  0.666651  0.333313  0.518735  1
  Se  Se21  1  0.093134  0.240379  0.775863  1
  Se  Se22  1  0.759830  0.852857  0.776160  1
  Se  Se23  1  0.147232  0.906883  0.775881  1
