# generated using pymatgen
data_Tb3YbAl18ZnIr5
_symmetry_space_group_name_H-M   'P 1'
_cell_length_a   7.59311287
_cell_length_b   7.58971860
_cell_length_c   9.48182835
_cell_angle_alpha   90.03003473
_cell_angle_beta   89.96187873
_cell_angle_gamma   119.48773589
_symmetry_Int_Tables_number   1
_chemical_formula_structural   Tb3YbAl18ZnIr5
_chemical_formula_sum   'Tb3 Yb1 Al18 Zn1 Ir5'
_cell_volume   475.64930770
_cell_formula_units_Z   1
loop_
 _symmetry_equiv_pos_site_id
 _symmetry_equiv_pos_as_xyz
  1  'x, y, z'
loop_
 _atom_site_type_symbol
 _atom_site_label
 _atom_site_symmetry_multiplicity
 _atom_site_fract_x
 _atom_site_fract_y
 _atom_site_fract_z
 _atom_site_occupancy
  Tb  Tb0  1  0.004309  0.325875  0.750279  1
  Tb  Tb1  1  0.675103  0.995896  0.249836  1
  Tb  Tb2  1  0.324149  0.002785  0.750273  1
  Yb  Yb3  1  0.995618  0.675043  0.250470  1
  Al  Al4  1  0.135485  0.136951  0.256329  1
  Al  Al5  1  0.865030  0.864491  0.743963  1
  Al  Al6  1  0.002084  0.346162  0.079830  1
  Al  Al7  1  0.996937  0.655974  0.922649  1
  Al  Al8  1  0.999643  0.664197  0.570151  1
  Al  Al9  1  0.334333  0.998262  0.426578  1
  Al  Al10  1  0.999838  0.336873  0.427301  1
  Al  Al11  1  0.664289  0.999939  0.572435  1
  Al  Al12  1  0.655665  0.997517  0.920708  1
  Al  Al13  1  0.344194  0.001320  0.079720  1
  Al  Al14  1  0.333325  0.332872  0.550143  1
  Al  Al15  1  0.668055  0.667190  0.448466  1
  Al  Al16  1  0.657414  0.656840  0.059003  1
  Al  Al17  1  0.342162  0.342105  0.941861  1
  Al  Al18  1  0.341481  0.551890  0.251434  1
  Al  Al19  1  0.661283  0.449731  0.748484  1
  Al  Al20  1  0.550649  0.338313  0.251324  1
  Al  Al21  1  0.450506  0.660966  0.748795  1
  Zn  Zn22  1  0.000039  0.000507  0.999646  1
  Ir  Ir23  1  0.671123  0.327428  0.999210  1
  Ir  Ir24  1  0.327889  0.671195  0.999110  1
  Ir  Ir25  1  0.328900  0.671261  0.501077  1
  Ir  Ir26  1  0.670509  0.327298  0.500439  1
  Ir  Ir27  1  0.999988  0.001120  0.500488  1
