# generated using pymatgen
data_Np2GaIr3
_symmetry_space_group_name_H-M   'P 1'
_cell_length_a   5.61513873
_cell_length_b   5.00737119
_cell_length_c   5.61513800
_cell_angle_alpha   55.89666352
_cell_angle_beta   60.00000432
_cell_angle_gamma   55.89666183
_symmetry_Int_Tables_number   1
_chemical_formula_structural   Np2GaIr3
_chemical_formula_sum   'Np2 Ga1 Ir3'
_cell_volume   104.20523345
_cell_formula_units_Z   1
loop_
 _symmetry_equiv_pos_site_id
 _symmetry_equiv_pos_as_xyz
  1  'x, y, z'
loop_
 _atom_site_type_symbol
 _atom_site_label
 _atom_site_symmetry_multiplicity
 _atom_site_fract_x
 _atom_site_fract_y
 _atom_site_fract_z
 _atom_site_occupancy
  Np  Np0  1  0.229700  0.310900  0.229700  1
  Np  Np1  1  0.020300  0.939100  0.020300  1
  Ga  Ga2  1  0.625000  0.125000  0.625000  1
  Ir  Ir3  1  0.125000  0.625000  0.625000  1
  Ir  Ir4  1  0.625000  0.625000  0.125000  1
  Ir  Ir5  1  0.625000  0.625000  0.625000  1
