# generated using pymatgen
data_Na2Nb3CoNi8As7
_symmetry_space_group_name_H-M   'P 1'
_cell_length_a   9.63890782
_cell_length_b   9.64441726
_cell_length_c   3.83065700
_cell_angle_alpha   90.00000000
_cell_angle_beta   90.00000000
_cell_angle_gamma   120.24617983
_symmetry_Int_Tables_number   1
_chemical_formula_structural   Na2Nb3CoNi8As7
_chemical_formula_sum   'Na2 Nb3 Co1 Ni8 As7'
_cell_volume   307.62740434
_cell_formula_units_Z   1
loop_
 _symmetry_equiv_pos_site_id
 _symmetry_equiv_pos_as_xyz
  1  'x, y, z'
loop_
 _atom_site_type_symbol
 _atom_site_label
 _atom_site_symmetry_multiplicity
 _atom_site_fract_x
 _atom_site_fract_y
 _atom_site_fract_z
 _atom_site_occupancy
  Na  Na0  1  0.333223  0.666129  0.000000  1
  Na  Na1  1  0.666709  0.333327  0.500000  1
  Nb  Nb2  1  0.222217  0.121706  0.500000  1
  Nb  Nb3  1  0.878479  0.101313  0.500000  1
  Nb  Nb4  1  0.899432  0.778188  0.500000  1
  Co  Co5  1  0.122899  0.281786  0.000000  1
  Ni  Ni6  1  0.716317  0.841047  0.000000  1
  Ni  Ni7  1  0.158459  0.874895  0.000000  1
  Ni  Ni8  1  0.425723  0.366995  0.000000  1
  Ni  Ni9  1  0.633115  0.059260  0.000000  1
  Ni  Ni10  1  0.941651  0.573212  0.000000  1
  Ni  Ni11  1  0.051561  0.434793  0.500000  1
  Ni  Ni12  1  0.564843  0.616631  0.500000  1
  Ni  Ni13  1  0.383808  0.949399  0.500000  1
  As  As14  1  0.291111  0.416982  0.500000  1
  As  As15  1  0.581406  0.874454  0.500000  1
  As  As16  1  0.125072  0.707603  0.500000  1
  As  As17  1  0.420406  0.115067  0.000000  1
  As  As18  1  0.887572  0.305198  0.000000  1
  As  As19  1  0.695025  0.579639  0.000000  1
  As  As20  1  0.000971  0.002372  0.000000  1
