# generated using pymatgen
data_Ce6Al20Si4Tc3Ru5
_symmetry_space_group_name_H-M   'P 1'
_cell_length_a   8.82387900
_cell_length_b   8.82344498
_cell_length_c   9.58807601
_cell_angle_alpha   90.48358342
_cell_angle_beta   90.00000000
_cell_angle_gamma   120.00161593
_symmetry_Int_Tables_number   1
_chemical_formula_structural   Ce6Al20Si4Tc3Ru5
_chemical_formula_sum   'Ce6 Al20 Si4 Tc3 Ru5'
_cell_volume   646.44581458
_cell_formula_units_Z   1
loop_
 _symmetry_equiv_pos_site_id
 _symmetry_equiv_pos_as_xyz
  1  'x, y, z'
loop_
 _atom_site_type_symbol
 _atom_site_label
 _atom_site_symmetry_multiplicity
 _atom_site_fract_x
 _atom_site_fract_y
 _atom_site_fract_z
 _atom_site_occupancy
  Ce  Ce0  1  0.804418  0.608835  0.754163  1
  Ce  Ce1  1  0.195741  0.804518  0.250525  1
  Ce  Ce2  1  0.608777  0.804518  0.250525  1
  Ce  Ce3  1  0.391223  0.195482  0.749475  1
  Ce  Ce4  1  0.804259  0.195482  0.749475  1
  Ce  Ce5  1  0.195582  0.391165  0.245837  1
  Al  Al6  1  0.163291  0.326582  0.576079  1
  Al  Al7  1  0.674348  0.836038  0.578740  1
  Al  Al8  1  0.161690  0.836038  0.578740  1
  Al  Al9  1  0.835674  0.162026  0.078094  1
  Al  Al10  1  0.838310  0.163962  0.421260  1
  Al  Al11  1  0.837318  0.674634  0.080912  1
  Al  Al12  1  0.326351  0.162026  0.078094  1
  Al  Al13  1  0.673649  0.837974  0.921906  1
  Al  Al14  1  0.162682  0.325366  0.919088  1
  Al  Al15  1  0.836709  0.673418  0.423921  1
  Al  Al16  1  0.000192  0.000385  0.250110  1
  Al  Al17  1  0.999808  0.999615  0.749890  1
  Al  Al18  1  0.563989  0.127980  0.249991  1
  Al  Al19  1  0.436074  0.563985  0.748935  1
  Al  Al20  1  0.127910  0.563985  0.748935  1
  Al  Al21  1  0.872090  0.436015  0.251065  1
  Al  Al22  1  0.563926  0.436015  0.251065  1
  Al  Al23  1  0.436011  0.872020  0.750009  1
  Al  Al24  1  0.164326  0.837974  0.921906  1
  Al  Al25  1  0.325652  0.163962  0.421260  1
  Si  Si26  1  0.332966  0.665932  0.473274  1
  Si  Si27  1  0.666426  0.332852  0.974975  1
  Si  Si28  1  0.667034  0.334068  0.526726  1
  Si  Si29  1  0.333574  0.667148  0.025025  1
  Tc  Tc30  1  0.500000  0.000000  0.500000  1
  Tc  Tc31  1  0.500000  0.500000  0.000000  1
  Tc  Tc32  1  0.000000  0.500000  0.000000  1
  Ru  Ru33  1  0.000000  0.000000  0.500000  1
  Ru  Ru34  1  0.000000  0.000000  0.000000  1
  Ru  Ru35  1  0.000000  0.500000  0.500000  1
  Ru  Ru36  1  0.500000  0.500000  0.500000  1
  Ru  Ru37  1  0.500000  0.000000  0.000000  1
