# generated using pymatgen
data_HoZr3(Zn14Cu3)2
_symmetry_space_group_name_H-M   'P 1'
_cell_length_a   8.73257000
_cell_length_b   8.73256870
_cell_length_c   8.65769300
_cell_angle_alpha   90.00000000
_cell_angle_beta   90.00000000
_cell_angle_gamma   119.99978130
_symmetry_Int_Tables_number   1
_chemical_formula_structural   HoZr3(Zn14Cu3)2
_chemical_formula_sum   'Ho1 Zr3 Zn28 Cu6'
_cell_volume   571.76538195
_cell_formula_units_Z   1
loop_
 _symmetry_equiv_pos_site_id
 _symmetry_equiv_pos_as_xyz
  1  'x, y, z'
loop_
 _atom_site_type_symbol
 _atom_site_label
 _atom_site_symmetry_multiplicity
 _atom_site_fract_x
 _atom_site_fract_y
 _atom_site_fract_z
 _atom_site_occupancy
  Ho  Ho0  1  0.333323  0.666677  0.750000  1
  Zr  Zr1  1  0.999994  0.000006  0.750000  1
  Zr  Zr2  1  0.000007  0.999993  0.250000  1
  Zr  Zr3  1  0.666678  0.333322  0.250000  1
  Zn  Zn4  1  0.666674  0.333326  0.594101  1
  Zn  Zn5  1  0.333326  0.666674  0.402704  1
  Zn  Zn6  1  0.333326  0.666674  0.097296  1
  Zn  Zn7  1  0.666674  0.333326  0.905899  1
  Zn  Zn8  1  0.669557  0.034539  0.750000  1
  Zn  Zn9  1  0.364982  0.330437  0.750000  1
  Zn  Zn10  1  0.965468  0.635047  0.750000  1
  Zn  Zn11  1  0.364953  0.034532  0.750000  1
  Zn  Zn12  1  0.965461  0.330443  0.750000  1
  Zn  Zn13  1  0.669563  0.635018  0.750000  1
  Zn  Zn14  1  0.332124  0.967900  0.250000  1
  Zn  Zn15  1  0.635774  0.667889  0.250000  1
  Zn  Zn16  1  0.032087  0.364194  0.250000  1
  Zn  Zn17  1  0.635806  0.967913  0.250000  1
  Zn  Zn18  1  0.032100  0.667876  0.250000  1
  Zn  Zn19  1  0.332111  0.364226  0.250000  1
  Zn  Zn20  1  0.836128  0.672265  0.477788  1
  Zn  Zn21  1  0.836152  0.163848  0.477813  1
  Zn  Zn22  1  0.327735  0.163872  0.477788  1
  Zn  Zn23  1  0.163167  0.326323  0.520713  1
  Zn  Zn24  1  0.163140  0.836860  0.520686  1
  Zn  Zn25  1  0.673677  0.836833  0.520713  1
  Zn  Zn26  1  0.163167  0.326323  0.979287  1
  Zn  Zn27  1  0.163140  0.836860  0.979314  1
  Zn  Zn28  1  0.673677  0.836833  0.979287  1
  Zn  Zn29  1  0.836128  0.672265  0.022212  1
  Zn  Zn30  1  0.836152  0.163848  0.022187  1
  Zn  Zn31  1  0.327735  0.163872  0.022212  1
  Cu  Cu32  1  0.500418  0.000834  0.499605  1
  Cu  Cu33  1  0.500422  0.499578  0.499603  1
  Cu  Cu34  1  0.999166  0.499582  0.499605  1
  Cu  Cu35  1  0.500418  0.000834  0.000395  1
  Cu  Cu36  1  0.500422  0.499578  0.000397  1
  Cu  Cu37  1  0.999166  0.499582  0.000395  1
