# generated using pymatgen
data_Er3Hf(Al8Pt3)3
_symmetry_space_group_name_H-M   'P 1'
_cell_length_a   7.51949090
_cell_length_b   7.51780888
_cell_length_c   13.09215312
_cell_angle_alpha   84.50238829
_cell_angle_beta   100.97263867
_cell_angle_gamma   119.85381976
_symmetry_Int_Tables_number   1
_chemical_formula_structural   Er3Hf(Al8Pt3)3
_chemical_formula_sum   'Er3 Hf1 Al24 Pt9'
_cell_volume   630.15265253
_cell_formula_units_Z   1
loop_
 _symmetry_equiv_pos_site_id
 _symmetry_equiv_pos_as_xyz
  1  'x, y, z'
loop_
 _atom_site_type_symbol
 _atom_site_label
 _atom_site_symmetry_multiplicity
 _atom_site_fract_x
 _atom_site_fract_y
 _atom_site_fract_z
 _atom_site_occupancy
  Er  Er0  1  0.267194  0.000936  0.807658  1
  Er  Er1  1  0.061916  0.668238  0.192389  1
  Er  Er2  1  0.937896  0.331661  0.807705  1
  Hf  Hf3  1  0.733047  0.999478  0.192544  1
  Al  Al4  1  0.807414  0.869091  0.815570  1
  Al  Al5  1  0.187528  0.130878  0.184727  1
  Al  Al6  1  0.981884  0.666137  0.944210  1
  Al  Al7  1  0.015583  0.330990  0.058585  1
  Al  Al8  1  0.398218  0.663898  0.816846  1
  Al  Al9  1  0.601849  0.331110  0.183645  1
  Al  Al10  1  0.883087  0.665351  0.671153  1
  Al  Al11  1  0.114784  0.332738  0.326282  1
  Al  Al12  1  0.602664  0.457423  0.816008  1
  Al  Al13  1  0.402479  0.547553  0.184039  1
  Al  Al14  1  0.230154  0.339733  0.669855  1
  Al  Al15  1  0.768710  0.661924  0.327493  1
  Al  Al16  1  0.852761  0.332843  0.558740  1
  Al  Al17  1  0.185758  0.999715  0.558746  1
  Al  Al18  1  0.813302  0.000359  0.439758  1
  Al  Al19  1  0.355997  0.998539  0.058594  1
  Al  Al20  1  0.648203  0.001167  0.945560  1
  Al  Al21  1  0.556423  0.993705  0.671296  1
  Al  Al22  1  0.445018  0.006976  0.325964  1
  Al  Al23  1  0.521303  0.667579  0.561949  1
  Al  Al24  1  0.478866  0.332645  0.437478  1
  Al  Al25  1  0.684701  0.670845  0.050304  1
  Al  Al26  1  0.316367  0.332035  0.952635  1
  Al  Al27  1  0.146919  0.666735  0.440920  1
  Pt  Pt28  1  0.327902  0.671256  0.000908  1
  Pt  Pt29  1  0.545725  0.324368  0.636988  1
  Pt  Pt30  1  0.454182  0.676750  0.361756  1
  Pt  Pt31  1  0.888199  0.008558  0.638818  1
  Pt  Pt32  1  0.110298  0.990262  0.360035  1
  Pt  Pt33  1  0.672163  0.328758  0.000817  1
  Pt  Pt34  1  0.204059  0.666937  0.638827  1
  Pt  Pt35  1  0.796945  0.333431  0.360074  1
  Pt  Pt36  1  0.000500  0.999397  0.001125  1
