# generated using pymatgen
data_ErLuThGa2
_symmetry_space_group_name_H-M   'P 1'
_cell_length_a   7.61996100
_cell_length_b   7.62664700
_cell_length_c   4.37813600
_cell_angle_alpha   90.00000000
_cell_angle_beta   90.00000000
_cell_angle_gamma   90.00000000
_symmetry_Int_Tables_number   1
_chemical_formula_structural   ErLuThGa2
_chemical_formula_sum   'Er2 Lu2 Th2 Ga4'
_cell_volume   254.43429093
_cell_formula_units_Z   2
loop_
 _symmetry_equiv_pos_site_id
 _symmetry_equiv_pos_as_xyz
  1  'x, y, z'
loop_
 _atom_site_type_symbol
 _atom_site_label
 _atom_site_symmetry_multiplicity
 _atom_site_fract_x
 _atom_site_fract_y
 _atom_site_fract_z
 _atom_site_occupancy
  Er  Er0  1  0.676010  0.175598  0.500000  1
  Er  Er1  1  0.176010  0.324402  0.500000  1
  Lu  Lu2  1  0.999995  0.004749  0.000000  1
  Lu  Lu3  1  0.499995  0.495251  0.000000  1
  Th  Th4  1  0.825468  0.673097  0.500000  1
  Th  Th5  1  0.325468  0.826903  0.500000  1
  Ga  Ga6  1  0.876482  0.374485  0.000000  1
  Ga  Ga7  1  0.376482  0.125515  0.000000  1
  Ga  Ga8  1  0.622045  0.883300  0.000000  1
  Ga  Ga9  1  0.122045  0.616700  0.000000  1
