# generated using pymatgen
data_HfZr4(ReTc)12
_symmetry_space_group_name_H-M   'P 1'
_cell_length_a   8.47091068
_cell_length_b   8.47091021
_cell_length_c   8.47091101
_cell_angle_alpha   109.46895499
_cell_angle_beta   109.46895824
_cell_angle_gamma   109.46896135
_symmetry_Int_Tables_number   1
_chemical_formula_structural   HfZr4(ReTc)12
_chemical_formula_sum   'Hf1 Zr4 Re12 Tc12'
_cell_volume   467.95574432
_cell_formula_units_Z   1
loop_
 _symmetry_equiv_pos_site_id
 _symmetry_equiv_pos_as_xyz
  1  'x, y, z'
loop_
 _atom_site_type_symbol
 _atom_site_label
 _atom_site_symmetry_multiplicity
 _atom_site_fract_x
 _atom_site_fract_y
 _atom_site_fract_z
 _atom_site_occupancy
  Hf  Hf0  1  0.373728  0.373728  0.373728  1
  Zr  Zr1  1  0.000225  0.000225  0.000225  1
  Zr  Zr2  1  0.626306  0.999964  0.999964  1
  Zr  Zr3  1  0.999964  0.626306  0.999964  1
  Zr  Zr4  1  0.999964  0.999964  0.626306  1
  Re  Re5  1  0.376356  0.194726  0.000442  1
  Re  Re6  1  0.181693  0.805377  0.805377  1
  Re  Re7  1  0.376356  0.000442  0.194726  1
  Re  Re8  1  0.194726  0.376356  0.000442  1
  Re  Re9  1  0.000442  0.376356  0.194726  1
  Re  Re10  1  0.805377  0.181693  0.805377  1
  Re  Re11  1  0.805377  0.805377  0.181693  1
  Re  Re12  1  0.000442  0.194726  0.376356  1
  Re  Re13  1  0.194726  0.000442  0.376356  1
  Re  Re14  1  0.623429  0.623429  0.817864  1
  Re  Re15  1  0.817864  0.623429  0.623429  1
  Re  Re16  1  0.623429  0.817864  0.623429  1
  Tc  Tc17  1  0.396393  0.676408  0.000085  1
  Tc  Tc18  1  0.719906  0.323667  0.323667  1
  Tc  Tc19  1  0.396393  0.000085  0.676408  1
  Tc  Tc20  1  0.676408  0.396393  0.000085  1
  Tc  Tc21  1  0.000085  0.396393  0.676408  1
  Tc  Tc22  1  0.323667  0.719906  0.323667  1
  Tc  Tc23  1  0.323667  0.323667  0.719906  1
  Tc  Tc24  1  0.000085  0.676408  0.396393  1
  Tc  Tc25  1  0.676408  0.000085  0.396393  1
  Tc  Tc26  1  0.603321  0.603321  0.279942  1
  Tc  Tc27  1  0.279942  0.603321  0.603321  1
  Tc  Tc28  1  0.603321  0.279942  0.603321  1
