# generated using pymatgen
data_Ho6Co16Si9P3Ru2
_symmetry_space_group_name_H-M   'P 1'
_cell_length_a   3.74491300
_cell_length_b   10.65793600
_cell_length_c   12.29948300
_cell_angle_alpha   90.00000000
_cell_angle_beta   90.00000000
_cell_angle_gamma   90.00000000
_symmetry_Int_Tables_number   1
_chemical_formula_structural   Ho6Co16Si9P3Ru2
_chemical_formula_sum   'Ho6 Co16 Si9 P3 Ru2'
_cell_volume   490.90979484
_cell_formula_units_Z   1
loop_
 _symmetry_equiv_pos_site_id
 _symmetry_equiv_pos_as_xyz
  1  'x, y, z'
loop_
 _atom_site_type_symbol
 _atom_site_label
 _atom_site_symmetry_multiplicity
 _atom_site_fract_x
 _atom_site_fract_y
 _atom_site_fract_z
 _atom_site_occupancy
  Ho  Ho0  1  0.000000  0.500000  0.524906  1
  Ho  Ho1  1  0.500000  0.000000  0.473621  1
  Ho  Ho2  1  0.500000  0.820418  0.204273  1
  Ho  Ho3  1  0.500000  0.179582  0.204273  1
  Ho  Ho4  1  0.000000  0.681425  0.795450  1
  Ho  Ho5  1  0.000000  0.318575  0.795450  1
  Co  Co6  1  0.000000  0.500000  0.983864  1
  Co  Co7  1  0.500000  0.000000  0.019816  1
  Co  Co8  1  0.500000  0.303079  0.429092  1
  Co  Co9  1  0.500000  0.696921  0.429092  1
  Co  Co10  1  0.000000  0.195951  0.570473  1
  Co  Co11  1  0.000000  0.804049  0.570473  1
  Co  Co12  1  0.500000  0.883278  0.704817  1
  Co  Co13  1  0.500000  0.116722  0.704817  1
  Co  Co14  1  0.000000  0.616986  0.295158  1
  Co  Co15  1  0.000000  0.383014  0.295158  1
  Co  Co16  1  0.500000  0.329760  0.993165  1
  Co  Co17  1  0.500000  0.670240  0.993165  1
  Co  Co18  1  0.000000  0.166306  0.009728  1
  Co  Co19  1  0.000000  0.833694  0.009728  1
  Co  Co20  1  0.500000  0.500000  0.697569  1
  Co  Co21  1  0.000000  0.000000  0.297191  1
  Si  Si22  1  0.500000  0.305624  0.614370  1
  Si  Si23  1  0.500000  0.694376  0.614370  1
  Si  Si24  1  0.000000  0.193193  0.384831  1
  Si  Si25  1  0.000000  0.806807  0.384831  1
  Si  Si26  1  0.500000  0.500000  0.883468  1
  Si  Si27  1  0.500000  0.850406  0.893400  1
  Si  Si28  1  0.500000  0.149594  0.893400  1
  Si  Si29  1  0.000000  0.650515  0.106978  1
  Si  Si30  1  0.000000  0.349485  0.106978  1
  P  P31  1  0.000000  0.000000  0.116923  1
  P  P32  1  0.500000  0.500000  0.345254  1
  P  P33  1  0.000000  0.000000  0.654377  1
  Ru  Ru34  1  0.500000  0.500000  0.156029  1
  Ru  Ru35  1  0.000000  0.000000  0.843511  1
