# generated using pymatgen
data_Hg2Bi2Sb3RhO14
_symmetry_space_group_name_H-M   'P 1'
_cell_length_a   7.39697285
_cell_length_b   7.31473679
_cell_length_c   7.39697341
_cell_angle_alpha   61.76524184
_cell_angle_beta   62.13242099
_cell_angle_gamma   61.76524664
_symmetry_Int_Tables_number   1
_chemical_formula_structural   Hg2Bi2Sb3RhO14
_chemical_formula_sum   'Hg2 Bi2 Sb3 Rh1 O14'
_cell_volume   294.95446212
_cell_formula_units_Z   1
loop_
 _symmetry_equiv_pos_site_id
 _symmetry_equiv_pos_as_xyz
  1  'x, y, z'
loop_
 _atom_site_type_symbol
 _atom_site_label
 _atom_site_symmetry_multiplicity
 _atom_site_fract_x
 _atom_site_fract_y
 _atom_site_fract_z
 _atom_site_occupancy
  Hg  Hg0  1  0.125000  0.125000  0.125000  1
  Hg  Hg1  1  0.125000  0.625000  0.125000  1
  Bi  Bi2  1  0.625000  0.125000  0.125000  1
  Bi  Bi3  1  0.125000  0.125000  0.625000  1
  Sb  Sb4  1  0.625000  0.625000  0.125000  1
  Sb  Sb5  1  0.125000  0.625000  0.625000  1
  Sb  Sb6  1  0.625000  0.125000  0.625000  1
  Rh  Rh7  1  0.625000  0.625000  0.625000  1
  O  O8  1  0.243279  0.251504  0.243279  1
  O  O9  1  0.307225  0.693027  0.307225  1
  O  O10  1  0.944552  0.949097  0.560769  1
  O  O11  1  0.543455  0.957406  0.543455  1
  O  O12  1  0.696482  0.713913  0.295410  1
  O  O13  1  0.954590  0.536087  0.553518  1
  O  O14  1  0.706545  0.292594  0.706545  1
  O  O15  1  0.305448  0.300903  0.689231  1
  O  O16  1  0.689231  0.300903  0.305448  1
  O  O17  1  0.295410  0.713913  0.696482  1
  O  O18  1  0.942775  0.556973  0.942775  1
  O  O19  1  0.553518  0.536087  0.954590  1
  O  O20  1  0.006721  0.998496  0.006721  1
  O  O21  1  0.560769  0.949097  0.944552  1
